data_PCOD9541870
_publ_section_title
;
Structure prediction by ZEFSAII (Michael W. Deem and Ramdas Pophale) SiO2 
 PCOD9541870
Probable space group: I 4
;
_chemical_formula_sum "Si O2"
_cell_formula_units_Z 58
_cell_length_a 11.181840
_cell_length_b 11.181840
_cell_length_c 20.932528
_cell_angle_alpha 90.000000
_cell_angle_beta 90.000000
_cell_angle_gamma 90.000000
_cell_volume 2617.268198
_symmetry_space_group_name_H-M "I 4"
_symmetry_group_IT_number 79
_symmetry_cell_setting 'tetragonal'
loop_
_space_group_symop_operation_xyz
x,y,z
-y,x,z
-x,-y,z
y,-x,z
1/2+x,1/2+y,1/2+z
1/2-y,1/2+x,1/2+z
1/2-x,1/2-y,1/2+z
1/2+y,1/2-x,1/2+z
loop_
_atom_site_type_symbol
_atom_site_label
_atom_site_fract_x
_atom_site_fract_y
_atom_site_fract_z
Si Si1 0.264200 0.931118 0.778260
Si Si2 0.308354 0.820531 0.307523
Si Si3 0.641655 0.016782 0.638401
Si Si4 0.710917 0.119639 0.060054
Si Si5 0.000000 0.000000 0.754285
Si Si6 0.330939 0.144260 0.022634
Si Si7 0.195046 0.951418 0.421965
Si Si8 0.680264 0.425215 0.694755
O O1 0.269478 0.802350 0.812737
O O2 0.297543 0.050055 0.818512
O O3 0.327944 0.949606 0.710442
O O4 0.125859 0.928654 0.757798
O O5 0.254459 0.919388 0.354364
O O6 0.287264 0.870629 0.236016
O O7 0.683278 0.900652 0.597077
O O8 0.500000 0.000000 0.636211
O O9 0.676725 0.128126 0.594386
O O10 0.789014 0.204944 0.015224
O O11 0.792601 0.079515 0.119874
O O12 0.673641 0.999361 0.022440
O O13 0.422503 0.203877 0.973940
O O14 0.082665 0.860511 0.428938
O O15 0.650525 0.561987 0.710829
#
# Coordination Sequence:
#
# PCOD9541870 Si02
#       8
#     8   8   8   8   2   8   8   8
#     4  10  21  38  61  95 132 166 209 264 326 383
#     4  11  23  40  66  96 133 175 217 266 326 391
#     4  10  22  36  58  93 131 164 206 269 325 381
#     4  11  21  38  62  94 130 167 216 271 328 390
#     4   8  20  36  52  88 132 160 204 248 300 390
#     4  11  24  41  63  91 130 172 217 270 324 383
#     4  11  26  50  70  91 125 170 225 270 315 396
#     4  11  21  36  60  93 131 170 212 266 333 390
#
# _framework density 22.160512000000001
#
# number of rings (size 3 to 8) (size 9 to 14) (size 15 to 20)
#    0.000    1.379    2.759    2.483    3.862    3.586 
#    0.000    1.379    0.000    1.655    0.000    0.000 
#    0.000    0.000    0.000    0.000    0.000    0.000 
#
# Total GULP energy -161638.949793 kJ/mol
# GULP energy per Si atom -5573.756889 kJ/mol
# Density = 2.211007 g / cm^3
# Si number density = 22.160512 Si / 1000 Ang^3
#
#
#
# Elastic Constant Matrix: (Units=GPa)
#
#
# Indices 1 2 3 4 5 6 
#
# 1 57.6946 12.2016 3.8837 0.0000 0.0000 -2.1088
# 2 12.2016 57.6946 3.8837 0.0000 0.0000 2.1088
# 3 3.8837 3.8837 32.2475 0.0000 0.0000 0.0000
# 4 0.0000 0.0000 0.0000 27.0604 0.0000 0.0000
# 5 0.0000 0.0000 0.0000 0.0000 27.0604 0.0000
# 6 -2.1088 2.1088 0.0000 0.0000 0.0000 31.4531
#
#
#
# Elastic Compliance Matrix: (Units=1/GPa)
#
#
# Indices 1 2 3 4 5 6 
#
# 1 0.018310 -0.003809 -0.001746 0.000000 0.000000 0.001483
# 2 -0.003809 0.018310 -0.001746 0.000000 0.000000 -0.001483
# 3 -0.001746 -0.001746 0.031431 0.000000 0.000000 0.000000
# 4 0.000000 0.000000 0.000000 0.036954 0.000000 0.000000
# 5 0.000000 0.000000 0.000000 0.000000 0.036954 0.000000
# 6 0.001483 -0.001483 0.000000 0.000000 0.000000 0.031992
#
#
# Mechanical properties :
#
#
# Convention : Reuss Voigt Hill
#
# Bulk Modulus (GPa) = 18.71005 20.84162 19.77584
# Shear Modulus (GPa) = 24.22821 25.62596 24.92708
#
# Velocity S-wave (km/s) = 3.31010 3.40425 3.35751
# Velocity P-wave (km/s) = 4.80316 4.98770 4.89630
#
# Compressibility (1/GPa) = 0.05344720
#
# Stress axis : x y z
#
# Youngs Moduli (GPa) = 54.61507 54.61507 31.81586
#
# Poissons Ratio (x) = 0.20803 0.05556
# Poissons Ratio (y) = 0.20803 0.05556
# Poissons Ratio (z) = 0.09538 0.09538
#
# Static dielectric constant tensor:
#      x y z
#    x 1.944340 0.000000 0.000000 
#    y 0.000000 1.944340 0.000000 
#    z 0.000000 0.000000 1.823460 
# 
# From -- ./inp_files/1888.got.cif
#   From: 2010.05.17/outbox.cif.g08.bks.cpg/sg79_cif.got.tgz:1888.got - 2010.06.03 18:47:27.
