data_PCOD9541075
_publ_section_title
;
Structure prediction by ZEFSAII (Michael W. Deem and Ramdas Pophale) SiO2 
 PCOD9541075
Probable space group: P 41
;
_chemical_formula_sum "Si O2"
_cell_formula_units_Z 32
_cell_length_a 6.796249
_cell_length_b 6.796249
_cell_length_c 22.487769
_cell_angle_alpha 90.000000
_cell_angle_beta 90.000000
_cell_angle_gamma 90.000000
_cell_volume 1038.687573
_symmetry_space_group_name_H-M "P 41"
_symmetry_group_IT_number 76
_symmetry_cell_setting 'tetragonal'
loop_
_space_group_symop_operation_xyz
x,y,z
-y,x,1/4+z
-x,-y,1/2+z
y,-x,3/4+z
loop_
_atom_site_type_symbol
_atom_site_label
_atom_site_fract_x
_atom_site_fract_y
_atom_site_fract_z
Si Si1 0.408654 0.028933 0.164530
Si Si2 0.438828 0.440642 0.386869
Si Si3 0.969534 0.393731 0.289234
Si Si4 0.102035 0.987438 0.433298
Si Si5 0.893731 0.469534 0.156631
Si Si6 0.940642 0.938828 0.058996
Si Si7 0.487438 0.602035 0.012567
Si Si8 0.908654 0.471067 0.031335
O O1 0.414333 0.791646 0.151727
O O2 0.463059 0.127820 0.101524
O O3 0.177459 0.040654 0.182676
O O4 0.545109 0.045109 0.222932
O O5 0.470148 0.674463 0.388098
O O6 0.469533 0.363617 0.319587
O O7 0.571416 0.376855 0.443395
O O8 0.029852 0.174463 0.307767
O O9 0.169623 0.519614 0.280522
O O10 0.881096 0.381096 0.222932
O O11 0.030467 0.863617 0.376278
O O12 0.123145 0.928584 0.502470
O O13 0.330377 0.019613 0.415343
O O14 0.963059 0.372180 0.094340
O O15 0.914333 0.708355 0.044138
O O16 0.677459 0.459346 0.013189
#
# Coordination Sequence:
#
# PCOD9541075 Si02
#       8
#     4   4   4   4   4   4   4   4
#     4   8  15  30  51  68  86 115 160 202 224 253
#     4   9  17  30  49  71  94 121 155 197 235 270
#     4  10  18  28  48  72  94 121 153 189 233 281
#     4   9  17  32  52  71  90 119 162 202 228 268
#     4  10  18  28  48  72  94 121 153 189 233 281
#     4   9  17  30  49  71  94 121 155 197 235 270
#     4   9  17  32  52  71  90 119 162 202 228 268
#     4   8  15  30  51  68  86 115 160 202 224 253
#
# _framework density 30.808112000000001
#
# number of rings (size 3 to 8) (size 9 to 14) (size 15 to 20)
#    0.000    3.000    0.000    2.250    0.000    2.000 
#    0.000    7.500    0.000    4.500    0.000    0.000 
#    0.000    0.000    0.000    0.000    0.000    0.000 
#
# Total GULP energy -178804.349280 kJ/mol
# GULP energy per Si atom -5587.635915 kJ/mol
# Density = 3.073799 g / cm^3
# Si number density = 30.808112 Si / 1000 Ang^3
#
#
#
# Elastic Constant Matrix: (Units=GPa)
#
#
# Indices 1 2 3 4 5 6 
#
# 1 85.6171 16.1065 16.2235 0.0000 0.0000 0.0000
# 2 16.1065 85.6171 16.2235 0.0000 0.0000 0.0000
# 3 16.2235 16.2235 416.3047 0.0000 0.0000 0.0000
# 4 0.0000 0.0000 0.0000 54.2480 0.0000 0.0000
# 5 0.0000 0.0000 0.0000 0.0000 54.2480 0.0000
# 6 0.0000 0.0000 0.0000 0.0000 0.0000 36.3726
#
#
#
# Elastic Compliance Matrix: (Units=1/GPa)
#
#
# Indices 1 2 3 4 5 6 
#
# 1 0.012170 -0.002216 -0.000388 0.000000 0.000000 0.000000
# 2 -0.002216 0.012170 -0.000388 0.000000 0.000000 0.000000
# 3 -0.000388 -0.000388 0.002432 0.000000 0.000000 0.000000
# 4 0.000000 0.000000 0.000000 0.018434 0.000000 0.000000
# 5 0.000000 0.000000 0.000000 0.000000 0.018434 0.000000
# 6 0.000000 0.000000 0.000000 0.000000 0.000000 0.027493
#
#
# Mechanical properties :
#
#
# Convention : Reuss Voigt Hill
#
# Bulk Modulus (GPa) = 48.10185 76.07178 62.08681
# Shear Modulus (GPa) = 48.05508 64.90610 56.48059
#
# Velocity S-wave (km/s) = 3.95374 4.59495 4.28635
# Velocity P-wave (km/s) = 6.04070 7.27305 6.68533
#
# Compressibility (1/GPa) = 0.02078922
#
# Stress axis : x y z
#
# Youngs Moduli (GPa) = 82.16730 82.16730 411.12989
#
# Poissons Ratio (x) = 0.18208 0.15949
# Poissons Ratio (y) = 0.18208 0.15949
# Poissons Ratio (z) = 0.03187 0.03187
#
# Static dielectric constant tensor:
#      x y z
#    x 2.401650 0.000000 0.000000 
#    y 0.000000 2.401650 0.000000 
#    z 0.000000 0.000000 2.538000 
# 
# From -- ./inp_files/1590.got.cif
#   From: 2010.05.17/outbox.cif.g08.bks.cpg/sg76_cif.got.tgz:1590.got - 2010.06.03 18:43:17.
