data_PCOD9541051
_publ_section_title
;
Structure prediction by ZEFSAII (Michael W. Deem and Ramdas Pophale) SiO2 
 PCOD9541051
Probable space group: P 4
;
_chemical_formula_sum "Si O2"
_cell_formula_units_Z 17
_cell_length_a 8.763658
_cell_length_b 8.763658
_cell_length_c 10.916854
_cell_angle_alpha 90.000000
_cell_angle_beta 90.000000
_cell_angle_gamma 90.000000
_cell_volume 838.432963
_symmetry_space_group_name_H-M "P 4"
_symmetry_group_IT_number 75
_symmetry_cell_setting 'tetragonal'
loop_
_space_group_symop_operation_xyz
x,y,z
-y,x,z
-x,-y,z
y,-x,z
loop_
_atom_site_type_symbol
_atom_site_label
_atom_site_fract_x
_atom_site_fract_y
_atom_site_fract_z
Si Si1 0.270036 0.618359 0.858450
Si Si2 0.500000 0.500000 0.578983
Si Si3 0.164683 0.580234 0.598437
Si Si4 0.883577 0.228560 0.356548
Si Si5 0.769018 0.884414 0.086407
O O1 0.303030 0.436743 0.859916
O O2 0.185826 0.658408 0.731646
O O3 0.174867 0.666921 0.976289
O O4 0.313966 0.473115 0.584973
O O5 0.160488 0.678058 0.474839
O O6 0.000000 0.500000 0.603518
O O7 0.850170 0.297159 0.221967
O O8 0.064264 0.196907 0.360308
O O9 0.934990 0.803274 0.078162
#
# Coordination Sequence:
#
# PCOD9541051 Si02
#       5
#     4   1   4   4   4
#     4  11  24  44  61  94 137 175 222 283 339 412
#     4  12  24  48  60 102 152 168 236 302 328 428
#     4  12  24  42  69  96 137 190 224 288 365 407
#     4   9  20  42  66  96 134 176 232 290 347 423
#     4   9  21  42  67  94 131 174 226 285 340 414
#
# _framework density 20.275922000000001
#
# number of rings (size 3 to 8) (size 9 to 14) (size 15 to 20)
#    0.000    1.647    2.353    2.824    3.294    0.000 
#   12.706    2.353    0.000    0.000    0.000    0.000 
#    0.000    0.000    0.000    0.000    0.000    0.000 
#
# Total GULP energy -94649.502152 kJ/mol
# GULP energy per Si atom -5567.617774 kJ/mol
# Density = 2.022977 g / cm^3
# Si number density = 20.275922 Si / 1000 Ang^3
#
#
#
# Elastic Constant Matrix: (Units=GPa)
#
#
# Indices 1 2 3 4 5 6 
#
# 1 70.7647 42.2400 73.6895 0.0000 0.0000 3.1351
# 2 42.2400 70.7647 73.6895 0.0000 0.0000 -3.1351
# 3 73.6895 73.6895 253.6252 0.0000 0.0000 0.0000
# 4 0.0000 0.0000 0.0000 29.1237 0.0000 0.0000
# 5 0.0000 0.0000 0.0000 0.0000 29.1237 0.0000
# 6 3.1351 -3.1351 0.0000 0.0000 0.0000 55.4111
#
#
#
# Elastic Compliance Matrix: (Units=1/GPa)
#
#
# Indices 1 2 3 4 5 6 
#
# 1 0.024874 -0.010625 -0.004140 0.000000 0.000000 -0.002008
# 2 -0.010625 0.024874 -0.004140 0.000000 0.000000 0.002008
# 3 -0.004140 -0.004140 0.006348 0.000000 0.000000 0.000000
# 4 0.000000 0.000000 0.000000 0.034336 0.000000 0.000000
# 5 0.000000 0.000000 0.000000 0.000000 0.034336 0.000000
# 6 -0.002008 0.002008 0.000000 0.000000 0.000000 0.018274
#
#
# Mechanical properties :
#
#
# Convention : Reuss Voigt Hill
#
# Bulk Modulus (GPa) = 54.68730 86.04362 70.36546
# Shear Modulus (GPa) = 26.74553 36.43407 31.58980
#
# Velocity S-wave (km/s) = 3.63585 4.24360 3.95143
# Velocity P-wave (km/s) = 6.68251 8.15716 7.45638
#
# Compressibility (1/GPa) = 0.01828578
#
# Stress axis : x y z
#
# Youngs Moduli (GPa) = 40.20337 40.20337 157.52054
#
# Poissons Ratio (x) = 0.42718 0.65209
# Poissons Ratio (y) = 0.42718 0.65209
# Poissons Ratio (z) = 0.16643 0.16643
#
# Static dielectric constant tensor:
#      x y z
#    x 1.730430 0.000000 0.000000 
#    y 0.000000 1.730430 0.000000 
#    z 0.000000 0.000000 1.741610 
# 
# From -- ./inp_files/279.got.cif
#   From: 2010.05.17/outbox.cif.g08.bks.cpg/sg75_cif.got.tgz:279.got - 2010.06.03 18:42:43.
