data_PCOD9541428
_publ_section_title
;
Structure prediction by ZEFSAII (Michael W. Deem and Ramdas Pophale) SiO2 
 PCOD9541428
Probable space group: P 41
;
_chemical_formula_sum "Si O2"
_cell_formula_units_Z 16
_cell_length_a 9.740840
_cell_length_b 9.740840
_cell_length_c 6.812473
_cell_angle_alpha 90.000000
_cell_angle_beta 90.000000
_cell_angle_gamma 90.000000
_cell_volume 646.394442
_symmetry_space_group_name_H-M "P 41"
_symmetry_group_IT_number 76
_symmetry_cell_setting 'tetragonal'
loop_
_space_group_symop_operation_xyz
x,y,z
-y,x,1/4+z
-x,-y,1/2+z
y,-x,3/4+z
loop_
_atom_site_type_symbol
_atom_site_label
_atom_site_fract_x
_atom_site_fract_y
_atom_site_fract_z
Si Si1 0.672671 0.849627 0.068960
Si Si2 0.055765 0.178019 0.366824
Si Si3 0.685345 0.463842 0.500880
Si Si4 0.063888 0.541743 0.724006
O O1 0.605865 0.862155 0.282908
O O2 0.835964 0.849021 0.044039
O O3 0.628844 0.718377 0.940943
O O4 0.597242 0.975867 0.957469
O O5 0.909994 0.119058 0.437884
O O6 0.034912 0.334241 0.296975
O O7 0.612528 0.593924 0.592033
O O8 0.823598 0.496050 0.385388
#
# Coordination Sequence:
#
# PCOD9541428 Si02
#       4
#     4   4   4   4
#     4  12  26  49  83 111 161 214 270 335 409 486
#     4  12  25  46  76 121 160 210 273 334 409 490
#     4  12  30  52  79 119 162 217 279 333 407 495
#     4  12  27  51  82 115 167 213 268 344 415 483
#
# _framework density 24.752686000000001
#
# number of rings (size 3 to 8) (size 9 to 14) (size 15 to 20)
#    0.000    0.000    5.000    3.000    3.500    6.000 
#    0.000    0.000    0.000    0.000    0.000    0.000 
#    0.000    0.000    0.000    0.000    0.000    0.000 
#
# Total GULP energy -89594.176968 kJ/mol
# GULP energy per Si atom -5599.636060 kJ/mol
# Density = 2.469635 g / cm^3
# Si number density = 24.752686 Si / 1000 Ang^3
#
#
#
# Elastic Constant Matrix: (Units=GPa)
#
#
# Indices 1 2 3 4 5 6 
#
# 1 88.7652 74.7325 20.5701 0.0000 0.0000 -17.7735
# 2 74.7325 88.7652 20.5701 0.0000 0.0000 17.7735
# 3 20.5701 20.5701 126.3321 0.0000 0.0000 0.0000
# 4 0.0000 0.0000 0.0000 45.7870 0.0000 0.0000
# 5 0.0000 0.0000 0.0000 0.0000 45.7870 0.0000
# 6 -17.7735 17.7735 0.0000 0.0000 0.0000 16.8450
#
#
#
# Elastic Compliance Matrix: (Units=1/GPa)
#
#
# Indices 1 2 3 4 5 6 
#
# 1 -0.018112 0.024489 -0.001038 0.000000 0.000000 -0.044949
# 2 0.024489 -0.018112 -0.001038 0.000000 0.000000 0.044949
# 3 -0.001038 -0.001038 0.008254 0.000000 0.000000 0.000000
# 4 0.000000 0.000000 0.000000 0.021840 0.000000 0.000000
# 5 0.000000 0.000000 0.000000 0.000000 0.021840 0.000000
# 6 -0.044949 0.044949 0.000000 0.000000 0.000000 -0.035489
#
#
# Mechanical properties :
#
#
# Convention : Reuss Voigt Hill
#
# Bulk Modulus (GPa) = 59.32866 59.51196 59.42031
# Shear Modulus (GPa) = -84.76748 34.21647 -25.27551
#
# Velocity S-wave (km/s) = -5.85834 3.72201 -3.19897
# Velocity P-wave (km/s) = 4.66257 6.52426 3.22695
#
# Compressibility (1/GPa) = 0.01685526
#
# Stress axis : x y z
#
# Youngs Moduli (GPa) = -55.21261 -55.21261 121.15615
#
# Poissons Ratio (x) = 1.35212 0.12581
# Poissons Ratio (y) = 1.35212 0.12581
# Poissons Ratio (z) = -0.05733 -0.05733
#
# Static dielectric constant tensor:
#      x y z
#    x 1.985500 0.000000 0.000000 
#    y 0.000000 1.985500 0.000000 
#    z 0.000000 0.000000 2.021010 
# 
# From -- ./inp_files/391.got.cif
#   From: 2010.05.17/outbox.cif.g08.bks.cpg/sg76_cif.got.tgz:391.got - 2010.06.03 18:43:17.
