data_PCOD9541317
_publ_section_title
;
Structure prediction by ZEFSAII (Michael W. Deem and Ramdas Pophale) SiO2 
 PCOD9541317
Probable space group: P 41
;
_chemical_formula_sum "Si O2"
_cell_formula_units_Z 28
_cell_length_a 7.452307
_cell_length_b 7.452307
_cell_length_c 20.122837
_cell_angle_alpha 90.000000
_cell_angle_beta 90.000000
_cell_angle_gamma 90.000000
_cell_volume 1117.559576
_symmetry_space_group_name_H-M "P 41"
_symmetry_group_IT_number 76
_symmetry_cell_setting 'tetragonal'
loop_
_space_group_symop_operation_xyz
x,y,z
-y,x,1/4+z
-x,-y,1/2+z
y,-x,3/4+z
loop_
_atom_site_type_symbol
_atom_site_label
_atom_site_fract_x
_atom_site_fract_y
_atom_site_fract_z
Si Si1 0.344449 0.503267 0.762800
Si Si2 0.070966 0.043915 0.710252
Si Si3 0.309926 0.705433 0.047724
Si Si4 0.358691 0.995295 0.946445
Si Si5 0.377069 0.265992 0.636397
Si Si6 0.112587 0.643231 0.555817
Si Si7 0.101099 0.284387 0.519884
O O1 0.494291 0.639742 0.790039
O O2 0.148610 0.581726 0.747986
O O3 0.400090 0.424596 0.690254
O O4 0.321866 0.326307 0.808642
O O5 0.219531 0.142516 0.667005
O O6 0.172385 0.027310 0.781060
O O7 0.882403 0.141656 0.722356
O O8 0.027802 0.850533 0.683198
O O9 0.425903 0.781660 0.109039
O O10 0.098502 0.753408 0.049617
O O11 0.379930 0.804832 0.980883
O O12 0.435820 0.030425 0.873422
O O13 0.271997 0.308339 0.567525
O O14 0.078711 0.491821 0.498587
#
# Coordination Sequence:
#
# PCOD9541317 Si02
#       7
#     4   4   4   4   4   4   4
#     4  11  23  42  66 103 133 182 227 275 346 398
#     4  10  25  42  68 100 134 178 234 279 344 405
#     4  11  26  43  69 102 135 179 229 277 345 407
#     4  11  24  44  67 102 134 185 224 285 343 400
#     4  11  24  42  71  98 136 184 222 286 339 410
#     4  11  23  43  68  96 139 181 224 285 338 402
#     4  11  23  44  65  97 135 177 224 279 339 402
#
# _framework density 25.054594999999999
#
# number of rings (size 3 to 8) (size 9 to 14) (size 15 to 20)
#    0.000    1.143    2.857    1.714    8.000    2.286 
#    2.571    2.857    0.000    0.000    0.000    0.000 
#    0.000    0.000    0.000    0.000    0.000    0.000 
#
# Total GULP energy -156293.887532 kJ/mol
# GULP energy per Si atom -5581.924555 kJ/mol
# Density = 2.499757 g / cm^3
# Si number density = 25.054595 Si / 1000 Ang^3
#
#
#
# Elastic Constant Matrix: (Units=GPa)
#
#
# Indices 1 2 3 4 5 6 
#
# 1 84.6729 -3.8948 2.8742 0.0000 0.0000 -4.4461
# 2 -3.8948 84.6729 2.8742 0.0000 0.0000 4.4461
# 3 2.8742 2.8742 45.7946 0.0000 0.0000 0.0000
# 4 0.0000 0.0000 0.0000 36.5267 0.0000 0.0000
# 5 0.0000 0.0000 0.0000 0.0000 36.5267 0.0000
# 6 -4.4461 4.4461 0.0000 0.0000 0.0000 36.5277
#
#
#
# Elastic Compliance Matrix: (Units=1/GPa)
#
#
# Indices 1 2 3 4 5 6 
#
# 1 0.011933 0.000502 -0.000780 0.000000 0.000000 0.001391
# 2 0.000502 0.011933 -0.000780 0.000000 0.000000 -0.001391
# 3 -0.000780 -0.000780 0.021935 0.000000 0.000000 0.000000
# 4 0.000000 0.000000 0.000000 0.027377 0.000000 0.000000
# 5 0.000000 0.000000 0.000000 0.000000 0.027377 0.000000
# 6 0.001391 -0.001391 0.000000 0.000000 0.000000 0.027715
#
#
# Mechanical properties :
#
#
# Convention : Reuss Voigt Hill
#
# Bulk Modulus (GPa) = 22.89218 24.31639 23.60429
# Shear Modulus (GPa) = 34.49508 36.13531 35.31520
#
# Velocity S-wave (km/s) = 3.71455 3.80183 3.75844
# Velocity P-wave (km/s) = 5.24918 5.38501 5.31753
#
# Compressibility (1/GPa) = 0.04368303
#
# Stress axis : x y z
#
# Youngs Moduli (GPa) = 83.80255 83.80255 45.59003
#
# Poissons Ratio (x) = -0.04210 0.03558
# Poissons Ratio (y) = -0.04210 0.03558
# Poissons Ratio (z) = 0.06541 0.06541
#
# Static dielectric constant tensor:
#      x y z
#    x 2.028550 0.000000 0.000000 
#    y 0.000000 2.028550 0.000000 
#    z 0.000000 0.000000 2.118590 
# 
# From -- ./inp_files/1379.got.cif
#   From: 2010.05.17/outbox.cif.g08.bks.cpg/sg76_cif.got.tgz:1379.got - 2010.06.03 18:43:17.
