data_PCOD9541375
_publ_section_title
;
Structure prediction by ZEFSAII (Michael W. Deem and Ramdas Pophale) SiO2 
 PCOD9541375
Probable space group: P 41
;
_chemical_formula_sum "Si O2"
_cell_formula_units_Z 28
_cell_length_a 11.385709
_cell_length_b 11.385709
_cell_length_c 9.025552
_cell_angle_alpha 90.000000
_cell_angle_beta 90.000000
_cell_angle_gamma 90.000000
_cell_volume 1170.021742
_symmetry_space_group_name_H-M "P 41"
_symmetry_group_IT_number 76
_symmetry_cell_setting 'tetragonal'
loop_
_space_group_symop_operation_xyz
x,y,z
-y,x,1/4+z
-x,-y,1/2+z
y,-x,3/4+z
loop_
_atom_site_type_symbol
_atom_site_label
_atom_site_fract_x
_atom_site_fract_y
_atom_site_fract_z
Si Si1 0.134841 0.002460 0.804260
Si Si2 0.338120 0.596415 0.553145
Si Si3 0.670828 0.333395 0.736444
Si Si4 0.443050 0.737363 0.791905
Si Si5 0.041930 0.561835 0.914287
Si Si6 0.791343 0.224866 0.482741
Si Si7 0.913792 0.392451 0.097657
O O1 0.157682 0.894111 0.916834
O O2 0.086076 0.952578 0.648587
O O3 0.264150 0.058762 0.785592
O O4 0.312330 0.678166 0.412164
O O5 0.350153 0.469342 0.480759
O O6 0.438860 0.637729 0.664059
O O7 0.220157 0.601550 0.648339
O O8 0.720667 0.450399 0.656170
O O9 0.735120 0.230044 0.646373
O O10 0.464230 0.857993 0.701438
O O11 0.321211 0.741819 0.880780
O O12 0.102942 0.680535 0.971665
O O13 0.011754 0.582551 0.744048
O O14 0.931316 0.502677 0.991105
#
# Coordination Sequence:
#
# PCOD9541375 Si02
#       7
#     4   4   4   4   4   4   4
#     4  12  27  53  80 104 147 200 259 324 377 439
#     4  12  26  42  66 106 144 186 245 290 352 467
#     4  11  27  37  69 105 145 193 230 289 364 457
#     4  11  23  46  64 101 152 187 230 296 375 439
#     4  11  25  45  75 100 144 193 236 311 379 447
#     4  11  23  48  70 103 146 191 239 308 376 443
#     4  12  27  47  74 107 142 192 253 310 385 444
#
# _framework density 23.931180000000001
#
# number of rings (size 3 to 8) (size 9 to 14) (size 15 to 20)
#    0.000    0.571    5.714    0.857   10.000    1.143 
#    0.000    0.000    0.000    0.000    0.000    0.000 
#    0.000    0.000    0.000    0.000    0.000    0.000 
#
# Total GULP energy -156556.961621 kJ/mol
# GULP energy per Si atom -5591.320058 kJ/mol
# Density = 2.387671 g / cm^3
# Si number density = 23.931180 Si / 1000 Ang^3
#
#
#
# Elastic Constant Matrix: (Units=GPa)
#
#
# Indices 1 2 3 4 5 6 
#
# 1 45.8767 12.3509 -10.2143 0.0000 0.0000 -0.3080
# 2 12.3509 45.8767 -10.2143 0.0000 0.0000 0.3080
# 3 -10.2143 -10.2143 62.1918 0.0000 0.0000 0.0000
# 4 0.0000 0.0000 0.0000 35.7651 0.0000 0.0000
# 5 0.0000 0.0000 0.0000 0.0000 35.7651 0.0000
# 6 -0.3080 0.3080 0.0000 0.0000 0.0000 22.1843
#
#
#
# Elastic Compliance Matrix: (Units=1/GPa)
#
#
# Indices 1 2 3 4 5 6 
#
# 1 0.024030 -0.005806 0.002993 0.000000 0.000000 0.000414
# 2 -0.005806 0.024030 0.002993 0.000000 0.000000 -0.000414
# 3 0.002993 0.002993 0.017062 0.000000 0.000000 0.000000
# 4 0.000000 0.000000 0.000000 0.027960 0.000000 0.000000
# 5 0.000000 0.000000 0.000000 0.000000 0.027960 0.000000
# 6 0.000414 -0.000414 0.000000 0.000000 0.000000 0.045088
#
#
# Mechanical properties :
#
#
# Convention : Reuss Voigt Hill
#
# Bulk Modulus (GPa) = 15.27111 15.30996 15.29054
# Shear Modulus (GPa) = 26.65283 29.54441 28.09862
#
# Velocity S-wave (km/s) = 3.34088 3.51744 3.43029
# Velocity P-wave (km/s) = 4.61271 4.78622 4.70026
#
# Compressibility (1/GPa) = 0.06548311
#
# Stress axis : x y z
#
# Youngs Moduli (GPa) = 41.61513 41.61513 58.60820
#
# Poissons Ratio (x) = 0.24160 -0.17542
# Poissons Ratio (y) = 0.24160 -0.17542
# Poissons Ratio (z) = -0.12456 -0.12456
#
# Static dielectric constant tensor:
#      x y z
#    x 1.960590 0.000000 0.000000 
#    y 0.000000 1.960590 0.000000 
#    z 0.000000 0.000000 1.959270 
# 
# From -- ./inp_files/594.got.cif
#   From: 2010.05.17/outbox.cif.g08.bks.cpg/sg76_cif.got.tgz:594.got - 2010.06.03 18:43:17.
