data_PCOD9541207
_publ_section_title
;
Structure prediction by ZEFSAII (Michael W. Deem and Ramdas Pophale) SiO2 
 PCOD9541207
Probable space group: P 41
;
_chemical_formula_sum "Si O2"
_cell_formula_units_Z 32
_cell_length_a 9.142918
_cell_length_b 9.142918
_cell_length_c 16.043762
_cell_angle_alpha 90.000000
_cell_angle_beta 90.000000
_cell_angle_gamma 90.000000
_cell_volume 1341.145388
_symmetry_space_group_name_H-M "P 41"
_symmetry_group_IT_number 76
_symmetry_cell_setting 'tetragonal'
loop_
_space_group_symop_operation_xyz
x,y,z
-y,x,1/4+z
-x,-y,1/2+z
y,-x,3/4+z
loop_
_atom_site_type_symbol
_atom_site_label
_atom_site_fract_x
_atom_site_fract_y
_atom_site_fract_z
Si Si1 0.282717 0.135360 0.316730
Si Si2 0.886346 0.578511 0.861971
Si Si3 0.605066 0.199845 0.263075
Si Si4 0.672209 0.873665 0.226507
Si Si5 0.646495 0.017490 0.985528
Si Si6 0.208107 0.114411 0.086421
Si Si7 0.936451 0.089813 0.842122
Si Si8 0.372338 0.188836 0.922723
O O1 0.197492 0.286589 0.321693
O O2 0.440471 0.174162 0.284351
O O3 0.303036 0.084583 0.411456
O O4 0.186990 0.994646 0.287276
O O5 0.817331 0.479171 0.934508
O O6 0.924330 0.462529 0.792203
O O7 0.038512 0.659907 0.884945
O O8 0.710312 0.211077 0.344652
O O9 0.646695 0.332232 0.201842
O O10 0.659622 0.049081 0.222906
O O11 0.814455 0.854568 0.165099
O O12 0.660570 0.834785 0.325134
O O13 0.537366 0.143272 0.949162
O O14 0.787814 0.030727 0.045306
O O15 0.260745 0.104120 0.987690
O O16 0.051377 0.042682 0.107099
#
# Coordination Sequence:
#
# PCOD9541207 Si02
#       8
#     4   4   4   4   4   4   4   4
#     4  11  23  43  70 103 136 190 249 309 372 448
#     4   9  22  45  68  99 142 192 244 305 369 460
#     4  10  23  39  70 101 145 185 242 301 371 442
#     4  11  22  40  70 108 146 192 245 317 383 447
#     4  10  21  43  68  97 148 184 236 300 373 450
#     4   8  20  44  68 107 137 190 240 312 373 438
#     4  10  24  40  72 108 142 188 247 314 382 436
#     4   9  21  42  70 103 146 191 243 304 371 455
#
# _framework density 23.860202000000001
#
# number of rings (size 3 to 8) (size 9 to 14) (size 15 to 20)
#    0.750    1.500    1.250    0.000    5.250    1.000 
#    4.500    2.500   13.750    0.000    6.500    0.000 
#    0.000    0.000    0.000    0.000    0.000    0.000 
#
# Total GULP energy -178165.580167 kJ/mol
# GULP energy per Si atom -5567.674380 kJ/mol
# Density = 2.380590 g / cm^3
# Si number density = 23.860202 Si / 1000 Ang^3
#
#
#
# Elastic Constant Matrix: (Units=GPa)
#
#
# Indices 1 2 3 4 5 6 
#
# 1 123.3263 25.5008 27.8232 0.0000 0.0000 -1.6411
# 2 25.5008 123.3263 27.8232 0.0000 0.0000 1.6411
# 3 27.8232 27.8232 109.7904 0.0000 0.0000 0.0000
# 4 0.0000 0.0000 0.0000 16.4984 0.0000 0.0000
# 5 0.0000 0.0000 0.0000 0.0000 16.4984 0.0000
# 6 -1.6411 1.6411 0.0000 0.0000 0.0000 33.4401
#
#
#
# Elastic Compliance Matrix: (Units=1/GPa)
#
#
# Indices 1 2 3 4 5 6 
#
# 1 0.008831 -0.001408 -0.001881 0.000000 0.000000 0.000502
# 2 -0.001408 0.008831 -0.001881 0.000000 0.000000 -0.000502
# 3 -0.001881 -0.001881 0.010062 0.000000 0.000000 0.000000
# 4 0.000000 0.000000 0.000000 0.060612 0.000000 0.000000
# 5 0.000000 0.000000 0.000000 0.000000 0.060612 0.000000
# 6 0.000502 -0.000502 0.000000 0.000000 0.000000 0.029954
#
#
# Mechanical properties :
#
#
# Convention : Reuss Voigt Hill
#
# Bulk Modulus (GPa) = 57.52881 57.63748 57.58315
# Shear Modulus (GPa) = 25.63634 31.64043 28.63838
#
# Velocity S-wave (km/s) = 3.28142 3.64548 3.46823
# Velocity P-wave (km/s) = 6.20645 6.47520 6.34225
#
# Compressibility (1/GPa) = 0.01738260
#
# Stress axis : x y z
#
# Youngs Moduli (GPa) = 113.23957 113.23957 99.38734
#
# Poissons Ratio (x) = 0.15948 0.18695
# Poissons Ratio (y) = 0.15948 0.18695
# Poissons Ratio (z) = 0.21301 0.21301
#
# Static dielectric constant tensor:
#      x y z
#    x 2.039360 0.000000 0.000000 
#    y 0.000000 2.039360 0.000000 
#    z 0.000000 0.000000 2.019070 
# 
# From -- ./inp_files/1576.got.cif
#   From: 2010.05.17/outbox.cif.g08.bks.cpg/sg76_cif.got.tgz:1576.got - 2010.06.03 18:43:17.
