data_PCOD9541042
_publ_section_title
;
Structure prediction by ZEFSAII (Michael W. Deem and Ramdas Pophale) SiO2 
 PCOD9541042
Probable space group: P 4
;
_chemical_formula_sum "Si O2"
_cell_formula_units_Z 26
_cell_length_a 8.325117
_cell_length_b 8.325117
_cell_length_c 17.626835
_cell_angle_alpha 90.000000
_cell_angle_beta 90.000000
_cell_angle_gamma 90.000000
_cell_volume 1221.673155
_symmetry_space_group_name_H-M "P 4"
_symmetry_group_IT_number 75
_symmetry_cell_setting 'tetragonal'
loop_
_space_group_symop_operation_xyz
x,y,z
-y,x,z
-x,-y,z
y,-x,z
loop_
_atom_site_type_symbol
_atom_site_label
_atom_site_fract_x
_atom_site_fract_y
_atom_site_fract_z
Si Si1 0.921187 0.260788 0.623470
Si Si2 0.232881 0.554524 0.490047
Si Si3 0.497314 0.769165 0.323281
Si Si4 0.500000 0.000000 0.894413
Si Si5 0.928337 0.738493 0.023369
Si Si6 0.239966 0.580048 0.766434
Si Si7 0.443557 0.766778 0.156977
O O1 0.888969 0.369829 0.549944
O O2 0.868675 0.366463 0.695611
O O3 0.102100 0.192936 0.624508
O O4 0.320082 0.382458 0.499644
O O5 0.531338 0.840671 0.405935
O O6 0.346043 0.650931 0.323113
O O7 0.461751 0.842255 0.241033
O O8 0.411670 0.129345 0.840936
O O9 0.628484 0.086392 0.948914
O O10 0.887770 0.627058 0.095247
O O11 0.108416 0.810038 0.024169
O O12 0.306871 0.397588 0.764241
O O13 0.318659 0.616860 0.148732
#
# Coordination Sequence:
#
# PCOD9541042 Si02
#       7
#     4   4   4   2   4   4   4
#     4  11  24  40  59  87 126 170 210 252 310 372
#     4   9  17  32  59  90 119 153 202 259 306 356
#     4   7  12  26  53  85 115 147 193 249 297 343
#     4  12  24  44  66  90 124 162 200 246 308 374
#     4  11  24  40  61  93 130 165 202 248 307 372
#     4  11  24  42  66  95 123 155 203 258 306 362
#     4   9  17  33  61  90 120 160 206 252 298 356
#
# _framework density 21.282288999999999
#
# number of rings (size 3 to 8) (size 9 to 14) (size 15 to 20)
#    0.000    2.154    0.000    5.538    0.000    3.077 
#    0.000    3.077    0.000   44.308    0.000   25.846 
#    0.000    0.000    0.000    0.000    0.000    0.000 
#
# Total GULP energy -144853.390752 kJ/mol
# GULP energy per Si atom -5571.284260 kJ/mol
# Density = 2.123385 g / cm^3
# Si number density = 21.282289 Si / 1000 Ang^3
#
#
#
# Elastic Constant Matrix: (Units=GPa)
#
#
# Indices 1 2 3 4 5 6 
#
# 1 103.0661 68.5228 72.5385 0.0000 0.0000 4.9925
# 2 68.5228 103.0661 72.5385 0.0000 0.0000 -4.9925
# 3 72.5385 72.5385 209.0268 0.0000 0.0000 0.0000
# 4 0.0000 0.0000 0.0000 69.1129 0.0000 0.0000
# 5 0.0000 0.0000 0.0000 0.0000 69.1129 0.0000
# 6 4.9925 -4.9925 0.0000 0.0000 0.0000 40.5203
#
#
#
# Elastic Compliance Matrix: (Units=1/GPa)
#
#
# Indices 1 2 3 4 5 6 
#
# 1 0.019133 -0.010885 -0.002862 0.000000 0.000000 -0.003699
# 2 -0.010885 0.019133 -0.002862 0.000000 0.000000 0.003699
# 3 -0.002862 -0.002862 0.006771 0.000000 0.000000 0.000000
# 4 0.000000 0.000000 0.000000 0.014469 0.000000 0.000000
# 5 0.000000 0.000000 0.000000 0.000000 0.014469 0.000000
# 6 -0.003699 0.003699 0.000000 0.000000 0.000000 0.025590
#
#
# Mechanical properties :
#
#
# Convention : Reuss Voigt Hill
#
# Bulk Modulus (GPa) = 84.62101 93.59542 89.10821
# Shear Modulus (GPa) = 36.57003 49.18650 42.87826
#
# Velocity S-wave (km/s) = 4.14977 4.81265 4.49345
# Velocity P-wave (km/s) = 7.92517 8.65770 8.29952
#
# Compressibility (1/GPa) = 0.01181740
#
# Stress axis : x y z
#
# Youngs Moduli (GPa) = 52.26546 52.26546 147.69605
#
# Poissons Ratio (x) = 0.56892 0.42275
# Poissons Ratio (y) = 0.56892 0.42275
# Poissons Ratio (z) = 0.14960 0.14960
#
# Static dielectric constant tensor:
#      x y z
#    x 1.782820 0.000000 0.000000 
#    y 0.000000 1.782820 0.000000 
#    z 0.000000 0.000000 1.805970 
# 
# From -- ./inp_files/725.got.cif
#   From: 2010.05.17/outbox.cif.g08.bks.cpg/sg75_cif.got.tgz:725.got - 2010.06.03 18:42:43.
