data_PCOD9541906
_publ_section_title
;
Structure prediction by ZEFSAII (Michael W. Deem and Ramdas Pophale) SiO2 
 PCOD9541906
Probable space group: I 4
;
_chemical_formula_sum "Si O2"
_cell_formula_units_Z 40
_cell_length_a 15.666418
_cell_length_b 15.666418
_cell_length_c 7.066831
_cell_angle_alpha 90.000000
_cell_angle_beta 90.000000
_cell_angle_gamma 90.000000
_cell_volume 1734.459348
_symmetry_space_group_name_H-M "I 4"
_symmetry_group_IT_number 79
_symmetry_cell_setting 'tetragonal'
loop_
_space_group_symop_operation_xyz
x,y,z
-y,x,z
-x,-y,z
y,-x,z
1/2+x,1/2+y,1/2+z
1/2-y,1/2+x,1/2+z
1/2-x,1/2-y,1/2+z
1/2+y,1/2-x,1/2+z
loop_
_atom_site_type_symbol
_atom_site_label
_atom_site_fract_x
_atom_site_fract_y
_atom_site_fract_z
Si Si1 0.676170 0.919827 0.305660
Si Si2 0.412480 0.393672 0.659858
Si Si3 0.548768 0.798439 0.133799
Si Si4 0.592263 0.273928 0.406046
Si Si5 0.802928 0.775932 0.410488
O O1 0.585517 0.879299 0.248683
O O2 0.728772 0.846548 0.420694
O O3 0.673954 0.002418 0.438521
O O4 0.726262 0.932022 0.105820
O O5 0.510239 0.387172 0.718303
O O6 0.375228 0.397425 0.446711
O O7 0.362213 0.315942 0.748971
O O8 0.480038 0.747971 0.257148
O O9 0.631786 0.742113 0.081045
O O10 0.684326 0.235051 0.360231
#
# Coordination Sequence:
#
# PCOD9541906 Si02
#       5
#     8   8   8   8   8
#     4  10  25  46  67 109 146 189 241 306 363 441
#     4  10  22  41  66 100 146 186 231 301 364 430
#     4  11  25  44  76 109 141 197 245 302 366 442
#     4  10  24  41  73 106 141 191 244 306 362 444
#     4  10  22  44  70 104 139 192 242 299 364 433
#
# _framework density 23.061941999999998
#
# number of rings (size 3 to 8) (size 9 to 14) (size 15 to 20)
#    0.000    1.800    0.000    2.400   11.200    3.200 
#    0.000   12.000    0.000    0.000    0.000    0.000 
#    0.000    0.000    0.000    0.000    0.000    0.000 
#
# Total GULP energy -111637.154544 kJ/mol
# GULP energy per Si atom -5581.857727 kJ/mol
# Density = 2.300945 g / cm^3
# Si number density = 23.061942 Si / 1000 Ang^3
#
#
#
# Elastic Constant Matrix: (Units=GPa)
#
#
# Indices 1 2 3 4 5 6 
#
# 1 85.8444 18.6564 31.2559 0.0000 0.0000 4.1167
# 2 18.6564 85.8444 31.2559 0.0000 0.0000 -4.1167
# 3 31.2559 31.2559 101.3338 0.0000 0.0000 0.0000
# 4 0.0000 0.0000 0.0000 43.8451 0.0000 0.0000
# 5 0.0000 0.0000 0.0000 0.0000 43.8451 0.0000
# 6 4.1167 -4.1167 0.0000 0.0000 0.0000 17.2706
#
#
#
# Elastic Compliance Matrix: (Units=1/GPa)
#
#
# Indices 1 2 3 4 5 6 
#
# 1 0.013533 -0.001799 -0.003619 0.000000 0.000000 -0.003654
# 2 -0.001799 0.013533 -0.003619 0.000000 0.000000 0.003654
# 3 -0.003619 -0.003619 0.012101 0.000000 0.000000 0.000000
# 4 0.000000 0.000000 0.000000 0.022808 0.000000 0.000000
# 5 0.000000 0.000000 0.000000 0.000000 0.022808 0.000000
# 6 -0.003654 0.003654 0.000000 0.000000 0.000000 0.059644
#
#
# Mechanical properties :
#
#
# Convention : Reuss Voigt Hill
#
# Bulk Modulus (GPa) = 47.41065 48.37324 47.89194
# Shear Modulus (GPa) = 29.49301 33.78247 31.63774
#
# Velocity S-wave (km/s) = 3.58000 3.83150 3.70788
# Velocity P-wave (km/s) = 6.13931 6.37140 6.25643
#
# Compressibility (1/GPa) = 0.02109231
#
# Stress axis : x y z
#
# Youngs Moduli (GPa) = 73.89382 73.89382 82.63668
#
# Poissons Ratio (x) = 0.13290 0.29910
# Poissons Ratio (y) = 0.13290 0.29910
# Poissons Ratio (z) = 0.26745 0.26745
#
# Static dielectric constant tensor:
#      x y z
#    x 1.899970 0.000000 0.000000 
#    y 0.000000 1.899970 0.000000 
#    z 0.000000 0.000000 1.932460 
# 
# From -- ./inp_files/527.got.cif
#   From: 2010.05.17/outbox.cif.g08.bks.cpg/sg79_cif.got.tgz:527.got - 2010.06.03 18:47:27.
