data_PCOD9541485
_publ_section_title
;
Structure prediction by ZEFSAII (Michael W. Deem and Ramdas Pophale) SiO2 
 PCOD9541485
Probable space group: P 42
;
_chemical_formula_sum "Si O2"
_cell_formula_units_Z 24
_cell_length_a 11.303389
_cell_length_b 11.303389
_cell_length_c 7.204581
_cell_angle_alpha 90.000000
_cell_angle_beta 90.000000
_cell_angle_gamma 90.000000
_cell_volume 920.504840
_symmetry_space_group_name_H-M "P 42"
_symmetry_group_IT_number 77
_symmetry_cell_setting 'tetragonal'
loop_
_space_group_symop_operation_xyz
x,y,z
-y,x,1/2+z
-x,-y,z
y,-x,1/2+z
loop_
_atom_site_type_symbol
_atom_site_label
_atom_site_fract_x
_atom_site_fract_y
_atom_site_fract_z
Si Si1 0.312726 0.891579 0.755570
Si Si2 0.736551 0.481452 0.181393
Si Si3 0.345038 0.917069 0.168608
Si Si4 0.320061 0.470958 0.609034
Si Si5 0.760828 0.858543 0.753439
Si Si6 0.315393 0.174904 0.186388
O O1 0.411277 0.826042 0.629041
O O2 0.214360 0.795177 0.805928
O O3 0.244977 0.006400 0.688340
O O4 0.372477 0.929405 0.948810
O O5 0.606865 0.439439 0.111117
O O6 0.711359 0.507928 0.396218
O O7 0.805770 0.358493 0.162209
O O8 0.403160 0.789155 0.210630
O O9 0.209121 0.881983 0.208118
O O10 0.370911 0.048733 0.243247
O O11 0.290835 0.600107 0.691879
O O12 0.735097 0.842964 0.976116
#
# Coordination Sequence:
#
# PCOD9541485 Si02
#       6
#     4   4   4   4   4   4
#     4  10  20  34  56  83 111 144 185 232 281 333
#     4   9  18  36  60  83 111 147 187 231 280 336
#     4   9  19  37  57  79 109 148 189 229 277 333
#     4   9  18  36  60  83 111 147 187 231 280 336
#     4   9  19  37  57  79 109 148 189 229 277 333
#     4  10  20  34  56  83 111 144 185 232 281 333
#
# _framework density 26.072647
#
# number of rings (size 3 to 8) (size 9 to 14) (size 15 to 20)
#    0.000    2.667    0.000    1.000    0.000    6.667 
#    0.000   23.333    0.000   12.000    0.000    0.000 
#    0.000    0.000    0.000    0.000    0.000    0.000 
#
# Total GULP energy -133788.178774 kJ/mol
# GULP energy per Si atom -5574.507449 kJ/mol
# Density = 2.601330 g / cm^3
# Si number density = 26.072647 Si / 1000 Ang^3
#
#
#
# Elastic Constant Matrix: (Units=GPa)
#
#
# Indices 1 2 3 4 5 6 
#
# 1 117.1929 26.3472 10.1758 0.0000 0.0000 -4.7748
# 2 26.3472 117.1929 10.1758 0.0000 0.0000 4.7748
# 3 10.1758 10.1758 62.6662 0.0000 0.0000 0.0000
# 4 0.0000 0.0000 0.0000 22.8286 0.0000 0.0000
# 5 0.0000 0.0000 0.0000 0.0000 22.8286 0.0000
# 6 -4.7748 4.7748 0.0000 0.0000 0.0000 43.8551
#
#
#
# Elastic Compliance Matrix: (Units=1/GPa)
#
#
# Indices 1 2 3 4 5 6 
#
# 1 0.009133 -0.002002 -0.001158 0.000000 0.000000 0.001212
# 2 -0.002002 0.009133 -0.001158 0.000000 0.000000 -0.001212
# 3 -0.001158 -0.001158 0.016334 0.000000 0.000000 0.000000
# 4 0.000000 0.000000 0.000000 0.043805 0.000000 0.000000
# 5 0.000000 0.000000 0.000000 0.000000 0.043805 0.000000
# 6 0.001212 -0.001212 0.000000 0.000000 0.000000 0.023066
#
#
# Mechanical properties :
#
#
# Convention : Reuss Voigt Hill
#
# Bulk Modulus (GPa) = 38.51537 43.38330 40.94933
# Shear Modulus (GPa) = 30.75679 34.59268 32.67474
#
# Velocity S-wave (km/s) = 3.43834 3.64645 3.54392
# Velocity P-wave (km/s) = 5.52877 5.86552 5.69963
#
# Compressibility (1/GPa) = 0.02596366
#
# Stress axis : x y z
#
# Youngs Moduli (GPa) = 109.49313 109.49313 61.22347
#
# Poissons Ratio (x) = 0.21922 0.07089
# Poissons Ratio (y) = 0.21922 0.07089
# Poissons Ratio (z) = 0.12678 0.12678
#
# Static dielectric constant tensor:
#      x y z
#    x 2.134830 0.000000 0.000000 
#    y 0.000000 2.134830 0.000000 
#    z 0.000000 0.000000 2.125210 
# 
# From -- ./inp_files/435.got.cif
#   From: 2010.05.17/outbox.cif.g08.bks.cpg/sg77_cif.got.tgz:435.got - 2010.06.03 18:44:51.
