data_PCOD9541096
_publ_section_title
;
Structure prediction by ZEFSAII (Michael W. Deem and Ramdas Pophale) SiO2 
 PCOD9541096
Probable space group: P 41
;
_chemical_formula_sum "Si O2"
_cell_formula_units_Z 28
_cell_length_a 8.793344
_cell_length_b 8.793344
_cell_length_c 14.641814
_cell_angle_alpha 90.000000
_cell_angle_beta 90.000000
_cell_angle_gamma 90.000000
_cell_volume 1132.147501
_symmetry_space_group_name_H-M "P 41"
_symmetry_group_IT_number 76
_symmetry_cell_setting 'tetragonal'
loop_
_space_group_symop_operation_xyz
x,y,z
-y,x,1/4+z
-x,-y,1/2+z
y,-x,3/4+z
loop_
_atom_site_type_symbol
_atom_site_label
_atom_site_fract_x
_atom_site_fract_y
_atom_site_fract_z
Si Si1 0.134197 0.739831 0.289770
Si Si2 0.474824 0.098395 0.766867
Si Si3 0.720502 0.411261 0.609975
Si Si4 0.052166 0.752244 0.975010
Si Si5 0.395941 0.372107 0.677681
Si Si6 0.517154 0.092956 0.969807
Si Si7 0.290909 0.909109 0.874991
O O1 0.220009 0.663377 0.203604
O O2 0.229718 0.688513 0.377673
O O3 0.974296 0.648753 0.283789
O O4 0.146798 0.920509 0.273187
O O5 0.593342 0.029631 0.695461
O O6 0.315656 0.018143 0.787531
O O7 0.463616 0.277237 0.762741
O O8 0.562275 0.060870 0.862695
O O9 0.799603 0.308533 0.531695
O O10 0.539102 0.414168 0.615961
O O11 0.777868 0.584712 0.606960
O O12 0.126136 0.847742 0.894246
O O13 0.274584 0.489030 0.718139
O O14 0.356897 0.004513 0.963159
#
# Coordination Sequence:
#
# PCOD9541096 Si02
#       7
#     4   4   4   4   4   4   4
#     4  11  19  36  62  95 118 166 213 256 320 384
#     4   9  20  37  58  92 124 158 209 264 308 380
#     4  10  19  33  62  94 113 162 209 260 319 380
#     4  11  18  38  66  88 124 160 215 259 316 382
#     4  12  19  36  67  89 128 166 209 262 322 379
#     4   9  20  40  56  93 125 158 211 259 311 378
#     4   8  19  38  59  87 124 156 206 262 310 377
#
# _framework density 24.731757000000002
#
# number of rings (size 3 to 8) (size 9 to 14) (size 15 to 20)
#    0.857    1.143    4.286    1.714    0.000    0.000 
#    5.143    0.000   15.714    0.000    0.000    0.000 
#    0.000    0.000    0.000    0.000    0.000    0.000 
#
# Total GULP energy -155910.030205 kJ/mol
# GULP energy per Si atom -5568.215364 kJ/mol
# Density = 2.467547 g / cm^3
# Si number density = 24.731757 Si / 1000 Ang^3
#
#
#
# Elastic Constant Matrix: (Units=GPa)
#
#
# Indices 1 2 3 4 5 6 
#
# 1 91.3287 25.2195 1.2441 0.0000 0.0000 -4.2821
# 2 25.2195 91.3287 1.2441 0.0000 0.0000 4.2821
# 3 1.2441 1.2441 27.7770 0.0000 0.0000 0.0000
# 4 0.0000 0.0000 0.0000 22.5835 0.0000 0.0000
# 5 0.0000 0.0000 0.0000 0.0000 22.5835 0.0000
# 6 -4.2821 4.2821 0.0000 0.0000 0.0000 24.6203
#
#
#
# Elastic Compliance Matrix: (Units=1/GPa)
#
#
# Indices 1 2 3 4 5 6 
#
# 1 0.012032 -0.003443 -0.000385 0.000000 0.000000 0.002692
# 2 -0.003443 0.012032 -0.000385 0.000000 0.000000 -0.002692
# 3 -0.000385 -0.000385 0.036036 0.000000 0.000000 0.000000
# 4 0.000000 0.000000 0.000000 0.044280 0.000000 0.000000
# 5 0.000000 0.000000 0.000000 0.000000 0.044280 0.000000
# 6 0.002692 -0.002692 0.000000 0.000000 0.000000 0.041553
#
#
# Mechanical properties :
#
#
# Convention : Reuss Voigt Hill
#
# Bulk Modulus (GPa) = 19.35228 29.53888 24.44558
# Shear Modulus (GPa) = 23.16291 26.13923 24.65107
#
# Velocity S-wave (km/s) = 3.06366 3.25454 3.16054
# Velocity P-wave (km/s) = 4.51182 5.10807 4.81917
#
# Compressibility (1/GPa) = 0.05167351
#
# Stress axis : x y z
#
# Youngs Moduli (GPa) = 83.11332 83.11332 27.75041
#
# Poissons Ratio (x) = 0.28619 0.01067
# Poissons Ratio (y) = 0.28619 0.01067
# Poissons Ratio (z) = 0.03197 0.03197
#
# Static dielectric constant tensor:
#      x y z
#    x 2.120190 0.000000 0.000000 
#    y 0.000000 2.120190 0.000000 
#    z 0.000000 0.000000 2.100020 
# 
# From -- ./inp_files/1382.got.cif
#   From: 2010.05.17/outbox.cif.g08.bks.cpg/sg76_cif.got.tgz:1382.got - 2010.06.03 18:43:17.
