data_PCOD9541566
_publ_section_title
;
Structure prediction by ZEFSAII (Michael W. Deem and Ramdas Pophale) SiO2 
 PCOD9541566
Probable space group: P 42
;
_chemical_formula_sum "Si O2"
_cell_formula_units_Z 20
_cell_length_a 8.244830
_cell_length_b 8.244830
_cell_length_c 11.412995
_cell_angle_alpha 90.000000
_cell_angle_beta 90.000000
_cell_angle_gamma 90.000000
_cell_volume 775.823692
_symmetry_space_group_name_H-M "P 42"
_symmetry_group_IT_number 77
_symmetry_cell_setting 'tetragonal'
loop_
_space_group_symop_operation_xyz
x,y,z
-y,x,1/2+z
-x,-y,z
y,-x,1/2+z
loop_
_atom_site_type_symbol
_atom_site_label
_atom_site_fract_x
_atom_site_fract_y
_atom_site_fract_z
Si Si1 0.511802 0.248844 0.805200
Si Si2 0.000000 0.500000 0.719753
Si Si3 0.855015 0.299991 0.908881
Si Si4 0.204642 0.677477 0.531010
Si Si5 0.000000 0.500000 0.119160
Si Si6 0.000000 0.000000 0.002750
Si Si7 0.500000 0.500000 0.626542
O O1 0.671050 0.324604 0.867016
O O2 0.419248 0.376757 0.721618
O O3 0.582359 0.120726 0.711714
O O4 0.390589 0.173413 0.900387
O O5 0.989462 0.354938 0.813855
O O6 0.866634 0.443318 0.628177
O O7 0.882113 0.112938 0.929913
O O8 0.900559 0.386175 0.030769
O O9 0.392284 0.621365 0.548263
O O10 0.126081 0.857316 0.552540
#
# Coordination Sequence:
#
# PCOD9541566 Si02
#       7
#     4   2   4   4   2   2   2
#     4  12  25  49  77 117 160 225 294 359 445 549
#     4  11  25  50  78 120 171 223 300 370 458 547
#     4  11  26  49  77 120 166 228 287 371 460 544
#     4  12  27  50  81 124 168 236 295 381 463 556
#     4  11  25  48  78 112 167 217 286 368 448 549
#     4  12  28  50  82 120 180 218 294 382 468 540
#     4  12  26  48  84 118 168 226 306 366 444 552
#
# _framework density 25.779050999999999
#
# number of rings (size 3 to 8) (size 9 to 14) (size 15 to 20)
#    0.000    0.400    2.000    6.000    2.800    2.400 
#    3.600    0.000    0.000    0.000    0.000    0.000 
#    0.000    0.000    0.000    0.000    0.000    0.000 
#
# Total GULP energy -111339.966800 kJ/mol
# GULP energy per Si atom -5566.998340 kJ/mol
# Density = 2.572038 g / cm^3
# Si number density = 25.779051 Si / 1000 Ang^3
#
#
#
# Elastic Constant Matrix: (Units=GPa)
#
#
# Indices 1 2 3 4 5 6 
#
# 1 112.9881 83.7930 57.9388 0.0000 0.0000 -2.6264
# 2 83.7930 112.9881 57.9388 0.0000 0.0000 2.6264
# 3 57.9388 57.9388 166.9507 0.0000 0.0000 0.0000
# 4 0.0000 0.0000 0.0000 53.0841 0.0000 0.0000
# 5 0.0000 0.0000 0.0000 0.0000 53.0841 0.0000
# 6 -2.6264 2.6264 0.0000 0.0000 0.0000 46.5094
#
#
#
# Elastic Compliance Matrix: (Units=1/GPa)
#
#
# Indices 1 2 3 4 5 6 
#
# 1 0.020495 -0.014108 -0.002217 0.000000 0.000000 0.001954
# 2 -0.014108 0.020495 -0.002217 0.000000 0.000000 -0.001954
# 3 -0.002217 -0.002217 0.007528 0.000000 0.000000 0.000000
# 4 0.000000 0.000000 0.000000 0.018838 0.000000 0.000000
# 5 0.000000 0.000000 0.000000 0.000000 0.018838 0.000000
# 6 0.001954 -0.001954 0.000000 0.000000 0.000000 0.021722
#
#
# Mechanical properties :
#
#
# Convention : Reuss Voigt Hill
#
# Bulk Modulus (GPa) = 87.44244 88.02978 87.73611
# Shear Modulus (GPa) = 33.59941 43.41927 38.50934
#
# Velocity S-wave (km/s) = 3.61413 4.10846 3.86919
# Velocity P-wave (km/s) = 7.17004 7.53179 7.35314
#
# Compressibility (1/GPa) = 0.01143610
#
# Stress axis : x y z
#
# Youngs Moduli (GPa) = 48.79126 48.79126 132.83259
#
# Poissons Ratio (x) = 0.68837 0.29443
# Poissons Ratio (y) = 0.68837 0.29443
# Poissons Ratio (z) = 0.10815 0.10815
#
# Static dielectric constant tensor:
#      x y z
#    x 2.142240 0.000000 0.000000 
#    y 0.000000 2.142240 0.000000 
#    z 0.000000 0.000000 2.000440 
# 
# From -- ./inp_files/839.got.cif
#   From: 2010.05.17/outbox.cif.g08.bks.cpg/sg77_cif.got.tgz:839.got - 2010.06.03 18:44:51.
