data_PCOD9541733
_publ_section_title
;
Structure prediction by ZEFSAII (Michael W. Deem and Ramdas Pophale) SiO2 
 PCOD9541733
Probable space group: P 43
;
_chemical_formula_sum "Si O2"
_cell_formula_units_Z 28
_cell_length_a 11.761112
_cell_length_b 11.761112
_cell_length_c 8.645028
_cell_angle_alpha 90.000000
_cell_angle_beta 90.000000
_cell_angle_gamma 90.000000
_cell_volume 1195.812739
_symmetry_space_group_name_H-M "P 43"
_symmetry_group_IT_number 78
_symmetry_cell_setting 'tetragonal'
loop_
_space_group_symop_operation_xyz
x,y,z
-y,x,3/4+z
-x,-y,1/2+z
y,-x,1/4+z
loop_
_atom_site_type_symbol
_atom_site_label
_atom_site_fract_x
_atom_site_fract_y
_atom_site_fract_z
Si Si1 0.790148 0.615598 0.342470
Si Si2 0.660912 0.797370 0.533720
Si Si3 0.749745 0.179678 0.299417
Si Si4 0.487860 0.785733 0.796512
Si Si5 0.101551 0.075687 0.058423
Si Si6 0.948705 0.520976 0.604843
Si Si7 0.998369 0.256061 0.292498
O O1 0.700832 0.685019 0.443682
O O2 0.843077 0.708097 0.223841
O O3 0.741896 0.521381 0.223153
O O4 0.884782 0.563726 0.452290
O O5 0.593023 0.760958 0.687633
O O6 0.771460 0.874582 0.566948
O O7 0.577237 0.874145 0.431076
O O8 0.637773 0.241759 0.228866
O O9 0.768939 0.067228 0.198703
O O10 0.863104 0.253040 0.307716
O O11 0.487482 0.923296 0.813540
O O12 0.029965 0.161237 0.166747
O O13 0.084131 0.953869 0.139222
O O14 0.959819 0.625274 0.723147
#
# Coordination Sequence:
#
# PCOD9541733 Si02
#       7
#     4   4   4   4   4   4   4
#     4  10  26  46  74 120 153 209 280 336 412 462
#     4  12  26  48  79 111 168 212 278 336 404 493
#     4  10  26  44  70 115 164 215 263 324 411 494
#     4  10  25  45  70 111 158 212 272 335 389 488
#     4  12  28  48  72 117 174 221 258 323 420 513
#     4  12  24  45  80 112 156 221 281 333 400 494
#     4  12  23  48  73 112 167 220 258 335 426 492
#
# _framework density 23.415035
#
# number of rings (size 3 to 8) (size 9 to 14) (size 15 to 20)
#    0.857    0.000    4.286    1.714    4.000    2.286 
#    0.000    1.429    0.000    1.714    0.000    0.000 
#    0.000    0.000    0.000    0.000    0.000    0.000 
#
# Total GULP energy -156731.766329 kJ/mol
# GULP energy per Si atom -5597.563083 kJ/mol
# Density = 2.336174 g / cm^3
# Si number density = 23.415035 Si / 1000 Ang^3
#
#
#
# Elastic Constant Matrix: (Units=GPa)
#
#
# Indices 1 2 3 4 5 6 
#
# 1 106.0205 27.3917 58.6218 0.0000 0.0000 8.3008
# 2 27.3917 106.0205 58.6218 0.0000 0.0000 -8.3008
# 3 58.6218 58.6218 139.2845 0.0000 0.0000 0.0000
# 4 0.0000 0.0000 0.0000 43.9798 0.0000 0.0000
# 5 0.0000 0.0000 0.0000 0.0000 43.9798 0.0000
# 6 8.3008 -8.3008 0.0000 0.0000 0.0000 32.6264
#
#
#
# Elastic Compliance Matrix: (Units=1/GPa)
#
#
# Indices 1 2 3 4 5 6 
#
# 1 0.012668 -0.000772 -0.005006 0.000000 0.000000 -0.003419
# 2 -0.000772 0.012668 -0.005006 0.000000 0.000000 0.003419
# 3 -0.005006 -0.005006 0.011394 0.000000 0.000000 0.000000
# 4 0.000000 0.000000 0.000000 0.022738 0.000000 0.000000
# 5 0.000000 0.000000 0.000000 0.000000 0.022738 0.000000
# 6 -0.003419 0.003419 0.000000 0.000000 0.000000 0.032390
#
#
# Mechanical properties :
#
#
# Convention : Reuss Voigt Hill
#
# Bulk Modulus (GPa) = 65.96968 71.17736 68.57352
# Shear Modulus (GPa) = 35.40631 37.89654 36.65143
#
# Velocity S-wave (km/s) = 3.89282 4.02739 3.96067
# Velocity P-wave (km/s) = 6.95993 7.21738 7.08982
#
# Compressibility (1/GPa) = 0.01515848
#
# Stress axis : x y z
#
# Youngs Moduli (GPa) = 78.94140 78.94140 87.76713
#
# Poissons Ratio (x) = 0.06097 0.43940
# Poissons Ratio (y) = 0.06097 0.43940
# Poissons Ratio (z) = 0.39522 0.39522
#
# Static dielectric constant tensor:
#      x y z
#    x 1.893950 0.000000 0.000000 
#    y 0.000000 1.893950 0.000000 
#    z 0.000000 0.000000 1.925940 
# 
# From -- ./inp_files/648.got.cif
#   From: 2010.05.17/outbox.cif.g08.bks.cpg/sg78_cif.got.tgz:648.got - 2010.06.03 18:45:56.
