data_PCOD9541484
_publ_section_title
;
Structure prediction by ZEFSAII (Michael W. Deem and Ramdas Pophale) SiO2 
 PCOD9541484
Probable space group: P 42
;
_chemical_formula_sum "Si O2"
_cell_formula_units_Z 26
_cell_length_a 11.715360
_cell_length_b 11.715360
_cell_length_c 9.180776
_cell_angle_alpha 90.000000
_cell_angle_beta 90.000000
_cell_angle_gamma 90.000000
_cell_volume 1260.058384
_symmetry_space_group_name_H-M "P 42"
_symmetry_group_IT_number 77
_symmetry_cell_setting 'tetragonal'
loop_
_space_group_symop_operation_xyz
x,y,z
-y,x,1/2+z
-x,-y,z
y,-x,1/2+z
loop_
_atom_site_type_symbol
_atom_site_label
_atom_site_fract_x
_atom_site_fract_y
_atom_site_fract_z
Si Si1 0.448370 0.109648 0.076550
Si Si2 0.734120 0.843536 0.576264
Si Si3 0.007719 0.130734 0.599984
Si Si4 0.685989 0.016668 0.337691
Si Si5 0.500000 0.500000 0.826127
Si Si6 0.588261 0.333197 0.075102
Si Si7 0.231957 0.186710 0.905888
O O1 0.397513 0.045665 0.220341
O O2 0.500000 0.000000 0.990425
O O3 0.546011 0.203356 0.096594
O O4 0.347886 0.183481 0.000362
O O5 0.679833 0.944801 0.484487
O O6 0.671312 0.723935 0.553909
O O7 0.735443 0.861807 0.748635
O O8 0.868778 0.834551 0.536454
O O9 0.995417 0.197043 0.750811
O O10 0.905929 0.157897 0.491294
O O11 0.000000 0.000000 0.633519
O O12 0.700698 0.152216 0.378543
O O13 0.538442 0.397902 0.933583
O O14 0.597384 0.547736 0.717714
#
# Coordination Sequence:
#
# PCOD9541484 Si02
#       7
#     4   4   4   4   2   4   4
#     4  11  23  42  63  89 133 170 208 266 334 394
#     4  11  22  35  61  93 125 161 210 269 311 383
#     4  10  20  34  54  87 129 170 205 241 295 388
#     4  10  22  36  59  89 124 169 207 259 312 381
#     4  10  24  42  72  88 118 166 224 290 318 388
#     4  11  22  43  64  95 120 164 220 271 338 379
#     4  10  21  36  56  87 123 163 211 247 308 379
#
# _framework density 20.633963000000001
#
# number of rings (size 3 to 8) (size 9 to 14) (size 15 to 20)
#    0.000    1.538    1.538    4.615    4.308    0.000 
#    0.000    2.308    0.000    0.000    0.000    0.000 
#    0.000    0.000    0.000    0.000    0.000    0.000 
#
# Total GULP energy -144898.737574 kJ/mol
# GULP energy per Si atom -5573.028368 kJ/mol
# Density = 2.058700 g / cm^3
# Si number density = 20.633963 Si / 1000 Ang^3
#
#
#
# Elastic Constant Matrix: (Units=GPa)
#
#
# Indices 1 2 3 4 5 6 
#
# 1 86.4470 15.5787 20.6043 0.0000 0.0000 -10.1351
# 2 15.5787 86.4470 20.6043 0.0000 0.0000 10.1351
# 3 20.6043 20.6043 75.7790 0.0000 0.0000 0.0000
# 4 0.0000 0.0000 0.0000 -130.0663 0.0000 0.0000
# 5 0.0000 0.0000 0.0000 0.0000 -130.0663 0.0000
# 6 -10.1351 10.1351 0.0000 0.0000 0.0000 30.5701
#
#
#
# Elastic Compliance Matrix: (Units=1/GPa)
#
#
# Indices 1 2 3 4 5 6 
#
# 1 0.013300 -0.002289 -0.002994 0.000000 0.000000 0.005168
# 2 -0.002289 0.013300 -0.002994 0.000000 0.000000 -0.005168
# 3 -0.002994 -0.002994 0.014824 0.000000 0.000000 0.000000
# 4 0.000000 0.000000 0.000000 -0.007688 0.000000 0.000000
# 5 0.000000 0.000000 0.000000 0.000000 -0.007688 0.000000
# 6 0.005168 -0.005168 0.000000 0.000000 0.000000 0.036139
#
#
# Mechanical properties :
#
#
# Convention : Reuss Voigt Hill
#
# Bulk Modulus (GPa) = 40.20839 40.24972 40.22905
# Shear Modulus (GPa) = 57.45189 -33.12010 12.16590
#
# Velocity S-wave (km/s) = 5.28241 -4.01075 2.43081
# Velocity P-wave (km/s) = 7.53219 1.37813 5.23616
#
# Compressibility (1/GPa) = 0.02487043
#
# Stress axis : x y z
#
# Youngs Moduli (GPa) = 75.18907 75.18907 67.45688
#
# Poissons Ratio (x) = 0.17212 0.20195
# Poissons Ratio (y) = 0.17212 0.20195
# Poissons Ratio (z) = 0.22510 0.22510
#
# Static dielectric constant tensor:
#      x y z
#    x 2.012300 0.000000 0.000000 
#    y 0.000000 2.012300 0.000000 
#    z 0.000000 0.000000 1.735990 
# 
# From -- ./inp_files/460.got.cif
#   From: 2010.05.17/outbox.cif.g08.bks.cpg/sg77_cif.got.tgz:460.got - 2010.06.03 18:44:51.
