data_PCOD9541561
_publ_section_title
;
Structure prediction by ZEFSAII (Michael W. Deem and Ramdas Pophale) SiO2 
 PCOD9541561
Probable space group: P 42
;
_chemical_formula_sum "Si O2"
_cell_formula_units_Z 18
_cell_length_a 8.725056
_cell_length_b 8.725056
_cell_length_c 10.243874
_cell_angle_alpha 90.000000
_cell_angle_beta 90.000000
_cell_angle_gamma 90.000000
_cell_volume 779.831321
_symmetry_space_group_name_H-M "P 42"
_symmetry_group_IT_number 77
_symmetry_cell_setting 'tetragonal'
loop_
_space_group_symop_operation_xyz
x,y,z
-y,x,1/2+z
-x,-y,z
y,-x,1/2+z
loop_
_atom_site_type_symbol
_atom_site_label
_atom_site_fract_x
_atom_site_fract_y
_atom_site_fract_z
Si Si1 0.150326 0.701908 0.062580
Si Si2 0.837674 0.500302 0.321215
Si Si3 0.496126 0.316593 0.067228
Si Si4 0.000000 0.000000 0.161086
Si Si5 0.838225 0.286349 0.776474
O O1 0.137443 0.592332 0.187703
O O2 0.330043 0.741037 0.065815
O O3 0.044076 0.849817 0.079394
O O4 0.124237 0.639115 0.916639
O O5 0.708666 0.435516 0.419055
O O6 0.798189 0.674282 0.289980
O O7 0.000000 0.500000 0.393812
O O8 0.500000 0.500000 0.099665
O O9 0.405166 0.206400 0.164234
O O10 0.846409 0.958630 0.241284
#
# Coordination Sequence:
#
# PCOD9541561 Si02
#       5
#     4   4   4   2   4
#     4  11  26  45  73 101 142 188 236 293 355 423
#     4  11  24  47  70 105 143 189 232 293 359 422
#     4  11  26  45  76 107 140 182 240 299 355 423
#     4  12  26  48  68 104 146 192 234 296 356 434
#     4  11  26  45  71 104 141 185 241 292 354 421
#
# _framework density 23.081917000000001
#
# number of rings (size 3 to 8) (size 9 to 14) (size 15 to 20)
#    0.000    0.889    4.444    0.667   12.444    1.778 
#    4.000    0.000    0.000    0.000    0.000    0.000 
#    0.000    0.000    0.000    0.000    0.000    0.000 
#
# Total GULP energy -100509.119726 kJ/mol
# GULP energy per Si atom -5583.839985 kJ/mol
# Density = 2.302938 g / cm^3
# Si number density = 23.081917 Si / 1000 Ang^3
#
#
#
# Elastic Constant Matrix: (Units=GPa)
#
#
# Indices 1 2 3 4 5 6 
#
# 1 70.8846 11.3357 41.6041 0.0000 0.0000 -3.5305
# 2 11.3357 70.8846 41.6041 0.0000 0.0000 3.5305
# 3 41.6041 41.6041 151.5018 0.0000 0.0000 0.0000
# 4 0.0000 0.0000 0.0000 52.4395 0.0000 0.0000
# 5 0.0000 0.0000 0.0000 0.0000 52.4395 0.0000
# 6 -3.5305 3.5305 0.0000 0.0000 0.0000 39.1475
#
#
#
# Elastic Compliance Matrix: (Units=1/GPa)
#
#
# Indices 1 2 3 4 5 6 
#
# 1 0.016909 -0.000066 -0.004625 0.000000 0.000000 0.001531
# 2 -0.000066 0.016909 -0.004625 0.000000 0.000000 -0.001531
# 3 -0.004625 -0.004625 0.009141 0.000000 0.000000 0.000000
# 4 0.000000 0.000000 0.000000 0.019070 0.000000 0.000000
# 5 0.000000 0.000000 0.000000 0.000000 0.019070 0.000000
# 6 0.001531 -0.001531 0.000000 0.000000 0.000000 0.025821
#
#
# Mechanical properties :
#
#
# Convention : Reuss Voigt Hill
#
# Bulk Modulus (GPa) = 41.10793 53.59543 47.35168
# Shear Modulus (GPa) = 37.40839 42.05378 39.73109
#
# Velocity S-wave (km/s) = 4.03013 4.27305 4.15337
# Velocity P-wave (km/s) = 6.28524 6.90038 6.59998
#
# Compressibility (1/GPa) = 0.02432621
#
# Stress axis : x y z
#
# Youngs Moduli (GPa) = 59.14034 59.14034 109.39783
#
# Poissons Ratio (x) = 0.00388 0.50601
# Poissons Ratio (y) = 0.00388 0.50601
# Poissons Ratio (z) = 0.27355 0.27355
#
# Static dielectric constant tensor:
#      x y z
#    x 1.908560 0.000000 0.000000 
#    y 0.000000 1.908560 0.000000 
#    z 0.000000 0.000000 1.953580 
# 
# From -- ./inp_files/707.got.cif
#   From: 2010.05.17/outbox.cif.g08.bks.cpg/sg77_cif.got.tgz:707.got - 2010.06.03 18:44:51.
