data_PCOD9541013
_publ_section_title
;
Structure prediction by ZEFSAII (Michael W. Deem and Ramdas Pophale) SiO2 
 PCOD9541013
Probable space group: P 4
;
_chemical_formula_sum "Si O2"
_cell_formula_units_Z 28
_cell_length_a 11.445644
_cell_length_b 11.445644
_cell_length_c 12.193955
_cell_angle_alpha 90.000000
_cell_angle_beta 90.000000
_cell_angle_gamma 90.000000
_cell_volume 1597.441840
_symmetry_space_group_name_H-M "P 4"
_symmetry_group_IT_number 75
_symmetry_cell_setting 'tetragonal'
loop_
_space_group_symop_operation_xyz
x,y,z
-y,x,z
-x,-y,z
y,-x,z
loop_
_atom_site_type_symbol
_atom_site_label
_atom_site_fract_x
_atom_site_fract_y
_atom_site_fract_z
Si Si1 0.074176 0.821688 0.669410
Si Si2 0.182163 0.646509 0.837718
Si Si3 0.690802 0.490735 0.139509
Si Si4 0.358422 0.000349 0.023056
Si Si5 0.179782 0.071412 0.407568
Si Si6 0.406542 0.773099 0.912207
Si Si7 0.394970 0.080998 0.254985
O O1 0.124468 0.714094 0.737057
O O2 0.080102 0.803255 0.538624
O O3 0.939242 0.852137 0.696024
O O4 0.315268 0.687536 0.855679
O O5 0.178286 0.505669 0.830646
O O6 0.105293 0.680559 0.945027
O O7 0.617881 0.606666 0.165129
O O8 0.808005 0.462043 0.203650
O O9 0.718903 0.515139 0.011170
O O10 0.500000 0.000000 0.021359
O O11 0.331017 0.019917 0.150089
O O12 0.330969 0.876250 0.968782
O O13 0.295268 0.107654 0.342529
O O14 0.063803 0.146877 0.381562
O O15 0.500000 0.000000 0.298414
#
# Coordination Sequence:
#
# PCOD9541013 Si02
#       7
#     4   4   4   4   4   4   4
#     4   9  19  40  61  79 106 144 190 237 295 350
#     4  11  20  32  54  81 111 148 184 230 277 346
#     4  11  21  35  54  79 116 163 196 223 276 357
#     4   9  18  32  46  76 113 142 175 224 280 326
#     4   9  21  40  62  83 110 151 197 249 302 353
#     4  11  19  32  52  81 114 150 187 225 279 345
#     4  11  20  34  57  86 116 150 193 244 291 341
#
# _framework density 17.528025
#
# number of rings (size 3 to 8) (size 9 to 14) (size 15 to 20)
#    0.000    1.857    5.714    1.714    2.000    1.429 
#    0.000    5.000    0.000    1.714    0.000    0.000 
#    0.000    0.000    0.000    0.000    0.000    0.000 
#
# Total GULP energy -155996.000582 kJ/mol
# GULP energy per Si atom -5571.285735 kJ/mol
# Density = 1.748813 g / cm^3
# Si number density = 17.528025 Si / 1000 Ang^3
#
#
#
# Elastic Constant Matrix: (Units=GPa)
#
#
# Indices 1 2 3 4 5 6 
#
# 1 62.2191 47.9557 30.7298 0.0000 0.0000 -2.7456
# 2 47.9557 62.2191 30.7298 0.0000 0.0000 2.7456
# 3 30.7298 30.7298 50.0279 0.0000 0.0000 0.0000
# 4 0.0000 0.0000 0.0000 27.1875 0.0000 0.0000
# 5 0.0000 0.0000 0.0000 0.0000 27.1875 0.0000
# 6 -2.7456 2.7456 0.0000 0.0000 0.0000 8.3526
#
#
#
# Elastic Compliance Matrix: (Units=1/GPa)
#
#
# Indices 1 2 3 4 5 6 
#
# 1 0.047037 -0.033230 -0.008481 0.000000 0.000000 0.026385
# 2 -0.033230 0.047037 -0.008481 0.000000 0.000000 -0.026385
# 3 -0.008481 -0.008481 0.030408 0.000000 0.000000 0.000000
# 4 0.000000 0.000000 0.000000 0.036782 0.000000 0.000000
# 5 0.000000 0.000000 0.000000 0.000000 0.036782 0.000000
# 6 0.026385 -0.026385 0.000000 0.000000 0.000000 0.137070
#
#
# Mechanical properties :
#
#
# Convention : Reuss Voigt Hill
#
# Bulk Modulus (GPa) = 41.49710 43.69961 42.59836
# Shear Modulus (GPa) = 11.27309 16.88224 14.07767
#
# Velocity S-wave (km/s) = 2.53878 3.10684 2.83707
# Velocity P-wave (km/s) = 5.68507 6.15267 5.92349
#
# Compressibility (1/GPa) = 0.02409807
#
# Stress axis : x y z
#
# Youngs Moduli (GPa) = 21.25964 21.25964 32.88566
#
# Poissons Ratio (x) = 0.70645 0.27892
# Poissons Ratio (y) = 0.70645 0.27892
# Poissons Ratio (z) = 0.18031 0.18031
#
# Static dielectric constant tensor:
#      x y z
#    x 1.628780 0.000000 0.000000 
#    y 0.000000 1.628780 0.000000 
#    z 0.000000 0.000000 1.604180 
# 
# From -- ./inp_files/560.got.cif
#   From: 2010.05.17/outbox.cif.g08.bks.cpg/sg75_cif.got.tgz:560.got - 2010.06.03 18:42:43.
