data_PCOD9541709
_publ_section_title
;
Structure prediction by ZEFSAII (Michael W. Deem and Ramdas Pophale) SiO2 
 PCOD9541709
Probable space group: P 43
;
_chemical_formula_sum "Si O2"
_cell_formula_units_Z 24
_cell_length_a 5.183395
_cell_length_b 5.183395
_cell_length_c 36.408671
_cell_angle_alpha 90.000000
_cell_angle_beta 90.000000
_cell_angle_gamma 90.000000
_cell_volume 978.213016
_symmetry_space_group_name_H-M "P 43"
_symmetry_group_IT_number 78
_symmetry_cell_setting 'tetragonal'
loop_
_space_group_symop_operation_xyz
x,y,z
-y,x,3/4+z
-x,-y,1/2+z
y,-x,1/4+z
loop_
_atom_site_type_symbol
_atom_site_label
_atom_site_fract_x
_atom_site_fract_y
_atom_site_fract_z
Si Si1 0.177100 0.538686 0.339340
Si Si2 0.884628 0.424977 0.409641
Si Si3 0.115371 0.424978 0.608933
Si Si4 0.040658 0.973832 0.802580
Si Si5 0.461314 0.822900 0.429234
Si Si6 0.026168 0.959342 0.965995
O O1 0.441531 0.383876 0.347450
O O2 0.042205 0.579386 0.379114
O O3 0.035920 0.317408 0.314465
O O4 0.153931 0.808804 0.318192
O O5 0.821060 0.178939 0.384287
O O6 0.616123 0.558468 0.421124
O O7 0.023737 0.310201 0.445014
O O8 0.976262 0.310202 0.573560
O O9 0.957795 0.579386 0.639460
O O10 0.061218 0.000000 0.759287
O O11 0.191196 0.846069 0.450382
O O12 0.682593 0.964079 0.454109
#
# Coordination Sequence:
#
# PCOD9541709 Si02
#       6
#     4   4   4   4   4   4
#     4  11  23  42  71 102 140 196 249 312 378 458
#     4  10  23  39  69 101 138 190 250 308 370 460
#     4  10  23  39  69 101 138 190 250 308 370 460
#     4  11  25  44  66 105 151 190 250 319 387 458
#     4  11  23  42  71 102 140 196 249 312 378 458
#     4  11  25  44  66 105 151 190 250 319 387 458
#
# _framework density 24.53453
#
# number of rings (size 3 to 8) (size 9 to 14) (size 15 to 20)
#    0.000    1.333    3.333    1.000    4.667    1.333 
#    0.000    6.667    0.000    0.000    0.000    0.000 
#    0.000    0.000    0.000    0.000    0.000    0.000 
#
# Total GULP energy -134051.826572 kJ/mol
# GULP energy per Si atom -5585.492774 kJ/mol
# Density = 2.447869 g / cm^3
# Si number density = 24.534530 Si / 1000 Ang^3
#
#
#
# Elastic Constant Matrix: (Units=GPa)
#
#
# Indices 1 2 3 4 5 6 
#
# 1 109.2544 55.8525 49.6826 0.0000 0.0000 0.0000
# 2 55.8525 109.2544 49.6826 0.0000 0.0000 0.0000
# 3 49.6826 49.6826 231.1604 0.0000 0.0000 0.0000
# 4 0.0000 0.0000 0.0000 20.8194 0.0000 0.0000
# 5 0.0000 0.0000 0.0000 0.0000 20.8194 0.0000
# 6 0.0000 0.0000 0.0000 0.0000 0.0000 55.0369
#
#
#
# Elastic Compliance Matrix: (Units=1/GPa)
#
#
# Indices 1 2 3 4 5 6 
#
# 1 0.012841 -0.005885 -0.001495 0.000000 0.000000 0.000000
# 2 -0.005885 0.012841 -0.001495 0.000000 0.000000 0.000000
# 3 -0.001495 -0.001495 0.004969 0.000000 0.000000 0.000000
# 4 0.000000 0.000000 0.000000 0.048032 0.000000 0.000000
# 5 0.000000 0.000000 0.000000 0.000000 0.048032 0.000000
# 6 0.000000 0.000000 0.000000 0.000000 0.000000 0.018170
#
#
# Mechanical properties :
#
#
# Convention : Reuss Voigt Hill
#
# Bulk Modulus (GPa) = 77.51266 84.45609 80.98437
# Shear Modulus (GPa) = 29.95175 38.96526 34.45850
#
# Velocity S-wave (km/s) = 3.49779 3.98952 3.75172
# Velocity P-wave (km/s) = 6.92637 7.46457 7.20050
#
# Compressibility (1/GPa) = 0.01290112
#
# Stress axis : x y z
#
# Youngs Moduli (GPa) = 77.87429 77.87429 201.26022
#
# Poissons Ratio (x) = 0.45827 0.30091
# Poissons Ratio (y) = 0.45827 0.30091
# Poissons Ratio (z) = 0.11643 0.11643
#
# Static dielectric constant tensor:
#      x y z
#    x 2.102020 0.000000 0.000000 
#    y 0.000000 2.102020 0.000000 
#    z 0.000000 0.000000 1.926270 
# 
# From -- ./inp_files/1738.got.cif
#   From: 2010.05.17/outbox.cif.g08.bks.cpg/sg78_cif.got.tgz:1738.got - 2010.06.03 18:45:56.
