data_PCOD9541022
_publ_section_title
;
Structure prediction by ZEFSAII (Michael W. Deem and Ramdas Pophale) SiO2 
 PCOD9541022
Probable space group: P 4
;
_chemical_formula_sum "Si O2"
_cell_formula_units_Z 30
_cell_length_a 8.356370
_cell_length_b 8.356370
_cell_length_c 19.950656
_cell_angle_alpha 90.000000
_cell_angle_beta 90.000000
_cell_angle_gamma 90.000000
_cell_volume 1393.132753
_symmetry_space_group_name_H-M "P 4"
_symmetry_group_IT_number 75
_symmetry_cell_setting 'tetragonal'
loop_
_space_group_symop_operation_xyz
x,y,z
-y,x,z
-x,-y,z
y,-x,z
loop_
_atom_site_type_symbol
_atom_site_label
_atom_site_fract_x
_atom_site_fract_y
_atom_site_fract_z
Si Si1 0.742236 0.082767 0.522450
Si Si2 0.253166 0.906940 0.117651
Si Si3 0.733252 0.033599 0.890534
Si Si4 0.262428 0.046068 0.738860
Si Si5 0.251165 0.901916 0.271680
Si Si6 0.000000 0.500000 0.631058
Si Si7 0.240187 0.429594 0.996633
Si Si8 0.589761 0.245579 0.396411
O O1 0.617636 0.099667 0.583246
O O2 0.649279 0.127384 0.454685
O O3 0.900159 0.193525 0.525566
O O4 0.305044 0.884615 0.194723
O O5 0.383560 0.851188 0.064764
O O6 0.090405 0.802984 0.108140
O O7 0.680416 0.987797 0.814790
O O8 0.872166 0.167329 0.903339
O O9 0.601425 0.119493 0.935723
O O10 0.175169 0.876471 0.728480
O O11 0.391440 0.093385 0.684052
O O12 0.375679 0.838534 0.325603
O O13 0.086472 0.801147 0.281090
O O14 0.393453 0.311818 0.994310
O O15 0.697016 0.407058 0.402050
#
# Coordination Sequence:
#
# PCOD9541022 Si02
#       8
#     4   4   4   4   4   2   4   4
#     4  11  24  42  64  89 120 161 206 248 295 360
#     4   9  19  37  60  85 114 154 210 267 313 365
#     4   9  19  37  61  86 112 148 197 247 292 350
#     4   9  20  39  62  90 121 154 196 242 292 357
#     4   9  19  37  61  88 118 157 208 263 316 372
#     4  12  22  36  64  94 120 150 190 242 296 346
#     4  11  24  37  51  80 123 163 201 251 312 373
#     4  11  24  40  59  89 128 165 205 258 316 370
#
# _framework density 21.534199999999998
#
# number of rings (size 3 to 8) (size 9 to 14) (size 15 to 20)
#    0.000    2.000    0.000    4.800    0.000   10.133 
#    0.000    4.000    0.000    3.600    0.000    0.000 
#    0.000    0.000    0.000    0.000    0.000    0.000 
#
# Total GULP energy -167455.912888 kJ/mol
# GULP energy per Si atom -5581.863763 kJ/mol
# Density = 2.148519 g / cm^3
# Si number density = 21.534200 Si / 1000 Ang^3
#
#
#
# Elastic Constant Matrix: (Units=GPa)
#
#
# Indices 1 2 3 4 5 6 
#
# 1 81.3557 55.8677 59.3124 0.0000 0.0000 2.5530
# 2 55.8677 81.3557 59.3124 0.0000 0.0000 -2.5530
# 3 59.3124 59.3124 133.8067 0.0000 0.0000 0.0000
# 4 0.0000 0.0000 0.0000 -16.1133 0.0000 0.0000
# 5 0.0000 0.0000 0.0000 0.0000 -16.1133 0.0000
# 6 2.5530 -2.5530 0.0000 0.0000 0.0000 39.7198
#
#
#
# Elastic Compliance Matrix: (Units=1/GPa)
#
#
# Indices 1 2 3 4 5 6 
#
# 1 0.025780 -0.013966 -0.005237 0.000000 0.000000 -0.002555
# 2 -0.013966 0.025780 -0.005237 0.000000 0.000000 0.002555
# 3 -0.005237 -0.005237 0.012116 0.000000 0.000000 0.000000
# 4 0.000000 0.000000 0.000000 -0.062061 0.000000 0.000000
# 5 0.000000 0.000000 0.000000 0.000000 -0.062061 0.000000
# 6 -0.002555 0.002555 0.000000 0.000000 0.000000 0.025505
#
#
# Mechanical properties :
#
#
# Convention : Reuss Voigt Hill
#
# Bulk Modulus (GPa) = 67.57967 71.72255 69.65111
# Shear Modulus (GPa) = 264.93801 9.63369 137.28585
#
# Velocity S-wave (km/s) = 11.10398 2.11740 7.99318
# Velocity P-wave (km/s) = 13.99459 6.27348 10.84447
#
# Compressibility (1/GPa) = 0.01479735
#
# Stress axis : x y z
#
# Youngs Moduli (GPa) = 38.78939 38.78939 82.53331
#
# Poissons Ratio (x) = 0.54172 0.43223
# Poissons Ratio (y) = 0.54172 0.43223
# Poissons Ratio (z) = 0.20314 0.20314
#
# Static dielectric constant tensor:
#      x y z
#    x 1.805550 0.000000 0.000000 
#    y 0.000000 1.805550 0.000000 
#    z 0.000000 0.000000 1.792160 
# 
# From -- ./inp_files/764.got.cif
#   From: 2010.05.17/outbox.cif.g08.bks.cpg/sg75_cif.got.tgz:764.got - 2010.06.03 18:42:43.
