data_PCOD9541875
_publ_section_title
;
Structure prediction by ZEFSAII (Michael W. Deem and Ramdas Pophale) SiO2 
 PCOD9541875
Probable space group: I 4
;
_chemical_formula_sum "Si O2"
_cell_formula_units_Z 52
_cell_length_a 16.753889
_cell_length_b 16.753889
_cell_length_c 8.255723
_cell_angle_alpha 90.000000
_cell_angle_beta 90.000000
_cell_angle_gamma 90.000000
_cell_volume 2317.321977
_symmetry_space_group_name_H-M "I 4"
_symmetry_group_IT_number 79
_symmetry_cell_setting 'tetragonal'
loop_
_space_group_symop_operation_xyz
x,y,z
-y,x,z
-x,-y,z
y,-x,z
1/2+x,1/2+y,1/2+z
1/2-y,1/2+x,1/2+z
1/2-x,1/2-y,1/2+z
1/2+y,1/2-x,1/2+z
loop_
_atom_site_type_symbol
_atom_site_label
_atom_site_fract_x
_atom_site_fract_y
_atom_site_fract_z
Si Si1 0.455915 0.374448 0.157230
Si Si2 0.500000 0.000000 0.153358
Si Si3 0.732214 0.562499 0.704894
Si Si4 0.429917 0.882560 0.905931
Si Si5 0.209751 0.306881 0.502965
Si Si6 0.753803 0.368172 0.343525
Si Si7 0.307564 0.602118 0.812358
O O1 0.546929 0.401374 0.171452
O O2 0.431511 0.312697 0.295980
O O3 0.437551 0.338651 0.979850
O O4 0.425645 0.026195 0.258762
O O5 0.525698 0.078697 0.055987
O O6 0.789642 0.565600 0.863831
O O7 0.778423 0.600294 0.550293
O O8 0.707788 0.470816 0.690888
O O9 0.660436 0.623352 0.746518
O O10 0.336669 0.903434 0.906059
O O11 0.297261 0.274301 0.460022
O O12 0.175791 0.272049 0.671155
O O13 0.151283 0.272503 0.363570
#
# Coordination Sequence:
#
# PCOD9541875 Si02
#       7
#     8   4   8   8   8   8   8
#     4  10  21  39  65  94 133 175 226 271 336 409
#     4  10  24  44  66  98 134 168 236 292 344 426
#     4  11  24  40  71  99 136 180 227 282 350 406
#     4  10  23  45  66  98 131 177 223 285 355 408
#     4  10  21  44  65 100 133 175 232 279 341 413
#     4  10  22  43  68  95 132 177 228 275 343 413
#     4  11  21  41  68 101 133 176 230 281 330 423
#
# _framework density 22.439695
#
# number of rings (size 3 to 8) (size 9 to 14) (size 15 to 20)
#    0.000    1.692    4.615    0.000    6.462    1.538 
#    8.308    0.000    0.000    0.000    0.000    0.000 
#    0.000    0.000    0.000    0.000    0.000    0.000 
#
# Total GULP energy -145310.830260 kJ/mol
# GULP energy per Si atom -5588.878087 kJ/mol
# Density = 2.238862 g / cm^3
# Si number density = 22.439695 Si / 1000 Ang^3
#
#
#
# Elastic Constant Matrix: (Units=GPa)
#
#
# Indices 1 2 3 4 5 6 
#
# 1 107.9417 42.4570 16.7289 0.0000 0.0000 -22.4197
# 2 42.4570 107.9417 16.7289 0.0000 0.0000 22.4197
# 3 16.7289 16.7289 49.3277 0.0000 0.0000 0.0000
# 4 0.0000 0.0000 0.0000 28.2367 0.0000 0.0000
# 5 0.0000 0.0000 0.0000 0.0000 28.2367 0.0000
# 6 -22.4197 22.4197 0.0000 0.0000 0.0000 31.6115
#
#
#
# Elastic Compliance Matrix: (Units=1/GPa)
#
#
# Indices 1 2 3 4 5 6 
#
# 1 0.018440 -0.011248 -0.002439 0.000000 0.000000 0.021056
# 2 -0.011248 0.018440 -0.002439 0.000000 0.000000 -0.021056
# 3 -0.002439 -0.002439 0.021927 0.000000 0.000000 0.000000
# 4 0.000000 0.000000 0.000000 0.035415 0.000000 0.000000
# 5 0.000000 0.000000 0.000000 0.000000 0.035415 0.000000
# 6 0.021056 -0.021056 0.000000 0.000000 0.000000 0.061501
#
#
# Mechanical properties :
#
#
# Convention : Reuss Voigt Hill
#
# Bulk Modulus (GPa) = 37.65874 46.33786 41.99830
# Shear Modulus (GPa) = 21.52935 30.23671 25.88303
#
# Velocity S-wave (km/s) = 3.10083 3.67477 3.39993
# Velocity P-wave (km/s) = 5.44415 6.22093 5.84546
#
# Compressibility (1/GPa) = 0.02655426
#
# Stress axis : x y z
#
# Youngs Moduli (GPa) = 54.23021 54.23021 45.60615
#
# Poissons Ratio (x) = 0.61000 0.11123
# Poissons Ratio (y) = 0.61000 0.11123
# Poissons Ratio (z) = 0.13226 0.13226
#
# Static dielectric constant tensor:
#      x y z
#    x 1.791630 0.000000 0.000000 
#    y 0.000000 1.791630 0.000000 
#    z 0.000000 0.000000 1.840440 
# 
# From -- ./inp_files/679.got.cif
#   From: 2010.05.17/outbox.cif.g08.bks.cpg/sg79_cif.got.tgz:679.got - 2010.06.03 18:47:27.
