data_PCOD9541621
_publ_section_title
;
Structure prediction by ZEFSAII (Michael W. Deem and Ramdas Pophale) SiO2 
 PCOD9541621
Probable space group: P 43
;
_chemical_formula_sum "Si O2"
_cell_formula_units_Z 24
_cell_length_a 11.417690
_cell_length_b 11.417690
_cell_length_c 7.360797
_cell_angle_alpha 90.000000
_cell_angle_beta 90.000000
_cell_angle_gamma 90.000000
_cell_volume 959.580327
_symmetry_space_group_name_H-M "P 43"
_symmetry_group_IT_number 78
_symmetry_cell_setting 'tetragonal'
loop_
_space_group_symop_operation_xyz
x,y,z
-y,x,3/4+z
-x,-y,1/2+z
y,-x,1/4+z
loop_
_atom_site_type_symbol
_atom_site_label
_atom_site_fract_x
_atom_site_fract_y
_atom_site_fract_z
Si Si1 0.862801 0.216119 0.981720
Si Si2 0.889380 0.505184 0.365525
Si Si3 0.955459 0.659746 0.684125
Si Si4 0.884909 0.080116 0.498457
Si Si5 0.682609 0.771128 0.375704
Si Si6 0.348615 0.468777 0.709137
O O1 0.750817 0.135399 0.014080
O O2 0.816926 0.306969 0.829987
O O3 0.972095 0.149734 0.883842
O O4 0.920754 0.275366 0.154382
O O5 0.911504 0.619985 0.485475
O O6 0.837448 0.413664 0.508987
O O7 0.792097 0.513699 0.205792
O O8 0.011542 0.454324 0.296044
O O9 0.804249 0.192399 0.532077
O O10 0.015931 0.116980 0.556053
O O11 0.648251 0.635035 0.360662
O O12 0.416549 0.415006 0.536403
#
# Coordination Sequence:
#
# PCOD9541621 Si02
#       6
#     4   4   4   4   4   4
#     4  11  21  41  66  96 140 176 218 276 339 409
#     4  11  25  45  68 100 137 180 227 281 339 409
#     4  12  25  46  67 104 140 179 228 277 346 412
#     4  10  20  34  60  95 135 175 210 262 333 407
#     4  10  21  40  68  94 136 177 219 276 341 398
#     4  10  22  44  67  93 128 171 232 284 332 389
#
# _framework density 25.010933999999999
#
# number of rings (size 3 to 8) (size 9 to 14) (size 15 to 20)
#    0.000    1.333    5.000    1.000    2.333    2.667 
#    9.000    0.000    0.000    0.000    0.000    0.000 
#    0.000    0.000    0.000    0.000    0.000    0.000 
#
# Total GULP energy -134257.415861 kJ/mol
# GULP energy per Si atom -5594.058994 kJ/mol
# Density = 2.495401 g / cm^3
# Si number density = 25.010934 Si / 1000 Ang^3
#
#
#
# Elastic Constant Matrix: (Units=GPa)
#
#
# Indices 1 2 3 4 5 6 
#
# 1 93.7129 35.9410 6.3400 0.0000 0.0000 2.9297
# 2 35.9410 93.7129 6.3400 0.0000 0.0000 -2.9297
# 3 6.3400 6.3400 32.9449 0.0000 0.0000 0.0000
# 4 0.0000 0.0000 0.0000 29.3077 0.0000 0.0000
# 5 0.0000 0.0000 0.0000 0.0000 29.3077 0.0000
# 6 2.9297 -2.9297 0.0000 0.0000 0.0000 43.7647
#
#
#
# Elastic Compliance Matrix: (Units=1/GPa)
#
#
# Indices 1 2 3 4 5 6 
#
# 1 0.012644 -0.004783 -0.001513 0.000000 0.000000 -0.001167
# 2 -0.004783 0.012644 -0.001513 0.000000 0.000000 0.001167
# 3 -0.001513 -0.001513 0.030936 0.000000 0.000000 0.000000
# 4 0.000000 0.000000 0.000000 0.034121 0.000000 0.000000
# 5 0.000000 0.000000 0.000000 0.000000 0.034121 0.000000
# 6 -0.001167 0.001167 0.000000 0.000000 0.000000 0.023006
#
#
# Mechanical properties :
#
#
# Convention : Reuss Voigt Hill
#
# Bulk Modulus (GPa) = 24.62659 35.29032 29.95846
# Shear Modulus (GPa) = 28.30854 31.92600 30.11727
#
# Velocity S-wave (km/s) = 3.36794 3.57666 3.47387
# Velocity P-wave (km/s) = 4.99918 5.58545 5.30043
#
# Compressibility (1/GPa) = 0.04060651
#
# Stress axis : x y z
#
# Youngs Moduli (GPa) = 79.08714 79.08714 32.32482
#
# Poissons Ratio (x) = 0.37831 0.04890
# Poissons Ratio (y) = 0.37831 0.04890
# Poissons Ratio (z) = 0.11964 0.11964
#
# Static dielectric constant tensor:
#      x y z
#    x 2.022750 0.000000 0.000000 
#    y 0.000000 2.022750 0.000000 
#    z 0.000000 0.000000 2.027570 
# 
# From -- ./inp_files/579.got.cif
#   From: 2010.05.17/outbox.cif.g08.bks.cpg/sg78_cif.got.tgz:579.got - 2010.06.03 18:45:56.
