data_PCOD9541057
_publ_section_title
;
Structure prediction by ZEFSAII (Michael W. Deem and Ramdas Pophale) SiO2 
 PCOD9541057
Probable space group: P 4
;
_chemical_formula_sum "Si O2"
_cell_formula_units_Z 21
_cell_length_a 8.731900
_cell_length_b 8.731900
_cell_length_c 13.276836
_cell_angle_alpha 90.000000
_cell_angle_beta 90.000000
_cell_angle_gamma 90.000000
_cell_volume 1012.306668
_symmetry_space_group_name_H-M "P 4"
_symmetry_group_IT_number 75
_symmetry_cell_setting 'tetragonal'
loop_
_space_group_symop_operation_xyz
x,y,z
-y,x,z
-x,-y,z
y,-x,z
loop_
_atom_site_type_symbol
_atom_site_label
_atom_site_fract_x
_atom_site_fract_y
_atom_site_fract_z
Si Si1 0.606356 0.733557 0.092320
Si Si2 0.905885 0.342244 0.884431
Si Si3 0.733556 0.393634 0.676542
Si Si4 0.761033 0.901452 0.497507
Si Si5 0.000000 0.000000 0.884446
Si Si6 0.238970 0.098540 0.271346
O O1 0.427190 0.695484 0.099574
O O2 0.653398 0.844807 0.182953
O O3 0.650574 0.807031 0.986074
O O4 0.807054 0.349402 0.782777
O O5 0.000000 0.500000 0.884429
O O6 0.008493 0.189378 0.884445
O O7 0.695487 0.572803 0.669298
O O8 0.844788 0.346598 0.585897
O O9 0.699167 0.876002 0.384426
O O10 0.920968 0.808294 0.506419
O O11 0.079038 0.191703 0.262435
#
# Coordination Sequence:
#
# PCOD9541057 Si02
#       6
#     4   4   4   4   1   4
#     4  11  25  43  65  96 138 181 223 284 351 416
#     4  12  28  47  70 105 140 177 233 288 354 414
#     4  11  25  43  65  96 138 181 223 284 351 416
#     4   9  21  41  66  97 133 174 227 288 341 405
#     4  12  28  44  76 104 126 196 236 284 340 442
#     4   9  21  41  66  97 133 174 227 288 341 405
#
# _framework density 20.744703999999999
#
# number of rings (size 3 to 8) (size 9 to 14) (size 15 to 20)
#    0.000    1.524    0.000    4.571   10.667    3.048 
#    0.000    5.714    0.000    0.000    0.000    0.000 
#    0.000    0.000    0.000    0.000    0.000    0.000 
#
# Total GULP energy -117265.840350 kJ/mol
# GULP energy per Si atom -5584.087636 kJ/mol
# Density = 2.069749 g / cm^3
# Si number density = 20.744704 Si / 1000 Ang^3
#
#
#
# Elastic Constant Matrix: (Units=GPa)
#
#
# Indices 1 2 3 4 5 6 
#
# 1 57.4872 34.4725 36.8020 0.0000 0.0000 -3.8148
# 2 34.4725 57.4872 36.8020 0.0000 0.0000 3.8148
# 3 36.8020 36.8020 152.5219 0.0000 0.0000 0.0000
# 4 0.0000 0.0000 0.0000 64.4315 0.0000 0.0000
# 5 0.0000 0.0000 0.0000 0.0000 64.4315 0.0000
# 6 -3.8148 3.8148 0.0000 0.0000 0.0000 33.0023
#
#
#
# Elastic Compliance Matrix: (Units=1/GPa)
#
#
# Indices 1 2 3 4 5 6 
#
# 1 0.029330 -0.015852 -0.003252 0.000000 0.000000 0.005223
# 2 -0.015852 0.029330 -0.003252 0.000000 0.000000 -0.005223
# 3 -0.003252 -0.003252 0.008126 0.000000 0.000000 0.000000
# 4 0.000000 0.000000 0.000000 0.015520 0.000000 0.000000
# 5 0.000000 0.000000 0.000000 0.000000 0.015520 0.000000
# 6 0.005223 -0.005223 0.000000 0.000000 0.000000 0.031508
#
#
# Mechanical properties :
#
#
# Convention : Reuss Voigt Hill
#
# Bulk Modulus (GPa) = 45.30546 53.73882 49.52214
# Shear Modulus (GPa) = 27.56282 43.00103 35.28192
#
# Velocity S-wave (km/s) = 3.64904 4.55782 4.12851
# Velocity P-wave (km/s) = 6.29611 7.32525 6.83009
#
# Compressibility (1/GPa) = 0.02207240
#
# Stress axis : x y z
#
# Youngs Moduli (GPa) = 34.09531 34.09531 123.06579
#
# Poissons Ratio (x) = 0.54049 0.40020
# Poissons Ratio (y) = 0.54049 0.40020
# Poissons Ratio (z) = 0.11087 0.11087
#
# Static dielectric constant tensor:
#      x y z
#    x 1.734850 0.000000 0.000000 
#    y 0.000000 1.734850 0.000000 
#    z 0.000000 0.000000 1.704040 
# 
# From -- ./inp_files/509.got.cif
#   From: 2010.05.17/outbox.cif.g08.bks.cpg/sg75_cif.got.tgz:509.got - 2010.06.03 18:42:43.
