data_PCOD9541613
_publ_section_title
;
Structure prediction by ZEFSAII (Michael W. Deem and Ramdas Pophale) SiO2 
 PCOD9541613
Probable space group: P 43
;
_chemical_formula_sum "Si O2"
_cell_formula_units_Z 28
_cell_length_a 14.486088
_cell_length_b 14.486088
_cell_length_c 6.085391
_cell_angle_alpha 90.000000
_cell_angle_beta 90.000000
_cell_angle_gamma 90.000000
_cell_volume 1276.999497
_symmetry_space_group_name_H-M "P 43"
_symmetry_group_IT_number 78
_symmetry_cell_setting 'tetragonal'
loop_
_space_group_symop_operation_xyz
x,y,z
-y,x,3/4+z
-x,-y,1/2+z
y,-x,1/4+z
loop_
_atom_site_type_symbol
_atom_site_label
_atom_site_fract_x
_atom_site_fract_y
_atom_site_fract_z
Si Si1 0.701887 0.389998 0.113780
Si Si2 0.049978 0.316829 0.635592
Si Si3 0.987364 0.187910 0.260929
Si Si4 0.394054 0.427617 0.980835
Si Si5 0.115938 0.136852 0.887922
Si Si6 0.753216 0.599201 0.189925
Si Si7 0.703214 0.875573 0.640242
O O1 0.737589 0.488928 0.197107
O O2 0.659005 0.308806 0.267362
O O3 0.789070 0.352033 0.977982
O O4 0.620383 0.422497 0.954402
O O5 0.139973 0.379736 0.651712
O O6 0.034361 0.273290 0.393989
O O7 0.074419 0.226581 0.777272
O O8 0.956937 0.351772 0.758819
O O9 0.939832 0.125622 0.449003
O O10 0.916252 0.239199 0.097731
O O11 0.055601 0.127378 0.109117
O O12 0.401299 0.535591 0.036695
O O13 0.295136 0.382007 0.924492
O O14 0.219970 0.154158 0.964306
#
# Coordination Sequence:
#
# PCOD9541613 Si02
#       7
#     4   4   4   4   4   4   4
#     4  12  24  42  67 102 138 181 228 282 350 416
#     4  10  23  43  67  92 131 179 228 281 343 413
#     4  10  20  38  66  92 128 168 226 278 344 418
#     4  12  23  42  66 100 140 173 220 284 348 423
#     4  10  19  38  68  90 126 171 220 280 348 411
#     4  12  24  42  67 102 138 181 228 282 350 416
#     4  10  23  43  67  92 131 179 228 281 343 413
#
# _framework density 21.926397000000001
#
# number of rings (size 3 to 8) (size 9 to 14) (size 15 to 20)
#    0.000    1.143    2.857    4.286    0.000    2.286 
#    2.571    0.000  113.143    0.000    0.000    0.000 
#    0.000    0.000    0.000    0.000    0.000    0.000 
#
# Total GULP energy -156140.198044 kJ/mol
# GULP energy per Si atom -5576.435644 kJ/mol
# Density = 2.187649 g / cm^3
# Si number density = 21.926397 Si / 1000 Ang^3
#
#
#
# Elastic Constant Matrix: (Units=GPa)
#
#
# Indices 1 2 3 4 5 6 
#
# 1 65.4110 16.8401 4.0177 0.0000 0.0000 9.2444
# 2 16.8401 65.4110 4.0177 0.0000 0.0000 -9.2444
# 3 4.0177 4.0177 60.2984 0.0000 0.0000 0.0000
# 4 0.0000 0.0000 0.0000 28.6749 0.0000 0.0000
# 5 0.0000 0.0000 0.0000 0.0000 28.6749 0.0000
# 6 9.2444 -9.2444 0.0000 0.0000 0.0000 33.3226
#
#
#
# Elastic Compliance Matrix: (Units=1/GPa)
#
#
# Indices 1 2 3 4 5 6 
#
# 1 0.017628 -0.005391 -0.000815 0.000000 0.000000 -0.006386
# 2 -0.005391 0.017628 -0.000815 0.000000 0.000000 0.006386
# 3 -0.000815 -0.000815 0.016693 0.000000 0.000000 0.000000
# 4 0.000000 0.000000 0.000000 0.034874 0.000000 0.000000
# 5 0.000000 0.000000 0.000000 0.000000 0.034874 0.000000
# 6 -0.006386 0.006386 0.000000 0.000000 0.000000 0.033553
#
#
# Mechanical properties :
#
#
# Convention : Reuss Voigt Hill
#
# Bulk Modulus (GPa) = 26.38079 26.76350 26.57215
# Shear Modulus (GPa) = 27.48326 29.21747 28.35037
#
# Velocity S-wave (km/s) = 3.54423 3.65434 3.59970
# Velocity P-wave (km/s) = 5.36716 5.48071 5.42423
#
# Compressibility (1/GPa) = 0.03790636
#
# Stress axis : x y z
#
# Youngs Moduli (GPa) = 56.72654 56.72654 59.90591
#
# Poissons Ratio (x) = 0.30581 0.04885
# Poissons Ratio (y) = 0.30581 0.04885
# Poissons Ratio (z) = 0.04625 0.04625
#
# Static dielectric constant tensor:
#      x y z
#    x 1.850660 0.000000 0.000000 
#    y 0.000000 1.850660 0.000000 
#    z 0.000000 0.000000 1.868850 
# 
# From -- ./inp_files/269.got.cif
#   From: 2010.05.17/outbox.cif.g08.bks.cpg/sg78_cif.got.tgz:269.got - 2010.06.03 18:45:56.
