data_PCOD9541962
_publ_section_title
;
Structure prediction by ZEFSAII (Michael W. Deem and Ramdas Pophale) SiO2 
 PCOD9541962
Probable space group: I 4
;
_chemical_formula_sum "Si O2"
_cell_formula_units_Z 24
_cell_length_a 14.267510
_cell_length_b 14.267510
_cell_length_c 4.716996
_cell_angle_alpha 90.000000
_cell_angle_beta 90.000000
_cell_angle_gamma 90.000000
_cell_volume 960.200393
_symmetry_space_group_name_H-M "I 4"
_symmetry_group_IT_number 79
_symmetry_cell_setting 'tetragonal'
loop_
_space_group_symop_operation_xyz
x,y,z
-y,x,z
-x,-y,z
y,-x,z
1/2+x,1/2+y,1/2+z
1/2-y,1/2+x,1/2+z
1/2-x,1/2-y,1/2+z
1/2+y,1/2-x,1/2+z
loop_
_atom_site_type_symbol
_atom_site_label
_atom_site_fract_x
_atom_site_fract_y
_atom_site_fract_z
Si Si1 0.353310 0.532065 0.993900
Si Si2 0.192104 0.702613 0.190548
Si Si3 0.263662 0.982361 0.002439
O O1 0.394089 0.431331 0.917014
O O2 0.257634 0.543723 0.824954
O O3 0.332798 0.529828 0.326143
O O4 0.227654 0.767405 0.458492
O O5 0.179631 0.600514 0.347685
O O6 0.092683 0.714351 0.025179
#
# Coordination Sequence:
#
# PCOD9541962 Si02
#       3
#     8   8   8
#     4  11  22  38  66 103 140 178 232 307 380 437
#     4  12  26  46  76 110 150 198 248 308 372 442
#     4  12  24  43  70 103 144 190 244 297 364 441
#
# _framework density 24.994785
#
# number of rings (size 3 to 8) (size 9 to 14) (size 15 to 20)
#    0.000    0.333    0.000   12.000    0.000    2.667 
#    0.000    0.000    0.000   44.000    0.000    0.000 
#    0.000    0.000    0.000    0.000    0.000    0.000 
#
# Total GULP energy -66807.168180 kJ/mol
# GULP energy per Si atom -5567.264015 kJ/mol
# Density = 2.493790 g / cm^3
# Si number density = 24.994785 Si / 1000 Ang^3
#
#
#
# Elastic Constant Matrix: (Units=GPa)
#
#
# Indices 1 2 3 4 5 6 
#
# 1 116.2004 32.2634 30.0502 0.0000 0.0000 -7.5929
# 2 32.2634 116.2004 30.0502 0.0000 0.0000 7.5929
# 3 30.0502 30.0502 109.7645 0.0000 0.0000 0.0000
# 4 0.0000 0.0000 0.0000 42.0723 0.0000 0.0000
# 5 0.0000 0.0000 0.0000 0.0000 42.0723 0.0000
# 6 -7.5929 7.5929 0.0000 0.0000 0.0000 39.8288
#
#
#
# Elastic Compliance Matrix: (Units=1/GPa)
#
#
# Indices 1 2 3 4 5 6 
#
# 1 0.009957 -0.002382 -0.002074 0.000000 0.000000 0.002352
# 2 -0.002382 0.009957 -0.002074 0.000000 0.000000 -0.002352
# 3 -0.002074 -0.002074 0.010246 0.000000 0.000000 0.000000
# 4 0.000000 0.000000 0.000000 0.023769 0.000000 0.000000
# 5 0.000000 0.000000 0.000000 0.000000 0.023769 0.000000
# 6 0.002352 -0.002352 0.000000 0.000000 0.000000 0.026004
#
#
# Mechanical properties :
#
#
# Convention : Reuss Voigt Hill
#
# Bulk Modulus (GPa) = 58.47659 58.54367 58.51013
# Shear Modulus (GPa) = 40.82907 41.44811 41.13859
#
# Velocity S-wave (km/s) = 4.04605 4.07660 4.06135
# Velocity P-wave (km/s) = 6.72857 6.75511 6.74185
#
# Compressibility (1/GPa) = 0.01710086
#
# Stress axis : x y z
#
# Youngs Moduli (GPa) = 100.42959 100.42959 97.59974
#
# Poissons Ratio (x) = 0.23923 0.20241
# Poissons Ratio (y) = 0.23923 0.20241
# Poissons Ratio (z) = 0.20828 0.20828
#
# Static dielectric constant tensor:
#      x y z
#    x 2.051610 0.000000 0.000000 
#    y 0.000000 2.051610 0.000000 
#    z 0.000000 0.000000 1.881780 
# 
# From -- ./inp_files/68.got.cif
#   From: 2010.05.17/outbox.cif.g08.bks.cpg/sg79_cif.got.tgz:68.got - 2010.06.03 18:47:27.
