data_PCOD9541705
_publ_section_title
;
Structure prediction by ZEFSAII (Michael W. Deem and Ramdas Pophale) SiO2 
 PCOD9541705
Probable space group: P 43
;
_chemical_formula_sum "Si O2"
_cell_formula_units_Z 28
_cell_length_a 15.618963
_cell_length_b 15.618963
_cell_length_c 5.192500
_cell_angle_alpha 90.000000
_cell_angle_beta 90.000000
_cell_angle_gamma 90.000000
_cell_volume 1266.720787
_symmetry_space_group_name_H-M "P 43"
_symmetry_group_IT_number 78
_symmetry_cell_setting 'tetragonal'
loop_
_space_group_symop_operation_xyz
x,y,z
-y,x,3/4+z
-x,-y,1/2+z
y,-x,1/4+z
loop_
_atom_site_type_symbol
_atom_site_label
_atom_site_fract_x
_atom_site_fract_y
_atom_site_fract_z
Si Si1 0.721640 0.696302 0.813220
Si Si2 0.758950 0.138270 0.766925
Si Si3 0.278788 0.957975 0.742798
Si Si4 0.158655 0.722239 0.956590
Si Si5 0.375206 0.460070 0.367782
Si Si6 0.476225 0.944783 0.643932
Si Si7 0.433209 0.228596 0.975195
O O1 0.797660 0.681036 0.606018
O O2 0.687904 0.614298 0.971982
O O3 0.639645 0.731852 0.660501
O O4 0.752299 0.772703 0.996140
O O5 0.744458 0.074262 0.528693
O O6 0.827086 0.210055 0.686803
O O7 0.778081 0.083878 0.019380
O O8 0.377207 0.930749 0.706839
O O9 0.278350 0.058119 0.677433
O O10 0.188812 0.624528 0.001349
O O11 0.411936 0.539212 0.527709
O O12 0.309128 0.504946 0.164112
O O13 0.520830 0.852651 0.604645
O O14 0.485356 0.000206 0.381297
#
# Coordination Sequence:
#
# PCOD9541705 Si02
#       7
#     4   4   4   4   4   4   4
#     4  10  22  46  66 101 141 194 238 290 357 422
#     4  11  25  44  72 107 135 188 231 292 353 440
#     4  12  25  43  72 106 145 178 238 293 356 444
#     4  11  24  45  72 103 144 187 233 293 374 419
#     4  10  23  42  64  97 139 194 256 297 343 405
#     4  12  24  42  66 108 143 184 226 292 367 429
#     4  10  23  40  64  98 143 185 234 301 352 417
#
# _framework density 22.104319
#
# number of rings (size 3 to 8) (size 9 to 14) (size 15 to 20)
#    0.000    1.143    2.857    2.571    6.000    0.000 
#    0.000    0.000    0.000    1.714    0.000    0.000 
#    0.000    0.000    0.000    0.000    0.000    0.000 
#
# Total GULP energy -156038.356881 kJ/mol
# GULP energy per Si atom -5572.798460 kJ/mol
# Density = 2.205401 g / cm^3
# Si number density = 22.104319 Si / 1000 Ang^3
#
#
#
# Elastic Constant Matrix: (Units=GPa)
#
#
# Indices 1 2 3 4 5 6 
#
# 1 52.4560 9.4170 24.6084 0.0000 0.0000 -2.9900
# 2 9.4170 52.4560 24.6084 0.0000 0.0000 2.9900
# 3 24.6084 24.6084 90.3588 0.0000 0.0000 0.0000
# 4 0.0000 0.0000 0.0000 28.1701 0.0000 0.0000
# 5 0.0000 0.0000 0.0000 0.0000 28.1701 0.0000
# 6 -2.9900 2.9900 0.0000 0.0000 0.0000 8.0695
#
#
#
# Elastic Compliance Matrix: (Units=1/GPa)
#
#
# Indices 1 2 3 4 5 6 
#
# 1 0.022564 -0.001932 -0.005619 0.000000 0.000000 0.009077
# 2 -0.001932 0.022564 -0.005619 0.000000 0.000000 -0.009077
# 3 -0.005619 -0.005619 0.014127 0.000000 0.000000 0.000000
# 4 0.000000 0.000000 0.000000 0.035499 0.000000 0.000000
# 5 0.000000 0.000000 0.000000 0.000000 0.035499 0.000000
# 6 0.009077 -0.009077 0.000000 0.000000 0.000000 0.130650
#
#
# Mechanical properties :
#
#
# Convention : Reuss Voigt Hill
#
# Bulk Modulus (GPa) = 30.38095 34.72649 32.55372
# Shear Modulus (GPa) = 16.76649 21.99108 19.37878
#
# Velocity S-wave (km/s) = 2.75711 3.15759 2.96412
# Velocity P-wave (km/s) = 4.88975 5.38871 5.14528
#
# Compressibility (1/GPa) = 0.03291536
#
# Stress axis : x y z
#
# Youngs Moduli (GPa) = 44.31889 44.31889 70.78422
#
# Poissons Ratio (x) = 0.08563 0.39772
# Poissons Ratio (y) = 0.08563 0.39772
# Poissons Ratio (z) = 0.24902 0.24902
#
# Static dielectric constant tensor:
#      x y z
#    x 1.847480 0.000000 0.000000 
#    y 0.000000 1.847480 0.000000 
#    z 0.000000 0.000000 1.933260 
# 
# From -- ./inp_files/259.got.cif
#   From: 2010.05.17/outbox.cif.g08.bks.cpg/sg78_cif.got.tgz:259.got - 2010.06.03 18:45:56.
