data_PCOD9541819
_publ_section_title
;
Structure prediction by ZEFSAII (Michael W. Deem and Ramdas Pophale) SiO2 
 PCOD9541819
Probable space group: I 4
;
_chemical_formula_sum "Si O2"
_cell_formula_units_Z 60
_cell_length_a 12.432692
_cell_length_b 12.432692
_cell_length_c 22.318977
_cell_angle_alpha 90.000000
_cell_angle_beta 90.000000
_cell_angle_gamma 90.000000
_cell_volume 3449.885127
_symmetry_space_group_name_H-M "I 4"
_symmetry_group_IT_number 79
_symmetry_cell_setting 'tetragonal'
loop_
_space_group_symop_operation_xyz
x,y,z
-y,x,z
-x,-y,z
y,-x,z
1/2+x,1/2+y,1/2+z
1/2-y,1/2+x,1/2+z
1/2-x,1/2-y,1/2+z
1/2+y,1/2-x,1/2+z
loop_
_atom_site_type_symbol
_atom_site_label
_atom_site_fract_x
_atom_site_fract_y
_atom_site_fract_z
Si Si1 0.982132 0.353054 0.506060
Si Si2 0.471301 0.325852 0.917730
Si Si3 0.500000 0.000000 0.902674
Si Si4 0.474390 0.172775 0.809678
Si Si5 0.092384 0.676199 0.096428
Si Si6 0.160175 0.285895 0.089071
Si Si7 0.888788 0.678843 0.729527
Si Si8 0.284920 0.141694 0.721770
O O1 0.937751 0.428202 0.451451
O O2 0.071344 0.399299 0.552646
O O3 0.042496 0.261893 0.468924
O O4 0.878256 0.314021 0.541218
O O5 0.585823 0.381268 0.925450
O O6 0.475520 0.276428 0.851447
O O7 0.441031 0.079708 0.857225
O O8 0.587422 0.140122 0.778840
O O9 0.386979 0.184016 0.758542
O O10 0.177603 0.770375 0.079646
O O11 0.125372 0.637914 0.164062
O O12 0.970326 0.720821 0.092284
O O13 0.196267 0.334182 0.152438
O O14 0.817032 0.785348 0.739123
O O15 0.013500 0.713422 0.731389
#
# Coordination Sequence:
#
# PCOD9541819 Si02
#       8
#     8   8   4   8   8   8   8   8
#     4  11  20  37  60  87 109 148 194 237 268 333
#     4  10  22  38  56  84 122 154 182 232 292 334
#     4  10  20  30  62  82 102 142 196 228 268 304
#     4  11  20  37  60  87 109 148 194 237 268 333
#     4  11  22  37  60  86 115 149 187 235 288 342
#     4  11  22  37  60  86 115 149 187 235 288 342
#     4  11  22  37  60  86 115 149 187 235 288 342
#     4  11  22  37  60  86 115 149 187 235 288 342
#
# _framework density 17.391881999999999
#
# number of rings (size 3 to 8) (size 9 to 14) (size 15 to 20)
#    0.000    1.200    5.333    1.600    0.000    0.533 
#    0.000    0.000    0.000    0.000    0.000    1.867 
#    0.000    0.000    0.000    0.000    0.000    0.000 
#
# Total GULP energy -167089.277567 kJ/mol
# GULP energy per Si atom -5569.642586 kJ/mol
# Density = 1.735230 g / cm^3
# Si number density = 17.391882 Si / 1000 Ang^3
#
#
#
# Elastic Constant Matrix: (Units=GPa)
#
#
# Indices 1 2 3 4 5 6 
#
# 1 65.8181 18.0553 3.4047 0.0000 0.0000 1.9843
# 2 18.0553 65.8181 3.4047 0.0000 0.0000 -1.9843
# 3 3.4047 3.4047 69.3551 0.0000 0.0000 0.0000
# 4 0.0000 0.0000 0.0000 20.4821 0.0000 0.0000
# 5 0.0000 0.0000 0.0000 0.0000 20.4821 0.0000
# 6 1.9843 -1.9843 0.0000 0.0000 0.0000 28.2306
#
#
#
# Elastic Compliance Matrix: (Units=1/GPa)
#
#
# Indices 1 2 3 4 5 6 
#
# 1 0.016515 -0.004545 -0.000588 0.000000 0.000000 -0.001480
# 2 -0.004545 0.016515 -0.000588 0.000000 0.000000 0.001480
# 3 -0.000588 -0.000588 0.014476 0.000000 0.000000 0.000000
# 4 0.000000 0.000000 0.000000 0.048823 0.000000 0.000000
# 5 0.000000 0.000000 0.000000 0.000000 0.048823 0.000000
# 6 -0.001480 0.001480 0.000000 0.000000 0.000000 0.035631
#
#
# Mechanical properties :
#
#
# Convention : Reuss Voigt Hill
#
# Bulk Modulus (GPa) = 27.72648 27.85783 27.79216
# Shear Modulus (GPa) = 24.48036 25.58074 25.03055
#
# Velocity S-wave (km/s) = 3.75584 3.83932 3.79781
# Velocity P-wave (km/s) = 5.89790 5.97548 5.93681
#
# Compressibility (1/GPa) = 0.03606660
#
# Stress axis : x y z
#
# Youngs Moduli (GPa) = 60.55057 60.55057 69.07867
#
# Poissons Ratio (x) = 0.27518 0.04059
# Poissons Ratio (y) = 0.27518 0.04059
# Poissons Ratio (z) = 0.03558 0.03558
#
# Static dielectric constant tensor:
#      x y z
#    x 1.602810 0.000000 0.000000 
#    y 0.000000 1.602810 0.000000 
#    z 0.000000 0.000000 1.585840 
# 
# From -- ./inp_files/1865.got.cif
#   From: 2010.05.17/outbox.cif.g08.bks.cpg/sg79_cif.got.tgz:1865.got - 2010.06.03 18:47:27.
