data_PCOD9541047
_publ_section_title
;
Structure prediction by ZEFSAII (Michael W. Deem and Ramdas Pophale) SiO2 
 PCOD9541047
Probable space group: P 4
;
_chemical_formula_sum "Si O2"
_cell_formula_units_Z 26
_cell_length_a 8.482743
_cell_length_b 8.482743
_cell_length_c 17.537161
_cell_angle_alpha 90.000000
_cell_angle_beta 90.000000
_cell_angle_gamma 90.000000
_cell_volume 1261.920246
_symmetry_space_group_name_H-M "P 4"
_symmetry_group_IT_number 75
_symmetry_cell_setting 'tetragonal'
loop_
_space_group_symop_operation_xyz
x,y,z
-y,x,z
-x,-y,z
y,-x,z
loop_
_atom_site_type_symbol
_atom_site_label
_atom_site_fract_x
_atom_site_fract_y
_atom_site_fract_z
Si Si1 0.576051 0.245685 0.745150
Si Si2 0.256287 0.924087 0.441358
Si Si3 0.756286 0.575912 0.918374
Si Si4 0.500000 0.000000 0.179866
Si Si5 0.455659 0.760678 0.316340
Si Si6 0.739322 0.044341 0.043392
Si Si7 0.745685 0.076051 0.614582
O O1 0.688203 0.399463 0.737731
O O2 0.595320 0.184810 0.831502
O O3 0.626143 0.126142 0.679866
O O4 0.388493 0.877027 0.381061
O O5 0.315191 0.904680 0.528230
O O6 0.101307 0.811955 0.432426
O O7 0.601307 0.688045 0.927307
O O8 0.888494 0.622973 0.978670
O O9 0.476590 0.853622 0.237197
O O10 0.353622 0.976590 0.122534
O O11 0.326936 0.621866 0.322695
O O12 0.878134 0.173063 0.037037
O O13 0.899463 0.188203 0.622000
#
# Coordination Sequence:
#
# PCOD9541047 Si02
#       7
#     4   4   4   2   4   4   4
#     4   9  19  35  55  83 121 165 212 257 302 355
#     4   9  19  38  62  87 121 167 211 254 313 378
#     4   9  19  38  62  87 121 167 211 254 313 378
#     4  12  24  44  64  84 118 156 188 236 308 388
#     4  11  24  40  61  90 119 151 197 252 307 370
#     4  11  24  40  61  90 119 151 197 252 307 370
#     4   9  19  35  55  83 121 165 212 257 302 355
#
# _framework density 20.603521000000001
#
# number of rings (size 3 to 8) (size 9 to 14) (size 15 to 20)
#    0.000    2.154    0.000    4.615    0.000    3.077 
#    0.000   12.308    0.000    0.000    0.000    0.000 
#    0.000    0.000    0.000    0.000    0.000    0.000 
#
# Total GULP energy -145088.215568 kJ/mol
# GULP energy per Si atom -5580.315983 kJ/mol
# Density = 2.055663 g / cm^3
# Si number density = 20.603521 Si / 1000 Ang^3
#
#
#
# Elastic Constant Matrix: (Units=GPa)
#
#
# Indices 1 2 3 4 5 6 
#
# 1 120.4558 42.3153 88.2288 0.0000 0.0000 0.0005
# 2 42.3153 120.4558 88.2288 0.0000 0.0000 -0.0005
# 3 88.2288 88.2288 174.9853 0.0000 0.0000 0.0000
# 4 0.0000 0.0000 0.0000 47.8161 0.0000 0.0000
# 5 0.0000 0.0000 0.0000 0.0000 47.8161 0.0000
# 6 0.0005 -0.0005 0.0000 0.0000 0.0000 45.9053
#
#
#
# Elastic Compliance Matrix: (Units=1/GPa)
#
#
# Indices 1 2 3 4 5 6 
#
# 1 0.013174 0.000376 -0.006832 0.000000 0.000000 0.000000
# 2 0.000376 0.013174 -0.006832 0.000000 0.000000 0.000000
# 3 -0.006832 -0.006832 0.012604 0.000000 0.000000 0.000000
# 4 0.000000 0.000000 0.000000 0.020913 0.000000 0.000000
# 5 0.000000 0.000000 0.000000 0.000000 0.020913 0.000000
# 6 0.000000 0.000000 0.000000 0.000000 0.000000 0.021784
#
#
# Mechanical properties :
#
#
# Convention : Reuss Voigt Hill
#
# Bulk Modulus (GPa) = 80.79951 94.82695 87.81323
# Shear Modulus (GPa) = 37.51954 41.44910 39.48432
#
# Velocity S-wave (km/s) = 4.27198 4.49012 4.38240
# Velocity P-wave (km/s) = 7.97713 8.54436 8.26561
#
# Compressibility (1/GPa) = 0.01237631
#
# Stress axis : x y z
#
# Youngs Moduli (GPa) = 75.90822 75.90822 79.33787
#
# Poissons Ratio (x) = -0.02857 0.54204
# Poissons Ratio (y) = -0.02857 0.54204
# Poissons Ratio (z) = 0.51861 0.51861
#
# Static dielectric constant tensor:
#      x y z
#    x 1.765630 0.000000 0.000000 
#    y 0.000000 1.765630 0.000000 
#    z 0.000000 0.000000 1.706210 
# 
# From -- ./inp_files/731.got.cif
#   From: 2010.05.17/outbox.cif.g08.bks.cpg/sg75_cif.got.tgz:731.got - 2010.06.03 18:42:43.
