data_PCOD9541195
_publ_section_title
;
Structure prediction by ZEFSAII (Michael W. Deem and Ramdas Pophale) SiO2 
 PCOD9541195
Probable space group: P 41
;
_chemical_formula_sum "Si O2"
_cell_formula_units_Z 28
_cell_length_a 8.124938
_cell_length_b 8.124938
_cell_length_c 16.877866
_cell_angle_alpha 90.000000
_cell_angle_beta 90.000000
_cell_angle_gamma 90.000000
_cell_volume 1114.185868
_symmetry_space_group_name_H-M "P 41"
_symmetry_group_IT_number 76
_symmetry_cell_setting 'tetragonal'
loop_
_space_group_symop_operation_xyz
x,y,z
-y,x,1/4+z
-x,-y,1/2+z
y,-x,3/4+z
loop_
_atom_site_type_symbol
_atom_site_label
_atom_site_fract_x
_atom_site_fract_y
_atom_site_fract_z
Si Si1 0.220548 0.443694 0.064550
Si Si2 0.179064 0.251975 0.374070
Si Si3 0.758794 0.846638 0.035726
Si Si4 0.438264 0.677238 0.554783
Si Si5 0.575071 0.012518 0.163209
Si Si6 0.206974 0.433667 0.646071
Si Si7 0.898132 0.606979 0.722727
O O1 0.234157 0.633492 0.092923
O O2 0.391845 0.398883 0.024745
O O3 0.207109 0.343404 0.146796
O O4 0.076840 0.406436 0.002313
O O5 0.159672 0.130427 0.449354
O O6 0.082815 0.256490 0.290412
O O7 0.125734 0.431296 0.409209
O O8 0.843698 0.693231 0.078597
O O9 0.735905 0.966808 0.110651
O O10 0.563474 0.823520 0.010825
O O11 0.480040 0.831670 0.609802
O O12 0.342664 0.543436 0.604280
O O13 0.342121 0.728392 0.475101
O O14 0.065687 0.547489 0.681998
#
# Coordination Sequence:
#
# PCOD9541195 Si02
#       7
#     4   4   4   4   4   4   4
#     4  11  23  40  69 106 137 184 237 305 377 439
#     4  10  21  42  64  95 139 186 236 288 364 447
#     4  10  23  39  67  95 136 186 234 291 366 440
#     4  12  24  39  67 108 143 175 239 314 373 429
#     4  11  22  43  65 103 147 185 237 307 366 448
#     4  12  25  40  68 108 140 183 240 308 379 440
#     4  10  22  41  64  99 138 185 235 295 369 449
#
# _framework density 25.130458999999998
#
# number of rings (size 3 to 8) (size 9 to 14) (size 15 to 20)
#    0.000    1.143    4.286    3.429   10.000    0.000 
#    0.000    0.000    0.000   22.286    0.000    0.000 
#    0.000    0.000    0.000    0.000    0.000    0.000 
#
# Total GULP energy -156191.649743 kJ/mol
# GULP energy per Si atom -5578.273205 kJ/mol
# Density = 2.507326 g / cm^3
# Si number density = 25.130459 Si / 1000 Ang^3
#
#
#
# Elastic Constant Matrix: (Units=GPa)
#
#
# Indices 1 2 3 4 5 6 
#
# 1 43.9909 27.0336 32.3022 0.0000 0.0000 -1.7183
# 2 27.0336 43.9909 32.3022 0.0000 0.0000 1.7183
# 3 32.3022 32.3022 200.5617 0.0000 0.0000 0.0000
# 4 0.0000 0.0000 0.0000 46.1427 0.0000 0.0000
# 5 0.0000 0.0000 0.0000 0.0000 46.1427 0.0000
# 6 -1.7183 1.7183 0.0000 0.0000 0.0000 17.0161
#
#
#
# Elastic Compliance Matrix: (Units=1/GPa)
#
#
# Indices 1 2 3 4 5 6 
#
# 1 0.038350 -0.021854 -0.002657 0.000000 0.000000 0.006080
# 2 -0.021854 0.038350 -0.002657 0.000000 0.000000 -0.006080
# 3 -0.002657 -0.002657 0.005842 0.000000 0.000000 0.000000
# 4 0.000000 0.000000 0.000000 0.021672 0.000000 0.000000
# 5 0.000000 0.000000 0.000000 0.000000 0.021672 0.000000
# 6 0.006080 -0.006080 0.000000 0.000000 0.000000 0.059996
#
#
# Mechanical properties :
#
#
# Convention : Reuss Voigt Hill
#
# Bulk Modulus (GPa) = 35.45219 52.42441 43.93830
# Shear Modulus (GPa) = 20.03056 34.98736 27.50896
#
# Velocity S-wave (km/s) = 2.82629 3.73531 3.31213
# Velocity P-wave (km/s) = 4.97880 6.28566 5.67001
#
# Compressibility (1/GPa) = 0.02820700
#
# Stress axis : x y z
#
# Youngs Moduli (GPa) = 26.07560 26.07560 171.17939
#
# Poissons Ratio (x) = 0.56985 0.45480
# Poissons Ratio (y) = 0.56985 0.45480
# Poissons Ratio (z) = 0.06928 0.06928
#
# Static dielectric constant tensor:
#      x y z
#    x 2.038770 0.000000 0.000000 
#    y 0.000000 2.038770 0.000000 
#    z 0.000000 0.000000 2.016780 
# 
# From -- ./inp_files/1301.got.cif
#   From: 2010.05.17/outbox.cif.g08.bks.cpg/sg76_cif.got.tgz:1301.got - 2010.06.03 18:43:17.
