data_PCOD9541050
_publ_section_title
;
Structure prediction by ZEFSAII (Michael W. Deem and Ramdas Pophale) SiO2 
 PCOD9541050
Probable space group: P 4
;
_chemical_formula_sum "Si O2"
_cell_formula_units_Z 18
_cell_length_a 11.547435
_cell_length_b 11.547435
_cell_length_c 6.561568
_cell_angle_alpha 90.000000
_cell_angle_beta 90.000000
_cell_angle_gamma 90.000000
_cell_volume 874.940836
_symmetry_space_group_name_H-M "P 4"
_symmetry_group_IT_number 75
_symmetry_cell_setting 'tetragonal'
loop_
_space_group_symop_operation_xyz
x,y,z
-y,x,z
-x,-y,z
y,-x,z
loop_
_atom_site_type_symbol
_atom_site_label
_atom_site_fract_x
_atom_site_fract_y
_atom_site_fract_z
Si Si1 0.695173 0.968650 0.272380
Si Si2 0.000000 0.500000 0.578074
Si Si3 0.674813 0.797228 0.946780
Si Si4 0.154507 0.407057 0.939685
Si Si5 0.049348 0.820963 0.673258
O O1 0.586586 0.941081 0.417650
O O2 0.730310 0.858370 0.141802
O O3 0.797161 0.982441 0.436699
O O4 0.649602 0.068247 0.112186
O O5 0.085864 0.428512 0.726814
O O6 0.734890 0.674948 0.912927
O O7 0.537681 0.803337 0.986939
O O8 0.711119 0.884738 0.766581
O O9 0.923751 0.864124 0.743971
#
# Coordination Sequence:
#
# PCOD9541050 Si02
#       5
#     4   2   4   4   4
#     4  12  21  42  68  96 127 175 227 275 342 411
#     4  12  20  44  68  94 124 178 226 270 342 412
#     4  12  24  42  65 100 135 182 227 282 341 406
#     4  12  25  43  70  99 137 182 230 284 344 414
#     4  11  24  41  65 101 138 171 222 288 344 405
#
# _framework density 20.572821000000001
#
# number of rings (size 3 to 8) (size 9 to 14) (size 15 to 20)
#    0.000    0.222    6.667    4.000    0.000    0.444 
#    0.000    2.222    0.000    0.000    0.000    0.000 
#    0.000    0.000    0.000    0.000    0.000    0.000 
#
# Total GULP energy -100208.359284 kJ/mol
# GULP energy per Si atom -5567.131071 kJ/mol
# Density = 2.052600 g / cm^3
# Si number density = 20.572821 Si / 1000 Ang^3
#
#
#
# Elastic Constant Matrix: (Units=GPa)
#
#
# Indices 1 2 3 4 5 6 
#
# 1 89.8926 61.4352 26.6526 0.0000 0.0000 1.3891
# 2 61.4352 89.8926 26.6526 0.0000 0.0000 -1.3891
# 3 26.6526 26.6526 100.0805 0.0000 0.0000 0.0000
# 4 0.0000 0.0000 0.0000 21.8942 0.0000 0.0000
# 5 0.0000 0.0000 0.0000 0.0000 21.8942 0.0000
# 6 1.3891 -1.3891 0.0000 0.0000 0.0000 44.9772
#
#
#
# Elastic Compliance Matrix: (Units=1/GPa)
#
#
# Indices 1 2 3 4 5 6 
#
# 1 0.021269 -0.013977 -0.001942 0.000000 0.000000 -0.001089
# 2 -0.013977 0.021269 -0.001942 0.000000 0.000000 0.001089
# 3 -0.001942 -0.001942 0.011026 0.000000 0.000000 0.000000
# 4 0.000000 0.000000 0.000000 0.045674 0.000000 0.000000
# 5 0.000000 0.000000 0.000000 0.000000 0.045674 0.000000
# 6 -0.001089 0.001089 0.000000 0.000000 0.000000 0.022301
#
#
# Mechanical properties :
#
#
# Convention : Reuss Voigt Hill
#
# Bulk Modulus (GPa) = 56.04512 56.59405 56.31958
# Shear Modulus (GPa) = 23.93675 28.76149 26.34912
#
# Velocity S-wave (km/s) = 3.41473 3.74308 3.58267
# Velocity P-wave (km/s) = 6.54589 6.80072 6.67452
#
# Compressibility (1/GPa) = 0.01784277
#
# Stress axis : x y z
#
# Youngs Moduli (GPa) = 47.01599 47.01599 90.69213
#
# Poissons Ratio (x) = 0.65715 0.17612
# Poissons Ratio (y) = 0.65715 0.17612
# Poissons Ratio (z) = 0.09131 0.09131
#
# Static dielectric constant tensor:
#      x y z
#    x 1.778820 0.000000 0.000000 
#    y 0.000000 1.778820 0.000000 
#    z 0.000000 0.000000 1.786600 
# 
# From -- ./inp_files/110.got.cif
#   From: 2010.05.17/outbox.cif.g08.bks.cpg/sg75_cif.got.tgz:110.got - 2010.06.03 18:42:43.
