data_PCOD9541186
_publ_section_title
;
Structure prediction by ZEFSAII (Michael W. Deem and Ramdas Pophale) SiO2 
 PCOD9541186
Probable space group: P 41
;
_chemical_formula_sum "Si O2"
_cell_formula_units_Z 28
_cell_length_a 16.136651
_cell_length_b 16.136651
_cell_length_c 5.250594
_cell_angle_alpha 90.000000
_cell_angle_beta 90.000000
_cell_angle_gamma 90.000000
_cell_volume 1367.210076
_symmetry_space_group_name_H-M "P 41"
_symmetry_group_IT_number 76
_symmetry_cell_setting 'tetragonal'
loop_
_space_group_symop_operation_xyz
x,y,z
-y,x,1/4+z
-x,-y,1/2+z
y,-x,3/4+z
loop_
_atom_site_type_symbol
_atom_site_label
_atom_site_fract_x
_atom_site_fract_y
_atom_site_fract_z
Si Si1 0.712578 0.668966 0.388940
Si Si2 0.068228 0.277909 0.419055
Si Si3 0.217510 0.407665 0.408072
Si Si4 0.167501 0.191203 0.042069
Si Si5 0.594296 0.810879 0.309316
Si Si6 0.929976 0.897613 0.184738
Si Si7 0.676091 0.882197 0.804411
O O1 0.737367 0.619274 0.645083
O O2 0.778720 0.744902 0.376618
O O3 0.626417 0.717703 0.366786
O O4 0.723299 0.613276 0.143217
O O5 0.136441 0.349759 0.441950
O O6 0.087498 0.242690 0.136229
O O7 0.082553 0.192788 0.570183
O O8 0.979015 0.309797 0.502574
O O9 0.191267 0.502265 0.446612
O O10 0.236793 0.164934 0.249624
O O11 0.133087 0.106905 0.921734
O O12 0.611621 0.854330 0.581925
O O13 0.646849 0.856547 0.085869
O O14 0.024853 0.907723 0.263477
#
# Coordination Sequence:
#
# PCOD9541186 Si02
#       7
#     4   4   4   4   4   4   4
#     4  10  21  40  68  95 124 172 206 264 324 403
#     4  11  24  40  61  87 128 180 226 272 347 385
#     4  11  23  42  70  97 131 169 219 266 328 415
#     4  10  22  41  61  86 122 176 231 265 328 391
#     4  11  24  43  65 103 129 166 224 269 334 402
#     4  12  27  38  57  89 130 174 236 292 324 366
#     4  11  25  38  66  89 136 175 220 292 329 388
#
# _framework density 20.479659999999999
#
# number of rings (size 3 to 8) (size 9 to 14) (size 15 to 20)
#    0.000    1.143    1.429    5.143   12.000    1.143 
#    0.000    0.000    0.000    1.714    0.000    0.000 
#    0.000    0.000    0.000    0.000    0.000    0.000 
#
# Total GULP energy -156242.817144 kJ/mol
# GULP energy per Si atom -5580.100612 kJ/mol
# Density = 2.043305 g / cm^3
# Si number density = 20.479660 Si / 1000 Ang^3
#
#
#
# Elastic Constant Matrix: (Units=GPa)
#
#
# Indices 1 2 3 4 5 6 
#
# 1 96.3800 23.8222 25.4439 0.0000 0.0000 -3.4022
# 2 23.8222 96.3800 25.4439 0.0000 0.0000 3.4022
# 3 25.4439 25.4439 93.4942 0.0000 0.0000 0.0000
# 4 0.0000 0.0000 0.0000 25.7677 0.0000 0.0000
# 5 0.0000 0.0000 0.0000 0.0000 25.7677 0.0000
# 6 -3.4022 3.4022 0.0000 0.0000 0.0000 17.6744
#
#
#
# Elastic Compliance Matrix: (Units=1/GPa)
#
#
# Indices 1 2 3 4 5 6 
#
# 1 0.011719 -0.002316 -0.002559 0.000000 0.000000 0.002702
# 2 -0.002316 0.011719 -0.002559 0.000000 0.000000 -0.002702
# 3 -0.002559 -0.002559 0.012089 0.000000 0.000000 0.000000
# 4 0.000000 0.000000 0.000000 0.038808 0.000000 0.000000
# 5 0.000000 0.000000 0.000000 0.000000 0.038808 0.000000
# 6 0.002702 -0.002702 0.000000 0.000000 0.000000 0.057619
#
#
# Mechanical properties :
#
#
# Convention : Reuss Voigt Hill
#
# Bulk Modulus (GPa) = 48.40650 48.40823 48.40736
# Shear Modulus (GPa) = 25.97177 27.94492 26.95834
#
# Velocity S-wave (km/s) = 3.56501 3.69795 3.63209
# Velocity P-wave (km/s) = 6.37443 6.47469 6.42476
#
# Compressibility (1/GPa) = 0.02065838
#
# Stress axis : x y z
#
# Youngs Moduli (GPa) = 85.33123 85.33123 82.72248
#
# Poissons Ratio (x) = 0.19766 0.21168
# Poissons Ratio (y) = 0.19766 0.21168
# Poissons Ratio (z) = 0.21835 0.21835
#
# Static dielectric constant tensor:
#      x y z
#    x 1.736410 0.000000 0.000000 
#    y 0.000000 1.736410 0.000000 
#    z 0.000000 0.000000 1.934150 
# 
# From -- ./inp_files/226.got.cif
#   From: 2010.05.17/outbox.cif.g08.bks.cpg/sg76_cif.got.tgz:226.got - 2010.06.03 18:43:17.
