data_PCOD9541993
_publ_section_title
;
Structure prediction by ZEFSAII (Michael W. Deem and Ramdas Pophale) SiO2 
 PCOD9541993
Probable space group: I 4
;
_chemical_formula_sum "Si O2"
_cell_formula_units_Z 36
_cell_length_a 7.967876
_cell_length_b 7.967876
_cell_length_c 25.889286
_cell_angle_alpha 90.000000
_cell_angle_beta 90.000000
_cell_angle_gamma 90.000000
_cell_volume 1643.634342
_symmetry_space_group_name_H-M "I 4"
_symmetry_group_IT_number 79
_symmetry_cell_setting 'tetragonal'
loop_
_space_group_symop_operation_xyz
x,y,z
-y,x,z
-x,-y,z
y,-x,z
1/2+x,1/2+y,1/2+z
1/2-y,1/2+x,1/2+z
1/2-x,1/2-y,1/2+z
1/2+y,1/2-x,1/2+z
loop_
_atom_site_type_symbol
_atom_site_label
_atom_site_fract_x
_atom_site_fract_y
_atom_site_fract_z
Si Si1 0.500000 0.000000 0.887020
Si Si2 0.400796 0.233508 0.301368
Si Si3 0.733820 0.100103 0.577552
Si Si4 0.733824 0.911938 0.973979
Si Si5 0.603679 0.765397 0.189280
O O1 0.610239 0.115599 0.849137
O O2 0.387232 0.110333 0.925504
O O3 0.595607 0.294242 0.304286
O O4 0.365813 0.152652 0.244981
O O5 0.624472 0.147873 0.528584
O O6 0.651534 0.135477 0.633775
O O7 0.906768 0.207064 0.575197
O O8 0.897112 0.796446 0.970770
O O9 0.409162 0.707202 0.189290
#
# Coordination Sequence:
#
# PCOD9541993 Si02
#       5
#     4   8   8   8   8
#     4  12  22  34  54  78 102 140 196 244 280 324
#     4   9  18  35  58  83 112 146 185 230 282 344
#     4   9  17  33  59  89 117 145 181 228 281 339
#     4  11  24  40  56  77 109 150 195 244 297 350
#     4   7  12  27  53  83 113 142 173 214 268 331
#
# _framework density 21.902678999999999
#
# number of rings (size 3 to 8) (size 9 to 14) (size 15 to 20)
#    0.000    2.667    0.000    5.333    0.000    1.778 
#    0.000    7.778    0.000    6.000    0.000    0.000 
#    0.000    0.000    0.000    0.000    0.000    0.000 
#
# Total GULP energy -100514.098614 kJ/mol
# GULP energy per Si atom -5584.116590 kJ/mol
# Density = 2.185283 g / cm^3
# Si number density = 21.902679 Si / 1000 Ang^3
#
#
#
# Elastic Constant Matrix: (Units=GPa)
#
#
# Indices 1 2 3 4 5 6 
#
# 1 62.5124 15.8242 58.3160 0.0000 0.0000 3.1794
# 2 15.8242 62.5124 58.3160 0.0000 0.0000 -3.1794
# 3 58.3160 58.3160 266.9595 0.0000 0.0000 0.0000
# 4 0.0000 0.0000 0.0000 -9.3382 0.0000 0.0000
# 5 0.0000 0.0000 0.0000 0.0000 -9.3382 0.0000
# 6 3.1794 -3.1794 0.0000 0.0000 0.0000 16.0127
#
#
#
# Elastic Compliance Matrix: (Units=1/GPa)
#
#
# Indices 1 2 3 4 5 6 
#
# 1 0.020466 -0.001548 -0.004133 0.000000 0.000000 -0.004371
# 2 -0.001548 0.020466 -0.004133 0.000000 0.000000 0.004371
# 3 -0.004133 -0.004133 0.005551 0.000000 0.000000 0.000000
# 4 0.000000 0.000000 0.000000 -0.107087 0.000000 0.000000
# 5 0.000000 0.000000 0.000000 0.000000 -0.107087 0.000000
# 6 -0.004371 0.004371 0.000000 0.000000 0.000000 0.064186
#
#
# Mechanical properties :
#
#
# Convention : Reuss Voigt Hill
#
# Bulk Modulus (GPa) = 37.23355 72.98856 55.11105
# Shear Modulus (GPa) = -66.73284 16.76914 -24.98185
#
# Velocity S-wave (km/s) = -5.52576 2.76999 -3.38092
# Velocity P-wave (km/s) = 4.86576 6.60506 3.15842
#
# Compressibility (1/GPa) = 0.02685750
#
# Stress axis : x y z
#
# Youngs Moduli (GPa) = 48.86119 48.86117 180.13536
#
# Poissons Ratio (x) = 0.07563 0.74443
# Poissons Ratio (y) = 0.07563 0.74443
# Poissons Ratio (z) = 0.20192 0.20192
#
# Static dielectric constant tensor:
#      x y z
#    x 1.820180 0.000000 0.000000 
#    y 0.000000 1.820180 0.000000 
#    z 0.000000 0.000000 1.842370 
# 
# From -- ./inp_files/2019.got.cif
#   From: 2010.05.17/outbox.cif.g08.bks.cpg/sg79_cif.got.tgz:2019.got - 2010.06.03 18:47:27.
