data_PCOD9541398
_publ_section_title
;
Structure prediction by ZEFSAII (Michael W. Deem and Ramdas Pophale) SiO2 
 PCOD9541398
Probable space group: P 41
;
_chemical_formula_sum "Si O2"
_cell_formula_units_Z 16
_cell_length_a 4.950827
_cell_length_b 4.950827
_cell_length_c 24.433843
_cell_angle_alpha 90.000000
_cell_angle_beta 90.000000
_cell_angle_gamma 90.000000
_cell_volume 598.890302
_symmetry_space_group_name_H-M "P 41"
_symmetry_group_IT_number 76
_symmetry_cell_setting 'tetragonal'
loop_
_space_group_symop_operation_xyz
x,y,z
-y,x,1/4+z
-x,-y,1/2+z
y,-x,3/4+z
loop_
_atom_site_type_symbol
_atom_site_label
_atom_site_fract_x
_atom_site_fract_y
_atom_site_fract_z
Si Si1 0.764838 0.155496 0.539070
Si Si2 0.593055 0.359822 0.057626
Si Si3 0.254101 0.870849 0.382038
Si Si4 0.629343 0.124395 0.702062
O O1 0.542313 0.925380 0.544285
O O2 0.659076 0.435952 0.562958
O O3 0.014184 0.089582 0.579318
O O4 0.862625 0.227340 0.478345
O O5 0.768808 0.456809 0.109552
O O6 0.740730 0.477977 0.003631
O O7 0.104923 0.612564 0.408665
O O8 0.273424 0.117642 0.424335
#
# Coordination Sequence:
#
# PCOD9541398 Si02
#       4
#     4   4   4   4
#     4  11  25  49  78 117 163 210 266 331 398 479
#     4  11  25  49  78 117 163 210 266 331 398 479
#     4  11  24  48  78 120 160 216 264 333 398 478
#     4  11  24  48  78 118 164 212 270 329 402 474
#
# _framework density 26.716083000000001
#
# number of rings (size 3 to 8) (size 9 to 14) (size 15 to 20)
#    0.000    1.000    2.500    3.000    0.000    8.000 
#   18.000    0.000    0.000    0.000    0.000    0.000 
#    0.000    0.000    0.000    0.000    0.000    0.000 
#
# Total GULP energy -89560.986497 kJ/mol
# GULP energy per Si atom -5597.561656 kJ/mol
# Density = 2.665528 g / cm^3
# Si number density = 26.716083 Si / 1000 Ang^3
#
#
#
# Elastic Constant Matrix: (Units=GPa)
#
#
# Indices 1 2 3 4 5 6 
#
# 1 138.8043 42.1204 38.9647 0.0000 0.0000 -0.5023
# 2 42.1204 138.8043 38.9647 0.0000 0.0000 0.5023
# 3 38.9647 38.9647 93.2483 0.0000 0.0000 0.0000
# 4 0.0000 0.0000 0.0000 34.9610 0.0000 0.0000
# 5 0.0000 0.0000 0.0000 0.0000 34.9610 0.0000
# 6 -0.5023 0.5023 0.0000 0.0000 0.0000 29.3828
#
#
#
# Elastic Compliance Matrix: (Units=1/GPa)
#
#
# Indices 1 2 3 4 5 6 
#
# 1 0.008543 -0.001802 -0.002816 0.000000 0.000000 0.000177
# 2 -0.001802 0.008543 -0.002816 0.000000 0.000000 -0.000177
# 3 -0.002816 -0.002816 0.013078 0.000000 0.000000 0.000000
# 4 0.000000 0.000000 0.000000 0.028603 0.000000 0.000000
# 5 0.000000 0.000000 0.000000 0.000000 0.028603 0.000000
# 6 0.000177 -0.000177 0.000000 0.000000 0.000000 0.034040
#
#
# Mechanical properties :
#
#
# Convention : Reuss Voigt Hill
#
# Bulk Modulus (GPa) = 65.39166 67.88404 66.63785
# Shear Modulus (GPa) = 35.36641 36.58145 35.97393
#
# Velocity S-wave (km/s) = 3.64234 3.70438 3.67349
# Velocity P-wave (km/s) = 6.49757 6.61522 6.55666
#
# Compressibility (1/GPa) = 0.01529247
#
# Stress axis : x y z
#
# Youngs Moduli (GPa) = 117.06093 117.06093 76.46516
#
# Poissons Ratio (x) = 0.21097 0.21536
# Poissons Ratio (y) = 0.21097 0.21536
# Poissons Ratio (z) = 0.32970 0.32970
#
# Static dielectric constant tensor:
#      x y z
#    x 2.135450 0.000000 0.000000 
#    y 0.000000 2.135450 0.000000 
#    z 0.000000 0.000000 2.171370 
# 
# From -- ./inp_files/1490.got.cif
#   From: 2010.05.17/outbox.cif.g08.bks.cpg/sg76_cif.got.tgz:1490.got - 2010.06.03 18:43:17.
