data_PCOD9541711
_publ_section_title
;
Structure prediction by ZEFSAII (Michael W. Deem and Ramdas Pophale) SiO2 
 PCOD9541711
Probable space group: P 43
;
_chemical_formula_sum "Si O2"
_cell_formula_units_Z 32
_cell_length_a 8.015137
_cell_length_b 8.015137
_cell_length_c 19.089031
_cell_angle_alpha 90.000000
_cell_angle_beta 90.000000
_cell_angle_gamma 90.000000
_cell_volume 1226.325568
_symmetry_space_group_name_H-M "P 43"
_symmetry_group_IT_number 78
_symmetry_cell_setting 'tetragonal'
loop_
_space_group_symop_operation_xyz
x,y,z
-y,x,3/4+z
-x,-y,1/2+z
y,-x,1/4+z
loop_
_atom_site_type_symbol
_atom_site_label
_atom_site_fract_x
_atom_site_fract_y
_atom_site_fract_z
Si Si1 0.240443 0.887103 0.716370
Si Si2 0.629808 0.264569 0.076477
Si Si3 0.683134 0.214634 0.657717
Si Si4 0.075714 0.275241 0.196380
Si Si5 0.984082 0.648536 0.184674
Si Si6 0.120597 0.740014 0.330217
Si Si7 0.250496 0.620165 0.958359
Si Si8 0.359690 0.577703 0.807228
O O1 0.269462 0.833499 0.635554
O O2 0.313822 0.738173 0.763113
O O3 0.042440 0.869884 0.725849
O O4 0.327657 0.061551 0.730483
O O5 0.444657 0.193569 0.081244
O O6 0.610448 0.459254 0.088759
O O7 0.701220 0.230530 0.999016
O O8 0.841228 0.328375 0.641876
O O9 0.592398 0.240984 0.730323
O O10 0.490980 0.252565 0.624858
O O11 0.732829 0.034514 0.634410
O O12 0.978546 0.451578 0.200427
O O13 0.128491 0.239117 0.117416
O O14 0.038101 0.753186 0.254013
O O15 0.805179 0.715892 0.162128
O O16 0.413441 0.651132 0.008665
#
# Coordination Sequence:
#
# PCOD9541711 Si02
#       8
#     4   4   4   4   4   4   4   4
#     4  12  22  42  68  96 137 180 230 286 353 429
#     4  11  22  41  68  95 136 178 231 287 351 431
#     4  10  23  46  69  99 144 182 234 295 362 424
#     4  11  25  41  68 102 137 179 237 291 357 429
#     4  11  24  47  69 103 144 188 240 297 359 435
#     4  11  23  45  67 102 138 180 239 294 357 433
#     4  10  24  45  66 102 139 184 236 288 367 418
#     4  10  23  41  67 101 133 183 235 288 360 427
#
# _framework density 26.094215999999999
#
# number of rings (size 3 to 8) (size 9 to 14) (size 15 to 20)
#    0.750    0.500    1.250    5.250    0.000    5.000 
#    9.000    0.000    0.000    0.000    0.000    0.000 
#    0.000    0.000    0.000    0.000    0.000    0.000 
#
# Total GULP energy -178670.318763 kJ/mol
# GULP energy per Si atom -5583.447461 kJ/mol
# Density = 2.603482 g / cm^3
# Si number density = 26.094216 Si / 1000 Ang^3
#
#
#
# Elastic Constant Matrix: (Units=GPa)
#
#
# Indices 1 2 3 4 5 6 
#
# 1 133.8707 21.8297 18.1431 0.0000 0.0000 19.4715
# 2 21.8297 133.8707 18.1431 0.0000 0.0000 -19.4715
# 3 18.1431 18.1431 96.1033 0.0000 0.0000 0.0000
# 4 0.0000 0.0000 0.0000 29.5010 0.0000 0.0000
# 5 0.0000 0.0000 0.0000 0.0000 29.5010 0.0000
# 6 19.4715 -19.4715 0.0000 0.0000 0.0000 -16.9552
#
#
#
# Elastic Compliance Matrix: (Units=1/GPa)
#
#
# Indices 1 2 3 4 5 6 
#
# 1 0.006549 0.000170 -0.001268 0.000000 0.000000 0.007326
# 2 0.000170 0.006549 -0.001268 0.000000 0.000000 -0.007326
# 3 -0.001268 -0.001268 0.010884 0.000000 0.000000 0.000000
# 4 0.000000 0.000000 0.000000 0.033897 0.000000 0.000000
# 5 0.000000 0.000000 0.000000 0.000000 0.033897 0.000000
# 6 0.007326 -0.007326 0.000000 0.000000 0.000000 -0.042153
#
#
# Mechanical properties :
#
#
# Convention : Reuss Voigt Hill
#
# Bulk Modulus (GPa) = 51.95487 53.34182 52.64835
# Shear Modulus (GPa) = 82.27366 28.79126 55.53246
#
# Velocity S-wave (km/s) = 5.62120 3.32529 4.61819
# Velocity P-wave (km/s) = 7.87936 5.93547 6.97546
#
# Compressibility (1/GPa) = 0.01924747
#
# Stress axis : x y z
#
# Youngs Moduli (GPa) = 152.70421 152.70421 91.87503
#
# Poissons Ratio (x) = -0.02589 0.11653
# Poissons Ratio (y) = -0.02589 0.11653
# Poissons Ratio (z) = 0.19368 0.19368
#
# Static dielectric constant tensor:
#      x y z
#    x 2.062260 0.000000 0.000000 
#    y 0.000000 2.062260 0.000000 
#    z 0.000000 0.000000 2.183110 
# 
# From -- ./inp_files/1473.got.cif
#   From: 2010.05.17/outbox.cif.g08.bks.cpg/sg78_cif.got.tgz:1473.got - 2010.06.03 18:45:56.
