data_PCOD9541246
_publ_section_title
;
Structure prediction by ZEFSAII (Michael W. Deem and Ramdas Pophale) SiO2 
 PCOD9541246
Probable space group: P 41
;
_chemical_formula_sum "Si O2"
_cell_formula_units_Z 16
_cell_length_a 7.599111
_cell_length_b 7.599111
_cell_length_c 9.998277
_cell_angle_alpha 90.000000
_cell_angle_beta 90.000000
_cell_angle_gamma 90.000000
_cell_volume 577.365383
_symmetry_space_group_name_H-M "P 41"
_symmetry_group_IT_number 76
_symmetry_cell_setting 'tetragonal'
loop_
_space_group_symop_operation_xyz
x,y,z
-y,x,1/4+z
-x,-y,1/2+z
y,-x,3/4+z
loop_
_atom_site_type_symbol
_atom_site_label
_atom_site_fract_x
_atom_site_fract_y
_atom_site_fract_z
Si Si1 0.484685 0.009998 0.013160
Si Si2 0.014178 0.123835 0.747505
Si Si3 0.753767 0.807519 0.696443
Si Si4 0.340214 0.468028 0.399534
O O1 0.675731 0.053430 0.958123
O O2 0.386080 0.173604 0.079542
O O3 0.519542 0.862115 0.128992
O O4 0.335966 0.908637 0.925814
O O5 0.996739 0.837423 0.965344
O O6 0.002152 0.134047 0.907369
O O7 0.658620 0.725059 0.827160
O O8 0.409355 0.449698 0.548310
#
# Coordination Sequence:
#
# PCOD9541246 Si02
#       4
#     4   4   4   4
#     4  10  23  46  77 110 154 210 265 331 396 476
#     4  12  25  49  79 116 164 210 267 331 400 483
#     4  10  22  45  72 113 149 202 268 326 386 481
#     4  10  22  42  72 109 159 200 262 334 382 474
#
# _framework density 27.712084000000001
#
# number of rings (size 3 to 8) (size 9 to 14) (size 15 to 20)
#    1.500    0.000    2.500    3.000    0.000    4.000 
#    0.000    2.500    0.000    0.000    0.000    0.000 
#    0.000    0.000    0.000    0.000    0.000    0.000 
#
# Total GULP energy -89159.131587 kJ/mol
# GULP energy per Si atom -5572.445724 kJ/mol
# Density = 2.764901 g / cm^3
# Si number density = 27.712084 Si / 1000 Ang^3
#
#
#
# Elastic Constant Matrix: (Units=GPa)
#
#
# Indices 1 2 3 4 5 6 
#
# 1 129.4693 24.9360 49.0817 0.0000 0.0000 4.7454
# 2 24.9360 129.4693 49.0817 0.0000 0.0000 -4.7454
# 3 49.0817 49.0817 103.5035 0.0000 0.0000 0.0000
# 4 0.0000 0.0000 0.0000 46.9269 0.0000 0.0000
# 5 0.0000 0.0000 0.0000 0.0000 46.9269 0.0000
# 6 4.7454 -4.7454 0.0000 0.0000 0.0000 28.0504
#
#
#
# Elastic Compliance Matrix: (Units=1/GPa)
#
#
# Indices 1 2 3 4 5 6 
#
# 1 0.009494 -0.000222 -0.004397 0.000000 0.000000 -0.001644
# 2 -0.000222 0.009494 -0.004397 0.000000 0.000000 0.001644
# 3 -0.004397 -0.004397 0.013831 0.000000 0.000000 0.000000
# 4 0.000000 0.000000 0.000000 0.021310 0.000000 0.000000
# 5 0.000000 0.000000 0.000000 0.000000 0.021310 0.000000
# 6 -0.001644 0.001644 0.000000 0.000000 0.000000 0.036206
#
#
# Mechanical properties :
#
#
# Convention : Reuss Voigt Hill
#
# Bulk Modulus (GPa) = 67.62229 67.62675 67.62452
# Shear Modulus (GPa) = 37.14597 40.33700 38.74148
#
# Velocity S-wave (km/s) = 3.66515 3.81934 3.74304
# Velocity P-wave (km/s) = 6.50890 6.62617 6.56780
#
# Compressibility (1/GPa) = 0.01478802
#
# Stress axis : x y z
#
# Youngs Moduli (GPa) = 105.33422 105.33422 72.29974
#
# Poissons Ratio (x) = 0.02338 0.31788
# Poissons Ratio (y) = 0.02338 0.31788
# Poissons Ratio (z) = 0.46312 0.46312
#
# Static dielectric constant tensor:
#      x y z
#    x 2.224330 0.000000 0.000000 
#    y 0.000000 2.224330 0.000000 
#    z 0.000000 0.000000 2.284260 
# 
# From -- ./inp_files/762.got.cif
#   From: 2010.05.17/outbox.cif.g08.bks.cpg/sg76_cif.got.tgz:762.got - 2010.06.03 18:43:17.
