data_PCOD9541786
_publ_section_title
;
Structure prediction by ZEFSAII (Michael W. Deem and Ramdas Pophale) SiO2 
 PCOD9541786
Probable space group: P 43
;
_chemical_formula_sum "Si O2"
_cell_formula_units_Z 28
_cell_length_a 11.519561
_cell_length_b 11.519561
_cell_length_c 9.172108
_cell_angle_alpha 90.000000
_cell_angle_beta 90.000000
_cell_angle_gamma 90.000000
_cell_volume 1217.141351
_symmetry_space_group_name_H-M "P 43"
_symmetry_group_IT_number 78
_symmetry_cell_setting 'tetragonal'
loop_
_space_group_symop_operation_xyz
x,y,z
-y,x,3/4+z
-x,-y,1/2+z
y,-x,1/4+z
loop_
_atom_site_type_symbol
_atom_site_label
_atom_site_fract_x
_atom_site_fract_y
_atom_site_fract_z
Si Si1 0.254576 0.828623 0.406430
Si Si2 0.476712 0.220260 0.960522
Si Si3 0.614866 0.560762 0.277644
Si Si4 0.255963 0.122601 0.886392
Si Si5 0.859805 0.777200 0.121939
Si Si6 0.814463 0.516164 0.055965
Si Si7 0.094707 0.726778 0.643050
O O1 0.389332 0.792390 0.411182
O O2 0.176350 0.759243 0.294812
O O3 0.190581 0.799496 0.555883
O O4 0.241152 0.962805 0.368063
O O5 0.414654 0.330003 0.882214
O O6 0.397269 0.117851 0.888429
O O7 0.484781 0.228619 0.139146
O O8 0.577156 0.457402 0.380727
O O9 0.734967 0.524790 0.202471
O O10 0.189537 0.216012 0.785550
O O11 0.196901 0.996923 0.868875
O O12 0.853312 0.649864 0.050180
O O13 0.768410 0.868938 0.053568
O O14 0.894015 0.407441 0.099595
#
# Coordination Sequence:
#
# PCOD9541786 Si02
#       7
#     4   4   4   4   4   4   4
#     4  12  27  49  78 110 152 205 258 319 389 457
#     4  12  26  49  74 110 152 198 256 315 384 457
#     4  12  26  42  72 108 150 194 244 302 378 448
#     4  12  27  48  75 112 153 201 258 318 382 456
#     4  12  27  48  75 112 153 201 258 318 382 456
#     4  12  26  49  74 110 152 198 256 315 384 457
#     4  12  27  49  78 110 152 205 258 319 389 457
#
# _framework density 23.004724
#
# number of rings (size 3 to 8) (size 9 to 14) (size 15 to 20)
#    0.000    0.000    4.286    5.143    2.000    3.429 
#    0.000    0.000    0.000    0.000    0.000    0.000 
#    0.000    0.000    0.000    0.000    0.000    0.000 
#
# Total GULP energy -156057.589872 kJ/mol
# GULP energy per Si atom -5573.485353 kJ/mol
# Density = 2.295236 g / cm^3
# Si number density = 23.004724 Si / 1000 Ang^3
#
#
#
# Elastic Constant Matrix: (Units=GPa)
#
#
# Indices 1 2 3 4 5 6 
#
# 1 90.1197 19.1303 -3.8182 0.0000 0.0000 -3.7841
# 2 19.1303 90.1197 -3.8182 0.0000 0.0000 3.7841
# 3 -3.8182 -3.8182 47.9292 0.0000 0.0000 0.0000
# 4 0.0000 0.0000 0.0000 40.9908 0.0000 0.0000
# 5 0.0000 0.0000 0.0000 0.0000 40.9908 0.0000
# 6 -3.7841 3.7841 0.0000 0.0000 0.0000 22.1265
#
#
#
# Elastic Compliance Matrix: (Units=1/GPa)
#
#
# Indices 1 2 3 4 5 6 
#
# 1 0.011776 -0.002572 0.000733 0.000000 0.000000 0.002454
# 2 -0.002572 0.011776 0.000733 0.000000 0.000000 -0.002454
# 3 0.000733 0.000733 0.020981 0.000000 0.000000 0.000000
# 4 0.000000 0.000000 0.000000 0.024396 0.000000 0.000000
# 5 0.000000 0.000000 0.000000 0.000000 0.024396 0.000000
# 6 0.002454 -0.002454 0.000000 0.000000 0.000000 0.046034
#
#
# Mechanical properties :
#
#
# Convention : Reuss Voigt Hill
#
# Bulk Modulus (GPa) = 23.62773 27.90626 25.76700
# Shear Modulus (GPa) = 32.11770 35.26660 33.69215
#
# Velocity S-wave (km/s) = 3.74054 3.91962 3.83113
# Velocity P-wave (km/s) = 5.38040 5.71328 5.54934
#
# Compressibility (1/GPa) = 0.04232315
#
# Stress axis : x y z
#
# Youngs Moduli (GPa) = 84.91566 84.91566 47.66234
#
# Poissons Ratio (x) = 0.21839 -0.03495
# Poissons Ratio (y) = 0.21839 -0.03495
# Poissons Ratio (z) = -0.06227 -0.06227
#
# Static dielectric constant tensor:
#      x y z
#    x 1.872020 0.000000 0.000000 
#    y 0.000000 1.872020 0.000000 
#    z 0.000000 0.000000 1.875610 
# 
# From -- ./inp_files/628.got.cif
#   From: 2010.05.17/outbox.cif.g08.bks.cpg/sg78_cif.got.tgz:628.got - 2010.06.03 18:45:56.
