data_PCOD9541477
_publ_section_title
;
Structure prediction by ZEFSAII (Michael W. Deem and Ramdas Pophale) SiO2 
 PCOD9541477
Probable space group: P 42
;
_chemical_formula_sum "Si O2"
_cell_formula_units_Z 24
_cell_length_a 7.980729
_cell_length_b 7.980729
_cell_length_c 18.192425
_cell_angle_alpha 90.000000
_cell_angle_beta 90.000000
_cell_angle_gamma 90.000000
_cell_volume 1158.712577
_symmetry_space_group_name_H-M "P 42"
_symmetry_group_IT_number 77
_symmetry_cell_setting 'tetragonal'
loop_
_space_group_symop_operation_xyz
x,y,z
-y,x,1/2+z
-x,-y,z
y,-x,1/2+z
loop_
_atom_site_type_symbol
_atom_site_label
_atom_site_fract_x
_atom_site_fract_y
_atom_site_fract_z
Si Si1 0.184995 0.927569 0.271730
Si Si2 0.811767 0.432705 0.193673
Si Si3 0.366337 0.752997 0.390937
Si Si4 0.588153 0.171838 0.917446
Si Si5 0.315910 0.266813 0.284168
Si Si6 0.692435 0.436257 0.028627
O O1 0.206916 0.751413 0.229413
O O2 0.239028 0.884382 0.355526
O O3 0.295788 0.086586 0.246404
O O4 0.000000 0.000000 0.264212
O O5 0.694446 0.575525 0.230172
O O6 0.000000 0.500000 0.206176
O O7 0.774693 0.423099 0.107459
O O8 0.288023 0.568457 0.394096
O O9 0.520311 0.743303 0.334420
O O10 0.436998 0.784988 0.472283
O O11 0.702840 0.167564 0.844753
O O12 0.680668 0.261449 0.984451
O O13 0.500000 0.000000 0.937428
O O14 0.500000 0.500000 0.037029
#
# Coordination Sequence:
#
# PCOD9541477 Si02
#       6
#     4   4   4   4   4   4
#     4  12  24  40  67 105 131 174 232 282 346 415
#     4  12  25  44  66  92 145 184 215 290 357 400
#     4  10  22  43  69  99 131 174 231 284 332 407
#     4  10  19  40  68  98 135 177 218 281 342 397
#     4  11  22  40  69  98 128 173 235 280 336 406
#     4   9  23  42  67  95 132 184 230 265 344 419
#
# _framework density 20.712641000000001
#
# number of rings (size 3 to 8) (size 9 to 14) (size 15 to 20)
#    0.000    1.333    3.333    3.500    2.333    2.667 
#    6.000    0.000    0.000    0.000    0.000    0.000 
#    0.000    0.000    0.000    0.000    0.000    0.000 
#
# Total GULP energy -134077.894441 kJ/mol
# GULP energy per Si atom -5586.578935 kJ/mol
# Density = 2.066550 g / cm^3
# Si number density = 20.712641 Si / 1000 Ang^3
#
#
#
# Elastic Constant Matrix: (Units=GPa)
#
#
# Indices 1 2 3 4 5 6 
#
# 1 97.7580 26.3130 43.8374 0.0000 0.0000 1.7895
# 2 26.3130 97.7580 43.8374 0.0000 0.0000 -1.7895
# 3 43.8374 43.8374 130.7345 0.0000 0.0000 0.0000
# 4 0.0000 0.0000 0.0000 18.5301 0.0000 0.0000
# 5 0.0000 0.0000 0.0000 0.0000 18.5301 0.0000
# 6 1.7895 -1.7895 0.0000 0.0000 0.0000 24.6525
#
#
#
# Elastic Compliance Matrix: (Units=1/GPa)
#
#
# Indices 1 2 3 4 5 6 
#
# 1 0.012305 -0.001743 -0.003542 0.000000 0.000000 -0.001020
# 2 -0.001743 0.012305 -0.003542 0.000000 0.000000 0.001020
# 3 -0.003542 -0.003542 0.010024 0.000000 0.000000 0.000000
# 4 0.000000 0.000000 0.000000 0.053966 0.000000 0.000000
# 5 0.000000 0.000000 0.000000 0.000000 0.053966 0.000000
# 6 -0.001020 0.001020 0.000000 0.000000 0.000000 0.040712
#
#
# Mechanical properties :
#
#
# Convention : Reuss Voigt Hill
#
# Bulk Modulus (GPa) = 58.88435 61.58068 60.23252
# Shear Modulus (GPa) = 24.20220 26.49337 25.34779
#
# Velocity S-wave (km/s) = 3.42200 3.58032 3.50206
# Velocity P-wave (km/s) = 6.64111 6.84742 6.74505
#
# Compressibility (1/GPa) = 0.01698244
#
# Stress axis : x y z
#
# Youngs Moduli (GPa) = 81.26566 81.26566 99.75670
#
# Poissons Ratio (x) = 0.14161 0.35333
# Poissons Ratio (y) = 0.14161 0.35333
# Poissons Ratio (z) = 0.28783 0.28783
#
# Static dielectric constant tensor:
#      x y z
#    x 1.796490 0.000000 0.000000 
#    y 0.000000 1.796490 0.000000 
#    z 0.000000 0.000000 1.713460 
# 
# From -- ./inp_files/1305.got.cif
#   From: 2010.05.17/outbox.cif.g08.bks.cpg/sg77_cif.got.tgz:1305.got - 2010.06.03 18:44:51.
