data_PCOD9541079
_publ_section_title
;
Structure prediction by ZEFSAII (Michael W. Deem and Ramdas Pophale) SiO2 
 PCOD9541079
Probable space group: P 41
;
_chemical_formula_sum "Si O2"
_cell_formula_units_Z 24
_cell_length_a 13.660347
_cell_length_b 13.660347
_cell_length_c 6.356448
_cell_angle_alpha 90.000000
_cell_angle_beta 90.000000
_cell_angle_gamma 90.000000
_cell_volume 1186.145489
_symmetry_space_group_name_H-M "P 41"
_symmetry_group_IT_number 76
_symmetry_cell_setting 'tetragonal'
loop_
_space_group_symop_operation_xyz
x,y,z
-y,x,1/4+z
-x,-y,1/2+z
y,-x,3/4+z
loop_
_atom_site_type_symbol
_atom_site_label
_atom_site_fract_x
_atom_site_fract_y
_atom_site_fract_z
Si Si1 0.726923 0.815704 0.185610
Si Si2 0.249180 0.999080 0.432074
Si Si3 0.336005 0.846337 0.176434
Si Si4 0.094136 0.399587 0.014850
Si Si5 0.080891 0.904626 0.655231
Si Si6 0.879440 0.461903 0.156132
O O1 0.803393 0.866499 0.349171
O O2 0.626492 0.815426 0.314004
O O3 0.768140 0.718622 0.074974
O O4 0.724159 0.890638 0.986356
O O5 0.277637 0.948873 0.214704
O O6 0.318207 0.939956 0.597094
O O7 0.137402 0.976353 0.489168
O O8 0.445625 0.860016 0.257701
O O9 0.348486 0.832795 0.928145
O O10 0.993635 0.432282 0.129813
O O11 0.134301 0.493957 0.889578
O O12 0.965217 0.898483 0.615207
#
# Coordination Sequence:
#
# PCOD9541079 Si02
#       6
#     4   4   4   4   4   4
#     4   9  19  36  54  80 117 151 202 250 307 367
#     4   8  18  35  50  76 114 149 196 238 289 357
#     4  10  19  35  57  82 118 149 196 256 302 364
#     4  10  18  33  57  83 108 157 199 244 301 349
#     4   9  17  35  47  70 112 156 195 228 277 349
#     4  10  19  34  55  81 117 152 202 250 302 356
#
# _framework density 20.233606999999999
#
# number of rings (size 3 to 8) (size 9 to 14) (size 15 to 20)
#    0.000    2.667    1.667    0.000    0.000    0.000 
#   27.000   11.667    0.000    0.000    0.000    0.000 
#   20.000    0.000    0.000    2.000    0.000    0.000 
#
# Total GULP energy -133749.316099 kJ/mol
# GULP energy per Si atom -5572.888171 kJ/mol
# Density = 2.018755 g / cm^3
# Si number density = 20.233607 Si / 1000 Ang^3
#
#
#
# Elastic Constant Matrix: (Units=GPa)
#
#
# Indices 1 2 3 4 5 6 
#
# 1 82.5701 23.4636 34.1507 0.0000 0.0000 -1.7976
# 2 23.4636 82.5701 34.1507 0.0000 0.0000 1.7976
# 3 34.1507 34.1507 78.0609 0.0000 0.0000 0.0000
# 4 0.0000 0.0000 0.0000 26.9141 0.0000 0.0000
# 5 0.0000 0.0000 0.0000 0.0000 26.9141 0.0000
# 6 -1.7976 1.7976 0.0000 0.0000 0.0000 17.7940
#
#
#
# Elastic Compliance Matrix: (Units=1/GPa)
#
#
# Indices 1 2 3 4 5 6 
#
# 1 0.015077 -0.001946 -0.005745 0.000000 0.000000 0.001720
# 2 -0.001946 0.015077 -0.005745 0.000000 0.000000 -0.001720
# 3 -0.005745 -0.005745 0.017837 0.000000 0.000000 0.000000
# 4 0.000000 0.000000 0.000000 0.037155 0.000000 0.000000
# 5 0.000000 0.000000 0.000000 0.000000 0.037155 0.000000
# 6 0.001720 -0.001720 0.000000 0.000000 0.000000 0.056546
#
#
# Mechanical properties :
#
#
# Convention : Reuss Voigt Hill
#
# Bulk Modulus (GPa) = 47.34699 47.41454 47.38077
# Shear Modulus (GPa) = 23.50068 24.42020 23.96044
#
# Velocity S-wave (km/s) = 3.41173 3.47783 3.44494
# Velocity P-wave (km/s) = 6.24266 6.29377 6.26827
#
# Compressibility (1/GPa) = 0.02112067
#
# Stress axis : x y z
#
# Youngs Moduli (GPa) = 66.32463 66.32463 56.06286
#
# Poissons Ratio (x) = 0.12906 0.32207
# Poissons Ratio (y) = 0.12906 0.32207
# Poissons Ratio (z) = 0.38103 0.38103
#
# Static dielectric constant tensor:
#      x y z
#    x 1.740460 0.000000 0.000000 
#    y 0.000000 1.740460 0.000000 
#    z 0.000000 0.000000 1.834880 
# 
# From -- ./inp_files/220.got.cif
#   From: 2010.05.17/outbox.cif.g08.bks.cpg/sg76_cif.got.tgz:220.got - 2010.06.03 18:43:17.
