data_PCOD9541796
_publ_section_title
;
Structure prediction by ZEFSAII (Michael W. Deem and Ramdas Pophale) SiO2 
 PCOD9541796
Probable space group: P 43
;
_chemical_formula_sum "Si O2"
_cell_formula_units_Z 28
_cell_length_a 15.000000
_cell_length_b 15.000000
_cell_length_c 6.000000
_cell_angle_alpha 90.000000
_cell_angle_beta 90.000000
_cell_angle_gamma 90.000000
_cell_volume 1350.000000
_symmetry_space_group_name_H-M "P 43"
_symmetry_group_IT_number 78
_symmetry_cell_setting 'tetragonal'
loop_
_space_group_symop_operation_xyz
x,y,z
-y,x,3/4+z
-x,-y,1/2+z
y,-x,1/4+z
loop_
_atom_site_type_symbol
_atom_site_label
_atom_site_fract_x
_atom_site_fract_y
_atom_site_fract_z
Si Si1 0.042704 0.523500 0.950470
Si Si2 0.671885 0.715541 0.607141
Si Si3 0.494727 0.367658 0.312728
Si Si4 0.921079 0.112725 0.914160
Si Si5 0.714413 0.890356 0.355340
Si Si6 0.805073 0.769194 0.983010
Si Si7 0.601250 0.203612 0.530850
O O1 0.130800 0.463592 0.894924
O O2 0.993013 0.511416 0.700833
O O3 0.056059 0.630379 0.998314
O O4 0.577082 0.666961 0.629974
O O5 0.665645 0.813208 0.499216
O O6 0.721177 0.732427 0.841337
O O7 0.740270 0.656933 0.462643
O O8 0.572669 0.432929 0.225790
O O9 0.539870 0.278254 0.410295
O O10 0.929679 0.203343 0.758357
O O11 0.901005 0.017732 0.787710
O O12 0.833020 0.133463 0.072249
O O13 0.767250 0.838732 0.162030
O O14 0.837368 0.679099 0.115677
#
# Coordination Sequence:
#
# PCOD9541796 Si02
#       7
#     4   4   4   4   4   4   4
#     4  12  32  51  80 118 160 213 277 341 405 499
#     4  10  23  44  73 104 146 206 257 331 393 478
#     4  12  24  39  70 111 154 207 273 332 397 476
#     4  11  28  50  80 122 159 203 268 350 429 519
#     4  10  26  50  77 105 156 206 262 332 414 495
#     4  10  23  49  77 107 148 208 261 327 414 489
#     4  11  26  47  73 107 155 207 270 331 408 484
#
# _framework density 20.740741
#
# number of rings (size 3 to 8) (size 9 to 14) (size 15 to 20)
#    0.000    1.143    1.429    1.714   14.000    4.571 
#    0.000    0.000    0.000    0.000    0.000    0.000 
#    0.000    0.000    0.000    0.000    0.000    0.000 
#
# Total GULP energy -156187.179262 kJ/mol
# GULP energy per Si atom -5578.113545 kJ/mol
# Density = 2.069353 g / cm^3
# Si number density = 20.740741 Si / 1000 Ang^3
#
#
#
# Elastic Constant Matrix: (Units=GPa)
#
#
# Indices 1 2 3 4 5 6 
#
# 1 142.1314 71.4247 56.5705 0.0000 0.0000 -3.9208
# 2 71.4247 142.1314 56.5705 0.0000 0.0000 3.9208
# 3 56.5705 56.5705 112.4744 0.0000 0.0000 0.0000
# 4 0.0000 0.0000 0.0000 47.5832 0.0000 0.0000
# 5 0.0000 0.0000 0.0000 0.0000 47.5832 0.0000
# 6 -3.9208 3.9208 0.0000 0.0000 0.0000 43.1823
#
#
#
# Elastic Compliance Matrix: (Units=1/GPa)
#
#
# Indices 1 2 3 4 5 6 
#
# 1 0.010335 -0.003952 -0.003211 0.000000 0.000000 0.001297
# 2 -0.003952 0.010335 -0.003211 0.000000 0.000000 -0.001297
# 3 -0.003211 -0.003211 0.012121 0.000000 0.000000 0.000000
# 4 0.000000 0.000000 0.000000 0.021016 0.000000 0.000000
# 5 0.000000 0.000000 0.000000 0.000000 0.021016 0.000000
# 6 0.001297 -0.001297 0.000000 0.000000 0.000000 0.023393
#
#
# Mechanical properties :
#
#
# Convention : Reuss Voigt Hill
#
# Bulk Modulus (GPa) = 83.02192 85.09651 84.05921
# Shear Modulus (GPa) = 40.65798 41.81451 41.23624
#
# Velocity S-wave (km/s) = 4.43233 4.49492 4.46373
# Velocity P-wave (km/s) = 8.14305 8.24966 8.19653
#
# Compressibility (1/GPa) = 0.01204501
#
# Stress axis : x y z
#
# Youngs Moduli (GPa) = 96.75649 96.75649 82.50359
#
# Poissons Ratio (x) = 0.38234 0.26490
# Poissons Ratio (y) = 0.38234 0.26490
# Poissons Ratio (z) = 0.31066 0.31066
#
# Static dielectric constant tensor:
#      x y z
#    x 1.741290 0.000000 0.000000 
#    y 0.000000 1.741290 0.000000 
#    z 0.000000 0.000000 1.811390 
# 
# From -- ./inp_files/279.got.cif
#   From: 2010.05.17/outbox.ucp.g08.bks.cvg/sg78_cif.got.tgz:279.got - 2010.06.11 16:42:09.
