data_PCOD9541162
_publ_section_title
;
Structure prediction by ZEFSAII (Michael W. Deem and Ramdas Pophale) SiO2 
 PCOD9541162
Probable space group: P 41
;
_chemical_formula_sum "Si O2"
_cell_formula_units_Z 28
_cell_length_a 6.989656
_cell_length_b 6.989656
_cell_length_c 19.296548
_cell_angle_alpha 90.000000
_cell_angle_beta 90.000000
_cell_angle_gamma 90.000000
_cell_volume 942.738468
_symmetry_space_group_name_H-M "P 41"
_symmetry_group_IT_number 76
_symmetry_cell_setting 'tetragonal'
loop_
_space_group_symop_operation_xyz
x,y,z
-y,x,1/4+z
-x,-y,1/2+z
y,-x,3/4+z
loop_
_atom_site_type_symbol
_atom_site_label
_atom_site_fract_x
_atom_site_fract_y
_atom_site_fract_z
Si Si1 0.613043 0.805973 0.525530
Si Si2 0.818478 0.249554 0.986636
Si Si3 0.177706 0.718836 0.636522
Si Si4 0.426297 0.757409 0.063748
Si Si5 0.095769 0.310743 0.447203
Si Si6 0.854090 0.704417 0.101444
Si Si7 0.363405 0.318274 0.160084
O O1 0.413676 0.727817 0.494369
O O2 0.764060 0.863675 0.466259
O O3 0.691646 0.646863 0.579130
O O4 0.554556 0.013639 0.554620
O O5 0.869739 0.182012 0.064003
O O6 0.894562 0.460610 0.967163
O O7 0.838389 0.118963 0.918386
O O8 0.083994 0.509323 0.622420
O O9 0.409146 0.706856 0.646556
O O10 0.287298 0.753326 0.132861
O O11 0.624789 0.680190 0.092550
O O12 0.406358 0.679365 0.985153
O O13 0.097903 0.226130 0.524616
O O14 0.888032 0.265979 0.418992
#
# Coordination Sequence:
#
# PCOD9541162 Si02
#       7
#     4   4   4   4   4   4   4
#     4   9  19  37  52  81 118 143 184 233 281 340
#     4   8  16  34  56  72 108 152 182 224 274 328
#     4   9  18  33  55  80 111 143 185 232 277 327
#     4  10  21  33  57  85 113 144 185 237 286 329
#     4   9  19  37  52  81 118 143 184 233 281 340
#     4   9  18  33  55  80 111 143 185 232 277 327
#     4  10  21  33  57  85 113 144 185 237 286 329
#
# _framework density 29.700706
#
# number of rings (size 3 to 8) (size 9 to 14) (size 15 to 20)
#    0.000    2.857    0.000    0.000   12.000    0.000 
#   15.429    0.000    3.143    3.429    0.000    0.000 
#    0.000    0.000    0.000    0.000    0.000    0.000 
#
# Total GULP energy -156167.790770 kJ/mol
# GULP energy per Si atom -5577.421099 kJ/mol
# Density = 2.963311 g / cm^3
# Si number density = 29.700706 Si / 1000 Ang^3
#
#
#
# Elastic Constant Matrix: (Units=GPa)
#
#
# Indices 1 2 3 4 5 6 
#
# 1 59.4981 -19.6961 0.1550 0.0000 0.0000 2.3794
# 2 -19.6961 59.4981 0.1550 0.0000 0.0000 -2.3794
# 3 0.1550 0.1550 252.8644 0.0000 0.0000 0.0000
# 4 0.0000 0.0000 0.0000 40.9956 0.0000 0.0000
# 5 0.0000 0.0000 0.0000 0.0000 40.9956 0.0000
# 6 2.3794 -2.3794 0.0000 0.0000 0.0000 0.9955
#
#
#
# Elastic Compliance Matrix: (Units=1/GPa)
#
#
# Indices 1 2 3 4 5 6 
#
# 1 0.019935 0.005190 -0.000015 0.000000 0.000000 -0.035241
# 2 0.005190 0.019935 -0.000015 0.000000 0.000000 0.035241
# 3 -0.000015 -0.000015 0.003955 0.000000 0.000000 0.000000
# 4 0.000000 0.000000 0.000000 0.024393 0.000000 0.000000
# 5 0.000000 0.000000 0.000000 0.000000 0.024393 0.000000
# 6 -0.035241 0.035241 0.000000 0.000000 0.000000 1.172951
#
#
# Mechanical properties :
#
#
# Convention : Reuss Voigt Hill
#
# Bulk Modulus (GPa) = 18.46990 37.00980 27.73985
# Shear Modulus (GPa) = 3.92683 42.68045 23.30364
#
# Velocity S-wave (km/s) = 1.15109 3.79491 2.80414
# Velocity P-wave (km/s) = 2.82822 5.62937 4.45470
#
# Compressibility (1/GPa) = 0.05414216
#
# Stress axis : x y z
#
# Youngs Moduli (GPa) = 50.16389 50.16389 252.86319
#
# Poissons Ratio (x) = -0.26034 0.00389
# Poissons Ratio (y) = -0.26034 0.00389
# Poissons Ratio (z) = 0.00077 0.00077
#
# Static dielectric constant tensor:
#      x y z
#    x 2.408970 0.000000 0.000000 
#    y 0.000000 2.408970 0.000000 
#    z 0.000000 0.000000 2.565160 
# 
# From -- ./inp_files/1392.got.cif
#   From: 2010.05.17/outbox.cif.g08.bks.cpg/sg76_cif.got.tgz:1392.got - 2010.06.03 18:43:17.
