data_PCOD9541274
_publ_section_title
;
Structure prediction by ZEFSAII (Michael W. Deem and Ramdas Pophale) SiO2 
 PCOD9541274
Probable space group: P 41
;
_chemical_formula_sum "Si O2"
_cell_formula_units_Z 28
_cell_length_a 9.033628
_cell_length_b 9.033628
_cell_length_c 17.321545
_cell_angle_alpha 90.000000
_cell_angle_beta 90.000000
_cell_angle_gamma 90.000000
_cell_volume 1413.549533
_symmetry_space_group_name_H-M "P 41"
_symmetry_group_IT_number 76
_symmetry_cell_setting 'tetragonal'
loop_
_space_group_symop_operation_xyz
x,y,z
-y,x,1/4+z
-x,-y,1/2+z
y,-x,3/4+z
loop_
_atom_site_type_symbol
_atom_site_label
_atom_site_fract_x
_atom_site_fract_y
_atom_site_fract_z
Si Si1 0.481279 0.965475 0.772440
Si Si2 0.566903 0.234826 0.663248
Si Si3 0.200398 0.874359 0.693462
Si Si4 0.996911 0.898367 0.287722
Si Si5 0.799771 0.830881 0.797030
Si Si6 0.643230 0.029753 0.441599
Si Si7 0.378563 0.207449 0.515880
O O1 0.520703 0.114839 0.726848
O O2 0.369173 0.876602 0.718251
O O3 0.631424 0.880578 0.792288
O O4 0.395972 0.988101 0.852624
O O5 0.699605 0.178662 0.607884
O O6 0.431942 0.254900 0.602119
O O7 0.647555 0.366192 0.711159
O O8 0.119433 0.723844 0.719585
O O9 0.178582 0.898243 0.602859
O O10 0.114521 0.016832 0.729978
O O11 0.117522 0.776000 0.262140
O O12 0.097052 0.032783 0.319426
O O13 0.849825 0.769197 0.713281
O O14 0.497974 0.090488 0.483539
#
# Coordination Sequence:
#
# PCOD9541274 Si02
#       7
#     4   4   4   4   4   4   4
#     4  12  22  41  68  96 135 170 226 288 337 408
#     4  11  23  40  67  98 134 182 225 282 344 415
#     4  11  23  39  65  99 128 170 221 294 337 389
#     4  11  21  38  67  98 124 165 233 282 330 391
#     4  10  23  40  70  94 131 180 226 277 343 420
#     4  10  24  42  65  97 132 171 229 275 346 406
#     4  11  22  42  68  98 134 180 230 280 347 423
#
# _framework density 19.808292000000002
#
# number of rings (size 3 to 8) (size 9 to 14) (size 15 to 20)
#    0.000    1.143    5.714    0.857    2.000    1.143 
#    0.000    2.857    0.000    0.000    0.000    0.000 
#    0.000    0.000    0.000    0.000    0.000    0.000 
#
# Total GULP energy -156115.361259 kJ/mol
# GULP energy per Si atom -5575.548616 kJ/mol
# Density = 1.976321 g / cm^3
# Si number density = 19.808292 Si / 1000 Ang^3
#
#
#
# Elastic Constant Matrix: (Units=GPa)
#
#
# Indices 1 2 3 4 5 6 
#
# 1 54.6674 -12.6113 10.0081 0.0000 0.0000 -3.8321
# 2 -12.6113 54.6674 10.0081 0.0000 0.0000 3.8321
# 3 10.0081 10.0081 91.1498 0.0000 0.0000 0.0000
# 4 0.0000 0.0000 0.0000 33.0294 0.0000 0.0000
# 5 0.0000 0.0000 0.0000 0.0000 33.0294 0.0000
# 6 -3.8321 3.8321 0.0000 0.0000 0.0000 19.8797
#
#
#
# Elastic Compliance Matrix: (Units=1/GPa)
#
#
# Indices 1 2 3 4 5 6 
#
# 1 0.020143 0.004946 -0.002755 0.000000 0.000000 0.002930
# 2 0.004946 0.020143 -0.002755 0.000000 0.000000 -0.002930
# 3 -0.002755 -0.002755 0.011576 0.000000 0.000000 0.000000
# 4 0.000000 0.000000 0.000000 0.030276 0.000000 0.000000
# 5 0.000000 0.000000 0.000000 0.000000 0.030276 0.000000
# 6 0.002930 -0.002930 0.000000 0.000000 0.000000 0.051432
#
#
# Mechanical properties :
#
#
# Convention : Reuss Voigt Hill
#
# Bulk Modulus (GPa) = 19.71038 23.92160 21.81599
# Shear Modulus (GPa) = 27.48992 30.05970 28.77481
#
# Velocity S-wave (km/s) = 3.72936 3.89978 3.81552
# Velocity P-wave (km/s) = 5.34007 5.69038 5.51801
#
# Compressibility (1/GPa) = 0.05073469
#
# Stress axis : x y z
#
# Youngs Moduli (GPa) = 49.64495 49.64495 86.38657
#
# Poissons Ratio (x) = -0.24553 0.23797
# Poissons Ratio (y) = -0.24553 0.23797
# Poissons Ratio (z) = 0.13676 0.13676
#
# Static dielectric constant tensor:
#      x y z
#    x 1.704330 0.000000 0.000000 
#    y 0.000000 1.704330 0.000000 
#    z 0.000000 0.000000 1.753650 
# 
# From -- ./inp_files/1249.got.cif
#   From: 2010.05.17/outbox.cif.g08.bks.cpg/sg76_cif.got.tgz:1249.got - 2010.06.03 18:43:17.
