data_PCOD9541816
_publ_section_title
;
Structure prediction by ZEFSAII (Michael W. Deem and Ramdas Pophale) SiO2 
 PCOD9541816
Probable space group: I 4
;
_chemical_formula_sum "Si O2"
_cell_formula_units_Z 48
_cell_length_a 15.444700
_cell_length_b 15.444700
_cell_length_c 9.417914
_cell_angle_alpha 90.000000
_cell_angle_beta 90.000000
_cell_angle_gamma 90.000000
_cell_volume 2246.537509
_symmetry_space_group_name_H-M "I 4"
_symmetry_group_IT_number 79
_symmetry_cell_setting 'tetragonal'
loop_
_space_group_symop_operation_xyz
x,y,z
-y,x,z
-x,-y,z
y,-x,z
1/2+x,1/2+y,1/2+z
1/2-y,1/2+x,1/2+z
1/2-x,1/2-y,1/2+z
1/2+y,1/2-x,1/2+z
loop_
_atom_site_type_symbol
_atom_site_label
_atom_site_fract_x
_atom_site_fract_y
_atom_site_fract_z
Si Si1 0.043170 0.864886 0.728890
Si Si2 0.096970 0.169290 0.289751
Si Si3 0.791537 0.340735 0.383068
Si Si4 0.008275 0.790735 0.024362
Si Si5 0.771087 0.946546 0.456455
Si Si6 0.692063 0.237368 0.609089
O O1 0.062127 0.786240 0.623980
O O2 0.946081 0.896215 0.697859
O O3 0.048337 0.845819 0.895821
O O4 0.141022 0.093264 0.382553
O O5 0.178772 0.208831 0.208510
O O6 0.043367 0.230197 0.395828
O O7 0.032536 0.154469 0.154598
O O8 0.763992 0.430976 0.452661
O O9 0.890045 0.310623 0.409439
O O10 0.739085 0.264120 0.465013
O O11 0.777184 0.338625 0.213184
O O12 0.088837 0.735547 0.083438
#
# Coordination Sequence:
#
# PCOD9541816 Si02
#       6
#     8   8   8   8   8   8
#     4  11  23  34  54  93 135 165 200 263 330 390
#     4  10  19  37  58  86 129 168 210 257 313 395
#     4  10  23  38  65  89 131 173 214 265 319 391
#     4  11  22  40  58  91 129 169 216 264 320 378
#     4  11  21  37  59  93 130 173 211 253 328 389
#     4  10  22  39  61  94 128 167 216 262 325 388
#
# _framework density 21.366212999999998
#
# number of rings (size 3 to 8) (size 9 to 14) (size 15 to 20)
#    0.000    1.500    5.000    2.000    4.667    0.333 
#    0.000    0.000    0.000    0.000    0.000   17.500 
#    0.000    0.000    0.000    0.000    0.000    0.000 
#
# Total GULP energy -133860.016072 kJ/mol
# GULP energy per Si atom -5577.500670 kJ/mol
# Density = 2.131758 g / cm^3
# Si number density = 21.366213 Si / 1000 Ang^3
#
#
#
# Elastic Constant Matrix: (Units=GPa)
#
#
# Indices 1 2 3 4 5 6 
#
# 1 53.5615 33.5893 13.4615 0.0000 0.0000 -11.5888
# 2 33.5893 53.5615 13.4615 0.0000 0.0000 11.5888
# 3 13.4615 13.4615 106.8165 0.0000 0.0000 0.0000
# 4 0.0000 0.0000 0.0000 30.6383 0.0000 0.0000
# 5 0.0000 0.0000 0.0000 0.0000 30.6383 0.0000
# 6 -11.5888 11.5888 0.0000 0.0000 0.0000 16.5039
#
#
#
# Elastic Compliance Matrix: (Units=1/GPa)
#
#
# Indices 1 2 3 4 5 6 
#
# 1 0.141213 -0.129274 -0.001505 0.000000 0.000000 0.189932
# 2 -0.129274 0.141213 -0.001505 0.000000 0.000000 -0.189932
# 3 -0.001505 -0.001505 0.009741 0.000000 0.000000 0.000000
# 4 0.000000 0.000000 0.000000 0.032639 0.000000 0.000000
# 5 0.000000 0.000000 0.000000 0.000000 0.032639 0.000000
# 6 0.189932 -0.189932 0.000000 0.000000 0.000000 0.327328
#
#
# Mechanical properties :
#
#
# Convention : Reuss Voigt Hill
#
# Bulk Modulus (GPa) = 36.23066 37.21824 36.72445
# Shear Modulus (GPa) = 5.21627 25.78458 15.50042
#
# Velocity S-wave (km/s) = 1.56418 3.47766 2.69637
# Velocity P-wave (km/s) = 4.50067 5.79504 5.18838
#
# Compressibility (1/GPa) = 0.02760093
#
# Stress axis : x y z
#
# Youngs Moduli (GPa) = 7.08150 7.08150 102.65789
#
# Poissons Ratio (x) = 0.91545 0.15446
# Poissons Ratio (y) = 0.91545 0.15446
# Poissons Ratio (z) = 0.01066 0.01066
#
# Static dielectric constant tensor:
#      x y z
#    x 1.804050 0.000000 0.000000 
#    y 0.000000 1.804050 0.000000 
#    z 0.000000 0.000000 1.864770 
# 
# From -- ./inp_files/662.got.cif
#   From: 2010.05.17/outbox.cif.g08.bks.cpg/sg79_cif.got.tgz:662.got - 2010.06.03 18:47:27.
