data_PCOD9541483
_publ_section_title
;
Structure prediction by ZEFSAII (Michael W. Deem and Ramdas Pophale) SiO2 
 PCOD9541483
Probable space group: P 42
;
_chemical_formula_sum "Si O2"
_cell_formula_units_Z 26
_cell_length_a 11.102793
_cell_length_b 11.102793
_cell_length_c 8.962883
_cell_angle_alpha 90.000000
_cell_angle_beta 90.000000
_cell_angle_gamma 90.000000
_cell_volume 1104.872624
_symmetry_space_group_name_H-M "P 42"
_symmetry_group_IT_number 77
_symmetry_cell_setting 'tetragonal'
loop_
_space_group_symop_operation_xyz
x,y,z
-y,x,1/2+z
-x,-y,z
y,-x,1/2+z
loop_
_atom_site_type_symbol
_atom_site_label
_atom_site_fract_x
_atom_site_fract_y
_atom_site_fract_z
Si Si1 0.253569 0.404861 0.867300
Si Si2 0.985222 0.178967 0.206939
Si Si3 0.821033 0.985223 0.355008
Si Si4 0.500000 0.500000 0.780973
Si Si5 0.379157 0.147417 0.856477
Si Si6 0.595138 0.253569 0.694646
Si Si7 0.620842 0.852582 0.205470
O O1 0.380118 0.476955 0.873345
O O2 0.299720 0.270143 0.834707
O O3 0.176965 0.484100 0.752400
O O4 0.196129 0.405172 0.030973
O O5 0.950689 0.313219 0.254899
O O6 0.092915 0.125653 0.306509
O O7 0.874345 0.092916 0.255439
O O8 0.009749 0.167409 0.030974
O O9 0.686781 0.950687 0.307050
O O10 0.523045 0.380117 0.688602
O O11 0.515900 0.176965 0.809546
O O12 0.372654 0.116330 0.030974
O O13 0.729856 0.299720 0.727239
#
# Coordination Sequence:
#
# PCOD9541483 Si02
#       7
#     4   4   4   2   4   4   4
#     4   9  17  29  48  75 108 145 180 217 262 312
#     4  11  22  39  62  83 105 134 175 222 268 318
#     4  11  22  39  62  83 105 134 175 222 268 318
#     4   8  14  24  44  70 102 140 184 222 254 304
#     4  10  20  34  53  80 113 145 181 221 264 315
#     4   9  17  29  48  75 108 145 180 217 262 312
#     4  10  20  34  53  80 113 145 181 221 264 315
#
# _framework density 23.532124
#
# number of rings (size 3 to 8) (size 9 to 14) (size 15 to 20)
#    0.000    2.154    0.000    5.077    0.000    8.615 
#    0.000    1.538    0.000    9.231    0.000    0.000 
#    0.000    0.000    0.000    0.000    0.000    0.000 
#
# Total GULP energy -145235.073347 kJ/mol
# GULP energy per Si atom -5585.964359 kJ/mol
# Density = 2.347856 g / cm^3
# Si number density = 23.532124 Si / 1000 Ang^3
#
#
#
# Elastic Constant Matrix: (Units=GPa)
#
#
# Indices 1 2 3 4 5 6 
#
# 1 21.7810 37.5355 23.4728 0.0000 0.0000 8.1405
# 2 37.5355 21.7810 23.4728 0.0000 0.0000 -8.1405
# 3 23.4728 23.4728 99.2867 0.0000 0.0000 0.0000
# 4 0.0000 0.0000 0.0000 -1.5838 0.0000 0.0000
# 5 0.0000 0.0000 0.0000 0.0000 -1.5838 0.0000
# 6 8.1405 -8.1405 0.0000 0.0000 0.0000 59.4013
#
#
#
# Elastic Compliance Matrix: (Units=1/GPa)
#
#
# Indices 1 2 3 4 5 6 
#
# 1 -0.017430 0.038170 -0.004903 0.000000 0.000000 0.007620
# 2 0.038170 -0.017430 -0.004903 0.000000 0.000000 -0.007620
# 3 -0.004903 -0.004903 0.012390 0.000000 0.000000 0.000000
# 4 0.000000 0.000000 0.000000 -0.631393 0.000000 0.000000
# 5 0.000000 0.000000 0.000000 0.000000 -0.631393 0.000000
# 6 0.007620 -0.007620 0.000000 0.000000 0.000000 0.014746
#
#
# Mechanical properties :
#
#
# Convention : Reuss Voigt Hill
#
# Bulk Modulus (GPa) = 29.19166 34.64566 31.91866
# Shear Modulus (GPa) = -3.79992 15.13791 5.66899
#
# Velocity S-wave (km/s) = -1.27212 2.53906 1.55379
# Velocity P-wave (km/s) = 3.20535 4.83223 4.10029
#
# Compressibility (1/GPa) = 0.03425635
#
# Stress axis : x y z
#
# Youngs Moduli (GPa) = -57.37139 -57.37139 80.70923
#
# Poissons Ratio (x) = 2.18984 0.39572
# Poissons Ratio (y) = 2.18984 0.39572
# Poissons Ratio (z) = -0.28130 -0.28130
#
# Static dielectric constant tensor:
#      x y z
#    x 1.940040 0.000000 0.000000 
#    y 0.000000 1.940040 0.000000 
#    z 0.000000 0.000000 1.834800 
# 
# From -- ./inp_files/470.got.cif
#   From: 2010.05.17/outbox.cif.g08.bks.cpg/sg77_cif.got.tgz:470.got - 2010.06.03 18:44:51.
