data_PCOD9541027
_publ_section_title
;
Structure prediction by ZEFSAII (Michael W. Deem and Ramdas Pophale) SiO2 
 PCOD9541027
Probable space group: P 4
;
_chemical_formula_sum "Si O2"
_cell_formula_units_Z 32
_cell_length_a 8.063115
_cell_length_b 8.063115
_cell_length_c 21.998049
_cell_angle_alpha 90.000000
_cell_angle_beta 90.000000
_cell_angle_gamma 90.000000
_cell_volume 1430.177275
_symmetry_space_group_name_H-M "P 4"
_symmetry_group_IT_number 75
_symmetry_cell_setting 'tetragonal'
loop_
_space_group_symop_operation_xyz
x,y,z
-y,x,z
-x,-y,z
y,-x,z
loop_
_atom_site_type_symbol
_atom_site_label
_atom_site_fract_x
_atom_site_fract_y
_atom_site_fract_z
Si Si1 0.906096 0.265214 0.494350
Si Si2 0.765214 0.406096 0.849957
Si Si3 0.235439 0.596678 0.981830
Si Si4 0.582312 0.765739 0.613345
Si Si5 0.734698 0.909916 0.231509
Si Si6 0.265739 0.082312 0.730961
Si Si7 0.264561 0.096678 0.362477
Si Si8 0.590084 0.765302 0.112797
O O1 0.858661 0.376838 0.550975
O O2 0.873229 0.345867 0.427961
O O3 0.095899 0.202602 0.497693
O O4 0.702602 0.595899 0.846613
O O5 0.845867 0.373229 0.916346
O O6 0.876838 0.358661 0.793331
O O7 0.297184 0.405761 0.981826
O O8 0.151207 0.625882 0.047042
O O9 0.396245 0.699708 0.615129
O O10 0.628180 0.871820 0.672153
O O11 0.651206 0.874118 0.297264
O O12 0.631510 0.868491 0.172153
O O13 0.901457 0.798460 0.229732
O O14 0.103754 0.199707 0.729177
O O15 0.094240 0.202816 0.362480
O O16 0.401457 0.701540 0.114574
#
# Coordination Sequence:
#
# PCOD9541027 Si02
#       8
#     4   4   4   4   4   4   4   4
#     4   9  17  32  56  81 100 123 161 206 248 291
#     4   9  17  32  56  81 100 123 161 206 248 291
#     4   7  12  26  48  71  95 125 162 202 242 288
#     4  11  24  39  54  75 103 133 164 198 238 286
#     4   9  17  30  48  70  97 130 167 206 248 292
#     4  11  24  39  54  75 103 133 164 198 238 286
#     4   7  12  26  48  71  95 125 162 202 242 288
#     4   9  17  30  48  70  97 130 167 206 248 292
#
# _framework density 22.374846999999999
#
# number of rings (size 3 to 8) (size 9 to 14) (size 15 to 20)
#    0.000    3.000    0.000    4.500    0.000    6.000 
#    0.000    2.500    0.000   12.000    0.000    0.000 
#    0.000    0.000    0.000    0.000    0.000    0.000 
#
# Total GULP energy -178825.795494 kJ/mol
# GULP energy per Si atom -5588.306109 kJ/mol
# Density = 2.232392 g / cm^3
# Si number density = 22.374847 Si / 1000 Ang^3
#
#
#
# Elastic Constant Matrix: (Units=GPa)
#
#
# Indices 1 2 3 4 5 6 
#
# 1 55.6929 40.2368 60.0471 0.0000 0.0000 -0.0001
# 2 40.2368 55.6929 60.0471 0.0000 0.0000 0.0001
# 3 60.0471 60.0471 276.1965 0.0000 0.0000 0.0000
# 4 0.0000 0.0000 0.0000 91.5998 0.0000 0.0000
# 5 0.0000 0.0000 0.0000 0.0000 91.5998 0.0000
# 6 -0.0001 0.0001 0.0000 0.0000 0.0000 32.5333
#
#
#
# Elastic Compliance Matrix: (Units=1/GPa)
#
#
# Indices 1 2 3 4 5 6 
#
# 1 0.039511 -0.025188 -0.003114 0.000000 0.000000 0.000000
# 2 -0.025188 0.039511 -0.003114 0.000000 0.000000 0.000000
# 3 -0.003114 -0.003114 0.004975 0.000000 0.000000 0.000000
# 4 0.000000 0.000000 0.000000 0.010917 0.000000 0.000000
# 5 0.000000 0.000000 0.000000 0.000000 0.010917 0.000000
# 6 0.000000 0.000000 0.000000 0.000000 0.000000 0.030738
#
#
# Mechanical properties :
#
#
# Convention : Reuss Voigt Hill
#
# Bulk Modulus (GPa) = 47.24944 78.69380 62.97162
# Shear Modulus (GPa) = 24.21833 58.29668 41.25750
#
# Velocity S-wave (km/s) = 3.29354 5.10990 4.29875
# Velocity P-wave (km/s) = 5.96877 8.37029 7.26939
#
# Compressibility (1/GPa) = 0.02116427
#
# Stress axis : x y z
#
# Youngs Moduli (GPa) = 25.30944 25.30944 201.02359
#
# Poissons Ratio (x) = 0.63751 0.62595
# Poissons Ratio (y) = 0.63751 0.62595
# Poissons Ratio (z) = 0.07881 0.07881
#
# Static dielectric constant tensor:
#      x y z
#    x 1.814440 0.000000 0.000000 
#    y 0.000000 1.814440 0.000000 
#    z 0.000000 0.000000 1.853920 
# 
# From -- ./inp_files/768.got.cif
#   From: 2010.05.17/outbox.cif.g08.bks.cpg/sg75_cif.got.tgz:768.got - 2010.06.03 18:42:43.
