data_PCOD9541626
_publ_section_title
;
Structure prediction by ZEFSAII (Michael W. Deem and Ramdas Pophale) SiO2 
 PCOD9541626
Probable space group: P 43
;
_chemical_formula_sum "Si O2"
_cell_formula_units_Z 32
_cell_length_a 17.776681
_cell_length_b 17.776681
_cell_length_c 5.183378
_cell_angle_alpha 90.000000
_cell_angle_beta 90.000000
_cell_angle_gamma 90.000000
_cell_volume 1638.001290
_symmetry_space_group_name_H-M "P 43"
_symmetry_group_IT_number 78
_symmetry_cell_setting 'tetragonal'
loop_
_space_group_symop_operation_xyz
x,y,z
-y,x,3/4+z
-x,-y,1/2+z
y,-x,1/4+z
loop_
_atom_site_type_symbol
_atom_site_label
_atom_site_fract_x
_atom_site_fract_y
_atom_site_fract_z
Si Si1 0.178891 0.519778 0.252960
Si Si2 0.784497 0.396549 0.253989
Si Si3 0.983430 0.455101 0.573182
Si Si4 0.725866 0.740111 0.350044
Si Si5 0.835358 0.649742 0.621559
Si Si6 0.872515 0.279024 0.997295
Si Si7 0.967976 0.698321 0.230857
Si Si8 0.209502 0.850843 0.745567
O O1 0.221056 0.553744 0.497945
O O2 0.095465 0.554009 0.221542
O O3 0.165862 0.430874 0.253308
O O4 0.215063 0.544566 0.985673
O O5 0.729124 0.332007 0.365723
O O6 0.859140 0.342822 0.217667
O O7 0.019151 0.372833 0.542193
O O8 0.973359 0.495772 0.295713
O O9 0.757555 0.663644 0.467067
O O10 0.699253 0.801563 0.560376
O O11 0.800138 0.781856 0.247143
O O12 0.906220 0.665757 0.433566
O O13 0.835960 0.716362 0.827290
O O14 0.856834 0.193364 0.096511
O O15 0.953453 0.284533 0.869755
O O16 0.935484 0.773475 0.091267
#
# Coordination Sequence:
#
# PCOD9541626 Si02
#       8
#     4   4   4   4   4   4   4   4
#     4  12  23  34  54  84 124 161 204 237 292 353
#     4  11  21  36  54  81 113 166 203 241 282 359
#     4  12  23  33  48  75 120 160 195 232 284 350
#     4   9  19  39  57  78 113 163 202 250 296 348
#     4  10  22  36  54  84 123 161 201 252 302 360
#     4  10  20  37  57  79 114 155 202 252 302 361
#     4  11  21  33  55  80 114 157 200 254 302 369
#     4   9  21  36  55  77 115 151 203 250 306 360
#
# _framework density 19.536003999999998
#
# number of rings (size 3 to 8) (size 9 to 14) (size 15 to 20)
#    0.000    1.500    3.750    1.500    3.500    2.000 
#    0.000    0.000    0.000    0.000    0.000    0.000 
#  135.000    0.000   12.750    2.500    0.000    0.000 
#
# Total GULP energy -178160.619155 kJ/mol
# GULP energy per Si atom -5567.519349 kJ/mol
# Density = 1.949154 g / cm^3
# Si number density = 19.536004 Si / 1000 Ang^3
#
#
#
# Elastic Constant Matrix: (Units=GPa)
#
#
# Indices 1 2 3 4 5 6 
#
# 1 67.2877 42.2039 21.6354 0.0000 0.0000 -7.7709
# 2 42.2039 67.2877 21.6354 0.0000 0.0000 7.7709
# 3 21.6354 21.6354 88.3100 0.0000 0.0000 0.0000
# 4 0.0000 0.0000 0.0000 26.8742 0.0000 0.0000
# 5 0.0000 0.0000 0.0000 0.0000 26.8742 0.0000
# 6 -7.7709 7.7709 0.0000 0.0000 0.0000 17.1698
#
#
#
# Elastic Compliance Matrix: (Units=1/GPa)
#
#
# Indices 1 2 3 4 5 6 
#
# 1 0.032757 -0.022645 -0.002477 0.000000 0.000000 0.025074
# 2 -0.022645 0.032757 -0.002477 0.000000 0.000000 -0.025074
# 3 -0.002477 -0.002477 0.012538 0.000000 0.000000 0.000000
# 4 0.000000 0.000000 0.000000 0.037210 0.000000 0.000000
# 5 0.000000 0.000000 0.000000 0.000000 0.037210 0.000000
# 6 0.025074 -0.025074 0.000000 0.000000 0.000000 0.080938
#
#
# Mechanical properties :
#
#
# Convention : Reuss Voigt Hill
#
# Bulk Modulus (GPa) = 43.75921 43.75944 43.75932
# Shear Modulus (GPa) = 16.87884 23.34435 20.11159
#
# Velocity S-wave (km/s) = 2.94255 3.46054 3.21201
# Velocity P-wave (km/s) = 5.83033 6.19799 6.01697
#
# Compressibility (1/GPa) = 0.02285233
#
# Stress axis : x y z
#
# Youngs Moduli (GPa) = 30.52755 30.52755 79.75966
#
# Poissons Ratio (x) = 0.69130 0.19760
# Poissons Ratio (y) = 0.69130 0.19760
# Poissons Ratio (z) = 0.07563 0.07563
#
# Static dielectric constant tensor:
#      x y z
#    x 1.754960 0.000000 0.000000 
#    y 0.000000 1.754960 0.000000 
#    z 0.000000 0.000000 1.840500 
# 
# From -- ./inp_files/337.got.cif
#   From: 2010.05.17/outbox.cif.g08.bks.cpg/sg78_cif.got.tgz:337.got - 2010.06.03 18:45:56.
