data_PCOD9541277
_publ_section_title
;
Structure prediction by ZEFSAII (Michael W. Deem and Ramdas Pophale) SiO2 
 PCOD9541277
Probable space group: P 41
;
_chemical_formula_sum "Si O2"
_cell_formula_units_Z 28
_cell_length_a 12.335682
_cell_length_b 12.335682
_cell_length_c 8.085654
_cell_angle_alpha 90.000000
_cell_angle_beta 90.000000
_cell_angle_gamma 90.000000
_cell_volume 1230.386291
_symmetry_space_group_name_H-M "P 41"
_symmetry_group_IT_number 76
_symmetry_cell_setting 'tetragonal'
loop_
_space_group_symop_operation_xyz
x,y,z
-y,x,1/4+z
-x,-y,1/2+z
y,-x,3/4+z
loop_
_atom_site_type_symbol
_atom_site_label
_atom_site_fract_x
_atom_site_fract_y
_atom_site_fract_z
Si Si1 0.757796 0.379633 0.649720
Si Si2 0.843648 0.801716 0.727534
Si Si3 0.506280 0.173020 0.106447
Si Si4 0.126272 0.999919 0.479126
Si Si5 0.715052 0.917328 0.451503
Si Si6 0.620696 0.570722 0.168926
Si Si7 0.972358 0.345141 0.847667
O O1 0.746383 0.262605 0.558334
O O2 0.755175 0.473650 0.514135
O O3 0.668865 0.391811 0.789945
O O4 0.879164 0.386193 0.725341
O O5 0.869522 0.902428 0.847827
O O6 0.808428 0.850648 0.548877
O O7 0.953738 0.733332 0.726080
O O8 0.573031 0.065598 0.150326
O O9 0.394878 0.126965 0.031224
O O10 0.563478 0.255316 0.980986
O O11 0.248737 0.964833 0.503683
O O12 0.084229 0.044648 0.652083
O O13 0.700394 0.907113 0.255537
O O14 0.539274 0.590797 0.321191
#
# Coordination Sequence:
#
# PCOD9541277 Si02
#       7
#     4   4   4   4   4   4   4
#     4  10  25  46  70 106 144 190 237 301 363 428
#     4  10  23  41  66  98 146 191 245 289 352 423
#     4  11  26  48  74 107 145 185 242 296 370 432
#     4  11  25  40  64  98 143 192 241 287 349 416
#     4  11  24  43  68 102 142 197 235 302 353 429
#     4  12  27  48  79 105 141 185 243 304 368 436
#     4  11  26  42  71 104 143 188 239 295 357 428
#
# _framework density 22.757080999999999
#
# number of rings (size 3 to 8) (size 9 to 14) (size 15 to 20)
#    0.000    1.143    1.429    2.571    8.000    5.714 
#    0.000    0.000    0.000    0.000    0.000    0.000 
#    0.000    0.000    0.000    0.000    0.000    0.000 
#
# Total GULP energy -156670.888854 kJ/mol
# GULP energy per Si atom -5595.388888 kJ/mol
# Density = 2.270528 g / cm^3
# Si number density = 22.757081 Si / 1000 Ang^3
#
#
#
# Elastic Constant Matrix: (Units=GPa)
#
#
# Indices 1 2 3 4 5 6 
#
# 1 66.3125 26.5123 20.9680 0.0000 0.0000 -6.1005
# 2 26.5123 66.3125 20.9680 0.0000 0.0000 6.1005
# 3 20.9680 20.9680 85.0608 0.0000 0.0000 0.0000
# 4 0.0000 0.0000 0.0000 32.4702 0.0000 0.0000
# 5 0.0000 0.0000 0.0000 0.0000 32.4702 0.0000
# 6 -6.1005 6.1005 0.0000 0.0000 0.0000 19.9135
#
#
#
# Elastic Compliance Matrix: (Units=1/GPa)
#
#
# Indices 1 2 3 4 5 6 
#
# 1 0.019926 -0.007803 -0.002988 0.000000 0.000000 0.008495
# 2 -0.007803 0.019926 -0.002988 0.000000 0.000000 -0.008495
# 3 -0.002988 -0.002988 0.013230 0.000000 0.000000 0.000000
# 4 0.000000 0.000000 0.000000 0.030797 0.000000 0.000000
# 5 0.000000 0.000000 0.000000 0.000000 0.030797 0.000000
# 6 0.008495 -0.008495 0.000000 0.000000 0.000000 0.055422
#
#
# Mechanical properties :
#
#
# Convention : Reuss Voigt Hill
#
# Bulk Modulus (GPa) = 39.18170 39.39806 39.28988
# Shear Modulus (GPa) = 24.25217 26.91996 25.58607
#
# Velocity S-wave (km/s) = 3.26804 3.44310 3.35671
# Velocity P-wave (km/s) = 5.61203 5.75818 5.68557
#
# Compressibility (1/GPa) = 0.02552212
#
# Stress axis : x y z
#
# Youngs Moduli (GPa) = 50.18461 50.18461 75.58797
#
# Poissons Ratio (x) = 0.39161 0.22589
# Poissons Ratio (y) = 0.39161 0.22589
# Poissons Ratio (z) = 0.14997 0.14997
#
# Static dielectric constant tensor:
#      x y z
#    x 1.933460 0.000000 0.000000 
#    y 0.000000 1.933460 0.000000 
#    z 0.000000 0.000000 1.855750 
# 
# From -- ./inp_files/588.got.cif
#   From: 2010.05.17/outbox.cif.g08.bks.cpg/sg76_cif.got.tgz:588.got - 2010.06.03 18:43:17.
