data_PCOD9541141
_publ_section_title
;
Structure prediction by ZEFSAII (Michael W. Deem and Ramdas Pophale) SiO2 
 PCOD9541141
Probable space group: P 41
;
_chemical_formula_sum "Si O2"
_cell_formula_units_Z 28
_cell_length_a 9.137818
_cell_length_b 9.137818
_cell_length_c 17.754944
_cell_angle_alpha 90.000000
_cell_angle_beta 90.000000
_cell_angle_gamma 90.000000
_cell_volume 1482.532814
_symmetry_space_group_name_H-M "P 41"
_symmetry_group_IT_number 76
_symmetry_cell_setting 'tetragonal'
loop_
_space_group_symop_operation_xyz
x,y,z
-y,x,1/4+z
-x,-y,1/2+z
y,-x,3/4+z
loop_
_atom_site_type_symbol
_atom_site_label
_atom_site_fract_x
_atom_site_fract_y
_atom_site_fract_z
Si Si1 0.531457 0.231195 0.302590
Si Si2 0.425635 0.343028 0.774066
Si Si3 0.656151 0.516730 0.858758
Si Si4 0.204880 0.580235 0.772326
Si Si5 0.934211 0.491514 0.113813
Si Si6 0.279074 0.935429 0.106052
Si Si7 0.262152 0.055012 0.269308
O O1 0.457274 0.347368 0.358892
O O2 0.661763 0.306559 0.257914
O O3 0.395928 0.170379 0.252958
O O4 0.582429 0.091637 0.350407
O O5 0.582727 0.414354 0.795906
O O6 0.423435 0.345187 0.684467
O O7 0.293148 0.441310 0.804926
O O8 0.422006 0.182917 0.807701
O O9 0.813922 0.591596 0.850367
O O10 0.123476 0.528760 0.697172
O O11 0.086693 0.658624 0.824174
O O12 0.959279 0.658307 0.084746
O O13 0.146399 0.870252 0.055657
O O14 0.235203 0.963617 0.193456
#
# Coordination Sequence:
#
# PCOD9541141 Si02
#       7
#     4   4   4   4   4   4   4
#     4   8  21  38  62  87 125 161 213 252 320 380
#     4  11  21  37  62  91 124 154 209 270 322 357
#     4  10  20  37  64  91 116 165 211 262 308 386
#     4  11  24  36  65  94 123 166 211 267 325 366
#     4  10  21  40  61  90 130 154 207 267 315 381
#     4  11  23  39  67  92 125 173 219 258 317 399
#     4   9  22  41  67  89 125 169 218 260 315 391
#
# _framework density 18.886596999999998
#
# number of rings (size 3 to 8) (size 9 to 14) (size 15 to 20)
#    0.857    1.143    2.857    0.000    6.000    2.286 
#    0.000    1.429    0.000    0.000    0.000    0.000 
#    0.000    0.000    0.000    0.000    0.000    0.000 
#
# Total GULP energy -155869.640714 kJ/mol
# GULP energy per Si atom -5566.772883 kJ/mol
# Density = 1.884361 g / cm^3
# Si number density = 18.886597 Si / 1000 Ang^3
#
#
#
# Elastic Constant Matrix: (Units=GPa)
#
#
# Indices 1 2 3 4 5 6 
#
# 1 80.5620 16.0094 7.2343 0.0000 0.0000 -6.8339
# 2 16.0094 80.5620 7.2343 0.0000 0.0000 6.8339
# 3 7.2343 7.2343 59.4413 0.0000 0.0000 0.0000
# 4 0.0000 0.0000 0.0000 18.6870 0.0000 0.0000
# 5 0.0000 0.0000 0.0000 0.0000 18.6870 0.0000
# 6 -6.8339 6.8339 0.0000 0.0000 0.0000 -41.9853
#
#
#
# Elastic Compliance Matrix: (Units=1/GPa)
#
#
# Indices 1 2 3 4 5 6 
#
# 1 0.012761 -0.002214 -0.001284 0.000000 0.000000 -0.002438
# 2 -0.002214 0.012761 -0.001284 0.000000 0.000000 0.002438
# 3 -0.001284 -0.001284 0.017136 0.000000 0.000000 0.000000
# 4 0.000000 0.000000 0.000000 0.053513 0.000000 0.000000
# 5 0.000000 0.000000 0.000000 0.000000 0.053513 0.000000
# 6 -0.002438 0.002438 0.000000 0.000000 0.000000 -0.023024
#
#
# Mechanical properties :
#
#
# Convention : Reuss Voigt Hill
#
# Bulk Modulus (GPa) = 30.21530 31.28015 30.74773
# Shear Modulus (GPa) = 33.95483 11.75024 22.85253
#
# Velocity S-wave (km/s) = 4.24468 2.49699 3.48226
# Velocity P-wave (km/s) = 6.32899 4.99113 5.69945
#
# Compressibility (1/GPa) = 0.03309581
#
# Stress axis : x y z
#
# Youngs Moduli (GPa) = 78.36226 78.36226 58.35742
#
# Poissons Ratio (x) = 0.17349 0.07491
# Poissons Ratio (y) = 0.17349 0.07491
# Poissons Ratio (z) = 0.10059 0.10059
#
# Static dielectric constant tensor:
#      x y z
#    x 1.671470 0.000000 0.000000 
#    y 0.000000 1.671470 0.000000 
#    z 0.000000 0.000000 1.662280 
# 
# From -- ./inp_files/1262.got.cif
#   From: 2010.05.17/outbox.cif.g08.bks.cpg/sg76_cif.got.tgz:1262.got - 2010.06.03 18:43:17.
