data_PCOD9541073
_publ_section_title
;
Structure prediction by ZEFSAII (Michael W. Deem and Ramdas Pophale) SiO2 
 PCOD9541073
Probable space group: P 41
;
_chemical_formula_sum "Si O2"
_cell_formula_units_Z 28
_cell_length_a 12.237235
_cell_length_b 12.237235
_cell_length_c 8.450800
_cell_angle_alpha 90.000000
_cell_angle_beta 90.000000
_cell_angle_gamma 90.000000
_cell_volume 1265.506628
_symmetry_space_group_name_H-M "P 41"
_symmetry_group_IT_number 76
_symmetry_cell_setting 'tetragonal'
loop_
_space_group_symop_operation_xyz
x,y,z
-y,x,1/4+z
-x,-y,1/2+z
y,-x,3/4+z
loop_
_atom_site_type_symbol
_atom_site_label
_atom_site_fract_x
_atom_site_fract_y
_atom_site_fract_z
Si Si1 0.098916 0.720447 0.707430
Si Si2 0.620417 0.531433 0.841592
Si Si3 0.661652 0.180859 0.707567
Si Si4 0.474029 0.984699 0.415549
Si Si5 0.788328 0.121174 0.418054
Si Si6 0.425850 0.858981 0.710906
Si Si7 0.312813 0.322978 0.769391
O O1 0.045692 0.599676 0.709978
O O2 0.127623 0.785379 0.867966
O O3 0.212268 0.696231 0.618546
O O4 0.007990 0.801297 0.630315
O O5 0.595505 0.480221 0.671510
O O6 0.729001 0.603070 0.847979
O O7 0.643843 0.433162 0.966266
O O8 0.576653 0.094622 0.782057
O O9 0.754975 0.128176 0.601222
O O10 0.701882 0.247076 0.859126
O O11 0.413754 0.956418 0.579594
O O12 0.480024 0.103493 0.332767
O O13 0.682453 0.148411 0.313069
O O14 0.423963 0.748858 0.607285
#
# Coordination Sequence:
#
# PCOD9541073 Si02
#       7
#     4   4   4   4   4   4   4
#     4  10  20  39  60  83 117 154 194 245 301 353
#     4  10  21  37  56  81 118 156 191 232 280 353
#     4  10  20  38  58  85 119 148 198 245 293 354
#     4  10  17  34  57  87 117 150 190 247 294 353
#     4  10  22  40  60  87 116 156 200 249 303 363
#     4   9  19  32  57  84 116 151 190 236 301 349
#     4   9  19  38  58  81 117 159 187 240 294 347
#
# _framework density 22.125526000000001
#
# number of rings (size 3 to 8) (size 9 to 14) (size 15 to 20)
#    0.000    2.286    1.429    1.714    0.000    2.286 
#    5.143    8.571    0.000    0.000    0.000    0.000 
#    0.000    0.000    0.000    0.000    0.000    0.000 
#
# Total GULP energy -156010.238908 kJ/mol
# GULP energy per Si atom -5571.794247 kJ/mol
# Density = 2.207517 g / cm^3
# Si number density = 22.125526 Si / 1000 Ang^3
#
#
#
# Elastic Constant Matrix: (Units=GPa)
#
#
# Indices 1 2 3 4 5 6 
#
# 1 37.7983 9.8157 17.9705 0.0000 0.0000 -7.6441
# 2 9.8157 37.7983 17.9705 0.0000 0.0000 7.6441
# 3 17.9705 17.9705 76.2652 0.0000 0.0000 0.0000
# 4 0.0000 0.0000 0.0000 24.3023 0.0000 0.0000
# 5 0.0000 0.0000 0.0000 0.0000 24.3023 0.0000
# 6 -7.6441 7.6441 0.0000 0.0000 0.0000 18.4965
#
#
#
# Elastic Compliance Matrix: (Units=1/GPa)
#
#
# Indices 1 2 3 4 5 6 
#
# 1 0.035852 -0.010306 -0.006019 0.000000 0.000000 0.019076
# 2 -0.010306 0.035852 -0.006019 0.000000 0.000000 -0.019076
# 3 -0.006019 -0.006019 0.015949 0.000000 0.000000 0.000000
# 4 0.000000 0.000000 0.000000 0.041148 0.000000 0.000000
# 5 0.000000 0.000000 0.000000 0.000000 0.041148 0.000000
# 6 0.019076 -0.019076 0.000000 0.000000 0.000000 0.069832
#
#
# Mechanical properties :
#
#
# Convention : Reuss Voigt Hill
#
# Bulk Modulus (GPa) = 23.27584 27.04170 25.15877
# Shear Modulus (GPa) = 16.73397 20.49386 18.61392
#
# Velocity S-wave (km/s) = 2.75311 3.04674 2.90364
# Velocity P-wave (km/s) = 4.54411 4.96239 4.75785
#
# Compressibility (1/GPa) = 0.04296301
#
# Stress axis : x y z
#
# Youngs Moduli (GPa) = 27.89220 27.89220 62.70023
#
# Poissons Ratio (x) = 0.28747 0.37742
# Poissons Ratio (y) = 0.28747 0.37742
# Poissons Ratio (z) = 0.16790 0.16790
#
# Static dielectric constant tensor:
#      x y z
#    x 1.867150 0.000000 0.000000 
#    y 0.000000 1.867150 0.000000 
#    z 0.000000 0.000000 1.853320 
# 
# From -- ./inp_files/623.got.cif
#   From: 2010.05.17/outbox.cif.g08.bks.cpg/sg76_cif.got.tgz:623.got - 2010.06.03 18:43:17.
