data_PCOD9541425
_publ_section_title
;
Structure prediction by ZEFSAII (Michael W. Deem and Ramdas Pophale) SiO2 
 PCOD9541425
Probable space group: P 41
;
_chemical_formula_sum "Si O2"
_cell_formula_units_Z 20
_cell_length_a 12.097266
_cell_length_b 12.097266
_cell_length_c 5.298532
_cell_angle_alpha 90.000000
_cell_angle_beta 90.000000
_cell_angle_gamma 90.000000
_cell_volume 775.407544
_symmetry_space_group_name_H-M "P 41"
_symmetry_group_IT_number 76
_symmetry_cell_setting 'tetragonal'
loop_
_space_group_symop_operation_xyz
x,y,z
-y,x,1/4+z
-x,-y,1/2+z
y,-x,3/4+z
loop_
_atom_site_type_symbol
_atom_site_label
_atom_site_fract_x
_atom_site_fract_y
_atom_site_fract_z
Si Si1 0.691669 0.039799 0.289870
Si Si2 0.491921 0.348015 0.451045
Si Si3 0.643857 0.259521 0.100370
Si Si4 0.831999 0.443280 0.010289
Si Si5 0.991082 0.829020 0.028408
O O1 0.671494 0.169981 0.319561
O O2 0.752475 0.988105 0.534753
O O3 0.587745 0.959339 0.256761
O O4 0.759335 0.043909 0.024388
O O5 0.573500 0.388869 0.667792
O O6 0.564532 0.354440 0.204969
O O7 0.460135 0.221571 0.485187
O O8 0.757293 0.331382 0.067296
O O9 0.557472 0.191966 0.915191
O O10 0.088476 0.901820 0.151716
#
# Coordination Sequence:
#
# PCOD9541425 Si02
#       5
#     4   4   4   4   4
#     4  12  31  47  80 118 166 210 267 349 426 492
#     4  12  24  44  74 110 150 208 272 332 404 488
#     4  12  27  48  74 112 158 213 269 337 410 495
#     4  12  27  48  74 112 158 213 269 337 410 495
#     4  12  25  51  80 114 154 216 281 339 402 494
#
# _framework density 25.792884999999998
#
# number of rings (size 3 to 8) (size 9 to 14) (size 15 to 20)
#    0.000    0.000    4.000    6.000    8.400    1.600 
#    0.000    0.000    0.000    0.000    0.000    0.000 
#    0.000    0.000    0.000    0.000    0.000    0.000 
#
# Total GULP energy -111385.348104 kJ/mol
# GULP energy per Si atom -5569.267405 kJ/mol
# Density = 2.573418 g / cm^3
# Si number density = 25.792885 Si / 1000 Ang^3
#
#
#
# Elastic Constant Matrix: (Units=GPa)
#
#
# Indices 1 2 3 4 5 6 
#
# 1 94.4110 6.4093 23.6446 0.0000 0.0000 0.9871
# 2 6.4093 94.4110 23.6446 0.0000 0.0000 -0.9871
# 3 23.6446 23.6446 133.7637 0.0000 0.0000 0.0000
# 4 0.0000 0.0000 0.0000 44.1848 0.0000 0.0000
# 5 0.0000 0.0000 0.0000 0.0000 44.1848 0.0000
# 6 0.9871 -0.9871 0.0000 0.0000 0.0000 111.4629
#
#
#
# Elastic Compliance Matrix: (Units=1/GPa)
#
#
# Indices 1 2 3 4 5 6 
#
# 1 0.011091 -0.000275 -0.001912 0.000000 0.000000 -0.000101
# 2 -0.000275 0.011091 -0.001912 0.000000 0.000000 0.000101
# 3 -0.001912 -0.001912 0.008152 0.000000 0.000000 0.000000
# 4 0.000000 0.000000 0.000000 0.022632 0.000000 0.000000
# 5 0.000000 0.000000 0.000000 0.000000 0.022632 0.000000
# 6 -0.000101 0.000101 0.000000 0.000000 0.000000 0.008973
#
#
# Mechanical properties :
#
#
# Convention : Reuss Voigt Hill
#
# Bulk Modulus (GPa) = 45.17658 47.77586 46.47622
# Shear Modulus (GPa) = 49.92690 57.89231 53.90960
#
# Velocity S-wave (km/s) = 4.40442 4.74276 4.57672
# Velocity P-wave (km/s) = 6.58926 6.96813 6.78134
#
# Compressibility (1/GPa) = 0.02213536
#
# Stress axis : x y z
#
# Youngs Moduli (GPa) = 90.16717 90.16717 122.67330
#
# Poissons Ratio (x) = 0.02481 0.23452
# Poissons Ratio (y) = 0.02481 0.23452
# Poissons Ratio (z) = 0.17238 0.17238
#
# Static dielectric constant tensor:
#      x y z
#    x 2.079110 0.000000 0.000000 
#    y 0.000000 2.079110 0.000000 
#    z 0.000000 0.000000 2.152520 
# 
# From -- ./inp_files/97.got.cif
#   From: 2010.05.17/outbox.cif.g08.bks.cpg/sg76_cif.got.tgz:97.got - 2010.06.03 18:43:17.
