data_PCOD9541346
_publ_section_title
;
Structure prediction by ZEFSAII (Michael W. Deem and Ramdas Pophale) SiO2 
 PCOD9541346
Probable space group: P 41
;
_chemical_formula_sum "Si O2"
_cell_formula_units_Z 20
_cell_length_a 11.601619
_cell_length_b 11.601619
_cell_length_c 6.814076
_cell_angle_alpha 90.000000
_cell_angle_beta 90.000000
_cell_angle_gamma 90.000000
_cell_volume 917.158027
_symmetry_space_group_name_H-M "P 41"
_symmetry_group_IT_number 76
_symmetry_cell_setting 'tetragonal'
loop_
_space_group_symop_operation_xyz
x,y,z
-y,x,1/4+z
-x,-y,1/2+z
y,-x,3/4+z
loop_
_atom_site_type_symbol
_atom_site_label
_atom_site_fract_x
_atom_site_fract_y
_atom_site_fract_z
Si Si1 0.018345 0.367894 0.150630
Si Si2 0.546562 0.340710 0.857695
Si Si3 0.135679 0.273293 0.501646
Si Si4 0.085042 0.696298 0.256537
Si Si5 0.470407 0.167192 0.181055
O O1 0.067232 0.273185 0.296479
O O2 0.946343 0.449554 0.296714
O O3 0.134084 0.417837 0.054765
O O4 0.928624 0.347326 0.977270
O O5 0.451023 0.384564 0.699857
O O6 0.240563 0.366899 0.523942
O O7 0.483097 0.277149 0.042466
O O8 0.183232 0.146762 0.529388
O O9 0.041216 0.301080 0.664901
O O10 0.163506 0.627084 0.099263
#
# Coordination Sequence:
#
# PCOD9541346 Si02
#       5
#     4   4   4   4   4
#     4  11  21  42  73 102 136 191 244 296 351 439
#     4  12  29  46  70 110 155 195 239 308 373 452
#     4  11  27  46  72 107 141 190 245 302 370 433
#     4  11  25  45  74 102 141 190 244 306 360 440
#     4  11  22  41  69 101 139 190 240 292 356 428
#
# _framework density 21.806493
#
# number of rings (size 3 to 8) (size 9 to 14) (size 15 to 20)
#    0.000    0.800    4.000    2.400    8.400    3.200 
#    3.600    0.000    0.000    0.000    0.000    0.000 
#    0.000    0.000    0.000    0.000    0.000    0.000 
#
# Total GULP energy -111541.180257 kJ/mol
# GULP energy per Si atom -5577.059013 kJ/mol
# Density = 2.175686 g / cm^3
# Si number density = 21.806493 Si / 1000 Ang^3
#
#
#
# Elastic Constant Matrix: (Units=GPa)
#
#
# Indices 1 2 3 4 5 6 
#
# 1 56.2925 40.5319 21.2966 0.0000 0.0000 9.8490
# 2 40.5319 56.2925 21.2966 0.0000 0.0000 -9.8490
# 3 21.2966 21.2966 111.2072 0.0000 0.0000 0.0000
# 4 0.0000 0.0000 0.0000 23.2720 0.0000 0.0000
# 5 0.0000 0.0000 0.0000 0.0000 23.2720 0.0000
# 6 9.8490 -9.8490 0.0000 0.0000 0.0000 31.4651
#
#
#
# Elastic Compliance Matrix: (Units=1/GPa)
#
#
# Indices 1 2 3 4 5 6 
#
# 1 0.057750 -0.046472 -0.002160 0.000000 0.000000 -0.032623
# 2 -0.046472 0.057750 -0.002160 0.000000 0.000000 0.032623
# 3 -0.002160 -0.002160 0.009819 0.000000 0.000000 0.000000
# 4 0.000000 0.000000 0.000000 0.042970 0.000000 0.000000
# 5 0.000000 0.000000 0.000000 0.000000 0.042970 0.000000
# 6 -0.032623 0.032623 0.000000 0.000000 0.000000 0.052204
#
#
# Mechanical properties :
#
#
# Convention : Reuss Voigt Hill
#
# Bulk Modulus (GPa) = 42.12935 43.33802 42.73368
# Shear Modulus (GPa) = 13.40625 24.97965 19.19295
#
# Velocity S-wave (km/s) = 2.48217 3.38822 2.96995
# Velocity P-wave (km/s) = 5.25133 5.93496 5.60358
#
# Compressibility (1/GPa) = 0.02373642
#
# Stress axis : x y z
#
# Youngs Moduli (GPa) = 17.31590 17.31590 101.83881
#
# Poissons Ratio (x) = 0.80471 0.21995
# Poissons Ratio (y) = 0.80471 0.21995
# Poissons Ratio (z) = 0.03740 0.03740
#
# Static dielectric constant tensor:
#      x y z
#    x 1.814910 0.000000 0.000000 
#    y 0.000000 1.814910 0.000000 
#    z 0.000000 0.000000 1.772420 
# 
# From -- ./inp_files/154.got.cif
#   From: 2010.05.17/outbox.cif.g08.bks.cpg/sg76_cif.got.tgz:154.got - 2010.06.03 18:43:17.
