data_PCOD9541670
_publ_section_title
;
Structure prediction by ZEFSAII (Michael W. Deem and Ramdas Pophale) SiO2 
 PCOD9541670
Probable space group: P 43
;
_chemical_formula_sum "Si O2"
_cell_formula_units_Z 24
_cell_length_a 13.841438
_cell_length_b 13.841438
_cell_length_c 5.328394
_cell_angle_alpha 90.000000
_cell_angle_beta 90.000000
_cell_angle_gamma 90.000000
_cell_volume 1020.842527
_symmetry_space_group_name_H-M "P 43"
_symmetry_group_IT_number 78
_symmetry_cell_setting 'tetragonal'
loop_
_space_group_symop_operation_xyz
x,y,z
-y,x,3/4+z
-x,-y,1/2+z
y,-x,1/4+z
loop_
_atom_site_type_symbol
_atom_site_label
_atom_site_fract_x
_atom_site_fract_y
_atom_site_fract_z
Si Si1 0.496752 0.142882 0.136400
Si Si2 0.774103 0.841046 0.953077
Si Si3 0.359698 0.988823 0.376062
Si Si4 0.246166 0.832186 0.186673
Si Si5 0.641066 0.501177 0.870147
Si Si6 0.739445 0.372400 0.516919
O O1 0.522784 0.251286 0.223929
O O2 0.439726 0.067252 0.305453
O O3 0.593420 0.087417 0.063462
O O4 0.423562 0.166746 0.900654
O O5 0.827634 0.808432 0.702435
O O6 0.732764 0.948372 0.947088
O O7 0.836067 0.824888 0.201358
O O8 0.677708 0.773543 0.008771
O O9 0.323379 0.916569 0.160613
O O10 0.290860 0.724647 0.167372
O O11 0.589805 0.427310 0.057351
O O12 0.660016 0.449900 0.597898
#
# Coordination Sequence:
#
# PCOD9541670 Si02
#       6
#     4   4   4   4   4   4
#     4  10  23  39  67 105 140 189 250 318 367 453
#     4  10  21  42  66 102 139 183 242 300 371 450
#     4  12  22  43  71 106 148 194 257 322 388 445
#     4  10  23  41  70 101 146 188 230 307 382 444
#     4  10  21  45  64  97 150 197 247 295 374 453
#     4   8  20  42  60  97 147 175 244 294 358 445
#
# _framework density 23.509989000000001
#
# number of rings (size 3 to 8) (size 9 to 14) (size 15 to 20)
#    2.000    0.000    1.667    2.000    0.000    4.000 
#    9.000    0.000    0.000    2.000    0.000    0.000 
#    0.000    0.000    0.000    0.000    0.000    0.000 
#
# Total GULP energy -133746.912706 kJ/mol
# GULP energy per Si atom -5572.788029 kJ/mol
# Density = 2.345648 g / cm^3
# Si number density = 23.509989 Si / 1000 Ang^3
#
#
#
# Elastic Constant Matrix: (Units=GPa)
#
#
# Indices 1 2 3 4 5 6 
#
# 1 108.7377 52.9881 24.4124 0.0000 0.0000 1.7558
# 2 52.9881 108.7377 24.4124 0.0000 0.0000 -1.7558
# 3 24.4124 24.4124 76.8021 0.0000 0.0000 0.0000
# 4 0.0000 0.0000 0.0000 -2.3576 0.0000 0.0000
# 5 0.0000 0.0000 0.0000 0.0000 -2.3576 0.0000
# 6 1.7558 -1.7558 0.0000 0.0000 0.0000 5.5843
#
#
#
# Elastic Compliance Matrix: (Units=1/GPa)
#
#
# Indices 1 2 3 4 5 6 
#
# 1 0.012570 -0.005730 -0.002174 0.000000 0.000000 -0.005754
# 2 -0.005730 0.012570 -0.002174 0.000000 0.000000 0.005754
# 3 -0.002174 -0.002174 0.014403 0.000000 0.000000 0.000000
# 4 0.000000 0.000000 0.000000 -0.424166 0.000000 0.000000
# 5 0.000000 0.000000 0.000000 0.000000 -0.424166 0.000000
# 6 -0.005754 0.005754 0.000000 0.000000 0.000000 0.182691
#
#
# Mechanical properties :
#
#
# Convention : Reuss Voigt Hill
#
# Bulk Modulus (GPa) = 51.58455 55.32256 53.45355
# Shear Modulus (GPa) = -8.34056 13.00481 2.33213
#
# Velocity S-wave (km/s) = -1.88557 2.35449 0.99706
# Velocity P-wave (km/s) = 4.15315 5.56544 4.91033
#
# Compressibility (1/GPa) = 0.01938565
#
# Stress axis : x y z
#
# Youngs Moduli (GPa) = 79.55628 79.55628 69.43206
#
# Poissons Ratio (x) = 0.45586 0.15095
# Poissons Ratio (y) = 0.45586 0.15095
# Poissons Ratio (z) = 0.17296 0.17296
#
# Static dielectric constant tensor:
#      x y z
#    x 1.917800 0.000000 0.000000 
#    y 0.000000 1.917800 0.000000 
#    z 0.000000 0.000000 1.963440 
# 
# From -- ./inp_files/207.got.cif
#   From: 2010.05.17/outbox.cif.g08.bks.cpg/sg78_cif.got.tgz:207.got - 2010.06.03 18:45:56.
