data_PCOD9541791
_publ_section_title
;
Structure prediction by ZEFSAII (Michael W. Deem and Ramdas Pophale) SiO2 
 PCOD9541791
Probable space group: P 43
;
_chemical_formula_sum "Si O2"
_cell_formula_units_Z 20
_cell_length_a 5.313595
_cell_length_b 5.313595
_cell_length_c 27.981575
_cell_angle_alpha 90.000000
_cell_angle_beta 90.000000
_cell_angle_gamma 90.000000
_cell_volume 790.039954
_symmetry_space_group_name_H-M "P 43"
_symmetry_group_IT_number 78
_symmetry_cell_setting 'tetragonal'
loop_
_space_group_symop_operation_xyz
x,y,z
-y,x,3/4+z
-x,-y,1/2+z
y,-x,1/4+z
loop_
_atom_site_type_symbol
_atom_site_label
_atom_site_fract_x
_atom_site_fract_y
_atom_site_fract_z
Si Si1 0.346586 0.221954 0.259480
Si Si2 0.670332 0.726588 0.256295
Si Si3 0.999962 0.471346 0.328276
Si Si4 0.828793 0.792137 0.649764
Si Si5 0.705941 0.150439 0.396745
O O1 0.498614 0.481636 0.263596
O O2 0.121700 0.250429 0.296945
O O3 0.245779 0.213474 0.205351
O O4 0.521868 0.981199 0.267391
O O5 0.748601 0.722050 0.200859
O O6 0.907190 0.678862 0.290459
O O7 0.197396 0.587081 0.365676
O O8 0.767929 0.370170 0.359556
O O9 0.006812 0.555314 0.639663
O O10 0.963865 0.058022 0.641503
#
# Coordination Sequence:
#
# PCOD9541791 Si02
#       5
#     4   4   4   4   4
#     4  12  29  53  84 121 175 227 294 363 438 519
#     4  12  29  53  84 121 175 227 294 363 438 519
#     4  12  32  48  84 124 170 232 292 356 444 526
#     4  12  29  53  84 121 175 227 294 363 438 519
#     4  12  29  53  84 121 175 227 294 363 438 519
#
# _framework density 25.315175
#
# number of rings (size 3 to 8) (size 9 to 14) (size 15 to 20)
#    0.000    0.000    4.000    2.400   11.200    0.000 
#    0.000    0.000    0.000    0.000    0.000    0.000 
#    0.000    0.000    0.000    0.000    0.000    0.000 
#
# Total GULP energy -112422.677227 kJ/mol
# GULP energy per Si atom -5621.133861 kJ/mol
# Density = 2.525756 g / cm^3
# Si number density = 25.315175 Si / 1000 Ang^3
#
#
#
# Elastic Constant Matrix: (Units=GPa)
#
#
# Indices 1 2 3 4 5 6 
#
# 1 143.2972 23.1674 24.7492 0.0000 0.0000 6.5970
# 2 23.1674 143.2972 24.7492 0.0000 0.0000 -6.5970
# 3 24.7492 24.7492 185.4325 0.0000 0.0000 0.0000
# 4 0.0000 0.0000 0.0000 35.9962 0.0000 0.0000
# 5 0.0000 0.0000 0.0000 0.0000 35.9962 0.0000
# 6 6.5970 -6.5970 0.0000 0.0000 0.0000 71.6881
#
#
#
# Elastic Compliance Matrix: (Units=1/GPa)
#
#
# Indices 1 2 3 4 5 6 
#
# 1 0.007332 -0.001077 -0.000835 0.000000 0.000000 -0.000774
# 2 -0.001077 0.007332 -0.000835 0.000000 0.000000 0.000774
# 3 -0.000835 -0.000835 0.005616 0.000000 0.000000 0.000000
# 4 0.000000 0.000000 0.000000 0.027781 0.000000 0.000000
# 5 0.000000 0.000000 0.000000 0.000000 0.027781 0.000000
# 6 -0.000774 0.000774 0.000000 0.000000 0.000000 0.014092
#
#
# Mechanical properties :
#
#
# Convention : Reuss Voigt Hill
#
# Bulk Modulus (GPa) = 67.62646 68.59538 68.11092
# Shear Modulus (GPa) = 49.82259 55.36019 52.59139
#
# Velocity S-wave (km/s) = 4.44113 4.68144 4.56287
# Velocity P-wave (km/s) = 7.28492 7.50843 7.39752
#
# Compressibility (1/GPa) = 0.01478711
#
# Stress axis : x y z
#
# Youngs Moduli (GPa) = 136.38033 136.38033 178.07329
#
# Poissons Ratio (x) = 0.14687 0.14868
# Poissons Ratio (y) = 0.14687 0.14868
# Poissons Ratio (z) = 0.11387 0.11387
#
# Static dielectric constant tensor:
#      x y z
#    x 2.106020 0.000000 0.000000 
#    y 0.000000 2.106020 0.000000 
#    z 0.000000 0.000000 1.948500 
# 
# From -- ./inp_files/1634.got.cif
#   From: 2010.05.17/outbox.cif.g08.bks.cpg/sg78_cif.got.tgz:1634.got - 2010.06.03 18:45:56.
