data_PCOD9541509
_publ_section_title
;
Structure prediction by ZEFSAII (Michael W. Deem and Ramdas Pophale) SiO2 
 PCOD9541509
Probable space group: P 42
;
_chemical_formula_sum "Si O2"
_cell_formula_units_Z 8
_cell_length_a 5.559631
_cell_length_b 5.559631
_cell_length_c 8.399071
_cell_angle_alpha 90.000000
_cell_angle_beta 90.000000
_cell_angle_gamma 90.000000
_cell_volume 259.611059
_symmetry_space_group_name_H-M "P 42"
_symmetry_group_IT_number 77
_symmetry_cell_setting 'tetragonal'
loop_
_space_group_symop_operation_xyz
x,y,z
-y,x,1/2+z
-x,-y,z
y,-x,1/2+z
loop_
_atom_site_type_symbol
_atom_site_label
_atom_site_fract_x
_atom_site_fract_y
_atom_site_fract_z
Si Si1 0.729255 0.893461 0.281060
Si Si2 0.273686 0.617233 0.443299
O O1 0.395152 0.833575 0.337678
O O2 0.788712 0.615924 0.339389
O O3 0.712838 0.882315 0.088504
O O4 0.000000 0.000000 0.314067
O O5 0.500000 0.500000 0.037198
#
# Coordination Sequence:
#
# PCOD9541509 Si02
#       2
#     4   4
#     4  10  22  45  78 116 162 215 275 342 417 500
#     4  10  21  45  77 116 162 215 275 342 417 500
#
# _framework density 30.815325999999999
#
# number of rings (size 3 to 8) (size 9 to 14) (size 15 to 20)
#    0.000    2.000    0.000    4.500    0.000    0.000 
#    0.000   40.000    0.000    0.000    0.000    0.000 
#    0.000    0.000    0.000    0.000    0.000    0.000 
#
# Total GULP energy -44580.391762 kJ/mol
# GULP energy per Si atom -5572.548970 kJ/mol
# Density = 3.074519 g / cm^3
# Si number density = 30.815326 Si / 1000 Ang^3
#
#
#
# Elastic Constant Matrix: (Units=GPa)
#
#
# Indices 1 2 3 4 5 6 
#
# 1 221.1415 150.7522 109.6383 0.0000 0.0000 -56.0483
# 2 150.7522 221.1415 109.6383 0.0000 0.0000 56.0483
# 3 109.6383 109.6383 286.5646 0.0000 0.0000 0.0000
# 4 0.0000 0.0000 0.0000 49.0670 0.0000 0.0000
# 5 0.0000 0.0000 0.0000 0.0000 49.0670 0.0000
# 6 -56.0483 56.0483 0.0000 0.0000 0.0000 110.7421
#
#
#
# Elastic Compliance Matrix: (Units=1/GPa)
#
#
# Indices 1 2 3 4 5 6 
#
# 1 0.038351 -0.034879 -0.001328 0.000000 0.000000 0.037063
# 2 -0.034879 0.038351 -0.001328 0.000000 0.000000 -0.037063
# 3 -0.001328 -0.001328 0.004506 0.000000 0.000000 0.000000
# 4 0.000000 0.000000 0.000000 0.020380 0.000000 0.000000
# 5 0.000000 0.000000 0.000000 0.000000 0.020380 0.000000
# 6 0.037063 -0.037063 0.000000 0.000000 0.000000 0.046546
#
#
# Mechanical properties :
#
#
# Convention : Reuss Voigt Hill
#
# Bulk Modulus (GPa) = 162.95241 163.21170 163.08206
# Shear Modulus (GPa) = 20.35552 65.69647 43.02599
#
# Velocity S-wave (km/s) = 2.57293 4.62230 3.74070
# Velocity P-wave (km/s) = 7.86268 9.03145 8.46725
#
# Compressibility (1/GPa) = 0.00613676
#
# Stress axis : x y z
#
# Youngs Moduli (GPa) = 26.07468 26.07468 221.91937
#
# Poissons Ratio (x) = 0.90946 0.29481
# Poissons Ratio (y) = 0.90946 0.29481
# Poissons Ratio (z) = 0.03464 0.03464
#
# Static dielectric constant tensor:
#      x y z
#    x 3.282770 0.000000 0.000000 
#    y 0.000000 3.282770 0.000000 
#    z 0.000000 0.000000 2.039890 
# 
# From -- ./inp_files/30.got.cif
#   From: 2010.05.17/outbox.cif.g08.bks.cpg/sg77_cif.got.tgz:30.got - 2010.06.03 18:44:51.
