data_PCOD9541537
_publ_section_title
;
Structure prediction by ZEFSAII (Michael W. Deem and Ramdas Pophale) SiO2 
 PCOD9541537
Probable space group: P 42
;
_chemical_formula_sum "Si O2"
_cell_formula_units_Z 14
_cell_length_a 5.160643
_cell_length_b 5.160643
_cell_length_c 20.237801
_cell_angle_alpha 90.000000
_cell_angle_beta 90.000000
_cell_angle_gamma 90.000000
_cell_volume 538.977896
_symmetry_space_group_name_H-M "P 42"
_symmetry_group_IT_number 77
_symmetry_cell_setting 'tetragonal'
loop_
_space_group_symop_operation_xyz
x,y,z
-y,x,1/2+z
-x,-y,z
y,-x,1/2+z
loop_
_atom_site_type_symbol
_atom_site_label
_atom_site_fract_x
_atom_site_fract_y
_atom_site_fract_z
Si Si1 0.500000 0.500000 0.906281
Si Si2 0.183962 0.750372 0.156280
Si Si3 0.752412 0.815714 0.513051
Si Si4 0.247588 0.184286 0.799510
O O1 0.385183 0.717259 0.954351
O O2 0.282741 0.385184 0.858210
O O3 0.321562 0.754493 0.227231
O O4 0.000000 0.500000 0.156280
O O5 0.321561 0.754493 0.085330
O O6 0.000000 0.000000 0.156281
O O7 0.500000 0.000000 0.511050
O O8 0.000000 0.000000 0.506308
O O9 0.500000 0.000000 0.801511
O O10 0.000000 0.000000 0.806253
#
# Coordination Sequence:
#
# PCOD9541537 Si02
#       4
#     2   4   4   4
#     4  12  28  38  68 108 144 194 240 300 380 454
#     4   8  16  39  66  95 131 188 242 304 354 432
#     4  10  24  43  69 100 145 189 248 302 370 439
#     4  10  24  43  69 100 145 189 248 302 370 439
#
# _framework density 25.975092
#
# number of rings (size 3 to 8) (size 9 to 14) (size 15 to 20)
#    0.000    2.286    0.000    0.000    8.000    1.143 
#    0.000    0.000    0.000   20.571    0.000    6.000 
#    0.000    0.000    0.000    0.000    0.000    0.000 
#
# Total GULP energy -78490.092344 kJ/mol
# GULP energy per Si atom -5606.435167 kJ/mol
# Density = 2.591597 g / cm^3
# Si number density = 25.975092 Si / 1000 Ang^3
#
#
#
# Elastic Constant Matrix: (Units=GPa)
#
#
# Indices 1 2 3 4 5 6 
#
# 1 144.9398 47.9920 55.2004 0.0000 0.0000 4.5998
# 2 47.9920 144.9398 55.2004 0.0000 0.0000 -4.5998
# 3 55.2004 55.2004 304.4840 0.0000 0.0000 0.0000
# 4 0.0000 0.0000 0.0000 110.7837 0.0000 0.0000
# 5 0.0000 0.0000 0.0000 0.0000 110.7837 0.0000
# 6 4.5998 -4.5998 0.0000 0.0000 0.0000 58.5964
#
#
#
# Elastic Compliance Matrix: (Units=1/GPa)
#
#
# Indices 1 2 3 4 5 6 
#
# 1 0.008088 -0.002305 -0.001048 0.000000 0.000000 -0.000816
# 2 -0.002305 0.008088 -0.001048 0.000000 0.000000 0.000816
# 3 -0.001048 -0.001048 0.003664 0.000000 0.000000 0.000000
# 4 0.000000 0.000000 0.000000 0.009027 0.000000 0.000000
# 5 0.000000 0.000000 0.000000 0.000000 0.009027 0.000000
# 6 -0.000816 0.000816 0.000000 0.000000 0.000000 0.017194
#
#
# Mechanical properties :
#
#
# Convention : Reuss Voigt Hill
#
# Bulk Modulus (GPa) = 90.60515 101.23882 95.92199
# Shear Modulus (GPa) = 73.99874 85.09748 79.54811
#
# Velocity S-wave (km/s) = 5.34324 5.72995 5.53997
# Velocity P-wave (km/s) = 8.54542 9.10145 8.82781
#
# Compressibility (1/GPa) = 0.01103690
#
# Stress axis : x y z
#
# Youngs Moduli (GPa) = 123.64489 123.64489 272.89689
#
# Poissons Ratio (x) = 0.28495 0.28611
# Poissons Ratio (y) = 0.28495 0.28611
# Poissons Ratio (z) = 0.12963 0.12963
#
# Static dielectric constant tensor:
#      x y z
#    x 2.056060 0.000000 0.000000 
#    y 0.000000 2.056060 0.000000 
#    z 0.000000 0.000000 2.089460 
# 
# From -- ./inp_files/1422.got.cif
#   From: 2010.05.17/outbox.cif.g08.bks.cpg/sg77_cif.got.tgz:1422.got - 2010.06.03 18:44:51.
