data_PCOD9541869
_publ_section_title
;
Structure prediction by ZEFSAII (Michael W. Deem and Ramdas Pophale) SiO2 
 PCOD9541869
Probable space group: I 4
;
_chemical_formula_sum "Si O2"
_cell_formula_units_Z 60
_cell_length_a 12.161867
_cell_length_b 12.161867
_cell_length_c 19.696656
_cell_angle_alpha 90.000000
_cell_angle_beta 90.000000
_cell_angle_gamma 90.000000
_cell_volume 2913.352261
_symmetry_space_group_name_H-M "I 4"
_symmetry_group_IT_number 79
_symmetry_cell_setting 'tetragonal'
loop_
_space_group_symop_operation_xyz
x,y,z
-y,x,z
-x,-y,z
y,-x,z
1/2+x,1/2+y,1/2+z
1/2-y,1/2+x,1/2+z
1/2-x,1/2-y,1/2+z
1/2+y,1/2-x,1/2+z
loop_
_atom_site_type_symbol
_atom_site_label
_atom_site_fract_x
_atom_site_fract_y
_atom_site_fract_z
Si Si1 0.995365 0.272471 0.699800
Si Si2 0.643262 0.609113 0.769709
Si Si3 0.121453 0.663286 0.362470
Si Si4 0.196818 0.197365 0.610439
Si Si5 0.326197 0.530482 0.343507
Si Si6 0.500000 0.000000 0.279932
Si Si7 0.336888 0.424796 0.972966
Si Si8 0.863908 0.882171 0.106148
O O1 0.874827 0.253284 0.669322
O O2 0.088028 0.251429 0.642871
O O3 0.021757 0.190728 0.762144
O O4 0.999066 0.393323 0.732358
O O5 0.520821 0.648008 0.788292
O O6 0.745550 0.663590 0.807715
O O7 0.648741 0.619273 0.688479
O O8 0.209372 0.566640 0.371748
O O9 0.106317 0.730475 0.430627
O O10 0.015885 0.605437 0.328497
O O11 0.175177 0.108714 0.551397
O O12 0.275325 0.293695 0.582140
O O13 0.377032 0.414224 0.363709
O O14 0.448603 0.360467 0.955504
O O15 0.989322 0.849754 0.087523
#
# Coordination Sequence:
#
# PCOD9541869 Si02
#       8
#     8   8   8   8   8   4   8   8
#     4  11  23  38  67  99 137 174 220 281 352 417
#     4   9  18  32  56  88 120 161 206 258 332 411
#     4  11  23  40  63  91 130 173 215 284 341 405
#     4  12  23  40  66  97 134 181 223 283 333 413
#     4  10  21  38  61  92 123 164 214 271 339 410
#     4  10  26  42  62 108 138 162 218 294 362 414
#     4  11  25  46  67  92 128 178 236 274 323 416
#     4   9  20  37  60  94 133 172 218 274 348 421
#
# _framework density 20.594830999999999
#
# number of rings (size 3 to 8) (size 9 to 14) (size 15 to 20)
#    0.000    1.600    2.667    3.200    5.600    4.533 
#    0.000    3.333    0.000    1.600    0.000    0.000 
#    0.000    0.000    0.000    0.000    0.000    0.000 
#
# Total GULP energy -167445.085143 kJ/mol
# GULP energy per Si atom -5581.502838 kJ/mol
# Density = 2.054796 g / cm^3
# Si number density = 20.594831 Si / 1000 Ang^3
#
#
#
# Elastic Constant Matrix: (Units=GPa)
#
#
# Indices 1 2 3 4 5 6 
#
# 1 84.1542 38.4706 12.7718 0.0000 0.0000 -0.6769
# 2 38.4706 84.1542 12.7718 0.0000 0.0000 0.6769
# 3 12.7718 12.7718 44.9803 0.0000 0.0000 0.0000
# 4 0.0000 0.0000 0.0000 25.7360 0.0000 0.0000
# 5 0.0000 0.0000 0.0000 0.0000 25.7360 0.0000
# 6 -0.6769 0.6769 0.0000 0.0000 0.0000 16.0809
#
#
#
# Elastic Compliance Matrix: (Units=1/GPa)
#
#
# Indices 1 2 3 4 5 6 
#
# 1 0.015292 -0.006625 -0.002461 0.000000 0.000000 0.000923
# 2 -0.006625 0.015292 -0.002461 0.000000 0.000000 -0.000923
# 3 -0.002461 -0.002461 0.023630 0.000000 0.000000 0.000000
# 4 0.000000 0.000000 0.000000 0.038856 0.000000 0.000000
# 5 0.000000 0.000000 0.000000 0.000000 0.038856 0.000000
# 6 0.000923 -0.000923 0.000000 0.000000 0.000000 0.062263
#
#
# Mechanical properties :
#
#
# Convention : Reuss Voigt Hill
#
# Bulk Modulus (GPa) = 32.13323 37.92410 35.02866
# Shear Modulus (GPa) = 21.96288 23.46223 22.71255
#
# Velocity S-wave (km/s) = 3.26916 3.37891 3.32449
# Velocity P-wave (km/s) = 5.46684 5.80319 5.63753
#
# Compressibility (1/GPa) = 0.03112044
#
# Stress axis : x y z
#
# Youngs Moduli (GPa) = 65.39223 65.39223 42.31984
#
# Poissons Ratio (x) = 0.43321 0.10415
# Poissons Ratio (y) = 0.43321 0.10415
# Poissons Ratio (z) = 0.16094 0.16094
#
# Static dielectric constant tensor:
#      x y z
#    x 1.740860 0.000000 0.000000 
#    y 0.000000 1.740860 0.000000 
#    z 0.000000 0.000000 1.740860 
# 
# From -- ./inp_files/1880.got.cif
#   From: 2010.05.17/outbox.cif.g08.bks.cpg/sg79_cif.got.tgz:1880.got - 2010.06.03 18:47:27.
