data_PCOD9541469
_publ_section_title
;
Structure prediction by ZEFSAII (Michael W. Deem and Ramdas Pophale) SiO2 
 PCOD9541469
Probable space group: P 42
;
_chemical_formula_sum "Si O2"
_cell_formula_units_Z 24
_cell_length_a 12.111762
_cell_length_b 12.111762
_cell_length_c 7.541171
_cell_angle_alpha 90.000000
_cell_angle_beta 90.000000
_cell_angle_gamma 90.000000
_cell_volume 1106.250411
_symmetry_space_group_name_H-M "P 42"
_symmetry_group_IT_number 77
_symmetry_cell_setting 'tetragonal'
loop_
_space_group_symop_operation_xyz
x,y,z
-y,x,1/2+z
-x,-y,z
y,-x,1/2+z
loop_
_atom_site_type_symbol
_atom_site_label
_atom_site_fract_x
_atom_site_fract_y
_atom_site_fract_z
Si Si1 0.087064 0.769224 0.810970
Si Si2 0.587064 0.269224 0.163342
Si Si3 0.765951 0.149350 0.348771
Si Si4 0.499749 0.630975 0.527701
Si Si5 0.734049 0.350650 0.625541
Si Si6 0.869025 0.999749 0.946611
O O1 0.177056 0.675800 0.777416
O O2 0.975212 0.743371 0.920158
O O3 0.032635 0.802516 0.621455
O O4 0.150447 0.878752 0.873913
O O5 0.677056 0.175800 0.196896
O O6 0.532635 0.302516 0.352857
O O7 0.650447 0.378752 0.100399
O O8 0.475212 0.243371 0.054154
O O9 0.750000 0.250000 0.487156
O O10 0.897750 0.151152 0.311619
O O11 0.500000 0.500000 0.487099
O O12 0.397750 0.651152 0.662693
O O13 0.000000 0.000000 0.987213
#
# Coordination Sequence:
#
# PCOD9541469 Si02
#       6
#     4   4   4   4   4   4
#     4  10  19  33  54  78 107 140 178 227 277 327
#     4  10  19  33  54  78 107 140 178 227 277 327
#     4   9  19  33  51  77 106 138 179 224 268 324
#     4   9  17  32  53  76 102 137 182 222 262 323
#     4   9  19  33  51  77 106 138 179 224 268 324
#     4   9  17  32  53  76 102 137 182 222 262 323
#
# _framework density 21.694908000000002
#
# number of rings (size 3 to 8) (size 9 to 14) (size 15 to 20)
#    0.000    2.667    0.000    3.000    0.000    2.000 
#    0.000    0.000    0.000    5.000    0.000    0.000 
#    0.000    0.000    0.000    0.000    0.000    0.000 
#
# Total GULP energy -133679.896319 kJ/mol
# GULP energy per Si atom -5569.995680 kJ/mol
# Density = 2.164553 g / cm^3
# Si number density = 21.694908 Si / 1000 Ang^3
#
#
#
# Elastic Constant Matrix: (Units=GPa)
#
#
# Indices 1 2 3 4 5 6 
#
# 1 109.3809 70.2162 25.6588 0.0000 0.0000 -2.5431
# 2 70.2162 109.3809 25.6588 0.0000 0.0000 2.5431
# 3 25.6588 25.6588 38.7416 0.0000 0.0000 0.0000
# 4 0.0000 0.0000 0.0000 34.0239 0.0000 0.0000
# 5 0.0000 0.0000 0.0000 0.0000 34.0239 0.0000
# 6 -2.5431 2.5431 0.0000 0.0000 0.0000 46.8641
#
#
#
# Elastic Compliance Matrix: (Units=1/GPa)
#
#
# Indices 1 2 3 4 5 6 
#
# 1 0.016291 -0.009423 -0.004549 0.000000 0.000000 0.001395
# 2 -0.009423 0.016291 -0.004549 0.000000 0.000000 -0.001395
# 3 -0.004549 -0.004549 0.031837 0.000000 0.000000 0.000000
# 4 0.000000 0.000000 0.000000 0.029391 0.000000 0.000000
# 5 0.000000 0.000000 0.000000 0.000000 0.029391 0.000000
# 6 0.001395 -0.001395 0.000000 0.000000 0.000000 0.021490
#
#
# Mechanical properties :
#
#
# Convention : Reuss Voigt Hill
#
# Bulk Modulus (GPa) = 36.52518 55.61901 46.07210
# Shear Modulus (GPa) = 26.19747 32.04703 29.12225
#
# Velocity S-wave (km/s) = 3.47874 3.84756 3.66779
# Velocity P-wave (km/s) = 5.74525 6.74024 6.26254
#
# Compressibility (1/GPa) = 0.02737837
#
# Stress axis : x y z
#
# Youngs Moduli (GPa) = 61.38329 61.38329 31.40993
#
# Poissons Ratio (x) = 0.57844 0.14287
# Poissons Ratio (y) = 0.57844 0.14287
# Poissons Ratio (z) = 0.27920 0.27920
#
# Static dielectric constant tensor:
#      x y z
#    x 1.847480 0.000000 0.000000 
#    y 0.000000 1.847480 0.000000 
#    z 0.000000 0.000000 1.984350 
# 
# From -- ./inp_files/445.got.cif
#   From: 2010.05.17/outbox.cif.g08.bks.cpg/sg77_cif.got.tgz:445.got - 2010.06.03 18:44:51.
