data_PCOD9541636
_publ_section_title
;
Structure prediction by ZEFSAII (Michael W. Deem and Ramdas Pophale) SiO2 
 PCOD9541636
Probable space group: P 43
;
_chemical_formula_sum "Si O2"
_cell_formula_units_Z 28
_cell_length_a 12.051376
_cell_length_b 12.051376
_cell_length_c 8.408652
_cell_angle_alpha 90.000000
_cell_angle_beta 90.000000
_cell_angle_gamma 90.000000
_cell_volume 1221.236152
_symmetry_space_group_name_H-M "P 43"
_symmetry_group_IT_number 78
_symmetry_cell_setting 'tetragonal'
loop_
_space_group_symop_operation_xyz
x,y,z
-y,x,3/4+z
-x,-y,1/2+z
y,-x,1/4+z
loop_
_atom_site_type_symbol
_atom_site_label
_atom_site_fract_x
_atom_site_fract_y
_atom_site_fract_z
Si Si1 0.905039 0.243988 0.979370
Si Si2 0.371825 0.502560 0.053754
Si Si3 0.057405 0.366112 0.758551
Si Si4 0.490353 0.118899 0.792879
Si Si5 0.774317 0.656906 0.018775
Si Si6 0.925895 0.718234 0.727590
Si Si7 0.715470 0.400179 0.022404
O O1 0.836191 0.133935 0.948333
O O2 0.006230 0.268484 0.863917
O O3 0.818245 0.340984 0.938303
O O4 0.950625 0.261319 0.159626
O O5 0.457335 0.588789 0.132929
O O6 0.246667 0.546579 0.049559
O O7 0.379020 0.396990 0.174222
O O8 0.172767 0.320840 0.688673
O O9 0.968233 0.409598 0.628637
O O10 0.080900 0.475218 0.866209
O O11 0.610700 0.115405 0.879851
O O12 0.875985 0.687919 0.900039
O O13 0.664951 0.707907 0.939463
O O14 0.745032 0.527476 0.026457
#
# Coordination Sequence:
#
# PCOD9541636 Si02
#       7
#     4   4   4   4   4   4   4
#     4  10  21  39  66  96 129 176 222 291 348 417
#     4  12  24  42  64  96 142 188 222 278 346 426
#     4  11  24  41  68  99 128 172 241 283 338 411
#     4  11  22  41  67  94 130 178 228 286 337 406
#     4  11  22  42  66  98 129 179 225 278 340 425
#     4  10  20  40  67  92 127 174 227 279 363 405
#     4  11  21  39  70  89 135 181 219 273 352 406
#
# _framework density 22.927589000000001
#
# number of rings (size 3 to 8) (size 9 to 14) (size 15 to 20)
#    0.000    1.143    4.286    4.286    0.000    1.143 
#    2.571    8.571    0.000    0.000    0.000    0.000 
#    0.000    0.000    0.000    0.000    0.000    0.000 
#
# Total GULP energy -156344.640431 kJ/mol
# GULP energy per Si atom -5583.737158 kJ/mol
# Density = 2.287540 g / cm^3
# Si number density = 22.927589 Si / 1000 Ang^3
#
#
#
# Elastic Constant Matrix: (Units=GPa)
#
#
# Indices 1 2 3 4 5 6 
#
# 1 51.0635 15.9450 17.1228 0.0000 0.0000 -15.7329
# 2 15.9450 51.0635 17.1228 0.0000 0.0000 15.7329
# 3 17.1228 17.1228 56.2541 0.0000 0.0000 0.0000
# 4 0.0000 0.0000 0.0000 42.3408 0.0000 0.0000
# 5 0.0000 0.0000 0.0000 0.0000 42.3408 0.0000
# 6 -15.7329 15.7329 0.0000 0.0000 0.0000 29.4318
#
#
#
# Elastic Compliance Matrix: (Units=1/GPa)
#
#
# Indices 1 2 3 4 5 6 
#
# 1 0.036161 -0.018489 -0.005379 0.000000 0.000000 0.029213
# 2 -0.018489 0.036161 -0.005379 0.000000 0.000000 -0.029213
# 3 -0.005379 -0.005379 0.021051 0.000000 0.000000 0.000000
# 4 0.000000 0.000000 0.000000 0.023618 0.000000 0.000000
# 5 0.000000 0.000000 0.000000 0.000000 0.023618 0.000000
# 6 0.029213 -0.029213 0.000000 0.000000 0.000000 0.065209
#
#
# Mechanical properties :
#
#
# Convention : Reuss Voigt Hill
#
# Bulk Modulus (GPa) = 28.67020 28.75138 28.71079
# Shear Modulus (GPa) = 18.11990 30.03539 24.07764
#
# Velocity S-wave (km/s) = 2.81429 3.62333 3.24413
# Velocity P-wave (km/s) = 4.80543 5.48380 5.15578
#
# Compressibility (1/GPa) = 0.03487943
#
# Stress axis : x y z
#
# Youngs Moduli (GPa) = 27.65384 27.65384 47.50326
#
# Poissons Ratio (x) = 0.51128 0.25553
# Poissons Ratio (y) = 0.51128 0.25553
# Poissons Ratio (z) = 0.14876 0.14876
#
# Static dielectric constant tensor:
#      x y z
#    x 1.858280 0.000000 0.000000 
#    y 0.000000 1.858280 0.000000 
#    z 0.000000 0.000000 1.956230 
# 
# From -- ./inp_files/612.got.cif
#   From: 2010.05.17/outbox.cif.g08.bks.cpg/sg78_cif.got.tgz:612.got - 2010.06.03 18:45:56.
