data_PCOD9541586
_publ_section_title
;
Structure prediction by ZEFSAII (Michael W. Deem and Ramdas Pophale) SiO2 
 PCOD9541586
Probable space group: P 43
;
_chemical_formula_sum "Si O2"
_cell_formula_units_Z 28
_cell_length_a 11.422708
_cell_length_b 11.422708
_cell_length_c 8.456413
_cell_angle_alpha 90.000000
_cell_angle_beta 90.000000
_cell_angle_gamma 90.000000
_cell_volume 1103.378038
_symmetry_space_group_name_H-M "P 43"
_symmetry_group_IT_number 78
_symmetry_cell_setting 'tetragonal'
loop_
_space_group_symop_operation_xyz
x,y,z
-y,x,3/4+z
-x,-y,1/2+z
y,-x,1/4+z
loop_
_atom_site_type_symbol
_atom_site_label
_atom_site_fract_x
_atom_site_fract_y
_atom_site_fract_z
Si Si1 0.306948 0.291373 0.475070
Si Si2 0.335797 0.078963 0.628271
Si Si3 0.891687 0.075020 0.610662
Si Si4 0.768993 0.445569 0.927719
Si Si5 0.879937 0.839012 0.806966
Si Si6 0.708653 0.225679 0.754033
Si Si7 0.984457 0.544217 0.553546
O O1 0.353299 0.221983 0.627693
O O2 0.246624 0.415100 0.441901
O O3 0.405470 0.288997 0.341956
O O4 0.214352 0.188811 0.438560
O O5 0.410766 0.027162 0.475539
O O6 0.216869 0.000604 0.616503
O O7 0.405811 0.030521 0.781746
O O8 0.871323 0.971288 0.744806
O O9 0.883412 0.012049 0.442077
O O10 0.797833 0.177888 0.622526
O O11 0.710208 0.365048 0.790422
O O12 0.906994 0.416743 0.941006
O O13 0.826495 0.765875 0.663485
O O14 0.596392 0.140761 0.747994
#
# Coordination Sequence:
#
# PCOD9541586 Si02
#       7
#     4   4   4   4   4   4   4
#     4  10  19  35  60  88 113 163 213 254 303 376
#     4  10  20  35  63  91 119 163 212 259 314 381
#     4  10  18  32  56  86 119 150 197 254 311 375
#     4  10  20  37  62  85 121 162 218 255 302 387
#     4   9  16  33  59  84 110 151 207 246 300 381
#     4   9  18  33  59  86 107 162 210 249 296 373
#     4  10  19  37  63  88 121 159 207 265 314 375
#
# _framework density 25.376617
#
# number of rings (size 3 to 8) (size 9 to 14) (size 15 to 20)
#    0.000    2.286    1.429    5.143    0.000    0.000 
#    2.571    2.857   12.571    0.000    0.000    0.000 
#    0.000    0.000    0.000    0.000    0.000    0.000 
#
# Total GULP energy -155925.832291 kJ/mol
# GULP energy per Si atom -5568.779725 kJ/mol
# Density = 2.531886 g / cm^3
# Si number density = 25.376617 Si / 1000 Ang^3
#
#
#
# Elastic Constant Matrix: (Units=GPa)
#
#
# Indices 1 2 3 4 5 6 
#
# 1 117.9900 6.6530 13.2016 0.0000 0.0000 6.1771
# 2 6.6530 117.9900 13.2016 0.0000 0.0000 -6.1771
# 3 13.2016 13.2016 52.2635 0.0000 0.0000 0.0000
# 4 0.0000 0.0000 0.0000 23.3555 0.0000 0.0000
# 5 0.0000 0.0000 0.0000 0.0000 23.3555 0.0000
# 6 6.1771 -6.1771 0.0000 0.0000 0.0000 30.1779
#
#
#
# Elastic Compliance Matrix: (Units=1/GPa)
#
#
# Indices 1 2 3 4 5 6 
#
# 1 0.008833 -0.000357 -0.002141 0.000000 0.000000 -0.001881
# 2 -0.000357 0.008833 -0.002141 0.000000 0.000000 0.001881
# 3 -0.002141 -0.002141 0.020215 0.000000 0.000000 0.000000
# 4 0.000000 0.000000 0.000000 0.042816 0.000000 0.000000
# 5 0.000000 0.000000 0.000000 0.000000 0.042816 0.000000
# 6 -0.001881 0.001881 0.000000 0.000000 0.000000 0.033907
#
#
# Mechanical properties :
#
#
# Convention : Reuss Voigt Hill
#
# Bulk Modulus (GPa) = 34.96026 39.37290 37.16658
# Shear Modulus (GPa) = 28.37116 32.39029 30.38073
#
# Velocity S-wave (km/s) = 3.34728 3.57653 3.46380
# Velocity P-wave (km/s) = 5.36149 5.71003 5.53850
#
# Compressibility (1/GPa) = 0.02860390
#
# Stress axis : x y z
#
# Youngs Moduli (GPa) = 113.20574 113.20574 49.46704
#
# Poissons Ratio (x) = 0.04042 0.10592
# Poissons Ratio (y) = 0.04042 0.10592
# Poissons Ratio (z) = 0.24239 0.24239
#
# Static dielectric constant tensor:
#      x y z
#    x 2.134210 0.000000 0.000000 
#    y 0.000000 2.134210 0.000000 
#    z 0.000000 0.000000 2.237460 
# 
# From -- ./inp_files/921.got.cif
#   From: 2010.05.17/outbox.cif.g08.bks.cpg/sg78_cif.got.tgz:921.got - 2010.06.03 18:45:56.
