data_PCOD9541838
_publ_section_title
;
Structure prediction by ZEFSAII (Michael W. Deem and Ramdas Pophale) SiO2 
 PCOD9541838
Probable space group: I 4
;
_chemical_formula_sum "Si O2"
_cell_formula_units_Z 44
_cell_length_a 7.476450
_cell_length_b 7.476450
_cell_length_c 33.177720
_cell_angle_alpha 90.000000
_cell_angle_beta 90.000000
_cell_angle_gamma 90.000000
_cell_volume 1854.545121
_symmetry_space_group_name_H-M "I 4"
_symmetry_group_IT_number 79
_symmetry_cell_setting 'tetragonal'
loop_
_space_group_symop_operation_xyz
x,y,z
-y,x,z
-x,-y,z
y,-x,z
1/2+x,1/2+y,1/2+z
1/2-y,1/2+x,1/2+z
1/2-x,1/2-y,1/2+z
1/2+y,1/2-x,1/2+z
loop_
_atom_site_type_symbol
_atom_site_label
_atom_site_fract_x
_atom_site_fract_y
_atom_site_fract_z
Si Si1 0.500000 0.000000 0.398741
Si Si2 0.500000 0.000000 0.037652
Si Si3 0.000000 0.500000 0.759829
Si Si4 0.724524 0.123502 0.193012
Si Si5 0.277806 0.885224 0.468604
Si Si6 0.775476 0.376498 0.604469
Si Si7 0.114776 0.277806 0.828877
O O1 0.605936 0.133949 0.428257
O O2 0.633949 0.894064 0.369224
O O3 0.594619 0.143977 0.066844
O O4 0.361961 0.099918 0.007963
O O5 0.905381 0.356022 0.730637
O O6 0.861961 0.599917 0.789518
O O7 0.644470 0.160953 0.148741
O O8 0.912474 0.224787 0.194956
O O9 0.223452 0.095665 0.469050
O O10 0.724787 0.587526 0.602526
O O11 0.904335 0.223452 0.828431
#
# Coordination Sequence:
#
# PCOD9541838 Si02
#       7
#     4   4   4   8   8   8   8
#     4  10  20  36  58  72  90 128 166 192 232 290
#     4  11  19  31  51  74  98 130 161 193 241 293
#     4  11  19  31  51  74  98 130 161 193 241 293
#     4   9  18  32  49  70  97 129 166 204 236 273
#     4  10  21  35  51  74 101 125 155 198 242 285
#     4   9  18  32  49  70  97 129 166 204 236 273
#     4  10  21  35  51  74 101 125 155 198 242 285
#
# _framework density 23.725491999999999
#
# number of rings (size 3 to 8) (size 9 to 14) (size 15 to 20)
#    0.000    2.182    0.000    4.909    0.000    0.000 
#    0.000    0.000    0.000   17.455    0.000   15.273 
#    0.000    0.000    0.000    0.000    0.000    0.000 
#
# Total GULP energy -122953.697088 kJ/mol
# GULP energy per Si atom -5588.804413 kJ/mol
# Density = 2.367149 g / cm^3
# Si number density = 23.725492 Si / 1000 Ang^3
#
#
#
# Elastic Constant Matrix: (Units=GPa)
#
#
# Indices 1 2 3 4 5 6 
#
# 1 49.9762 -17.6725 9.9909 0.0000 0.0000 13.6309
# 2 -17.6725 49.9762 9.9909 0.0000 0.0000 -13.6309
# 3 9.9909 9.9909 168.5077 0.0000 0.0000 0.0000
# 4 0.0000 0.0000 0.0000 20.0069 0.0000 0.0000
# 5 0.0000 0.0000 0.0000 0.0000 20.0069 0.0000
# 6 13.6309 -13.6309 0.0000 0.0000 0.0000 29.7050
#
#
#
# Elastic Compliance Matrix: (Units=1/GPa)
#
#
# Indices 1 2 3 4 5 6 
#
# 1 0.025135 0.006999 -0.001905 0.000000 0.000000 -0.008322
# 2 0.006999 0.025135 -0.001905 0.000000 0.000000 0.008322
# 3 -0.001905 -0.001905 0.006160 0.000000 0.000000 0.000000
# 4 0.000000 0.000000 0.000000 0.049983 0.000000 0.000000
# 5 0.000000 0.000000 0.000000 0.000000 0.049983 0.000000
# 6 -0.008322 0.008322 0.000000 0.000000 0.000000 0.041302
#
#
# Mechanical properties :
#
#
# Convention : Reuss Voigt Hill
#
# Bulk Modulus (GPa) = 15.92137 30.34207 23.13172
# Shear Modulus (GPa) = 23.55631 31.68714 27.62173
#
# Velocity S-wave (km/s) = 3.15440 3.65851 3.41577
# Velocity P-wave (km/s) = 4.47127 5.53741 5.03265
#
# Compressibility (1/GPa) = 0.06280866
#
# Stress axis : x y z
#
# Youngs Moduli (GPa) = 39.78462 39.78460 162.32776
#
# Poissons Ratio (x) = -0.27847 0.30928
# Poissons Ratio (y) = -0.27847 0.30928
# Poissons Ratio (z) = 0.07580 0.07580
#
# Static dielectric constant tensor:
#      x y z
#    x 1.886550 0.000000 0.000000 
#    y 0.000000 1.886550 0.000000 
#    z 0.000000 0.000000 1.941750 
# 
# From -- ./inp_files/2122.got.cif
#   From: 2010.05.17/outbox.cif.g08.bks.cpg/sg79_cif.got.tgz:2122.got - 2010.06.03 18:47:27.
