data_PCOD9541773
_publ_section_title
;
Structure prediction by ZEFSAII (Michael W. Deem and Ramdas Pophale) SiO2 
 PCOD9541773
Probable space group: P 43
;
_chemical_formula_sum "Si O2"
_cell_formula_units_Z 20
_cell_length_a 7.846939
_cell_length_b 7.846939
_cell_length_c 12.073113
_cell_angle_alpha 90.000000
_cell_angle_beta 90.000000
_cell_angle_gamma 90.000000
_cell_volume 743.395313
_symmetry_space_group_name_H-M "P 43"
_symmetry_group_IT_number 78
_symmetry_cell_setting 'tetragonal'
loop_
_space_group_symop_operation_xyz
x,y,z
-y,x,3/4+z
-x,-y,1/2+z
y,-x,1/4+z
loop_
_atom_site_type_symbol
_atom_site_label
_atom_site_fract_x
_atom_site_fract_y
_atom_site_fract_z
Si Si1 0.239877 0.883694 0.292210
Si Si2 0.641169 0.653453 0.364485
Si Si3 0.874107 0.783708 0.796598
Si Si4 0.715946 0.496798 0.150005
Si Si5 0.000935 0.426986 0.485808
O O1 0.256088 0.710595 0.225723
O O2 0.286043 0.868568 0.421685
O O3 0.082079 0.014152 0.292146
O O4 0.369296 0.000344 0.217167
O O5 0.761241 0.558427 0.273544
O O6 0.523215 0.490458 0.394596
O O7 0.586135 0.818247 0.294893
O O8 0.695877 0.752230 0.862229
O O9 0.998574 0.685373 0.877707
O O10 0.837856 0.602654 0.066467
#
# Coordination Sequence:
#
# PCOD9541773 Si02
#       5
#     4   4   4   4   4
#     4  11  29  47  78 116 167 216 277 343 431 504
#     4  12  26  48  82 123 154 224 277 345 416 508
#     4  11  28  53  74 118 168 221 273 362 419 499
#     4  11  26  50  79 116 164 212 281 347 415 491
#     4  11  27  46  81 109 161 211 284 337 413 502
#
# _framework density 26.903587999999999
#
# number of rings (size 3 to 8) (size 9 to 14) (size 15 to 20)
#    0.000    0.800    4.000    0.000   14.000    3.200 
#    0.000    0.000    0.000    0.000    0.000    0.000 
#    0.000    0.000    0.000    0.000    0.000    0.000 
#
# Total GULP energy -111530.100827 kJ/mol
# GULP energy per Si atom -5576.505041 kJ/mol
# Density = 2.684235 g / cm^3
# Si number density = 26.903588 Si / 1000 Ang^3
#
#
#
# Elastic Constant Matrix: (Units=GPa)
#
#
# Indices 1 2 3 4 5 6 
#
# 1 88.4080 30.0366 23.9786 0.0000 0.0000 8.0731
# 2 30.0366 88.4080 23.9786 0.0000 0.0000 -8.0731
# 3 23.9786 23.9786 146.6473 0.0000 0.0000 0.0000
# 4 0.0000 0.0000 0.0000 45.5692 0.0000 0.0000
# 5 0.0000 0.0000 0.0000 0.0000 45.5692 0.0000
# 6 8.0731 -8.0731 0.0000 0.0000 0.0000 37.1868
#
#
#
# Elastic Compliance Matrix: (Units=1/GPa)
#
#
# Indices 1 2 3 4 5 6 
#
# 1 0.013634 -0.004592 -0.001478 0.000000 0.000000 -0.003957
# 2 -0.004592 0.013634 -0.001478 0.000000 0.000000 0.003957
# 3 -0.001478 -0.001478 0.007303 0.000000 0.000000 0.000000
# 4 0.000000 0.000000 0.000000 0.021945 0.000000 0.000000
# 5 0.000000 0.000000 0.000000 0.000000 0.021945 0.000000
# 6 -0.003957 0.003957 0.000000 0.000000 0.000000 0.028609
#
#
# Mechanical properties :
#
#
# Convention : Reuss Voigt Hill
#
# Bulk Modulus (GPa) = 51.35644 53.27234 52.31439
# Shear Modulus (GPa) = 38.86284 42.02966 40.44625
#
# Velocity S-wave (km/s) = 3.80481 3.95680 3.88155
# Velocity P-wave (km/s) = 6.19941 6.38116 6.29094
#
# Compressibility (1/GPa) = 0.01947175
#
# Stress axis : x y z
#
# Youngs Moduli (GPa) = 73.34731 73.34731 136.93861
#
# Poissons Ratio (x) = 0.33684 0.20245
# Poissons Ratio (y) = 0.33684 0.20245
# Poissons Ratio (z) = 0.10843 0.10843
#
# Static dielectric constant tensor:
#      x y z
#    x 2.330020 0.000000 0.000000 
#    y 0.000000 2.330020 0.000000 
#    z 0.000000 0.000000 2.152150 
# 
# From -- ./inp_files/842.got.cif
#   From: 2010.05.17/outbox.cif.g08.bks.cpg/sg78_cif.got.tgz:842.got - 2010.06.03 18:45:56.
