data_PCOD9541949
_publ_section_title
;
Structure prediction by ZEFSAII (Michael W. Deem and Ramdas Pophale) SiO2 
 PCOD9541949
Probable space group: I 4
;
_chemical_formula_sum "Si O2"
_cell_formula_units_Z 50
_cell_length_a 14.460682
_cell_length_b 14.460682
_cell_length_c 10.991724
_cell_angle_alpha 90.000000
_cell_angle_beta 90.000000
_cell_angle_gamma 90.000000
_cell_volume 2298.493958
_symmetry_space_group_name_H-M "I 4"
_symmetry_group_IT_number 79
_symmetry_cell_setting 'tetragonal'
loop_
_space_group_symop_operation_xyz
x,y,z
-y,x,z
-x,-y,z
y,-x,z
1/2+x,1/2+y,1/2+z
1/2-y,1/2+x,1/2+z
1/2-x,1/2-y,1/2+z
1/2+y,1/2-x,1/2+z
loop_
_atom_site_type_symbol
_atom_site_label
_atom_site_fract_x
_atom_site_fract_y
_atom_site_fract_z
Si Si1 0.665894 0.817144 0.558450
Si Si2 0.009365 0.206417 0.148470
Si Si3 0.299111 0.989614 0.662017
Si Si4 0.846031 0.307768 0.033609
Si Si5 0.500000 0.500000 0.740778
Si Si6 0.895169 0.492523 0.386815
Si Si7 0.525151 0.648850 0.366006
O O1 0.597587 0.773858 0.662240
O O2 0.734558 0.736165 0.514198
O O3 0.597399 0.852792 0.452498
O O4 0.715816 0.909262 0.606696
O O5 0.913841 0.263873 0.137692
O O6 0.003930 0.115298 0.229835
O O7 0.026221 0.169213 0.009979
O O8 0.302740 0.905753 0.569315
O O9 0.392861 0.989024 0.741372
O O10 0.226996 0.964424 0.766971
O O11 0.918807 0.333837 0.927682
O O12 0.000000 0.500000 0.431320
O O13 0.426494 0.602905 0.344065
#
# Coordination Sequence:
#
# PCOD9541949 Si02
#       7
#     8   8   8   8   2   8   8
#     4  11  23  40  61  94 130 165 210 260 327 400
#     4  11  20  34  61  91 123 160 203 257 328 379
#     4  12  25  38  64  91 130 158 219 262 321 383
#     4  11  23  40  61  94 130 165 210 260 327 400
#     4  12  16  36  64  88 124 164 202 280 312 408
#     4  11  25  43  65  84 126 172 210 266 324 380
#     4  11  19  34  59  90 118 151 198 257 320 369
#
# _framework density 21.753374999999998
#
# number of rings (size 3 to 8) (size 9 to 14) (size 15 to 20)
#    0.000    0.800    8.000    0.960    4.480    1.280 
#    0.000    0.000    0.000    0.000    0.000    0.000 
#    0.000    0.000    0.000    0.000    0.000    0.000 
#
# Total GULP energy -139289.944471 kJ/mol
# GULP energy per Si atom -5571.597779 kJ/mol
# Density = 2.170386 g / cm^3
# Si number density = 21.753375 Si / 1000 Ang^3
#
#
#
# Elastic Constant Matrix: (Units=GPa)
#
#
# Indices 1 2 3 4 5 6 
#
# 1 -10.1079 138.0628 -4.7576 0.0000 0.0000 -33.2093
# 2 138.0628 -10.1079 -4.7576 0.0000 0.0000 33.2093
# 3 -4.7576 -4.7576 21.3403 0.0000 0.0000 0.0000
# 4 0.0000 0.0000 0.0000 14.9774 0.0000 0.0000
# 5 0.0000 0.0000 0.0000 0.0000 14.9774 0.0000
# 6 -33.2093 33.2093 0.0000 0.0000 0.0000 33.5090
#
#
#
# Elastic Compliance Matrix: (Units=1/GPa)
#
#
# Indices 1 2 3 4 5 6 
#
# 1 0.001637 0.006310 0.001772 0.000000 0.000000 -0.004631
# 2 0.006310 0.001637 0.001772 0.000000 0.000000 0.004631
# 3 0.001772 0.001772 0.047650 0.000000 0.000000 0.000000
# 4 0.000000 0.000000 0.000000 0.066767 0.000000 0.000000
# 5 0.000000 0.000000 0.000000 0.000000 0.066767 0.000000
# 6 -0.004631 0.004631 0.000000 0.000000 0.000000 0.020663
#
#
# Mechanical properties :
#
#
# Convention : Reuss Voigt Hill
#
# Bulk Modulus (GPa) = 14.15819 28.69108 21.42463
# Shear Modulus (GPa) = 23.92827 4.19789 14.06308
#
# Velocity S-wave (km/s) = 3.32019 1.39067 2.54535
# Velocity P-wave (km/s) = 4.60661 3.97448 4.30217
#
# Compressibility (1/GPa) = 0.07063052
#
# Stress axis : x y z
#
# Youngs Moduli (GPa) = 610.87264 610.87264 20.98651
#
# Poissons Ratio (x) = -3.85461 -0.03718
# Poissons Ratio (y) = -3.85461 -0.03718
# Poissons Ratio (z) = -1.08229 -1.08229
#
# Static dielectric constant tensor:
#      x y z
#    x 1.851080 0.000000 0.000000 
#    y 0.000000 1.851080 0.000000 
#    z 0.000000 0.000000 1.786940 
# 
# From -- ./inp_files/1103.got.cif
#   From: 2010.05.17/outbox.cif.g08.bks.cpg/sg79_cif.got.tgz:1103.got - 2010.06.03 18:47:27.
