data_PCOD9541930
_publ_section_title
;
Structure prediction by ZEFSAII (Michael W. Deem and Ramdas Pophale) SiO2 
 PCOD9541930
Probable space group: I 4
;
_chemical_formula_sum "Si O2"
_cell_formula_units_Z 48
_cell_length_a 19.094302
_cell_length_b 19.094302
_cell_length_c 5.756564
_cell_angle_alpha 90.000000
_cell_angle_beta 90.000000
_cell_angle_gamma 90.000000
_cell_volume 2098.799305
_symmetry_space_group_name_H-M "I 4"
_symmetry_group_IT_number 79
_symmetry_cell_setting 'tetragonal'
loop_
_space_group_symop_operation_xyz
x,y,z
-y,x,z
-x,-y,z
y,-x,z
1/2+x,1/2+y,1/2+z
1/2-y,1/2+x,1/2+z
1/2-x,1/2-y,1/2+z
1/2+y,1/2-x,1/2+z
loop_
_atom_site_type_symbol
_atom_site_label
_atom_site_fract_x
_atom_site_fract_y
_atom_site_fract_z
Si Si1 0.305456 0.409238 0.438220
Si Si2 0.497543 0.384778 0.750556
Si Si3 0.707923 0.744577 0.549590
Si Si4 0.009713 0.754970 0.562403
Si Si5 0.418887 0.169774 0.386326
Si Si6 0.840742 0.550018 0.678801
O O1 0.357321 0.473620 0.500428
O O2 0.327141 0.332498 0.518573
O O3 0.286887 0.419249 0.170364
O O4 0.231153 0.421684 0.565050
O O5 0.565090 0.432871 0.803869
O O6 0.484327 0.313675 0.887483
O O7 0.746326 0.747813 0.804861
O O8 0.647327 0.802890 0.532715
O O9 0.952667 0.735879 0.754053
O O10 0.027666 0.683250 0.434884
O O11 0.480953 0.138242 0.541089
O O12 0.393743 0.113046 0.200888
#
# Coordination Sequence:
#
# PCOD9541930 Si02
#       6
#     8   8   8   8   8   8
#     4  10  23  41  65 100 141 187 245 312 365 457
#     4  10  24  42  63  97 144 194 248 306 374 452
#     4  12  27  44  77 113 150 197 251 314 386 442
#     4  10  24  42  70  97 144 188 251 312 370 452
#     4  11  25  44  74 106 144 201 242 323 372 456
#     4  10  23  47  66 102 147 182 250 306 375 447
#
# _framework density 22.870221000000001
#
# number of rings (size 3 to 8) (size 9 to 14) (size 15 to 20)
#    0.000    1.500    1.667    1.000   14.000    2.667 
#    0.000    4.167    0.000    0.000    0.000    0.000 
#    0.000    0.000    0.000    0.000    0.000    0.000 
#
# Total GULP energy -133832.553273 kJ/mol
# GULP energy per Si atom -5576.356386 kJ/mol
# Density = 2.281817 g / cm^3
# Si number density = 22.870221 Si / 1000 Ang^3
#
#
#
# Elastic Constant Matrix: (Units=GPa)
#
#
# Indices 1 2 3 4 5 6 
#
# 1 80.4708 24.0469 7.7994 0.0000 0.0000 -2.1707
# 2 24.0469 80.4708 7.7994 0.0000 0.0000 2.1707
# 3 7.7994 7.7994 53.9683 0.0000 0.0000 0.0000
# 4 0.0000 0.0000 0.0000 21.7814 0.0000 0.0000
# 5 0.0000 0.0000 0.0000 0.0000 21.7814 0.0000
# 6 -2.1707 2.1707 0.0000 0.0000 0.0000 19.9356
#
#
#
# Elastic Compliance Matrix: (Units=1/GPa)
#
#
# Indices 1 2 3 4 5 6 
#
# 1 0.013826 -0.004047 -0.001413 0.000000 0.000000 0.001946
# 2 -0.004047 0.013826 -0.001413 0.000000 0.000000 -0.001946
# 3 -0.001413 -0.001413 0.018938 0.000000 0.000000 0.000000
# 4 0.000000 0.000000 0.000000 0.045911 0.000000 0.000000
# 5 0.000000 0.000000 0.000000 0.000000 0.045911 0.000000
# 6 0.001946 -0.001946 0.000000 0.000000 0.000000 0.050585
#
#
# Mechanical properties :
#
#
# Convention : Reuss Voigt Hill
#
# Bulk Modulus (GPa) = 30.44842 32.68903 31.56873
# Shear Modulus (GPa) = 23.39833 24.38395 23.89114
#
# Velocity S-wave (km/s) = 3.20205 3.26880 3.23560
# Velocity P-wave (km/s) = 5.19743 5.34518 5.27183
#
# Compressibility (1/GPa) = 0.03284242
#
# Stress axis : x y z
#
# Youngs Moduli (GPa) = 72.32903 72.32903 52.80429
#
# Poissons Ratio (x) = 0.29272 0.07462
# Poissons Ratio (y) = 0.29272 0.07462
# Poissons Ratio (z) = 0.10222 0.10222
#
# Static dielectric constant tensor:
#      x y z
#    x 1.877370 0.000000 0.000000 
#    y 0.000000 1.877370 0.000000 
#    z 0.000000 0.000000 1.958030 
# 
# From -- ./inp_files/225.got.cif
#   From: 2010.05.17/outbox.cif.g08.bks.cpg/sg79_cif.got.tgz:225.got - 2010.06.03 18:47:27.
