data_PCOD9541250
_publ_section_title
;
Structure prediction by ZEFSAII (Michael W. Deem and Ramdas Pophale) SiO2 
 PCOD9541250
Probable space group: P 41
;
_chemical_formula_sum "Si O2"
_cell_formula_units_Z 32
_cell_length_a 9.005527
_cell_length_b 9.005527
_cell_length_c 16.774619
_cell_angle_alpha 90.000000
_cell_angle_beta 90.000000
_cell_angle_gamma 90.000000
_cell_volume 1360.413491
_symmetry_space_group_name_H-M "P 41"
_symmetry_group_IT_number 76
_symmetry_cell_setting 'tetragonal'
loop_
_space_group_symop_operation_xyz
x,y,z
-y,x,1/4+z
-x,-y,1/2+z
y,-x,3/4+z
loop_
_atom_site_type_symbol
_atom_site_label
_atom_site_fract_x
_atom_site_fract_y
_atom_site_fract_z
Si Si1 0.292568 0.034403 0.810840
Si Si2 0.491840 0.203196 0.309856
Si Si3 0.671075 0.541621 0.733306
Si Si4 0.292568 0.965597 0.000037
Si Si5 0.054487 0.054487 0.530439
Si Si6 0.203196 0.491840 0.751021
Si Si7 0.541621 0.671075 0.327572
Si Si8 0.000000 0.732014 0.155439
O O1 0.295114 1.000000 0.905439
O O2 0.403174 0.170254 0.793066
O O3 0.365662 0.884806 0.777235
O O4 0.123356 0.070877 0.789814
O O5 0.428771 0.314015 0.245733
O O6 0.513828 0.299634 0.390417
O O7 0.373399 0.082203 0.342426
O O8 0.594179 0.405821 0.780439
O O9 0.829746 0.596826 0.767812
O O10 0.123356 0.929123 0.021063
O O11 0.365662 0.115194 0.033642
O O12 0.101729 0.154605 0.605135
O O13 0.154605 0.101729 0.455742
O O14 0.299634 0.513829 0.670460
O O15 0.314015 0.428771 0.815145
O O16 0.082203 0.373399 0.718452
#
# Coordination Sequence:
#
# PCOD9541250 Si02
#       8
#     4   4   4   4   4   4   4   4
#     4  10  22  43  67  95 137 177 226 284 342 406
#     4  11  24  45  67 102 138 183 227 289 344 417
#     4  11  23  43  67  96 140 184 227 280 351 410
#     4  10  22  43  67  95 137 177 226 284 342 406
#     4  12  24  42  70 102 134 182 230 284 348 412
#     4  11  24  45  67 102 138 183 227 289 344 417
#     4  11  23  43  67  96 140 184 227 280 351 410
#     4  12  24  40  74 100 134 174 232 286 346 406
#
# _framework density 23.522258999999998
#
# number of rings (size 3 to 8) (size 9 to 14) (size 15 to 20)
#    0.000    1.000    7.500    0.750    3.500    0.000 
#    0.000    0.000    0.000    0.000    0.000    0.000 
#    0.000    0.000    0.000    0.000    0.000    0.000 
#
# Total GULP energy -178862.200604 kJ/mol
# GULP energy per Si atom -5589.443769 kJ/mol
# Density = 2.346872 g / cm^3
# Si number density = 23.522259 Si / 1000 Ang^3
#
#
#
# Elastic Constant Matrix: (Units=GPa)
#
#
# Indices 1 2 3 4 5 6 
#
# 1 106.7612 61.3612 10.6711 0.0000 0.0000 0.0000
# 2 61.3612 106.7612 10.6711 0.0000 0.0000 0.0000
# 3 10.6711 10.6711 16.1531 0.0000 0.0000 0.0000
# 4 0.0000 0.0000 0.0000 31.2213 0.0000 0.0000
# 5 0.0000 0.0000 0.0000 0.0000 31.2213 0.0000
# 6 0.0000 0.0000 0.0000 0.0000 0.0000 34.0936
#
#
#
# Elastic Compliance Matrix: (Units=1/GPa)
#
#
# Indices 1 2 3 4 5 6 
#
# 1 0.014259 -0.007767 -0.004289 0.000000 0.000000 0.000000
# 2 -0.007767 0.014259 -0.004289 0.000000 0.000000 0.000000
# 3 -0.004289 -0.004289 0.067575 0.000000 0.000000 0.000000
# 4 0.000000 0.000000 0.000000 0.032029 0.000000 0.000000
# 5 0.000000 0.000000 0.000000 0.000000 0.032029 0.000000
# 6 0.000000 0.000000 0.000000 0.000000 0.000000 0.029331
#
#
# Mechanical properties :
#
#
# Convention : Reuss Voigt Hill
#
# Bulk Modulus (GPa) = 15.77207 43.89803 29.83505
# Shear Modulus (GPa) = 20.55007 29.10537 24.82772
#
# Velocity S-wave (km/s) = 2.95895 3.52142 3.25237
# Velocity P-wave (km/s) = 4.28878 5.93605 5.17834
#
# Compressibility (1/GPa) = 0.06340321
#
# Stress axis : x y z
#
# Youngs Moduli (GPa) = 70.12885 70.12885 14.79846
#
# Poissons Ratio (x) = 0.54469 0.06347
# Poissons Ratio (y) = 0.54469 0.06347
# Poissons Ratio (z) = 0.30079 0.30079
#
# Static dielectric constant tensor:
#      x y z
#    x 1.952390 0.000000 0.000000 
#    y 0.000000 1.952390 0.000000 
#    z 0.000000 0.000000 1.845440 
# 
# From -- ./inp_files/1460.got.cif
#   From: 2010.05.17/outbox.cif.g08.bks.cpg/sg76_cif.got.tgz:1460.got - 2010.06.03 18:43:17.
