data_PCOD9541252
_publ_section_title
;
Structure prediction by ZEFSAII (Michael W. Deem and Ramdas Pophale) SiO2 
 PCOD9541252
Probable space group: P 41
;
_chemical_formula_sum "Si O2"
_cell_formula_units_Z 12
_cell_length_a 7.586049
_cell_length_b 7.586049
_cell_length_c 9.280765
_cell_angle_alpha 90.000000
_cell_angle_beta 90.000000
_cell_angle_gamma 90.000000
_cell_volume 534.090758
_symmetry_space_group_name_H-M "P 41"
_symmetry_group_IT_number 76
_symmetry_cell_setting 'tetragonal'
loop_
_space_group_symop_operation_xyz
x,y,z
-y,x,1/4+z
-x,-y,1/2+z
y,-x,3/4+z
loop_
_atom_site_type_symbol
_atom_site_label
_atom_site_fract_x
_atom_site_fract_y
_atom_site_fract_z
Si Si1 0.573169 0.658895 0.929970
Si Si2 0.837385 0.375533 0.069587
Si Si3 0.047412 0.401591 0.805066
O O1 0.601221 0.608609 0.761905
O O2 0.707746 0.526845 0.011097
O O3 0.621102 0.858018 0.975879
O O4 0.753485 0.187881 0.034851
O O5 0.875557 0.420937 0.234485
O O6 0.010237 0.403220 0.974027
#
# Coordination Sequence:
#
# PCOD9541252 Si02
#       3
#     4   4   4
#     4  10  22  43  70  99 136 177 229 280 339 408
#     4  11  24  47  68 102 141 179 235 283 340 414
#     4  11  24  46  70 101 139 180 232 281 345 410
#
# _framework density 22.468091000000001
#
# number of rings (size 3 to 8) (size 9 to 14) (size 15 to 20)
#    0.000    1.333    6.667    0.000    4.667    0.000 
#   18.000    0.000    0.000    0.000    0.000    0.000 
#    0.000    0.000    0.000    0.000    0.000    0.000 
#
# Total GULP energy -66950.973156 kJ/mol
# GULP energy per Si atom -5579.247763 kJ/mol
# Density = 2.241695 g / cm^3
# Si number density = 22.468091 Si / 1000 Ang^3
#
#
#
# Elastic Constant Matrix: (Units=GPa)
#
#
# Indices 1 2 3 4 5 6 
#
# 1 124.3776 41.2253 35.6671 0.0000 0.0000 -16.9254
# 2 41.2253 124.3776 35.6671 0.0000 0.0000 16.9254
# 3 35.6671 35.6671 130.5875 0.0000 0.0000 0.0000
# 4 0.0000 0.0000 0.0000 25.7248 0.0000 0.0000
# 5 0.0000 0.0000 0.0000 0.0000 25.7248 0.0000
# 6 -16.9254 16.9254 0.0000 0.0000 0.0000 18.0489
#
#
#
# Elastic Compliance Matrix: (Units=1/GPa)
#
#
# Indices 1 2 3 4 5 6 
#
# 1 0.013148 -0.006304 -0.001869 0.000000 0.000000 0.018241
# 2 -0.006304 0.013148 -0.001869 0.000000 0.000000 -0.018241
# 3 -0.001869 -0.001869 0.008679 0.000000 0.000000 0.000000
# 4 0.000000 0.000000 0.000000 0.038873 0.000000 0.000000
# 5 0.000000 0.000000 0.000000 0.000000 0.038873 0.000000
# 6 0.018241 -0.018241 0.000000 0.000000 0.000000 0.089616
#
#
# Mechanical properties :
#
#
# Convention : Reuss Voigt Hill
#
# Bulk Modulus (GPa) = 67.16206 67.16239 67.16222
# Shear Modulus (GPa) = 21.98913 31.68524 26.83718
#
# Velocity S-wave (km/s) = 3.13178 3.75938 3.45984
# Velocity P-wave (km/s) = 6.56007 6.98578 6.77627
#
# Compressibility (1/GPa) = 0.01488936
#
# Stress axis : x y z
#
# Youngs Moduli (GPa) = 76.05816 76.05816 115.22379
#
# Poissons Ratio (x) = 0.47948 0.21538
# Poissons Ratio (y) = 0.47948 0.21538
# Poissons Ratio (z) = 0.14217 0.14217
#
# Static dielectric constant tensor:
#      x y z
#    x 1.856760 0.000000 0.000000 
#    y 0.000000 1.856760 0.000000 
#    z 0.000000 0.000000 1.948490 
# 
# From -- ./inp_files/370.got.cif
#   From: 2010.05.17/outbox.cif.g08.bks.cpg/sg76_cif.got.tgz:370.got - 2010.06.03 18:43:17.
