data_PCOD9541953
_publ_section_title
;
Structure prediction by ZEFSAII (Michael W. Deem and Ramdas Pophale) SiO2 
 PCOD9541953
Probable space group: I 4
;
_chemical_formula_sum "Si O2"
_cell_formula_units_Z 40
_cell_length_a 15.043604
_cell_length_b 15.043604
_cell_length_c 6.813387
_cell_angle_alpha 90.000000
_cell_angle_beta 90.000000
_cell_angle_gamma 90.000000
_cell_volume 1541.937757
_symmetry_space_group_name_H-M "I 4"
_symmetry_group_IT_number 79
_symmetry_cell_setting 'tetragonal'
loop_
_space_group_symop_operation_xyz
x,y,z
-y,x,z
-x,-y,z
y,-x,z
1/2+x,1/2+y,1/2+z
1/2-y,1/2+x,1/2+z
1/2-x,1/2-y,1/2+z
1/2+y,1/2-x,1/2+z
loop_
_atom_site_type_symbol
_atom_site_label
_atom_site_fract_x
_atom_site_fract_y
_atom_site_fract_z
Si Si1 0.476719 0.817803 0.185490
Si Si2 0.062329 0.128890 0.132637
Si Si3 0.961674 0.676269 0.145406
Si Si4 0.649445 0.318430 0.296175
Si Si5 0.835164 0.656692 0.620658
O O1 0.406336 0.897073 0.171424
O O2 0.517373 0.819378 0.408116
O O3 0.424466 0.724688 0.154428
O O4 0.562497 0.835477 0.051736
O O5 0.087823 0.127908 0.899433
O O6 0.960154 0.113638 0.193308
O O7 0.084427 0.229010 0.195070
O O8 0.061772 0.668583 0.230605
O O9 0.650198 0.244113 0.466216
O O10 0.748841 0.320044 0.219911
#
# Coordination Sequence:
#
# PCOD9541953 Si02
#       5
#     8   8   8   8   8
#     4  11  24  41  68  95 137 176 230 281 345 410
#     4  11  20  40  70  98 129 174 228 274 329 409
#     4  11  24  43  66 101 134 179 225 285 344 408
#     4  11  22  43  65  98 134 177 224 282 339 400
#     4  11  23  41  64  95 136 176 222 274 340 402
#
# _framework density 25.941385
#
# number of rings (size 3 to 8) (size 9 to 14) (size 15 to 20)
#    0.000    1.000    6.000    1.800    0.000    6.400 
#    0.000    0.000    0.000    0.000    0.000    0.000 
#    0.000    0.000    0.000    0.000    0.000    0.000 
#
# Total GULP energy -111744.904876 kJ/mol
# GULP energy per Si atom -5587.245244 kJ/mol
# Density = 2.588234 g / cm^3
# Si number density = 25.941385 Si / 1000 Ang^3
#
#
#
# Elastic Constant Matrix: (Units=GPa)
#
#
# Indices 1 2 3 4 5 6 
#
# 1 175.6689 59.7880 16.7565 0.0000 0.0000 11.2116
# 2 59.7880 175.6689 16.7565 0.0000 0.0000 -11.2116
# 3 16.7565 16.7565 32.1604 0.0000 0.0000 0.0000
# 4 0.0000 0.0000 0.0000 42.0270 0.0000 0.0000
# 5 0.0000 0.0000 0.0000 0.0000 42.0270 0.0000
# 6 11.2116 -11.2116 0.0000 0.0000 0.0000 58.3538
#
#
#
# Elastic Compliance Matrix: (Units=1/GPa)
#
#
# Indices 1 2 3 4 5 6 
#
# 1 0.006775 -0.002188 -0.002390 0.000000 0.000000 -0.001722
# 2 -0.002188 0.006775 -0.002390 0.000000 0.000000 0.001722
# 3 -0.002390 -0.002390 0.033585 0.000000 0.000000 0.000000
# 4 0.000000 0.000000 0.000000 0.023794 0.000000 0.000000
# 5 0.000000 0.000000 0.000000 0.000000 0.023794 0.000000
# 6 -0.001722 0.001722 0.000000 0.000000 0.000000 0.017799
#
#
# Mechanical properties :
#
#
# Convention : Reuss Voigt Hill
#
# Bulk Modulus (GPa) = 30.12150 63.34447 46.73299
# Shear Modulus (GPa) = 36.35734 47.82808 42.09271
#
# Velocity S-wave (km/s) = 3.74775 4.29849 4.03253
# Velocity P-wave (km/s) = 5.51036 7.00766 6.30363
#
# Compressibility (1/GPa) = 0.03319887
#
# Stress axis : x y z
#
# Youngs Moduli (GPa) = 147.60135 147.60135 29.77545
#
# Poissons Ratio (x) = 0.32292 0.07117
# Poissons Ratio (y) = 0.32292 0.07117
# Poissons Ratio (z) = 0.35278 0.35278
#
# Static dielectric constant tensor:
#      x y z
#    x 2.024330 0.000000 0.000000 
#    y 0.000000 2.024330 0.000000 
#    z 0.000000 0.000000 2.336770 
# 
# From -- ./inp_files/539.got.cif
#   From: 2010.05.17/outbox.cif.g08.bks.cpg/sg79_cif.got.tgz:539.got - 2010.06.03 18:47:27.
