data_PCOD9541109
_publ_section_title
;
Structure prediction by ZEFSAII (Michael W. Deem and Ramdas Pophale) SiO2 
 PCOD9541109
Probable space group: P 41
;
_chemical_formula_sum "Si O2"
_cell_formula_units_Z 24
_cell_length_a 10.994628
_cell_length_b 10.994628
_cell_length_c 8.868892
_cell_angle_alpha 90.000000
_cell_angle_beta 90.000000
_cell_angle_gamma 90.000000
_cell_volume 1072.088027
_symmetry_space_group_name_H-M "P 41"
_symmetry_group_IT_number 76
_symmetry_cell_setting 'tetragonal'
loop_
_space_group_symop_operation_xyz
x,y,z
-y,x,1/4+z
-x,-y,1/2+z
y,-x,3/4+z
loop_
_atom_site_type_symbol
_atom_site_label
_atom_site_fract_x
_atom_site_fract_y
_atom_site_fract_z
Si Si1 0.575511 0.607935 0.906720
Si Si2 0.946855 0.497339 0.392151
Si Si3 0.861175 0.015651 0.417321
Si Si4 0.383465 0.126979 0.831828
Si Si5 0.274778 0.191839 0.271109
Si Si6 0.352487 0.715377 0.721392
O O1 0.608223 0.481625 0.823215
O O2 0.680355 0.709927 0.893050
O O3 0.472064 0.650991 0.785672
O O4 0.922061 0.464915 0.220070
O O5 0.911952 0.377018 0.491966
O O6 0.848102 0.601833 0.427282
O O7 0.078687 0.549530 0.433071
O O8 0.844546 0.134090 0.526148
O O9 0.924720 0.060548 0.266538
O O10 0.740945 0.945354 0.364696
O O11 0.355904 0.270036 0.850808
O O12 0.277600 0.264749 0.113854
#
# Coordination Sequence:
#
# PCOD9541109 Si02
#       6
#     4   4   4   4   4   4
#     4   9  18  34  59  86 119 157 201 249 309 380
#     4  10  19  37  65  85 124 163 208 260 317 380
#     4  12  23  44  69  91 128 172 220 268 323 384
#     4  11  21  40  64  92 122 169 212 262 321 382
#     4   9  18  37  61  83 118 168 208 247 313 380
#     4   9  17  36  62  83 117 165 205 244 317 382
#
# _framework density 22.386220999999999
#
# number of rings (size 3 to 8) (size 9 to 14) (size 15 to 20)
#    0.000    2.000    5.000    1.000    0.000    0.000 
#    9.000    0.000    0.000    0.000    0.000    0.000 
#    0.000    0.000    0.000    0.000    0.000    0.000 
#
# Total GULP energy -133958.938498 kJ/mol
# GULP energy per Si atom -5581.622437 kJ/mol
# Density = 2.233527 g / cm^3
# Si number density = 22.386221 Si / 1000 Ang^3
#
#
#
# Elastic Constant Matrix: (Units=GPa)
#
#
# Indices 1 2 3 4 5 6 
#
# 1 32.4732 29.5906 8.1498 0.0000 0.0000 3.1621
# 2 29.5906 32.4732 8.1498 0.0000 0.0000 -3.1621
# 3 8.1498 8.1498 23.9114 0.0000 0.0000 0.0000
# 4 0.0000 0.0000 0.0000 29.5310 0.0000 0.0000
# 5 0.0000 0.0000 0.0000 0.0000 29.5310 0.0000
# 6 3.1621 -3.1621 0.0000 0.0000 0.0000 22.7429
#
#
#
# Elastic Compliance Matrix: (Units=1/GPa)
#
#
# Indices 1 2 3 4 5 6 
#
# 1 0.258441 -0.240745 -0.006032 0.000000 0.000000 -0.069405
# 2 -0.240745 0.258441 -0.006032 0.000000 0.000000 0.069405
# 3 -0.006032 -0.006032 0.045933 0.000000 0.000000 0.000000
# 4 0.000000 0.000000 0.000000 0.033863 0.000000 0.000000
# 5 0.000000 0.000000 0.000000 0.000000 0.033863 0.000000
# 6 -0.069405 0.069405 0.000000 0.000000 0.000000 0.063269
#
#
# Mechanical properties :
#
#
# Convention : Reuss Voigt Hill
#
# Bulk Modulus (GPa) = 17.48270 20.07089 18.77679
# Shear Modulus (GPa) = 4.10343 19.22548 11.66445
#
# Velocity S-wave (km/s) = 1.35536 2.93372 2.28514
# Velocity P-wave (km/s) = 3.20560 4.52337 3.92025
#
# Compressibility (1/GPa) = 0.05719942
#
# Stress axis : x y z
#
# Youngs Moduli (GPa) = 3.86935 3.86935 21.77105
#
# Poissons Ratio (x) = 0.93153 0.13131
# Poissons Ratio (y) = 0.93153 0.13131
# Poissons Ratio (z) = 0.02334 0.02334
#
# Static dielectric constant tensor:
#      x y z
#    x 1.930060 0.000000 0.000000 
#    y 0.000000 1.930060 0.000000 
#    z 0.000000 0.000000 1.820000 
# 
# From -- ./inp_files/576.got.cif
#   From: 2010.05.17/outbox.cif.g08.bks.cpg/sg76_cif.got.tgz:576.got - 2010.06.03 18:43:17.
