data_PCOD9541752
_publ_section_title
;
Structure prediction by ZEFSAII (Michael W. Deem and Ramdas Pophale) SiO2 
 PCOD9541752
Probable space group: P 43
;
_chemical_formula_sum "Si O2"
_cell_formula_units_Z 28
_cell_length_a 8.054870
_cell_length_b 8.054870
_cell_length_c 20.610565
_cell_angle_alpha 90.000000
_cell_angle_beta 90.000000
_cell_angle_gamma 90.000000
_cell_volume 1337.232640
_symmetry_space_group_name_H-M "P 43"
_symmetry_group_IT_number 78
_symmetry_cell_setting 'tetragonal'
loop_
_space_group_symop_operation_xyz
x,y,z
-y,x,3/4+z
-x,-y,1/2+z
y,-x,1/4+z
loop_
_atom_site_type_symbol
_atom_site_label
_atom_site_fract_x
_atom_site_fract_y
_atom_site_fract_z
Si Si1 0.805347 0.219817 0.187960
Si Si2 0.419021 0.883167 0.478366
Si Si3 0.017229 0.962217 0.124038
Si Si4 0.651551 0.069644 0.306169
Si Si5 0.627860 0.403861 0.083403
Si Si6 0.249079 0.442332 0.085978
Si Si7 0.200396 0.110806 0.005447
O O1 0.719723 0.086360 0.233760
O O2 0.670331 0.338107 0.155345
O O3 0.945936 0.317618 0.227890
O O4 0.905630 0.124743 0.132027
O O5 0.378523 0.754854 0.535534
O O6 0.387761 0.791209 0.409741
O O7 0.613445 0.928038 0.482613
O O8 0.099378 0.921350 0.193611
O O9 0.906832 0.804754 0.104880
O O10 0.140780 0.993507 0.064181
O O11 0.520424 0.217568 0.315476
O O12 0.580515 0.887621 0.320285
O O13 0.444382 0.484627 0.080831
O O14 0.211036 0.293235 0.036522
#
# Coordination Sequence:
#
# PCOD9541752 Si02
#       7
#     4   4   4   4   4   4   4
#     4  12  24  43  73  99 142 184 243 301 364 442
#     4  11  23  46  70  99 137 188 242 301 367 441
#     4  12  23  43  71 106 138 189 241 298 375 446
#     4  12  25  45  69 102 144 184 235 302 363 438
#     4  11  25  44  71 104 141 193 242 303 366 441
#     4  11  24  45  68  99 143 185 242 300 366 439
#     4  11  24  42  74  97 139 189 237 303 371 445
#
# _framework density 20.938766000000001
#
# number of rings (size 3 to 8) (size 9 to 14) (size 15 to 20)
#    0.000    0.571    5.714    1.714    2.000    3.429 
#    7.714    0.000    0.000    0.000    0.000    0.000 
#    0.000    0.000    0.000    0.000    0.000    0.000 
#
# Total GULP energy -156498.533632 kJ/mol
# GULP energy per Si atom -5589.233344 kJ/mol
# Density = 2.089111 g / cm^3
# Si number density = 20.938766 Si / 1000 Ang^3
#
#
#
# Elastic Constant Matrix: (Units=GPa)
#
#
# Indices 1 2 3 4 5 6 
#
# 1 74.9108 41.5338 16.0111 0.0000 0.0000 -3.8607
# 2 41.5338 74.9108 16.0111 0.0000 0.0000 3.8607
# 3 16.0111 16.0111 86.1247 0.0000 0.0000 0.0000
# 4 0.0000 0.0000 0.0000 36.6321 0.0000 0.0000
# 5 0.0000 0.0000 0.0000 0.0000 36.6321 0.0000
# 6 -3.8607 3.8607 0.0000 0.0000 0.0000 13.1917
#
#
#
# Elastic Compliance Matrix: (Units=1/GPa)
#
#
# Indices 1 2 3 4 5 6 
#
# 1 0.020593 -0.011543 -0.001683 0.000000 0.000000 0.009405
# 2 -0.011543 0.020593 -0.001683 0.000000 0.000000 -0.009405
# 3 -0.001683 -0.001683 0.012237 0.000000 0.000000 0.000000
# 4 0.000000 0.000000 0.000000 0.027298 0.000000 0.000000
# 5 0.000000 0.000000 0.000000 0.000000 0.027298 0.000000
# 6 0.009405 -0.009405 0.000000 0.000000 0.000000 0.081311
#
#
# Mechanical properties :
#
#
# Convention : Reuss Voigt Hill
#
# Bulk Modulus (GPa) = 42.35948 42.56201 42.46075
# Shear Modulus (GPa) = 22.02484 28.11720 25.07102
#
# Velocity S-wave (km/s) = 3.24677 3.66844 3.46403
# Velocity P-wave (km/s) = 5.85913 6.18985 6.02676
#
# Compressibility (1/GPa) = 0.02360747
#
# Stress axis : x y z
#
# Youngs Moduli (GPa) = 48.55905 48.55905 81.72165
#
# Poissons Ratio (x) = 0.56052 0.13750
# Poissons Ratio (y) = 0.56052 0.13750
# Poissons Ratio (z) = 0.08170 0.08170
#
# Static dielectric constant tensor:
#      x y z
#    x 1.752960 0.000000 0.000000 
#    y 0.000000 1.752960 0.000000 
#    z 0.000000 0.000000 1.762670 
# 
# From -- ./inp_files/1429.got.cif
#   From: 2010.05.17/outbox.cif.g08.bks.cpg/sg78_cif.got.tgz:1429.got - 2010.06.03 18:45:56.
