data_PCOD9541450
_publ_section_title
;
Structure prediction by ZEFSAII (Michael W. Deem and Ramdas Pophale) SiO2 
 PCOD9541450
Probable space group: P 41
;
_chemical_formula_sum "Si O2"
_cell_formula_units_Z 20
_cell_length_a 9.060123
_cell_length_b 9.060123
_cell_length_c 9.623634
_cell_angle_alpha 90.000000
_cell_angle_beta 90.000000
_cell_angle_gamma 90.000000
_cell_volume 789.963973
_symmetry_space_group_name_H-M "P 41"
_symmetry_group_IT_number 76
_symmetry_cell_setting 'tetragonal'
loop_
_space_group_symop_operation_xyz
x,y,z
-y,x,1/4+z
-x,-y,1/2+z
y,-x,3/4+z
loop_
_atom_site_type_symbol
_atom_site_label
_atom_site_fract_x
_atom_site_fract_y
_atom_site_fract_z
Si Si1 0.922167 0.617612 0.519130
Si Si2 0.610238 0.847705 0.021000
Si Si3 0.945040 0.855834 0.926101
Si Si4 0.140381 0.677241 0.734858
Si Si5 0.372719 0.455664 0.684714
O O1 0.873038 0.492486 0.633740
O O2 0.781294 0.717664 0.489297
O O3 0.015556 0.590196 0.378303
O O4 0.035455 0.716851 0.607827
O O5 0.587820 0.701288 0.115366
O O6 0.777837 0.822895 0.970104
O O7 0.042439 0.718307 0.869592
O O8 0.928234 0.971354 0.802968
O O9 0.206129 0.515851 0.695736
O O10 0.431436 0.459363 0.838981
#
# Coordination Sequence:
#
# PCOD9541450 Si02
#       5
#     4   4   4   4   4
#     4  12  30  53  86 124 175 225 295 363 446 531
#     4  12  32  53  85 127 169 234 297 365 446 537
#     4  12  29  51  85 123 171 225 295 372 439 531
#     4  12  28  51  82 120 168 226 285 361 443 521
#     4  12  29  54  82 120 169 226 290 363 434 536
#
# _framework density 25.317613000000001
#
# number of rings (size 3 to 8) (size 9 to 14) (size 15 to 20)
#    0.000    0.000    4.000    2.400   14.000    1.600 
#    0.000    0.000    0.000    0.000    0.000    0.000 
#    0.000    0.000    0.000    0.000    0.000    0.000 
#
# Total GULP energy -111878.459154 kJ/mol
# GULP energy per Si atom -5593.922958 kJ/mol
# Density = 2.525999 g / cm^3
# Si number density = 25.317613 Si / 1000 Ang^3
#
#
#
# Elastic Constant Matrix: (Units=GPa)
#
#
# Indices 1 2 3 4 5 6 
#
# 1 103.1316 42.3536 35.5945 0.0000 0.0000 10.4021
# 2 42.3536 103.1316 35.5945 0.0000 0.0000 -10.4021
# 3 35.5945 35.5945 105.9898 0.0000 0.0000 0.0000
# 4 0.0000 0.0000 0.0000 52.2446 0.0000 0.0000
# 5 0.0000 0.0000 0.0000 0.0000 52.2446 0.0000
# 6 10.4021 -10.4021 0.0000 0.0000 0.0000 24.5904
#
#
#
# Elastic Compliance Matrix: (Units=1/GPa)
#
#
# Indices 1 2 3 4 5 6 
#
# 1 0.013732 -0.005507 -0.002762 0.000000 0.000000 -0.008138
# 2 -0.005507 0.013732 -0.002762 0.000000 0.000000 0.008138
# 3 -0.002762 -0.002762 0.011290 0.000000 0.000000 0.000000
# 4 0.000000 0.000000 0.000000 0.019141 0.000000 0.000000
# 5 0.000000 0.000000 0.000000 0.000000 0.019141 0.000000
# 6 -0.008138 0.008138 0.000000 0.000000 0.000000 0.047552
#
#
# Mechanical properties :
#
#
# Convention : Reuss Voigt Hill
#
# Bulk Modulus (GPa) = 59.91075 59.92647 59.91861
# Shear Modulus (GPa) = 32.84844 39.06328 35.95586
#
# Velocity S-wave (km/s) = 3.60593 3.93227 3.77263
# Velocity P-wave (km/s) = 6.40718 6.65870 6.53415
#
# Compressibility (1/GPa) = 0.01669150
#
# Stress axis : x y z
#
# Youngs Moduli (GPa) = 72.82189 72.82189 88.57270
#
# Poissons Ratio (x) = 0.40103 0.24466
# Poissons Ratio (y) = 0.40103 0.24466
# Poissons Ratio (z) = 0.20115 0.20115
#
# Static dielectric constant tensor:
#      x y z
#    x 2.039420 0.000000 0.000000 
#    y 0.000000 2.039420 0.000000 
#    z 0.000000 0.000000 1.971230 
# 
# From -- ./inp_files/441.got.cif
#   From: 2010.05.17/outbox.cif.g08.bks.cpg/sg76_cif.got.tgz:441.got - 2010.06.03 18:43:17.
