data_PCOD9541568
_publ_section_title
;
Structure prediction by ZEFSAII (Michael W. Deem and Ramdas Pophale) SiO2 
 PCOD9541568
Probable space group: P 42
;
_chemical_formula_sum "Si O2"
_cell_formula_units_Z 16
_cell_length_a 5.131824
_cell_length_b 5.131824
_cell_length_c 23.497895
_cell_angle_alpha 90.000000
_cell_angle_beta 90.000000
_cell_angle_gamma 90.000000
_cell_volume 618.831576
_symmetry_space_group_name_H-M "P 42"
_symmetry_group_IT_number 77
_symmetry_cell_setting 'tetragonal'
loop_
_space_group_symop_operation_xyz
x,y,z
-y,x,1/2+z
-x,-y,z
y,-x,1/2+z
loop_
_atom_site_type_symbol
_atom_site_label
_atom_site_fract_x
_atom_site_fract_y
_atom_site_fract_z
Si Si1 0.177855 0.754812 0.684220
Si Si2 0.746178 0.318598 0.554313
Si Si3 0.000000 0.500000 0.969024
Si Si4 0.500000 0.500000 0.776054
Si Si5 0.811606 0.252653 0.374259
O O1 0.285761 0.763648 0.620103
O O2 0.382225 0.713463 0.733879
O O3 0.000000 0.500000 0.685708
O O4 0.000000 0.000000 0.694406
O O5 0.500000 0.500000 0.538605
O O6 0.000000 0.500000 0.547850
O O7 0.726998 0.062377 0.515103
O O8 0.784746 0.594929 0.923222
O O9 0.702112 0.647737 0.816917
O O10 0.000000 0.500000 0.383912
O O11 0.000000 0.000000 0.373014
#
# Coordination Sequence:
#
# PCOD9541568 Si02
#       5
#     4   4   2   2   4
#     4  11  29  52  86 126 173 227 289 360 440 525
#     4  11  28  53  85 128 171 226 287 361 442 524
#     4  12  30  50  90 122 174 230 288 364 432 526
#     4  12  30  54  82 126 174 228 304 352 444 516
#     4  12  31  54  85 123 174 231 296 361 436 515
#
# _framework density 25.855172
#
# number of rings (size 3 to 8) (size 9 to 14) (size 15 to 20)
#    0.000    0.500    1.250    2.250   24.500    0.000 
#    0.000    0.000    0.000    0.000    0.000    0.000 
#    0.000    0.000    0.000    0.000    0.000    0.000 
#
# Total GULP energy -89588.101177 kJ/mol
# GULP energy per Si atom -5599.256324 kJ/mol
# Density = 2.579632 g / cm^3
# Si number density = 25.855172 Si / 1000 Ang^3
#
#
#
# Elastic Constant Matrix: (Units=GPa)
#
#
# Indices 1 2 3 4 5 6 
#
# 1 180.5701 87.1482 71.2483 0.0000 0.0000 6.2494
# 2 87.1482 180.5701 71.2483 0.0000 0.0000 -6.2494
# 3 71.2483 71.2483 244.4265 0.0000 0.0000 0.0000
# 4 0.0000 0.0000 0.0000 158.6384 0.0000 0.0000
# 5 0.0000 0.0000 0.0000 0.0000 158.6384 0.0000
# 6 6.2494 -6.2494 0.0000 0.0000 0.0000 70.5189
#
#
#
# Elastic Compliance Matrix: (Units=1/GPa)
#
#
# Indices 1 2 3 4 5 6 
#
# 1 0.007627 -0.003206 -0.001289 0.000000 0.000000 -0.000960
# 2 -0.003206 0.007627 -0.001289 0.000000 0.000000 0.000960
# 3 -0.001289 -0.001289 0.004843 0.000000 0.000000 0.000000
# 4 0.000000 0.000000 0.000000 0.006304 0.000000 0.000000
# 5 0.000000 0.000000 0.000000 0.000000 0.006304 0.000000
# 6 -0.000960 0.000960 0.000000 0.000000 0.000000 0.014351
#
#
# Mechanical properties :
#
#
# Convention : Reuss Voigt Hill
#
# Bulk Modulus (GPa) = 117.23362 118.31737 117.77550
# Shear Modulus (GPa) = 81.34842 102.62061 91.98451
#
# Velocity S-wave (km/s) = 5.61528 6.30688 5.97110
# Velocity P-wave (km/s) = 9.35322 9.94467 9.65348
#
# Compressibility (1/GPa) = 0.00852998
#
# Stress axis : x y z
#
# Youngs Moduli (GPa) = 131.11502 131.11502 206.50361
#
# Poissons Ratio (x) = 0.42031 0.26613
# Poissons Ratio (y) = 0.42031 0.26613
# Poissons Ratio (z) = 0.16897 0.16897
#
# Static dielectric constant tensor:
#      x y z
#    x 2.025790 0.000000 0.000000 
#    y 0.000000 2.025790 0.000000 
#    z 0.000000 0.000000 2.006960 
# 
# From -- ./inp_files/1485.got.cif
#   From: 2010.05.17/outbox.cif.g08.bks.cpg/sg77_cif.got.tgz:1485.got - 2010.06.03 18:44:51.
