data_PCOD9541070
_publ_section_title
;
Structure prediction by ZEFSAII (Michael W. Deem and Ramdas Pophale) SiO2 
 PCOD9541070
Probable space group: P 41
;
_chemical_formula_sum "Si O2"
_cell_formula_units_Z 24
_cell_length_a 16.545283
_cell_length_b 16.545283
_cell_length_c 5.370852
_cell_angle_alpha 90.000000
_cell_angle_beta 90.000000
_cell_angle_gamma 90.000000
_cell_volume 1470.251344
_symmetry_space_group_name_H-M "P 41"
_symmetry_group_IT_number 76
_symmetry_cell_setting 'tetragonal'
loop_
_space_group_symop_operation_xyz
x,y,z
-y,x,1/4+z
-x,-y,1/2+z
y,-x,3/4+z
loop_
_atom_site_type_symbol
_atom_site_label
_atom_site_fract_x
_atom_site_fract_y
_atom_site_fract_z
Si Si1 0.840024 0.076409 0.035310
Si Si2 0.928982 0.420628 0.905247
Si Si3 0.096688 0.850942 0.046292
Si Si4 0.344104 0.895221 0.651817
Si Si5 0.890942 0.609608 0.904787
Si Si6 0.333570 0.075362 0.157172
O O1 0.886930 0.098886 0.291586
O O2 0.747205 0.074011 0.127083
O O3 0.847186 0.134053 0.790332
O O4 0.866127 0.991107 0.918084
O O5 0.911632 0.515199 0.911226
O O6 0.897686 0.383941 0.647639
O O7 0.026028 0.403438 0.905821
O O8 0.897634 0.373280 0.148006
O O9 0.098693 0.758673 0.950769
O O10 0.365911 0.847070 0.405598
O O11 0.361798 0.849173 0.904364
O O12 0.977046 0.658048 0.904496
#
# Coordination Sequence:
#
# PCOD9541070 Si02
#       6
#     4   4   4   4   4   4
#     4  12  25  39  54  64  83 123 166 217 265 288
#     4  10  17  28  52  75  91 108 128 166 253 310
#     4  12  25  39  54  64  83 123 166 217 265 288
#     4  10  18  31  47  67  94 108 135 184 237 304
#     4  10  17  28  52  75  91 108 128 166 253 310
#     4  10  18  31  47  67  94 108 135 184 237 304
#
# _framework density 16.323740000000001
#
# number of rings (size 3 to 8) (size 9 to 14) (size 15 to 20)
#    0.000    1.333    3.333    8.000    4.667    1.333 
#    0.000    0.000    0.000    0.000    0.000    0.000 
#    0.000    0.000    0.000    0.000    0.000    0.000 
#
# Total GULP energy -133745.210434 kJ/mol
# GULP energy per Si atom -5572.717101 kJ/mol
# Density = 1.628659 g / cm^3
# Si number density = 16.323740 Si / 1000 Ang^3
#
#
#
# Elastic Constant Matrix: (Units=GPa)
#
#
# Indices 1 2 3 4 5 6 
#
# 1 42.5977 19.3141 33.6444 0.0000 0.0000 -0.9888
# 2 19.3141 42.5977 33.6444 0.0000 0.0000 0.9888
# 3 33.6444 33.6444 198.0791 0.0000 0.0000 0.0000
# 4 0.0000 0.0000 0.0000 26.3672 0.0000 0.0000
# 5 0.0000 0.0000 0.0000 0.0000 26.3672 0.0000
# 6 -0.9888 0.9888 0.0000 0.0000 0.0000 -1.3742
#
#
#
# Elastic Compliance Matrix: (Units=1/GPa)
#
#
# Indices 1 2 3 4 5 6 
#
# 1 0.030142 -0.010333 -0.003365 0.000000 0.000000 -0.029124
# 2 -0.010333 0.030142 -0.003365 0.000000 0.000000 0.029124
# 3 -0.003365 -0.003365 0.006191 0.000000 0.000000 0.000000
# 4 0.000000 0.000000 0.000000 0.037926 0.000000 0.000000
# 5 0.000000 0.000000 0.000000 0.000000 0.037926 0.000000
# 6 -0.029124 0.029124 0.000000 0.000000 0.000000 -0.685784
#
#
# Mechanical properties :
#
#
# Convention : Reuss Voigt Hill
#
# Bulk Modulus (GPa) = 30.91121 50.72001 40.81561
# Shear Modulus (GPa) = -10.02911 23.38348 6.67718
#
# Velocity S-wave (km/s) = -2.48137 3.78892 2.02469
# Velocity P-wave (km/s) = 3.28144 7.09084 5.52485
#
# Compressibility (1/GPa) = 0.03235072
#
# Stress axis : x y z
#
# Youngs Moduli (GPa) = 33.17635 33.17635 161.51276
#
# Poissons Ratio (x) = 0.34282 0.54342
# Poissons Ratio (y) = 0.34282 0.54342
# Poissons Ratio (z) = 0.11162 0.11162
#
# Static dielectric constant tensor:
#      x y z
#    x 1.550860 0.000000 0.000000 
#    y 0.000000 1.550860 0.000000 
#    z 0.000000 0.000000 1.715940 
# 
# From -- ./inp_files/214.got.cif
#   From: 2010.05.17/outbox.cif.g08.bks.cpg/sg76_cif.got.tgz:214.got - 2010.06.03 18:43:17.
