data_PCOD9541197
_publ_section_title
;
Structure prediction by ZEFSAII (Michael W. Deem and Ramdas Pophale) SiO2 
 PCOD9541197
Probable space group: P 41
;
_chemical_formula_sum "Si O2"
_cell_formula_units_Z 28
_cell_length_a 8.863208
_cell_length_b 8.863208
_cell_length_c 14.485226
_cell_angle_alpha 90.000000
_cell_angle_beta 90.000000
_cell_angle_gamma 90.000000
_cell_volume 1137.908020
_symmetry_space_group_name_H-M "P 41"
_symmetry_group_IT_number 76
_symmetry_cell_setting 'tetragonal'
loop_
_space_group_symop_operation_xyz
x,y,z
-y,x,1/4+z
-x,-y,1/2+z
y,-x,3/4+z
loop_
_atom_site_type_symbol
_atom_site_label
_atom_site_fract_x
_atom_site_fract_y
_atom_site_fract_z
Si Si1 0.336147 0.885645 0.336230
Si Si2 0.827800 0.283684 0.503123
Si Si3 0.276385 0.760493 0.664099
Si Si4 0.380850 0.684320 0.170351
Si Si5 0.025729 0.381299 0.170797
Si Si6 0.656181 0.535772 0.239980
Si Si7 0.994042 0.486300 0.873060
O O1 0.297463 0.767305 0.254698
O O2 0.494587 0.985915 0.341717
O O3 0.378171 0.770104 0.418963
O O4 0.224042 0.027156 0.314779
O O5 0.721741 0.352493 0.583650
O O6 0.908451 0.386600 0.426420
O O7 0.715702 0.172436 0.447323
O O8 0.099902 0.745131 0.652507
O O9 0.370790 0.678986 0.582886
O O10 0.310488 0.642796 0.746638
O O11 0.333139 0.930089 0.657916
O O12 0.484126 0.552302 0.207491
O O13 0.495034 0.819860 0.145294
O O14 0.997706 0.478191 0.264615
#
# Coordination Sequence:
#
# PCOD9541197 Si02
#       7
#     4   4   4   4   4   4   4
#     4  10  21  42  65  92 137 170 221 282 344 403
#     4  10  24  40  68  92 130 182 222 270 336 418
#     4  11  21  39  64  97 130 168 218 278 335 405
#     4  10  22  40  61  94 127 172 218 278 340 398
#     4  10  21  42  65  92 137 170 221 282 344 403
#     4  11  21  39  64  97 130 168 218 278 335 405
#     4  10  22  40  61  94 127 172 218 278 340 398
#
# _framework density 24.606556000000001
#
# number of rings (size 3 to 8) (size 9 to 14) (size 15 to 20)
#    0.000    1.714    5.714    0.000    2.000    5.714 
#    0.000    4.286   12.571    0.000    0.000    0.000 
#    0.000    0.000    0.000    0.000    0.000    0.000 
#
# Total GULP energy -155891.838300 kJ/mol
# GULP energy per Si atom -5567.565654 kJ/mol
# Density = 2.455055 g / cm^3
# Si number density = 24.606556 Si / 1000 Ang^3
#
#
#
# Elastic Constant Matrix: (Units=GPa)
#
#
# Indices 1 2 3 4 5 6 
#
# 1 47.0765 11.1555 7.8052 0.0000 0.0000 -0.6491
# 2 11.1555 47.0765 7.8052 0.0000 0.0000 0.6491
# 3 7.8052 7.8052 79.8892 0.0000 0.0000 0.0000
# 4 0.0000 0.0000 0.0000 31.6242 0.0000 0.0000
# 5 0.0000 0.0000 0.0000 0.0000 31.6242 0.0000
# 6 -0.6491 0.6491 0.0000 0.0000 0.0000 41.1098
#
#
#
# Elastic Compliance Matrix: (Units=1/GPa)
#
#
# Indices 1 2 3 4 5 6 
#
# 1 0.022745 -0.005110 -0.001723 0.000000 0.000000 0.000440
# 2 -0.005110 0.022745 -0.001723 0.000000 0.000000 -0.000440
# 3 -0.001723 -0.001723 0.012854 0.000000 0.000000 0.000000
# 4 0.000000 0.000000 0.000000 0.031621 0.000000 0.000000
# 5 0.000000 0.000000 0.000000 0.000000 0.031621 0.000000
# 6 0.000440 -0.000440 0.000000 0.000000 0.000000 0.024339
#
#
# Mechanical properties :
#
#
# Convention : Reuss Voigt Hill
#
# Bulk Modulus (GPa) = 24.25332 25.28601 24.76966
# Shear Modulus (GPa) = 28.28363 30.69005 29.48684
#
# Velocity S-wave (km/s) = 3.39401 3.53545 3.46545
# Velocity P-wave (km/s) = 5.02364 5.19271 5.10887
#
# Compressibility (1/GPa) = 0.04123147
#
# Stress axis : x y z
#
# Youngs Moduli (GPa) = 43.96637 43.96637 77.79683
#
# Poissons Ratio (x) = 0.22467 0.13404
# Poissons Ratio (y) = 0.22467 0.13404
# Poissons Ratio (z) = 0.07575 0.07575
#
# Static dielectric constant tensor:
#      x y z
#    x 1.986380 0.000000 0.000000 
#    y 0.000000 1.986380 0.000000 
#    z 0.000000 0.000000 2.041490 
# 
# From -- ./inp_files/1268.got.cif
#   From: 2010.05.17/outbox.cif.g08.bks.cpg/sg76_cif.got.tgz:1268.got - 2010.06.03 18:43:17.
