data_PCOD9541284
_publ_section_title
;
Structure prediction by ZEFSAII (Michael W. Deem and Ramdas Pophale) SiO2 
 PCOD9541284
Probable space group: P 41
;
_chemical_formula_sum "Si O2"
_cell_formula_units_Z 28
_cell_length_a 8.674700
_cell_length_b 8.674700
_cell_length_c 16.736460
_cell_angle_alpha 90.000000
_cell_angle_beta 90.000000
_cell_angle_gamma 90.000000
_cell_volume 1259.425646
_symmetry_space_group_name_H-M "P 41"
_symmetry_group_IT_number 76
_symmetry_cell_setting 'tetragonal'
loop_
_space_group_symop_operation_xyz
x,y,z
-y,x,1/4+z
-x,-y,1/2+z
y,-x,3/4+z
loop_
_atom_site_type_symbol
_atom_site_label
_atom_site_fract_x
_atom_site_fract_y
_atom_site_fract_z
Si Si1 0.000532 0.244116 0.197560
Si Si2 0.741910 0.069752 0.903262
Si Si3 0.057689 0.509279 0.392773
Si Si4 0.465229 0.727712 0.282353
Si Si5 0.289039 0.784386 0.581450
Si Si6 0.005816 0.155801 0.365179
Si Si7 0.190771 0.556690 0.225330
O O1 0.925435 0.191537 0.280728
O O2 0.101607 0.398259 0.205068
O O3 0.870207 0.238455 0.130278
O O4 0.129121 0.116878 0.183296
O O5 0.901865 0.008004 0.865431
O O6 0.640070 0.176795 0.845420
O O7 0.669359 0.900998 0.917516
O O8 0.741208 0.142102 0.992918
O O9 0.141167 0.540210 0.475591
O O10 0.073760 0.324362 0.383947
O O11 0.149192 0.579886 0.318413
O O12 0.891914 0.589272 0.379457
O O13 0.611488 0.646158 0.322072
O O14 0.368790 0.606432 0.228375
#
# Coordination Sequence:
#
# PCOD9541284 Si02
#       7
#     4   4   4   4   4   4   4
#     4  11  24  43  67 105 143 181 238 305 361 431
#     4  11  23  44  74 103 135 197 247 294 364 439
#     4  10  24  44  66 101 139 188 243 299 362 435
#     4  12  23  45  74 103 144 196 247 307 371 443
#     4  11  26  43  69 106 147 184 245 313 369 435
#     4  11  23  42  68 101 141 182 244 298 351 444
#     4  10  23  45  66  99 143 186 242 292 370 445
#
# _framework density 22.232354999999998
#
# number of rings (size 3 to 8) (size 9 to 14) (size 15 to 20)
#    0.000    1.143    2.857    2.571    8.000    0.000 
#    5.143    0.000    0.000    0.000    0.000    0.000 
#    0.000    0.000    0.000    0.000    0.000    0.000 
#
# Total GULP energy -155879.637835 kJ/mol
# GULP energy per Si atom -5567.129923 kJ/mol
# Density = 2.218175 g / cm^3
# Si number density = 22.232355 Si / 1000 Ang^3
#
#
#
# Elastic Constant Matrix: (Units=GPa)
#
#
# Indices 1 2 3 4 5 6 
#
# 1 107.2854 21.3834 7.4063 0.0000 0.0000 -70.3419
# 2 21.3834 107.2854 7.4063 0.0000 0.0000 70.3419
# 3 7.4063 7.4063 56.5017 0.0000 0.0000 0.0000
# 4 0.0000 0.0000 0.0000 15.9399 0.0000 0.0000
# 5 0.0000 0.0000 0.0000 0.0000 15.9399 0.0000
# 6 -70.3419 70.3419 0.0000 0.0000 0.0000 165.7180
#
#
#
# Elastic Compliance Matrix: (Units=1/GPa)
#
#
# Indices 1 2 3 4 5 6 
#
# 1 0.023039 -0.015148 -0.001034 0.000000 0.000000 0.016209
# 2 -0.015148 0.023039 -0.001034 0.000000 0.000000 -0.016209
# 3 -0.001034 -0.001034 0.017970 0.000000 0.000000 0.000000
# 4 0.000000 0.000000 0.000000 0.062736 0.000000 0.000000
# 5 0.000000 0.000000 0.000000 0.000000 0.062736 0.000000
# 6 0.016209 -0.016209 0.000000 0.000000 0.000000 0.019795
#
#
# Mechanical properties :
#
#
# Convention : Reuss Voigt Hill
#
# Bulk Modulus (GPa) = 33.76752 38.16273 35.96512
# Shear Modulus (GPa) = 19.71451 55.17800 37.44626
#
# Velocity S-wave (km/s) = 2.98106 4.98725 4.10849
# Velocity P-wave (km/s) = 5.20292 7.09692 6.22240
#
# Compressibility (1/GPa) = 0.02961426
#
# Stress axis : x y z
#
# Youngs Moduli (GPa) = 43.40402 43.40402 55.64906
#
# Poissons Ratio (x) = 0.65750 0.05756
# Poissons Ratio (y) = 0.65750 0.05756
# Poissons Ratio (z) = 0.04490 0.04490
#
# Static dielectric constant tensor:
#      x y z
#    x 1.861560 0.000000 0.000000 
#    y 0.000000 1.861560 0.000000 
#    z 0.000000 0.000000 1.868920 
# 
# From -- ./inp_files/1280.got.cif
#   From: 2010.05.17/outbox.cif.g08.bks.cpg/sg76_cif.got.tgz:1280.got - 2010.06.03 18:43:17.
