data_PCOD9541297
_publ_section_title
;
Structure prediction by ZEFSAII (Michael W. Deem and Ramdas Pophale) SiO2 
 PCOD9541297
Probable space group: P 41
;
_chemical_formula_sum "Si O2"
_cell_formula_units_Z 32
_cell_length_a 11.089910
_cell_length_b 11.089910
_cell_length_c 10.133503
_cell_angle_alpha 90.000000
_cell_angle_beta 90.000000
_cell_angle_gamma 90.000000
_cell_volume 1246.280052
_symmetry_space_group_name_H-M "P 41"
_symmetry_group_IT_number 76
_symmetry_cell_setting 'tetragonal'
loop_
_space_group_symop_operation_xyz
x,y,z
-y,x,1/4+z
-x,-y,1/2+z
y,-x,3/4+z
loop_
_atom_site_type_symbol
_atom_site_label
_atom_site_fract_x
_atom_site_fract_y
_atom_site_fract_z
Si Si1 0.822361 0.048848 0.941330
Si Si2 0.484860 0.594779 0.764827
Si Si3 0.785500 0.038663 0.228078
Si Si4 0.427421 0.107302 0.850385
Si Si5 0.873692 0.772750 0.913591
Si Si6 0.854975 0.283365 0.353479
Si Si7 0.525014 0.249174 0.612687
Si Si8 0.453170 0.156369 0.349799
O O1 0.762351 0.120746 0.822519
O O2 0.960148 0.092394 0.963946
O O3 0.829072 0.909569 0.899346
O O4 0.752529 0.067836 0.077270
O O5 0.505449 0.595023 0.606617
O O6 0.613206 0.550383 0.827380
O O7 0.458401 0.733110 0.806634
O O8 0.789915 0.159353 0.313427
O O9 0.695699 0.941969 0.287503
O O10 0.478861 0.211330 0.756622
O O11 0.505617 0.983058 0.849054
O O12 0.387218 0.153930 0.992771
O O13 0.810428 0.656588 0.854079
O O14 0.007317 0.761507 0.857097
O O15 0.829062 0.349522 0.490820
O O16 0.435105 0.191900 0.503153
#
# Coordination Sequence:
#
# PCOD9541297 Si02
#       8
#     4   4   4   4   4   4   4   4
#     4  10  24  41  66 107 152 197 245 298 379 469
#     4  10  26  50  76 102 140 187 253 314 368 440
#     4  11  24  44  65 109 155 195 247 309 371 468
#     4  12  25  45  71 108 158 188 249 316 368 459
#     4  11  23  38  71 101 147 197 243 300 376 456
#     4  12  25  41  73 103 148 199 242 302 381 441
#     4  11  26  47  71 105 146 191 250 313 375 444
#     4  11  25  46  73 109 136 196 253 312 372 447
#
# _framework density 25.676411000000002
#
# number of rings (size 3 to 8) (size 9 to 14) (size 15 to 20)
#    0.000    1.000    3.750    1.500    8.750    5.000 
#    0.000    0.000    0.000    0.000    0.000    0.000 
#    0.000    0.000    0.000    0.000    0.000    0.000 
#
# Total GULP energy -178992.284581 kJ/mol
# GULP energy per Si atom -5593.508893 kJ/mol
# Density = 2.561797 g / cm^3
# Si number density = 25.676411 Si / 1000 Ang^3
#
#
#
# Elastic Constant Matrix: (Units=GPa)
#
#
# Indices 1 2 3 4 5 6 
#
# 1 90.3370 26.6713 36.2143 0.0000 0.0000 1.2662
# 2 26.6713 90.3370 36.2143 0.0000 0.0000 -1.2662
# 3 36.2143 36.2143 115.5140 0.0000 0.0000 0.0000
# 4 0.0000 0.0000 0.0000 40.5605 0.0000 0.0000
# 5 0.0000 0.0000 0.0000 0.0000 40.5605 0.0000
# 6 1.2662 -1.2662 0.0000 0.0000 0.0000 17.4690
#
#
#
# Elastic Compliance Matrix: (Units=1/GPa)
#
#
# Indices 1 2 3 4 5 6 
#
# 1 0.013178 -0.002574 -0.003325 0.000000 0.000000 -0.001142
# 2 -0.002574 0.013178 -0.003325 0.000000 0.000000 0.001142
# 3 -0.003325 -0.003325 0.010741 0.000000 0.000000 0.000000
# 4 0.000000 0.000000 0.000000 0.024655 0.000000 0.000000
# 5 0.000000 0.000000 0.000000 0.000000 0.024655 0.000000
# 6 -0.001142 0.001142 0.000000 0.000000 0.000000 0.057410
#
#
# Mechanical properties :
#
#
# Convention : Reuss Voigt Hill
#
# Bulk Modulus (GPa) = 53.61352 54.93198 54.27275
# Shear Modulus (GPa) = 29.67700 32.85721 31.26711
#
# Velocity S-wave (km/s) = 3.40341 3.58112 3.49339
# Velocity P-wave (km/s) = 6.03076 6.20803 6.12003
#
# Compressibility (1/GPa) = 0.01865201
#
# Stress axis : x y z
#
# Youngs Moduli (GPa) = 75.88189 75.88189 93.09720
#
# Poissons Ratio (x) = 0.19533 0.30950
# Poissons Ratio (y) = 0.19533 0.30950
# Poissons Ratio (z) = 0.25227 0.25227
#
# Static dielectric constant tensor:
#      x y z
#    x 2.057690 0.000000 0.000000 
#    y 0.000000 2.057690 0.000000 
#    z 0.000000 0.000000 2.112560 
# 
# From -- ./inp_files/941.got.cif
#   From: 2010.05.17/outbox.cif.g08.bks.cpg/sg76_cif.got.tgz:941.got - 2010.06.03 18:43:17.
