data_PCOD9541508
_publ_section_title
;
Structure prediction by ZEFSAII (Michael W. Deem and Ramdas Pophale) SiO2 
 PCOD9541508
Probable space group: P 42
;
_chemical_formula_sum "Si O2"
_cell_formula_units_Z 16
_cell_length_a 5.193254
_cell_length_b 5.193254
_cell_length_c 23.688344
_cell_angle_alpha 90.000000
_cell_angle_beta 90.000000
_cell_angle_gamma 90.000000
_cell_volume 638.871963
_symmetry_space_group_name_H-M "P 42"
_symmetry_group_IT_number 77
_symmetry_cell_setting 'tetragonal'
loop_
_space_group_symop_operation_xyz
x,y,z
-y,x,1/2+z
-x,-y,z
y,-x,1/2+z
loop_
_atom_site_type_symbol
_atom_site_label
_atom_site_fract_x
_atom_site_fract_y
_atom_site_fract_z
Si Si1 0.240314 0.342180 0.899830
Si Si2 0.820163 0.248533 0.274142
Si Si3 0.500000 0.500000 0.054100
Si Si4 0.500000 0.000000 0.974115
Si Si5 0.173154 0.744082 0.154417
O O1 0.500000 0.500000 0.911373
O O2 0.225870 0.330467 0.832238
O O3 0.000000 0.500000 0.923352
O O4 0.274592 0.062313 0.928432
O O5 0.671961 0.238524 0.213760
O O6 0.000000 0.500000 0.280739
O O7 0.000000 0.000000 0.270894
O O8 0.452079 0.250096 0.014178
O O9 0.312993 0.646929 0.098430
O O10 0.000000 0.500000 0.167584
O O11 0.000000 0.000000 0.144702
#
# Coordination Sequence:
#
# PCOD9541508 Si02
#       5
#     4   4   2   2   4
#     4  12  27  48  76 112 152 205 263 329 404 478
#     4  10  21  42  72 107 153 192 252 323 401 476
#     4  12  26  48  72 106 144 210 264 318 392 476
#     4  12  28  50  70 112 150 208 270 328 390 478
#     4  10  23  44  70 107 149 199 253 326 396 476
#
# _framework density 25.044142000000001
#
# number of rings (size 3 to 8) (size 9 to 14) (size 15 to 20)
#    0.000    1.000    2.500    3.000    1.750    3.000 
#    6.750    0.000    0.000    0.000    0.000    0.000 
#    0.000    0.000    0.000    0.000    0.000    0.000 
#
# Total GULP energy -89141.325724 kJ/mol
# GULP energy per Si atom -5571.332858 kJ/mol
# Density = 2.498714 g / cm^3
# Si number density = 25.044142 Si / 1000 Ang^3
#
#
#
# Elastic Constant Matrix: (Units=GPa)
#
#
# Indices 1 2 3 4 5 6 
#
# 1 152.7576 56.3769 33.7020 0.0000 0.0000 6.2746
# 2 56.3769 152.7576 33.7020 0.0000 0.0000 -6.2746
# 3 33.7020 33.7020 183.4057 0.0000 0.0000 0.0000
# 4 0.0000 0.0000 0.0000 24.3368 0.0000 0.0000
# 5 0.0000 0.0000 0.0000 0.0000 24.3368 0.0000
# 6 6.2746 -6.2746 0.0000 0.0000 0.0000 62.5346
#
#
#
# Elastic Compliance Matrix: (Units=1/GPa)
#
#
# Indices 1 2 3 4 5 6 
#
# 1 0.007798 -0.002715 -0.000934 0.000000 0.000000 -0.001055
# 2 -0.002715 0.007798 -0.000934 0.000000 0.000000 0.001055
# 3 -0.000934 -0.000934 0.005796 0.000000 0.000000 0.000000
# 4 0.000000 0.000000 0.000000 0.041090 0.000000 0.000000
# 5 0.000000 0.000000 0.000000 0.000000 0.041090 0.000000
# 6 -0.001055 0.001055 0.000000 0.000000 0.000000 0.016203
#
#
# Mechanical properties :
#
#
# Convention : Reuss Voigt Hill
#
# Bulk Modulus (GPa) = 81.79936 81.83139 81.81538
# Shear Modulus (GPa) = 37.58972 46.58433 42.08702
#
# Velocity S-wave (km/s) = 3.87840 4.31755 4.10385
# Velocity P-wave (km/s) = 7.26560 7.58952 7.42933
#
# Compressibility (1/GPa) = 0.01222503
#
# Stress axis : x y z
#
# Youngs Moduli (GPa) = 128.24218 128.24218 172.54362
#
# Poissons Ratio (x) = 0.34819 0.16115
# Poissons Ratio (y) = 0.34819 0.16115
# Poissons Ratio (z) = 0.11977 0.11977
#
# Static dielectric constant tensor:
#      x y z
#    x 2.015890 0.000000 0.000000 
#    y 0.000000 2.015890 0.000000 
#    z 0.000000 0.000000 2.193190 
# 
# From -- ./inp_files/1483.got.cif
#   From: 2010.05.17/outbox.cif.g08.bks.cpg/sg77_cif.got.tgz:1483.got - 2010.06.03 18:44:51.
