data_PCOD9541229
_publ_section_title
;
Structure prediction by ZEFSAII (Michael W. Deem and Ramdas Pophale) SiO2 
 PCOD9541229
Probable space group: P 41
;
_chemical_formula_sum "Si O2"
_cell_formula_units_Z 32
_cell_length_a 9.087795
_cell_length_b 9.087795
_cell_length_c 19.001863
_cell_angle_alpha 90.000000
_cell_angle_beta 90.000000
_cell_angle_gamma 90.000000
_cell_volume 1569.326203
_symmetry_space_group_name_H-M "P 41"
_symmetry_group_IT_number 76
_symmetry_cell_setting 'tetragonal'
loop_
_space_group_symop_operation_xyz
x,y,z
-y,x,1/4+z
-x,-y,1/2+z
y,-x,3/4+z
loop_
_atom_site_type_symbol
_atom_site_label
_atom_site_fract_x
_atom_site_fract_y
_atom_site_fract_z
Si Si1 0.404911 0.008886 0.629420
Si Si2 0.073511 0.938868 0.805274
Si Si3 0.194797 0.739867 0.624862
Si Si4 0.381774 0.165354 0.024797
Si Si5 0.180104 0.379263 0.486638
Si Si6 0.403101 0.600153 0.506435
Si Si7 0.054727 0.877837 0.184670
Si Si8 0.712312 0.200565 0.886160
O O1 0.304480 0.869980 0.652521
O O2 0.505884 0.944490 0.565734
O O3 0.509840 0.080709 0.689732
O O4 0.287963 0.138951 0.611904
O O5 0.142813 0.778429 0.807256
O O6 0.932460 0.940485 0.855301
O O7 0.185754 0.060181 0.833905
O O8 0.011165 0.988607 0.730259
O O9 0.141023 0.644973 0.691346
O O10 0.288473 0.654079 0.566003
O O11 0.442906 0.332676 0.031632
O O12 0.349896 0.435677 0.490546
O O13 0.166748 0.216268 0.456844
O O14 0.136148 0.367113 0.568240
O O15 0.375104 0.683130 0.432761
O O16 0.931811 0.752947 0.188319
#
# Coordination Sequence:
#
# PCOD9541229 Si02
#       8
#     4   4   4   4   4   4   4   4
#     4  10  22  40  64 100 132 168 226 288 332 418
#     4  12  21  37  66 104 129 164 221 293 338 382
#     4  11  21  40  69  93 129 177 230 274 338 407
#     4  11  23  39  66  93 137 168 218 279 344 396
#     4  11  23  39  66  93 137 168 218 279 344 396
#     4  10  24  42  62  92 128 188 218 262 332 430
#     4  12  21  37  66 104 129 164 221 293 338 382
#     4  11  21  40  69  93 129 177 230 274 338 407
#
# _framework density 20.390917999999999
#
# number of rings (size 3 to 8) (size 9 to 14) (size 15 to 20)
#    0.000    1.000    6.250    0.750    3.500    0.000 
#    0.000    0.000   24.750    0.000    0.000    0.000 
#    0.000    0.000    0.000    0.000    0.000    0.000 
#
# Total GULP energy -178527.173428 kJ/mol
# GULP energy per Si atom -5578.974170 kJ/mol
# Density = 2.034451 g / cm^3
# Si number density = 20.390918 Si / 1000 Ang^3
#
#
#
# Elastic Constant Matrix: (Units=GPa)
#
#
# Indices 1 2 3 4 5 6 
#
# 1 99.2521 41.2200 14.6450 0.0000 0.0000 2.1103
# 2 41.2200 99.2521 14.6450 0.0000 0.0000 -2.1103
# 3 14.6450 14.6450 90.3013 0.0000 0.0000 0.0000
# 4 0.0000 0.0000 0.0000 28.1468 0.0000 0.0000
# 5 0.0000 0.0000 0.0000 0.0000 28.1468 0.0000
# 6 2.1103 -2.1103 0.0000 0.0000 0.0000 24.1227
#
#
#
# Elastic Compliance Matrix: (Units=1/GPa)
#
#
# Indices 1 2 3 4 5 6 
#
# 1 0.012355 -0.004987 -0.001195 0.000000 0.000000 -0.001517
# 2 -0.004987 0.012355 -0.001195 0.000000 0.000000 0.001517
# 3 -0.001195 -0.001195 0.011462 0.000000 0.000000 0.000000
# 4 0.000000 0.000000 0.000000 0.035528 0.000000 0.000000
# 5 0.000000 0.000000 0.000000 0.000000 0.035528 0.000000
# 6 -0.001517 0.001517 0.000000 0.000000 0.000000 0.041720
#
#
# Mechanical properties :
#
#
# Convention : Reuss Voigt Hill
#
# Bulk Modulus (GPa) = 46.68994 47.75839 47.22416
# Shear Modulus (GPa) = 29.26692 30.63628 29.95160
#
# Velocity S-wave (km/s) = 3.79263 3.88035 3.83674
# Velocity P-wave (km/s) = 6.49045 6.59912 6.54501
#
# Compressibility (1/GPa) = 0.02141789
#
# Stress axis : x y z
#
# Youngs Moduli (GPa) = 80.93821 80.93821 87.24763
#
# Poissons Ratio (x) = 0.40365 0.10426
# Poissons Ratio (y) = 0.40365 0.10426
# Poissons Ratio (z) = 0.09672 0.09672
#
# Static dielectric constant tensor:
#      x y z
#    x 1.752130 0.000000 0.000000 
#    y 0.000000 1.752130 0.000000 
#    z 0.000000 0.000000 1.744140 
# 
# From -- ./inp_files/1453.got.cif
#   From: 2010.05.17/outbox.cif.g08.bks.cpg/sg76_cif.got.tgz:1453.got - 2010.06.03 18:43:17.
