data_PCOD9541513
_publ_section_title
;
Structure prediction by ZEFSAII (Michael W. Deem and Ramdas Pophale) SiO2 
 PCOD9541513
Probable space group: P 42
;
_chemical_formula_sum "Si O2"
_cell_formula_units_Z 20
_cell_length_a 8.815527
_cell_length_b 8.815527
_cell_length_c 12.202257
_cell_angle_alpha 90.000000
_cell_angle_beta 90.000000
_cell_angle_gamma 90.000000
_cell_volume 948.280298
_symmetry_space_group_name_H-M "P 42"
_symmetry_group_IT_number 77
_symmetry_cell_setting 'tetragonal'
loop_
_space_group_symop_operation_xyz
x,y,z
-y,x,1/2+z
-x,-y,z
y,-x,1/2+z
loop_
_atom_site_type_symbol
_atom_site_label
_atom_site_fract_x
_atom_site_fract_y
_atom_site_fract_z
Si Si1 0.303616 0.158051 0.732100
Si Si2 0.222457 0.372335 0.349250
Si Si3 0.174656 0.287539 0.122976
Si Si4 0.829289 0.945883 0.936012
Si Si5 0.346109 0.575482 0.056013
O O1 0.462000 0.177658 0.800626
O O2 0.177479 0.155149 0.825555
O O3 0.300140 0.288789 0.642240
O O4 0.294596 0.000316 0.663936
O O5 0.262436 0.281523 0.238564
O O6 0.354543 0.376145 0.437687
O O7 0.082312 0.286196 0.407948
O O8 0.220581 0.442761 0.061514
O O9 0.211392 0.151393 0.042070
O O10 0.000000 0.000000 0.951897
O O11 0.500000 0.500000 0.096617
#
# Coordination Sequence:
#
# PCOD9541513 Si02
#       5
#     4   4   4   4   4
#     4  10  23  44  60  82 127 164 185 240 314 346
#     4  10  22  40  61  86 122 159 192 242 303 349
#     4  10  22  40  61  86 122 159 192 242 303 349
#     4  11  22  37  64  91 115 155 204 243 286 355
#     4  11  22  37  64  91 115 155 204 243 286 355
#
# _framework density 21.090809
#
# number of rings (size 3 to 8) (size 9 to 14) (size 15 to 20)
#    0.000    1.600    0.000    7.800    0.000   12.800 
#    0.000    0.000    0.000   19.200    0.000    0.000 
#    0.000    0.000    0.000    0.000    0.000    0.000 
#
# Total GULP energy -111635.460241 kJ/mol
# GULP energy per Si atom -5581.773012 kJ/mol
# Density = 2.104281 g / cm^3
# Si number density = 21.090809 Si / 1000 Ang^3
#
#
#
# Elastic Constant Matrix: (Units=GPa)
#
#
# Indices 1 2 3 4 5 6 
#
# 1 22.4556 10.2964 22.9368 0.0000 0.0000 -4.0981
# 2 10.2964 22.4556 22.9368 0.0000 0.0000 4.0981
# 3 22.9368 22.9368 89.8365 0.0000 0.0000 0.0000
# 4 0.0000 0.0000 0.0000 40.5382 0.0000 0.0000
# 5 0.0000 0.0000 0.0000 0.0000 40.5382 0.0000
# 6 -4.0981 4.0981 0.0000 0.0000 0.0000 25.9853
#
#
#
# Elastic Compliance Matrix: (Units=1/GPa)
#
#
# Indices 1 2 3 4 5 6 
#
# 1 0.069777 -0.022248 -0.012135 0.000000 0.000000 0.014513
# 2 -0.022248 0.069777 -0.012135 0.000000 0.000000 -0.014513
# 3 -0.012135 -0.012135 0.017328 0.000000 0.000000 0.000000
# 4 0.000000 0.000000 0.000000 0.024668 0.000000 0.000000
# 5 0.000000 0.000000 0.000000 0.000000 0.024668 0.000000
# 6 0.014513 -0.014513 0.000000 0.000000 0.000000 0.043061
#
#
# Mechanical properties :
#
#
# Convention : Reuss Voigt Hill
#
# Bulk Modulus (GPa) = 15.66263 27.45420 21.55842
# Shear Modulus (GPa) = 13.75143 26.65084 20.20113
#
# Velocity S-wave (km/s) = 2.55622 3.55860 3.09822
# Velocity P-wave (km/s) = 4.01930 5.47086 4.80026
#
# Compressibility (1/GPa) = 0.06384623
#
# Stress axis : x y z
#
# Youngs Moduli (GPa) = 14.33128 14.33128 57.71040
#
# Poissons Ratio (x) = 0.31885 0.70032
# Poissons Ratio (y) = 0.31885 0.70032
# Poissons Ratio (z) = 0.17391 0.17391
#
# Static dielectric constant tensor:
#      x y z
#    x 1.805340 0.000000 0.000000 
#    y 0.000000 1.805340 0.000000 
#    z 0.000000 0.000000 1.762080 
# 
# From -- ./inp_files/789.got.cif
#   From: 2010.05.17/outbox.cif.g08.bks.cpg/sg77_cif.got.tgz:789.got - 2010.06.03 18:44:51.
