data_PCOD9541129
_publ_section_title
;
Structure prediction by ZEFSAII (Michael W. Deem and Ramdas Pophale) SiO2 
 PCOD9541129
Probable space group: P 41
;
_chemical_formula_sum "Si O2"
_cell_formula_units_Z 28
_cell_length_a 11.740522
_cell_length_b 11.740522
_cell_length_c 7.571428
_cell_angle_alpha 90.000000
_cell_angle_beta 90.000000
_cell_angle_gamma 90.000000
_cell_volume 1043.644552
_symmetry_space_group_name_H-M "P 41"
_symmetry_group_IT_number 76
_symmetry_cell_setting 'tetragonal'
loop_
_space_group_symop_operation_xyz
x,y,z
-y,x,1/4+z
-x,-y,1/2+z
y,-x,3/4+z
loop_
_atom_site_type_symbol
_atom_site_label
_atom_site_fract_x
_atom_site_fract_y
_atom_site_fract_z
Si Si1 0.262366 0.635255 0.273910
Si Si2 0.599179 0.202727 0.598668
Si Si3 0.066929 0.776320 0.177389
Si Si4 0.129548 0.009394 0.951760
Si Si5 0.576836 0.370203 0.108203
Si Si6 0.874970 0.603303 0.258766
Si Si7 0.351655 0.037608 0.063877
O O1 0.340330 0.676258 0.112367
O O2 0.201331 0.517139 0.244462
O O3 0.173243 0.737412 0.296305
O O4 0.335448 0.606038 0.446893
O O5 0.585945 0.170713 0.807156
O O6 0.670542 0.097062 0.530064
O O7 0.095817 0.902418 0.093083
O O8 0.953006 0.716203 0.258717
O O9 0.074087 0.694222 0.003921
O O10 0.037889 0.101005 0.012784
O O11 0.248431 0.078827 0.944177
O O12 0.453917 0.396224 0.019576
O O13 0.599608 0.235881 0.134002
O O14 0.939426 0.483791 0.294104
#
# Coordination Sequence:
#
# PCOD9541129 Si02
#       7
#     4   4   4   4   4   4   4
#     4  11  18  36  61  88 115 164 206 240 313 373
#     4  10  20  35  61  87 116 159 203 248 303 381
#     4  10  21  36  66  88 122 164 205 253 310 381
#     4  10  22  43  61  90 125 165 212 256 311 372
#     4  11  24  42  65  93 131 169 210 261 315 381
#     4  10  21  39  61  91 121 160 203 259 308 365
#     4  10  20  39  59  87 126 155 203 265 308 359
#
# _framework density 26.829056999999999
#
# number of rings (size 3 to 8) (size 9 to 14) (size 15 to 20)
#    0.000    1.714    5.714    0.000    2.000    1.143 
#    5.143    0.000    6.286    0.000    0.000    0.000 
#    0.000    0.000    0.000    0.000    0.000    0.000 
#
# Total GULP energy -156183.804196 kJ/mol
# GULP energy per Si atom -5577.993007 kJ/mol
# Density = 2.676799 g / cm^3
# Si number density = 26.829057 Si / 1000 Ang^3
#
#
#
# Elastic Constant Matrix: (Units=GPa)
#
#
# Indices 1 2 3 4 5 6 
#
# 1 124.1730 42.9348 24.2568 0.0000 0.0000 15.2633
# 2 42.9348 124.1730 24.2568 0.0000 0.0000 -15.2633
# 3 24.2568 24.2568 63.4306 0.0000 0.0000 0.0000
# 4 0.0000 0.0000 0.0000 17.1932 0.0000 0.0000
# 5 0.0000 0.0000 0.0000 0.0000 17.1932 0.0000
# 6 15.2633 -15.2633 0.0000 0.0000 0.0000 23.3394
#
#
#
# Elastic Compliance Matrix: (Units=1/GPa)
#
#
# Indices 1 2 3 4 5 6 
#
# 1 0.011526 -0.004794 -0.002574 0.000000 0.000000 -0.010673
# 2 -0.004794 0.011526 -0.002574 0.000000 0.000000 0.010673
# 3 -0.002574 -0.002574 0.017734 0.000000 0.000000 0.000000
# 4 0.000000 0.000000 0.000000 0.058163 0.000000 0.000000
# 5 0.000000 0.000000 0.000000 0.000000 0.058163 0.000000
# 6 -0.010673 0.010673 0.000000 0.000000 0.000000 0.056805
#
#
# Mechanical properties :
#
#
# Convention : Reuss Voigt Hill
#
# Bulk Modulus (GPa) = 47.84642 54.96370 51.40506
# Shear Modulus (GPa) = 20.76686 26.23369 23.50027
#
# Velocity S-wave (km/s) = 2.78518 3.13039 2.96282
# Velocity P-wave (km/s) = 5.31183 5.79628 5.55933
#
# Compressibility (1/GPa) = 0.02090021
#
# Stress axis : x y z
#
# Youngs Moduli (GPa) = 86.76248 86.76248 56.38848
#
# Poissons Ratio (x) = 0.41596 0.14516
# Poissons Ratio (y) = 0.41596 0.14516
# Poissons Ratio (z) = 0.22335 0.22335
#
# Static dielectric constant tensor:
#      x y z
#    x 2.197900 0.000000 0.000000 
#    y 0.000000 2.197900 0.000000 
#    z 0.000000 0.000000 2.082900 
# 
# From -- ./inp_files/886.got.cif
#   From: 2010.05.17/outbox.cif.g08.bks.cpg/sg76_cif.got.tgz:886.got - 2010.06.03 18:43:17.
