data_PCOD9541184
_publ_section_title
;
Structure prediction by ZEFSAII (Michael W. Deem and Ramdas Pophale) SiO2 
 PCOD9541184
Probable space group: P 41
;
_chemical_formula_sum "Si O2"
_cell_formula_units_Z 28
_cell_length_a 8.822036
_cell_length_b 8.822036
_cell_length_c 18.254732
_cell_angle_alpha 90.000000
_cell_angle_beta 90.000000
_cell_angle_gamma 90.000000
_cell_volume 1420.735109
_symmetry_space_group_name_H-M "P 41"
_symmetry_group_IT_number 76
_symmetry_cell_setting 'tetragonal'
loop_
_space_group_symop_operation_xyz
x,y,z
-y,x,1/4+z
-x,-y,1/2+z
y,-x,3/4+z
loop_
_atom_site_type_symbol
_atom_site_label
_atom_site_fract_x
_atom_site_fract_y
_atom_site_fract_z
Si Si1 0.058519 0.712926 0.344300
Si Si2 0.582066 0.215048 0.179688
Si Si3 0.578020 0.309712 0.405742
Si Si4 0.851836 0.807324 0.231753
Si Si5 0.331020 0.493600 0.326730
Si Si6 0.979575 0.618793 0.569099
Si Si7 0.490578 0.753864 0.410854
O O1 0.122369 0.837809 0.400389
O O2 0.168266 0.566313 0.348546
O O3 0.895181 0.663770 0.373527
O O4 0.018635 0.777953 0.264424
O O5 0.436914 0.294202 0.145213
O O6 0.548595 0.110599 0.249999
O O7 0.694880 0.354844 0.197699
O O8 0.418814 0.354708 0.366006
O O9 0.541652 0.316997 0.491669
O O10 0.648144 0.154191 0.376759
O O11 0.772013 0.643969 0.219182
O O12 0.755696 0.920835 0.284174
O O13 0.440820 0.631230 0.350141
O O14 0.094475 0.515777 0.614837
#
# Coordination Sequence:
#
# PCOD9541184 Si02
#       7
#     4   4   4   4   4   4   4
#     4  10  21  40  65  92 125 168 218 260 327 383
#     4  10  22  36  65  92 121 163 223 275 316 378
#     4  11  22  40  60  99 125 167 218 277 327 374
#     4  10  22  40  64  93 127 174 211 265 320 398
#     4  10  23  38  67  91 128 165 217 274 323 391
#     4  11  22  38  62  92 132 162 217 270 325 388
#     4  10  22  38  67  91 122 171 218 269 324 392
#
# _framework density 19.708105
#
# number of rings (size 3 to 8) (size 9 to 14) (size 15 to 20)
#    0.000    1.714    2.857    0.857   10.000    0.000 
#    0.000    2.857    6.286    0.000    0.000    0.000 
#    0.000    0.000    0.000    0.000    0.000    0.000 
#
# Total GULP energy -155959.815273 kJ/mol
# GULP energy per Si atom -5569.993403 kJ/mol
# Density = 1.966325 g / cm^3
# Si number density = 19.708105 Si / 1000 Ang^3
#
#
#
# Elastic Constant Matrix: (Units=GPa)
#
#
# Indices 1 2 3 4 5 6 
#
# 1 87.3519 22.6890 9.1009 0.0000 0.0000 0.6978
# 2 22.6890 87.3519 9.1009 0.0000 0.0000 -0.6978
# 3 9.1009 9.1009 62.0968 0.0000 0.0000 0.0000
# 4 0.0000 0.0000 0.0000 20.6889 0.0000 0.0000
# 5 0.0000 0.0000 0.0000 0.0000 20.6889 0.0000
# 6 0.6978 -0.6978 0.0000 0.0000 0.0000 12.8370
#
#
#
# Elastic Compliance Matrix: (Units=1/GPa)
#
#
# Indices 1 2 3 4 5 6 
#
# 1 0.012398 -0.003085 -0.001365 0.000000 0.000000 -0.000842
# 2 -0.003085 0.012398 -0.001365 0.000000 0.000000 0.000842
# 3 -0.001365 -0.001365 0.016504 0.000000 0.000000 0.000000
# 4 0.000000 0.000000 0.000000 0.048335 0.000000 0.000000
# 5 0.000000 0.000000 0.000000 0.000000 0.048335 0.000000
# 6 -0.000842 0.000842 0.000000 0.000000 0.000000 0.077991
#
#
# Mechanical properties :
#
#
# Convention : Reuss Voigt Hill
#
# Bulk Modulus (GPa) = 33.70323 35.39805 34.55064
# Shear Modulus (GPa) = 21.05427 23.90362 22.47894
#
# Velocity S-wave (km/s) = 3.27204 3.48642 3.38093
# Velocity P-wave (km/s) = 5.60476 5.84868 5.72802
#
# Compressibility (1/GPa) = 0.02967075
#
# Stress axis : x y z
#
# Youngs Moduli (GPa) = 80.65722 80.65722 60.59138
#
# Poissons Ratio (x) = 0.24881 0.08271
# Poissons Ratio (y) = 0.24881 0.08271
# Poissons Ratio (z) = 0.11009 0.11009
#
# Static dielectric constant tensor:
#      x y z
#    x 1.716620 0.000000 0.000000 
#    y 0.000000 1.716620 0.000000 
#    z 0.000000 0.000000 1.752190 
# 
# From -- ./inp_files/1256.got.cif
#   From: 2010.05.17/outbox.cif.g08.bks.cpg/sg76_cif.got.tgz:1256.got - 2010.06.03 18:43:17.
