data_PCOD9541203
_publ_section_title
;
Structure prediction by ZEFSAII (Michael W. Deem and Ramdas Pophale) SiO2 
 PCOD9541203
Probable space group: P 41
;
_chemical_formula_sum "Si O2"
_cell_formula_units_Z 28
_cell_length_a 8.169970
_cell_length_b 8.169970
_cell_length_c 19.268046
_cell_angle_alpha 90.000000
_cell_angle_beta 90.000000
_cell_angle_gamma 90.000000
_cell_volume 1286.111430
_symmetry_space_group_name_H-M "P 41"
_symmetry_group_IT_number 76
_symmetry_cell_setting 'tetragonal'
loop_
_space_group_symop_operation_xyz
x,y,z
-y,x,1/4+z
-x,-y,1/2+z
y,-x,3/4+z
loop_
_atom_site_type_symbol
_atom_site_label
_atom_site_fract_x
_atom_site_fract_y
_atom_site_fract_z
Si Si1 0.207113 0.076049 0.672440
Si Si2 0.711169 0.213059 0.509032
Si Si3 0.014024 0.016571 0.055766
Si Si4 0.463560 0.013344 0.233131
Si Si5 0.361755 0.888139 0.864518
Si Si6 0.549943 0.671430 0.220053
Si Si7 0.546721 0.505123 0.590502
O O1 0.282899 0.251407 0.691584
O O2 0.067045 0.030493 0.727468
O O3 0.366226 0.961275 0.690061
O O4 0.133645 0.069749 0.596224
O O5 0.848777 0.329401 0.472187
O O6 0.616061 0.121053 0.447158
O O7 0.600173 0.330879 0.556086
O O8 0.820781 0.089109 0.553810
O O9 0.040802 0.185687 0.096552
O O10 0.509973 0.019093 0.315106
O O11 0.423815 0.824392 0.217165
O O12 0.378521 0.702736 0.836525
O O13 0.494286 0.527722 0.169971
O O14 0.569126 0.604361 0.296776
#
# Coordination Sequence:
#
# PCOD9541203 Si02
#       7
#     4   4   4   4   4   4   4
#     4   9  22  39  63  91 124 167 205 266 309 386
#     4  11  22  39  66  96 128 169 209 272 323 385
#     4  11  21  40  65  94 128 161 212 262 326 376
#     4   8  22  40  61  92 126 163 211 262 319 380
#     4  10  21  43  61  94 127 167 210 265 317 389
#     4  10  23  43  64  92 127 170 213 270 314 389
#     4  11  23  44  66  91 130 171 222 261 332 383
#
# _framework density 21.771052999999998
#
# number of rings (size 3 to 8) (size 9 to 14) (size 15 to 20)
#    0.857    1.143    2.857    0.000    4.000    1.143 
#    5.143    0.000    0.000    0.000    0.000    0.000 
#    0.000    0.000    0.000    0.000    0.000    0.000 
#
# Total GULP energy -156157.047413 kJ/mol
# GULP energy per Si atom -5577.037408 kJ/mol
# Density = 2.172150 g / cm^3
# Si number density = 21.771053 Si / 1000 Ang^3
#
#
#
# Elastic Constant Matrix: (Units=GPa)
#
#
# Indices 1 2 3 4 5 6 
#
# 1 31.1697 -4.5197 -6.5797 0.0000 0.0000 0.4305
# 2 -4.5197 31.1697 -6.5797 0.0000 0.0000 -0.4305
# 3 -6.5797 -6.5797 53.7483 0.0000 0.0000 0.0000
# 4 0.0000 0.0000 0.0000 23.7832 0.0000 0.0000
# 5 0.0000 0.0000 0.0000 0.0000 23.7832 0.0000
# 6 0.4305 -0.4305 0.0000 0.0000 0.0000 29.4611
#
#
#
# Elastic Compliance Matrix: (Units=1/GPa)
#
#
# Indices 1 2 3 4 5 6 
#
# 1 0.033983 0.005954 0.004889 0.000000 0.000000 -0.000410
# 2 0.005954 0.033983 0.004889 0.000000 0.000000 0.000410
# 3 0.004889 0.004889 0.019802 0.000000 0.000000 0.000000
# 4 0.000000 0.000000 0.000000 0.042047 0.000000 0.000000
# 5 0.000000 0.000000 0.000000 0.000000 0.042047 0.000000
# 6 -0.000410 0.000410 0.000000 0.000000 0.000000 0.033955
#
#
# Mechanical properties :
#
#
# Convention : Reuss Voigt Hill
#
# Bulk Modulus (GPa) = 8.38690 8.96995 8.67842
# Shear Modulus (GPa) = 23.35385 24.32328 23.83857
#
# Velocity S-wave (km/s) = 3.27877 3.34613 3.31262
# Velocity P-wave (km/s) = 4.26549 4.36553 4.31580
#
# Compressibility (1/GPa) = 0.11923354
#
# Stress axis : x y z
#
# Youngs Moduli (GPa) = 29.42606 29.42606 50.49933
#
# Poissons Ratio (x) = -0.17521 -0.24689
# Poissons Ratio (y) = -0.17521 -0.24689
# Poissons Ratio (z) = -0.14386 -0.14386
#
# Static dielectric constant tensor:
#      x y z
#    x 1.794490 0.000000 0.000000 
#    y 0.000000 1.794490 0.000000 
#    z 0.000000 0.000000 1.792720 
# 
# From -- ./inp_files/1395.got.cif
#   From: 2010.05.17/outbox.cif.g08.bks.cpg/sg76_cif.got.tgz:1395.got - 2010.06.03 18:43:17.
