data_PCOD9541712
_publ_section_title
;
Structure prediction by ZEFSAII (Michael W. Deem and Ramdas Pophale) SiO2 
 PCOD9541712
Probable space group: P 43
;
_chemical_formula_sum "Si O2"
_cell_formula_units_Z 24
_cell_length_a 7.123542
_cell_length_b 7.123542
_cell_length_c 18.342564
_cell_angle_alpha 90.000000
_cell_angle_beta 90.000000
_cell_angle_gamma 90.000000
_cell_volume 930.790670
_symmetry_space_group_name_H-M "P 43"
_symmetry_group_IT_number 78
_symmetry_cell_setting 'tetragonal'
loop_
_space_group_symop_operation_xyz
x,y,z
-y,x,3/4+z
-x,-y,1/2+z
y,-x,1/4+z
loop_
_atom_site_type_symbol
_atom_site_label
_atom_site_fract_x
_atom_site_fract_y
_atom_site_fract_z
Si Si1 0.843097 0.763831 0.487200
Si Si2 0.073882 0.588454 0.905464
Si Si3 0.982161 0.024867 0.358114
Si Si4 0.322829 0.071506 0.503330
Si Si5 0.664061 0.599036 0.733484
Si Si6 0.491249 0.342765 0.388219
O O1 0.953210 0.572295 0.464566
O O2 0.875942 0.898507 0.416615
O O3 0.622122 0.715773 0.491232
O O4 0.916866 0.861295 0.561116
O O5 0.612955 0.467107 0.913634
O O6 0.292970 0.641339 0.911524
O O7 0.061946 0.525690 0.820392
O O8 0.861554 0.133988 0.295496
O O9 0.042272 0.217044 0.400882
O O10 0.412094 0.177780 0.437085
O O11 0.288687 0.857306 0.479911
O O12 0.544349 0.664875 0.802896
#
# Coordination Sequence:
#
# PCOD9541712 Si02
#       6
#     4   4   4   4   4   4
#     4  11  23  45  75 108 154 194 255 310 382 451
#     4   9  22  43  71 106 142 194 241 311 369 444
#     4  10  24  44  73 108 148 195 249 312 372 454
#     4  10  23  41  71 104 144 193 245 304 373 442
#     4  11  24  42  75 108 150 195 248 310 374 452
#     4  11  22  47  71 110 148 191 250 307 376 447
#
# _framework density 25.784531999999999
#
# number of rings (size 3 to 8) (size 9 to 14) (size 15 to 20)
#    1.000    0.667    1.667    2.000    2.333    2.667 
#    3.000    0.000    0.000    0.000    0.000    0.000 
#    0.000    0.000    0.000    0.000    0.000    0.000 
#
# Total GULP energy -134129.893436 kJ/mol
# GULP energy per Si atom -5588.745560 kJ/mol
# Density = 2.572585 g / cm^3
# Si number density = 25.784532 Si / 1000 Ang^3
#
#
#
# Elastic Constant Matrix: (Units=GPa)
#
#
# Indices 1 2 3 4 5 6 
#
# 1 90.0582 22.2117 30.7848 0.0000 0.0000 -4.4507
# 2 22.2117 90.0582 30.7848 0.0000 0.0000 4.4507
# 3 30.7848 30.7848 132.6573 0.0000 0.0000 0.0000
# 4 0.0000 0.0000 0.0000 42.1255 0.0000 0.0000
# 5 0.0000 0.0000 0.0000 0.0000 42.1255 0.0000
# 6 -4.4507 4.4507 0.0000 0.0000 0.0000 14.0955
#
#
#
# Elastic Compliance Matrix: (Units=1/GPa)
#
#
# Indices 1 2 3 4 5 6 
#
# 1 0.012791 -0.002585 -0.002368 0.000000 0.000000 0.004855
# 2 -0.002585 0.012791 -0.002368 0.000000 0.000000 -0.004855
# 3 -0.002368 -0.002368 0.008637 0.000000 0.000000 0.000000
# 4 0.000000 0.000000 0.000000 0.023739 0.000000 0.000000
# 5 0.000000 0.000000 0.000000 0.000000 0.023739 0.000000
# 6 0.004855 -0.004855 0.000000 0.000000 0.000000 0.074011
#
#
# Mechanical properties :
#
#
# Convention : Reuss Voigt Hill
#
# Bulk Modulus (GPa) = 51.08371 53.37069 52.22720
# Shear Modulus (GPa) = 28.26832 34.93546 31.60189
#
# Velocity S-wave (km/s) = 3.31468 3.68489 3.50468
# Velocity P-wave (km/s) = 5.87403 6.23283 6.05609
#
# Compressibility (1/GPa) = 0.01957571
#
# Stress axis : x y z
#
# Youngs Moduli (GPa) = 78.17959 78.17959 115.77474
#
# Poissons Ratio (x) = 0.20210 0.27420
# Poissons Ratio (y) = 0.20210 0.27420
# Poissons Ratio (z) = 0.18516 0.18516
#
# Static dielectric constant tensor:
#      x y z
#    x 2.087860 0.000000 0.000000 
#    y 0.000000 2.087860 0.000000 
#    z 0.000000 0.000000 2.032110 
# 
# From -- ./inp_files/1092.got.cif
#   From: 2010.05.17/outbox.cif.g08.bks.cpg/sg78_cif.got.tgz:1092.got - 2010.06.03 18:45:56.
