data_PCOD9541938
_publ_section_title
;
Structure prediction by ZEFSAII (Michael W. Deem and Ramdas Pophale) SiO2 
 PCOD9541938
Probable space group: I 4
;
_chemical_formula_sum "Si O2"
_cell_formula_units_Z 60
_cell_length_a 15.799221
_cell_length_b 15.799221
_cell_length_c 9.417227
_cell_angle_alpha 90.000000
_cell_angle_beta 90.000000
_cell_angle_gamma 90.000000
_cell_volume 2350.684736
_symmetry_space_group_name_H-M "I 4"
_symmetry_group_IT_number 79
_symmetry_cell_setting 'tetragonal'
loop_
_space_group_symop_operation_xyz
x,y,z
-y,x,z
-x,-y,z
y,-x,z
1/2+x,1/2+y,1/2+z
1/2-y,1/2+x,1/2+z
1/2-x,1/2-y,1/2+z
1/2+y,1/2-x,1/2+z
loop_
_atom_site_type_symbol
_atom_site_label
_atom_site_fract_x
_atom_site_fract_y
_atom_site_fract_z
Si Si1 0.916242 0.405089 0.919390
Si Si2 0.203450 0.675731 0.096441
Si Si3 0.031993 0.864363 0.723250
Si Si4 0.879911 0.151905 0.018462
Si Si5 0.619283 0.245435 0.029653
Si Si6 0.568449 0.384638 0.823442
Si Si7 0.500000 0.000000 0.172155
Si Si8 0.197187 0.588884 0.403791
O O1 0.993100 0.336599 0.909634
O O2 0.930587 0.460727 0.779395
O O3 0.936262 0.455860 0.063743
O O4 0.821051 0.374454 0.951265
O O5 0.195444 0.624984 0.243089
O O6 0.139745 0.753975 0.074438
O O7 0.294517 0.718996 0.096921
O O8 0.055503 0.850285 0.887462
O O9 0.048507 0.778792 0.637215
O O10 0.940200 0.901998 0.690032
O O11 0.789974 0.111250 0.968130
O O12 0.920475 0.109995 0.155385
O O13 0.607513 0.300413 0.887887
O O14 0.631891 0.148107 0.992702
O O15 0.611527 0.471502 0.873097
#
# Coordination Sequence:
#
# PCOD9541938 Si02
#       8
#     8   8   8   8   8   8   4   8
#     4  11  24  46  72  98 137 178 224 290 343 408
#     4  11  24  45  69 100 137 175 232 281 342 406
#     4  11  24  43  67 102 140 177 224 276 339 409
#     4  11  24  41  70 102 134 179 228 279 334 414
#     4  11  24  45  68 100 138 179 224 285 334 412
#     4  11  24  43  67 102 140 177 224 276 339 409
#     4  10  24  46  64 102 136 170 232 290 348 402
#     4  11  24  45  69 100 137 175 232 281 342 406
#
# _framework density 25.524480000000001
#
# number of rings (size 3 to 8) (size 9 to 14) (size 15 to 20)
#    0.000    1.067    4.000    1.600    3.733    4.267 
#    9.600    0.000    0.000    0.000    0.000    0.000 
#    0.000    0.000    0.000    0.000    0.000    0.000 
#
# Total GULP energy -167924.387722 kJ/mol
# GULP energy per Si atom -5597.479591 kJ/mol
# Density = 2.546638 g / cm^3
# Si number density = 25.524480 Si / 1000 Ang^3
#
#
#
# Elastic Constant Matrix: (Units=GPa)
#
#
# Indices 1 2 3 4 5 6 
#
# 1 72.0689 27.7949 26.1774 0.0000 0.0000 4.5098
# 2 27.7949 72.0689 26.1774 0.0000 0.0000 -4.5098
# 3 26.1774 26.1774 148.5286 0.0000 0.0000 0.0000
# 4 0.0000 0.0000 0.0000 33.9606 0.0000 0.0000
# 5 0.0000 0.0000 0.0000 0.0000 33.9606 0.0000
# 6 4.5098 -4.5098 0.0000 0.0000 0.0000 42.3309
#
#
#
# Elastic Compliance Matrix: (Units=1/GPa)
#
#
# Indices 1 2 3 4 5 6 
#
# 1 0.017060 -0.006027 -0.001945 0.000000 0.000000 -0.002460
# 2 -0.006027 0.017060 -0.001945 0.000000 0.000000 0.002460
# 3 -0.001945 -0.001945 0.007418 0.000000 0.000000 0.000000
# 4 0.000000 0.000000 0.000000 0.029446 0.000000 0.000000
# 5 0.000000 0.000000 0.000000 0.000000 0.029446 0.000000
# 6 -0.002460 0.002460 0.000000 0.000000 0.000000 0.024148
#
#
# Mechanical properties :
#
#
# Convention : Reuss Voigt Hill
#
# Bulk Modulus (GPa) = 46.06978 50.32952 48.19965
# Shear Modulus (GPa) = 32.97147 36.21822 34.59484
#
# Velocity S-wave (km/s) = 3.59800 3.77100 3.68551
# Velocity P-wave (km/s) = 5.94553 6.22266 6.08567
#
# Compressibility (1/GPa) = 0.02170620
#
# Stress axis : x y z
#
# Youngs Moduli (GPa) = 58.61527 58.61527 134.80473
#
# Poissons Ratio (x) = 0.35329 0.26213
# Poissons Ratio (y) = 0.35329 0.26213
# Poissons Ratio (z) = 0.11398 0.11398
#
# Static dielectric constant tensor:
#      x y z
#    x 2.065440 0.000000 0.000000 
#    y 0.000000 2.065440 0.000000 
#    z 0.000000 0.000000 1.998430 
# 
# From -- ./inp_files/748.got.cif
#   From: 2010.05.17/outbox.cif.g08.bks.cpg/sg79_cif.got.tgz:748.got - 2010.06.03 18:47:27.
