data_PCOD9541331
_publ_section_title
;
Structure prediction by ZEFSAII (Michael W. Deem and Ramdas Pophale) SiO2 
 PCOD9541331
Probable space group: P 41
;
_chemical_formula_sum "Si O2"
_cell_formula_units_Z 24
_cell_length_a 13.360252
_cell_length_b 13.360252
_cell_length_c 6.514453
_cell_angle_alpha 90.000000
_cell_angle_beta 90.000000
_cell_angle_gamma 90.000000
_cell_volume 1162.805975
_symmetry_space_group_name_H-M "P 41"
_symmetry_group_IT_number 76
_symmetry_cell_setting 'tetragonal'
loop_
_space_group_symop_operation_xyz
x,y,z
-y,x,1/4+z
-x,-y,1/2+z
y,-x,3/4+z
loop_
_atom_site_type_symbol
_atom_site_label
_atom_site_fract_x
_atom_site_fract_y
_atom_site_fract_z
Si Si1 0.343904 0.016351 0.113560
Si Si2 0.681188 0.158379 0.889324
Si Si3 0.449696 0.909903 0.768379
Si Si4 0.510225 0.245065 0.619648
Si Si5 0.222493 0.683127 0.658025
Si Si6 0.604668 0.578137 0.575482
O O1 0.456098 0.022290 0.208365
O O2 0.286145 0.941477 0.265651
O O3 0.308899 0.127931 0.059416
O O4 0.363291 0.965657 0.894055
O O5 0.615172 0.223692 0.731966
O O6 0.601358 0.129856 0.064597
O O7 0.764760 0.224463 0.001875
O O8 0.493370 0.825852 0.919546
O O9 0.418284 0.221389 0.770040
O O10 0.515780 0.354502 0.520216
O O11 0.323921 0.671153 0.789442
O O12 0.492516 0.610355 0.628374
#
# Coordination Sequence:
#
# PCOD9541331 Si02
#       6
#     4   4   4   4   4   4
#     4  11  22  37  64  87 127 173 208 276 329 373
#     4  11  23  40  60  93 129 166 220 273 323 397
#     4  11  19  40  61  92 123 164 216 264 324 379
#     4  11  22  38  62  87 127 176 210 266 320 383
#     4  12  23  40  60  91 130 174 223 261 331 393
#     4  12  23  37  55  84 132 181 227 256 303 385
#
# _framework density 20.639728999999999
#
# number of rings (size 3 to 8) (size 9 to 14) (size 15 to 20)
#    0.000    0.667    5.000    5.000    0.000    0.000 
#    0.000    0.000    0.000    0.000    0.000    0.000 
#    5.000    0.667    0.000    0.000    0.000    0.000 
#
# Total GULP energy -134138.121878 kJ/mol
# GULP energy per Si atom -5589.088412 kJ/mol
# Density = 2.059275 g / cm^3
# Si number density = 20.639729 Si / 1000 Ang^3
#
#
#
# Elastic Constant Matrix: (Units=GPa)
#
#
# Indices 1 2 3 4 5 6 
#
# 1 88.1857 19.1490 28.5710 0.0000 0.0000 1.3013
# 2 19.1490 88.1857 28.5710 0.0000 0.0000 -1.3013
# 3 28.5710 28.5710 92.5630 0.0000 0.0000 0.0000
# 4 0.0000 0.0000 0.0000 38.4177 0.0000 0.0000
# 5 0.0000 0.0000 0.0000 0.0000 38.4177 0.0000
# 6 1.3013 -1.3013 0.0000 0.0000 0.0000 15.3000
#
#
#
# Elastic Compliance Matrix: (Units=1/GPa)
#
#
# Indices 1 2 3 4 5 6 
#
# 1 0.012840 -0.001692 -0.003441 0.000000 0.000000 -0.001236
# 2 -0.001692 0.012840 -0.003441 0.000000 0.000000 0.001236
# 3 -0.003441 -0.003441 0.012928 0.000000 0.000000 0.000000
# 4 0.000000 0.000000 0.000000 0.026030 0.000000 0.000000
# 5 0.000000 0.000000 0.000000 0.000000 0.026030 0.000000
# 6 -0.001236 0.001236 0.000000 0.000000 0.000000 0.065570
#
#
# Mechanical properties :
#
#
# Convention : Reuss Voigt Hill
#
# Bulk Modulus (GPa) = 46.59767 46.83516 46.71642
# Shear Modulus (GPa) = 27.69496 31.26999 29.48247
#
# Velocity S-wave (km/s) = 3.66707 3.89657 3.78356
# Velocity P-wave (km/s) = 6.36833 6.55632 6.46301
#
# Compressibility (1/GPa) = 0.02146030
#
# Stress axis : x y z
#
# Youngs Moduli (GPa) = 77.88068 77.88068 77.35259
#
# Poissons Ratio (x) = 0.13174 0.26619
# Poissons Ratio (y) = 0.13174 0.26619
# Poissons Ratio (z) = 0.26800 0.26800
#
# Static dielectric constant tensor:
#      x y z
#    x 1.779900 0.000000 0.000000 
#    y 0.000000 1.779900 0.000000 
#    z 0.000000 0.000000 1.745430 
# 
# From -- ./inp_files/175.got.cif
#   From: 2010.05.17/outbox.cif.g08.bks.cpg/sg76_cif.got.tgz:175.got - 2010.06.03 18:43:17.
