data_PCOD9541216
_publ_section_title
;
Structure prediction by ZEFSAII (Michael W. Deem and Ramdas Pophale) SiO2 
 PCOD9541216
Probable space group: P 41
;
_chemical_formula_sum "Si O2"
_cell_formula_units_Z 32
_cell_length_a 14.203017
_cell_length_b 14.203017
_cell_length_c 8.284022
_cell_angle_alpha 90.000000
_cell_angle_beta 90.000000
_cell_angle_gamma 90.000000
_cell_volume 1671.100070
_symmetry_space_group_name_H-M "P 41"
_symmetry_group_IT_number 76
_symmetry_cell_setting 'tetragonal'
loop_
_space_group_symop_operation_xyz
x,y,z
-y,x,1/4+z
-x,-y,1/2+z
y,-x,3/4+z
loop_
_atom_site_type_symbol
_atom_site_label
_atom_site_fract_x
_atom_site_fract_y
_atom_site_fract_z
Si Si1 0.865644 0.313579 0.852980
Si Si2 0.919037 0.442227 0.406168
Si Si3 0.979652 0.118379 0.349377
Si Si4 0.281037 0.334998 0.205995
Si Si5 0.386479 0.948163 0.425801
Si Si6 0.264020 0.165553 0.975370
Si Si7 0.453269 0.243831 0.400350
Si Si8 0.751438 0.145966 0.716972
O O1 0.794876 0.398695 0.807127
O O2 0.831720 0.222584 0.753182
O O3 0.968114 0.340695 0.783114
O O4 0.854084 0.290133 0.040314
O O5 0.919360 0.521632 0.272256
O O6 0.882778 0.345489 0.331821
O O7 0.848571 0.474639 0.545455
O O8 0.014661 0.420869 0.500778
O O9 0.890205 0.168412 0.265924
O O10 0.046248 0.061096 0.228981
O O11 0.047496 0.199284 0.423007
O O12 0.264608 0.272606 0.043697
O O13 0.375971 0.301294 0.297542
O O14 0.289577 0.446249 0.180312
O O15 0.192899 0.309133 0.323109
O O16 0.310876 0.869532 0.377614
#
# Coordination Sequence:
#
# PCOD9541216 Si02
#       8
#     4   4   4   4   4   4   4   4
#     4  10  24  40  62  92 128 161 215 265 317 384
#     4  10  22  36  61  94 126 158 214 265 317 381
#     4  12  26  43  61  88 128 178 219 266 318 387
#     4  10  22  44  67  92 129 169 210 267 334 392
#     4  11  22  38  63  96 125 167 212 270 322 382
#     4  11  23  43  61  92 127 167 212 266 317 386
#     4   9  22  43  65  92 127 165 203 265 324 388
#     4  11  23  41  64  86 130 169 213 264 327 384
#
# _framework density 19.149063000000002
#
# number of rings (size 3 to 8) (size 9 to 14) (size 15 to 20)
#    0.000    1.500    2.500    2.250    8.750    2.000 
#    0.000    1.250    0.000    0.000    0.000    0.000 
#    0.000    0.000    0.000    0.000    0.000    0.000 
#
# Total GULP energy -178624.530977 kJ/mol
# GULP energy per Si atom -5582.016593 kJ/mol
# Density = 1.910548 g / cm^3
# Si number density = 19.149063 Si / 1000 Ang^3
#
#
#
# Elastic Constant Matrix: (Units=GPa)
#
#
# Indices 1 2 3 4 5 6 
#
# 1 78.2974 15.4293 10.0931 0.0000 0.0000 0.4109
# 2 15.4293 78.2974 10.0931 0.0000 0.0000 -0.4109
# 3 10.0931 10.0931 78.4347 0.0000 0.0000 0.0000
# 4 0.0000 0.0000 0.0000 21.1100 0.0000 0.0000
# 5 0.0000 0.0000 0.0000 0.0000 21.1100 0.0000
# 6 0.4109 -0.4109 0.0000 0.0000 0.0000 30.0295
#
#
#
# Elastic Compliance Matrix: (Units=1/GPa)
#
#
# Indices 1 2 3 4 5 6 
#
# 1 0.013441 -0.002468 -0.001412 0.000000 0.000000 -0.000218
# 2 -0.002468 0.013441 -0.001412 0.000000 0.000000 0.000218
# 3 -0.001412 -0.001412 0.013113 0.000000 0.000000 0.000000
# 4 0.000000 0.000000 0.000000 0.047371 0.000000 0.000000
# 5 0.000000 0.000000 0.000000 0.000000 0.047371 0.000000
# 6 -0.000218 0.000218 0.000000 0.000000 0.000000 0.033307
#
#
# Mechanical properties :
#
#
# Convention : Reuss Voigt Hill
#
# Bulk Modulus (GPa) = 34.00037 34.02894 34.01466
# Shear Modulus (GPa) = 26.53480 27.74416 27.13948
#
# Velocity S-wave (km/s) = 3.72653 3.81051 3.76876
# Velocity P-wave (km/s) = 6.02580 6.09665 6.06133
#
# Compressibility (1/GPa) = 0.02941144
#
# Stress axis : x y z
#
# Youngs Moduli (GPa) = 74.39752 74.39752 76.26089
#
# Poissons Ratio (x) = 0.18360 0.10769
# Poissons Ratio (y) = 0.18360 0.10769
# Poissons Ratio (z) = 0.10506 0.10506
#
# Static dielectric constant tensor:
#      x y z
#    x 1.695630 0.000000 0.000000 
#    y 0.000000 1.695630 0.000000 
#    z 0.000000 0.000000 1.682740 
# 
# From -- ./inp_files/714.got.cif
#   From: 2010.05.17/outbox.cif.g08.bks.cpg/sg76_cif.got.tgz:714.got - 2010.06.03 18:43:17.
