data_PCOD9541340
_publ_section_title
;
Structure prediction by ZEFSAII (Michael W. Deem and Ramdas Pophale) SiO2 
 PCOD9541340
Probable space group: P 41
;
_chemical_formula_sum "Si O2"
_cell_formula_units_Z 28
_cell_length_a 12.031331
_cell_length_b 12.031331
_cell_length_c 8.028659
_cell_angle_alpha 90.000000
_cell_angle_beta 90.000000
_cell_angle_gamma 90.000000
_cell_volume 1162.171879
_symmetry_space_group_name_H-M "P 41"
_symmetry_group_IT_number 76
_symmetry_cell_setting 'tetragonal'
loop_
_space_group_symop_operation_xyz
x,y,z
-y,x,1/4+z
-x,-y,1/2+z
y,-x,3/4+z
loop_
_atom_site_type_symbol
_atom_site_label
_atom_site_fract_x
_atom_site_fract_y
_atom_site_fract_z
Si Si1 0.227817 0.378535 0.642950
Si Si2 0.002673 0.384594 0.137358
Si Si3 0.488097 0.145972 0.611677
Si Si4 0.465963 0.376330 0.107104
Si Si5 0.083573 0.252944 0.855060
Si Si6 0.282137 0.185423 0.083325
Si Si7 0.148139 0.756665 0.209113
O O1 0.236487 0.457341 0.481287
O O2 0.329255 0.426242 0.753634
O O3 0.123916 0.370421 0.772486
O O4 0.203023 0.254155 0.567265
O O5 0.920608 0.355432 0.285491
O O6 0.114198 0.427397 0.218419
O O7 0.946955 0.467867 0.005433
O O8 0.024643 0.276707 0.030189
O O9 0.372346 0.156329 0.516817
O O10 0.514339 0.409491 0.283154
O O11 0.370606 0.284244 0.100020
O O12 0.978283 0.204398 0.752203
O O13 0.198625 0.200733 0.925650
O O14 0.227484 0.168311 0.263593
#
# Coordination Sequence:
#
# PCOD9541340 Si02
#       7
#     4   4   4   4   4   4   4
#     4  12  23  46  68 103 146 197 244 313 375 445
#     4  11  22  39  68 103 137 190 244 314 362 446
#     4  11  21  37  65 101 142 184 251 302 371 443
#     4  12  28  45  69 103 153 203 241 300 383 464
#     4  11  24  45  71 104 147 191 254 311 379 450
#     4  12  25  47  72 109 151 198 253 316 389 452
#     4  11  27  41  75 109 146 199 255 316 375 462
#
# _framework density 24.092824
#
# number of rings (size 3 to 8) (size 9 to 14) (size 15 to 20)
#    0.000    0.571    2.857    6.857    4.000    1.143 
#    0.000    0.000    0.000   20.571    0.000    0.000 
#    0.000    0.000    0.000    0.000    0.000    0.000 
#
# Total GULP energy -156045.548011 kJ/mol
# GULP energy per Si atom -5573.055286 kJ/mol
# Density = 2.403799 g / cm^3
# Si number density = 24.092824 Si / 1000 Ang^3
#
#
#
# Elastic Constant Matrix: (Units=GPa)
#
#
# Indices 1 2 3 4 5 6 
#
# 1 38.5854 12.3083 -28.9034 0.0000 0.0000 6.9130
# 2 12.3083 38.5854 -28.9034 0.0000 0.0000 -6.9130
# 3 -28.9034 -28.9034 -12.7403 0.0000 0.0000 0.0000
# 4 0.0000 0.0000 0.0000 30.7153 0.0000 0.0000
# 5 0.0000 0.0000 0.0000 0.0000 30.7153 0.0000
# 6 6.9130 -6.9130 0.0000 0.0000 0.0000 9.3266
#
#
#
# Elastic Compliance Matrix: (Units=1/GPa)
#
#
# Indices 1 2 3 4 5 6 
#
# 1 0.033940 -0.028447 -0.012463 0.000000 0.000000 -0.046242
# 2 -0.028447 0.033940 -0.012463 0.000000 0.000000 0.046242
# 3 -0.012463 -0.012463 -0.021944 0.000000 0.000000 0.000000
# 4 0.000000 0.000000 0.000000 0.032557 0.000000 0.000000
# 5 0.000000 0.000000 0.000000 0.000000 0.032557 0.000000
# 6 -0.046242 0.046242 0.000000 0.000000 0.000000 0.175772
#
#
# Mechanical properties :
#
#
# Convention : Reuss Voigt Hill
#
# Bulk Modulus (GPa) = -16.44521 -2.95182 -9.69851
# Shear Modulus (GPa) = 13.39418 21.48003 17.43710
#
# Velocity S-wave (km/s) = 2.36040 2.98913 2.69317
# Velocity P-wave (km/s) = 0.76684 3.26884 2.37417
#
# Compressibility (1/GPa) = -0.06080799
#
# Stress axis : x y z
#
# Youngs Moduli (GPa) = 29.46359 29.46359 -45.56972
#
# Poissons Ratio (x) = 0.83815 -0.56792
# Poissons Ratio (y) = 0.83815 -0.56792
# Poissons Ratio (z) = 0.36719 0.36719
#
# Static dielectric constant tensor:
#      x y z
#    x 2.015830 0.000000 0.000000 
#    y 0.000000 2.015830 0.000000 
#    z 0.000000 0.000000 2.018140 
# 
# From -- ./inp_files/599.got.cif
#   From: 2010.05.17/outbox.cif.g08.bks.cpg/sg76_cif.got.tgz:599.got - 2010.06.03 18:43:17.
