data_PCOD9541105
_publ_section_title
;
Structure prediction by ZEFSAII (Michael W. Deem and Ramdas Pophale) SiO2 
 PCOD9541105
Probable space group: P 41
;
_chemical_formula_sum "Si O2"
_cell_formula_units_Z 24
_cell_length_a 8.877290
_cell_length_b 8.877290
_cell_length_c 15.998686
_cell_angle_alpha 90.000000
_cell_angle_beta 90.000000
_cell_angle_gamma 90.000000
_cell_volume 1260.796892
_symmetry_space_group_name_H-M "P 41"
_symmetry_group_IT_number 76
_symmetry_cell_setting 'tetragonal'
loop_
_space_group_symop_operation_xyz
x,y,z
-y,x,1/4+z
-x,-y,1/2+z
y,-x,3/4+z
loop_
_atom_site_type_symbol
_atom_site_label
_atom_site_fract_x
_atom_site_fract_y
_atom_site_fract_z
Si Si1 0.480530 0.638605 0.397080
Si Si2 0.064407 0.324324 0.027191
Si Si3 0.197162 0.468738 0.472949
Si Si4 0.609560 0.704668 0.571917
Si Si5 0.249615 0.976821 0.114846
Si Si6 0.847838 0.982007 0.436472
O O1 0.326987 0.558459 0.424850
O O2 0.447264 0.740148 0.316478
O O3 0.542229 0.725435 0.478662
O O4 0.604420 0.511050 0.371823
O O5 0.228662 0.377492 0.058775
O O6 0.975565 0.264778 0.108702
O O7 0.957459 0.438777 0.981023
O O8 0.099122 0.180107 0.968602
O O9 0.151659 0.324002 0.419606
O O10 0.654750 0.865487 0.612114
O O11 0.088007 0.019020 0.153506
O O12 0.226745 0.939388 0.017337
#
# Coordination Sequence:
#
# PCOD9541105 Si02
#       6
#     4   4   4   4   4   4
#     4  10  22  38  53  81 114 146 186 231 267 331
#     4  10  19  36  59  81 106 145 181 222 276 331
#     4  11  23  36  55  82 111 142 184 229 279 320
#     4   9  19  38  59  76 110 152 185 217 275 341
#     4  10  20  36  58  82 107 143 181 225 277 328
#     4   8  19  36  56  78 106 138 179 218 266 331
#
# _framework density 19.035578999999998
#
# number of rings (size 3 to 8) (size 9 to 14) (size 15 to 20)
#    0.000    2.667    0.000    3.000    0.000   10.667 
#    0.000    1.667    0.000    0.000    0.000    0.000 
#    0.000    0.000    0.000    0.000    0.000    0.000 
#
# Total GULP energy -133820.080911 kJ/mol
# GULP energy per Si atom -5575.836705 kJ/mol
# Density = 1.899225 g / cm^3
# Si number density = 19.035579 Si / 1000 Ang^3
#
#
#
# Elastic Constant Matrix: (Units=GPa)
#
#
# Indices 1 2 3 4 5 6 
#
# 1 26.0495 -7.4606 4.6351 0.0000 0.0000 0.6715
# 2 -7.4606 26.0495 4.6351 0.0000 0.0000 -0.6715
# 3 4.6351 4.6351 66.8779 0.0000 0.0000 0.0000
# 4 0.0000 0.0000 0.0000 23.8961 0.0000 0.0000
# 5 0.0000 0.0000 0.0000 0.0000 23.8961 0.0000
# 6 0.6715 -0.6715 0.0000 0.0000 0.0000 21.4890
#
#
#
# Elastic Compliance Matrix: (Units=1/GPa)
#
#
# Indices 1 2 3 4 5 6 
#
# 1 0.042800 0.012921 -0.003862 0.000000 0.000000 -0.000934
# 2 0.012921 0.042800 -0.003862 0.000000 0.000000 0.000934
# 3 -0.003862 -0.003862 0.015488 0.000000 0.000000 0.000000
# 4 0.000000 0.000000 0.000000 0.041848 0.000000 0.000000
# 5 0.000000 0.000000 0.000000 0.000000 0.041848 0.000000
# 6 -0.000934 0.000934 0.000000 0.000000 0.000000 0.046594
#
#
# Mechanical properties :
#
#
# Convention : Reuss Voigt Hill
#
# Bulk Modulus (GPa) = 8.96996 13.62179 11.29587
# Shear Modulus (GPa) = 19.36902 21.66740 20.51821
#
# Velocity S-wave (km/s) = 3.19331 3.37747 3.28668
# Velocity P-wave (km/s) = 4.28004 4.73088 4.51110
#
# Compressibility (1/GPa) = 0.11148322
#
# Stress axis : x y z
#
# Youngs Moduli (GPa) = 23.36435 23.36435 64.56641
#
# Poissons Ratio (x) = -0.30189 0.24935
# Poissons Ratio (y) = -0.30189 0.24935
# Poissons Ratio (z) = 0.09023 0.09023
#
# Static dielectric constant tensor:
#      x y z
#    x 1.667270 0.000000 0.000000 
#    y 0.000000 1.667270 0.000000 
#    z 0.000000 0.000000 1.660490 
# 
# From -- ./inp_files/1063.got.cif
#   From: 2010.05.17/outbox.cif.g08.bks.cpg/sg76_cif.got.tgz:1063.got - 2010.06.03 18:43:17.
