data_PCOD9541413
_publ_section_title
;
Structure prediction by ZEFSAII (Michael W. Deem and Ramdas Pophale) SiO2 
 PCOD9541413
Probable space group: P 41
;
_chemical_formula_sum "Si O2"
_cell_formula_units_Z 28
_cell_length_a 14.213650
_cell_length_b 14.213650
_cell_length_c 5.456336
_cell_angle_alpha 90.000000
_cell_angle_beta 90.000000
_cell_angle_gamma 90.000000
_cell_volume 1102.331811
_symmetry_space_group_name_H-M "P 41"
_symmetry_group_IT_number 76
_symmetry_cell_setting 'tetragonal'
loop_
_space_group_symop_operation_xyz
x,y,z
-y,x,1/4+z
-x,-y,1/2+z
y,-x,3/4+z
loop_
_atom_site_type_symbol
_atom_site_label
_atom_site_fract_x
_atom_site_fract_y
_atom_site_fract_z
Si Si1 0.916620 0.487485 0.385920
Si Si2 0.174060 0.243125 0.302719
Si Si3 0.053956 0.653380 0.530173
Si Si4 0.860389 0.017530 0.299793
Si Si5 0.600705 0.401505 0.953905
Si Si6 0.376604 0.215545 0.448262
Si Si7 0.646602 0.196621 0.055033
O O1 0.954310 0.385597 0.306421
O O2 0.844353 0.462959 0.598980
O O3 0.846863 0.547316 0.214827
O O4 0.997458 0.565386 0.411352
O O5 0.092074 0.166440 0.266228
O O6 0.281778 0.207356 0.286528
O O7 0.172752 0.286282 0.575610
O O8 0.161353 0.313886 0.068674
O O9 0.162226 0.649262 0.450254
O O10 0.018779 0.757234 0.468068
O O11 0.926498 0.079599 0.125730
O O12 0.495606 0.391558 0.857598
O O13 0.676834 0.404124 0.734340
O O14 0.630310 0.306769 0.089547
#
# Coordination Sequence:
#
# PCOD9541413 Si02
#       7
#     4   4   4   4   4   4   4
#     4  12  26  45  83 112 161 204 283 343 424 487
#     4  11  28  53  82 118 162 221 274 343 414 501
#     4  12  27  50  79 124 153 217 279 359 416 505
#     4  12  31  52  84 123 172 223 287 350 440 514
#     4  11  28  46  75 117 163 217 270 329 409 502
#     4  11  28  47  80 111 163 210 280 340 422 488
#     4  11  28  49  83 117 166 214 275 338 409 493
#
# _framework density 25.400700000000001
#
# number of rings (size 3 to 8) (size 9 to 14) (size 15 to 20)
#    0.000    0.571    2.857    1.714   22.000    1.143 
#    0.000    0.000    0.000    0.000    0.000    0.000 
#    0.000    0.000    0.000    0.000    0.000    0.000 
#
# Total GULP energy -156350.604583 kJ/mol
# GULP energy per Si atom -5583.950164 kJ/mol
# Density = 2.534289 g / cm^3
# Si number density = 25.400700 Si / 1000 Ang^3
#
#
#
# Elastic Constant Matrix: (Units=GPa)
#
#
# Indices 1 2 3 4 5 6 
#
# 1 114.5570 29.1133 18.4834 0.0000 0.0000 15.4418
# 2 29.1133 114.5570 18.4834 0.0000 0.0000 -15.4418
# 3 18.4834 18.4834 58.5415 0.0000 0.0000 0.0000
# 4 0.0000 0.0000 0.0000 32.1308 0.0000 0.0000
# 5 0.0000 0.0000 0.0000 0.0000 32.1308 0.0000
# 6 15.4418 -15.4418 0.0000 0.0000 0.0000 44.7270
#
#
#
# Elastic Compliance Matrix: (Units=1/GPa)
#
#
# Indices 1 2 3 4 5 6 
#
# 1 0.010474 -0.002898 -0.002392 0.000000 0.000000 -0.004617
# 2 -0.002898 0.010474 -0.002392 0.000000 0.000000 0.004617
# 3 -0.002392 -0.002392 0.018592 0.000000 0.000000 0.000000
# 4 0.000000 0.000000 0.000000 0.031123 0.000000 0.000000
# 5 0.000000 0.000000 0.000000 0.000000 0.031123 0.000000
# 6 -0.004617 0.004617 0.000000 0.000000 0.000000 0.025546
#
#
# Mechanical properties :
#
#
# Convention : Reuss Voigt Hill
#
# Bulk Modulus (GPa) = 41.36289 46.64619 44.00454
# Shear Modulus (GPa) = 33.16646 36.56940 34.86793
#
# Velocity S-wave (km/s) = 3.61741 3.79845 3.70904
# Velocity P-wave (km/s) = 5.81094 6.13528 5.97531
#
# Compressibility (1/GPa) = 0.02417626
#
# Stress axis : x y z
#
# Youngs Moduli (GPa) = 95.47376 95.47376 53.78566
#
# Poissons Ratio (x) = 0.27671 0.12865
# Poissons Ratio (y) = 0.27671 0.12865
# Poissons Ratio (z) = 0.22837 0.22837
#
# Static dielectric constant tensor:
#      x y z
#    x 2.030460 0.000000 0.000000 
#    y 0.000000 2.030460 0.000000 
#    z 0.000000 0.000000 2.105600 
# 
# From -- ./inp_files/247.got.cif
#   From: 2010.05.17/outbox.cif.g08.bks.cpg/sg76_cif.got.tgz:247.got - 2010.06.03 18:43:17.
