data_PCOD9541299
_publ_section_title
;
Structure prediction by ZEFSAII (Michael W. Deem and Ramdas Pophale) SiO2 
 PCOD9541299
Probable space group: P 41
;
_chemical_formula_sum "Si O2"
_cell_formula_units_Z 24
_cell_length_a 5.339073
_cell_length_b 5.339073
_cell_length_c 30.471784
_cell_angle_alpha 90.000000
_cell_angle_beta 90.000000
_cell_angle_gamma 90.000000
_cell_volume 868.619548
_symmetry_space_group_name_H-M "P 41"
_symmetry_group_IT_number 76
_symmetry_cell_setting 'tetragonal'
loop_
_space_group_symop_operation_xyz
x,y,z
-y,x,1/4+z
-x,-y,1/2+z
y,-x,3/4+z
loop_
_atom_site_type_symbol
_atom_site_label
_atom_site_fract_x
_atom_site_fract_y
_atom_site_fract_z
Si Si1 0.561803 0.442437 0.082480
Si Si2 0.933662 0.162155 0.374771
Si Si3 0.184728 0.360816 0.751618
Si Si4 0.438800 0.028655 0.209176
Si Si5 0.849083 0.762922 0.787435
Si Si6 0.209594 0.574693 0.669631
O O1 0.455582 0.647928 0.048375
O O2 0.700342 0.555187 0.124984
O O3 0.334591 0.289762 0.104974
O O4 0.732905 0.259450 0.052112
O O5 0.053966 0.327617 0.412965
O O6 0.113002 0.109726 0.334179
O O7 0.813860 0.932116 0.399990
O O8 0.371258 0.173605 0.727003
O O9 0.041077 0.423879 0.704280
O O10 0.101812 0.631640 0.771437
O O11 0.238994 0.061757 0.248289
O O12 0.567799 0.300774 0.199156
#
# Coordination Sequence:
#
# PCOD9541299 Si02
#       6
#     4   4   4   4   4   4
#     4  10  24  43  68 101 151 189 249 321 373 460
#     4  10  24  45  71 106 147 196 253 320 390 464
#     4  11  24  43  71 105 146 198 250 317 386 459
#     4  11  24  45  72 107 148 197 260 317 393 470
#     4  11  23  47  73 109 150 202 255 320 393 462
#     4  11  23  45  69 104 148 194 257 323 381 475
#
# _framework density 27.630051999999999
#
# number of rings (size 3 to 8) (size 9 to 14) (size 15 to 20)
#    0.000    1.333    3.333    1.000    2.333    2.667 
#    9.000    0.000    0.000    0.000    0.000    0.000 
#    0.000    0.000    0.000    0.000    0.000    0.000 
#
# Total GULP energy -133646.826247 kJ/mol
# GULP energy per Si atom -5568.617760 kJ/mol
# Density = 2.756717 g / cm^3
# Si number density = 27.630052 Si / 1000 Ang^3
#
#
#
# Elastic Constant Matrix: (Units=GPa)
#
#
# Indices 1 2 3 4 5 6 
#
# 1 53.5538 26.6693 46.6138 0.0000 0.0000 4.5317
# 2 26.6693 53.5538 46.6138 0.0000 0.0000 -4.5317
# 3 46.6138 46.6138 211.9197 0.0000 0.0000 0.0000
# 4 0.0000 0.0000 0.0000 38.0368 0.0000 0.0000
# 5 0.0000 0.0000 0.0000 0.0000 38.0368 0.0000
# 6 4.5317 -4.5317 0.0000 0.0000 0.0000 43.0374
#
#
#
# Elastic Compliance Matrix: (Units=1/GPa)
#
#
# Indices 1 2 3 4 5 6 
#
# 1 0.027655 -0.010910 -0.003683 0.000000 0.000000 -0.004061
# 2 -0.010910 0.027655 -0.003683 0.000000 0.000000 0.004061
# 3 -0.003683 -0.003683 0.006339 0.000000 0.000000 0.000000
# 4 0.000000 0.000000 0.000000 0.026290 0.000000 0.000000
# 5 0.000000 0.000000 0.000000 0.000000 0.026290 0.000000
# 6 -0.004061 0.004061 0.000000 0.000000 0.000000 0.024091
#
#
# Mechanical properties :
#
#
# Convention : Reuss Voigt Hill
#
# Bulk Modulus (GPa) = 39.84531 62.09123 50.96827
# Shear Modulus (GPa) = 27.28658 37.09755 32.19207
#
# Velocity S-wave (km/s) = 3.14597 3.66820 3.41707
# Velocity P-wave (km/s) = 5.25818 6.36098 5.83569
#
# Compressibility (1/GPa) = 0.02509706
#
# Stress axis : x y z
#
# Youngs Moduli (GPa) = 36.15922 36.15922 157.74955
#
# Poissons Ratio (x) = 0.39449 0.58105
# Poissons Ratio (y) = 0.39449 0.58105
# Poissons Ratio (z) = 0.13319 0.13319
#
# Static dielectric constant tensor:
#      x y z
#    x 2.295430 0.000000 0.000000 
#    y 0.000000 2.295430 0.000000 
#    z 0.000000 0.000000 2.147660 
# 
# From -- ./inp_files/1707.got.cif
#   From: 2010.05.17/outbox.cif.g08.bks.cpg/sg76_cif.got.tgz:1707.got - 2010.06.03 18:43:17.
