data_PCOD9541876
_publ_section_title
;
Structure prediction by ZEFSAII (Michael W. Deem and Ramdas Pophale) SiO2 
 PCOD9541876
Probable space group: I 4
;
_chemical_formula_sum "Si O2"
_cell_formula_units_Z 56
_cell_length_a 14.940803
_cell_length_b 14.940803
_cell_length_c 11.476021
_cell_angle_alpha 90.000000
_cell_angle_beta 90.000000
_cell_angle_gamma 90.000000
_cell_volume 2561.764560
_symmetry_space_group_name_H-M "I 4"
_symmetry_group_IT_number 79
_symmetry_cell_setting 'tetragonal'
loop_
_space_group_symop_operation_xyz
x,y,z
-y,x,z
-x,-y,z
y,-x,z
1/2+x,1/2+y,1/2+z
1/2-y,1/2+x,1/2+z
1/2-x,1/2-y,1/2+z
1/2+y,1/2-x,1/2+z
loop_
_atom_site_type_symbol
_atom_site_label
_atom_site_fract_x
_atom_site_fract_y
_atom_site_fract_z
Si Si1 0.785690 0.276235 0.052500
Si Si2 0.524539 0.354527 0.917948
Si Si3 0.865339 0.817413 0.852242
Si Si4 0.950116 0.280356 0.218026
Si Si5 0.857052 0.032416 0.074541
Si Si6 0.069708 0.338150 0.679395
Si Si7 0.088405 0.775817 0.648088
O O1 0.857186 0.251068 0.153133
O O2 0.802723 0.220556 0.936389
O O3 0.807001 0.382691 0.056934
O O4 0.685250 0.259012 0.092340
O O5 0.599851 0.429479 0.890549
O O6 0.542565 0.266254 0.842362
O O7 0.532422 0.331716 0.053757
O O8 0.892027 0.730949 0.776831
O O9 0.835967 0.892907 0.761108
O O10 0.946249 0.838945 0.939748
O O11 0.030274 0.236646 0.142711
O O12 0.934147 0.387245 0.211417
O O13 0.900645 0.937033 0.102727
O O14 0.965917 0.314837 0.673737
#
# Coordination Sequence:
#
# PCOD9541876 Si02
#       7
#     8   8   8   8   8   8   8
#     4   9  21  38  60  89 126 168 222 258 332 386
#     4  11  23  38  61  95 137 174 210 265 343 413
#     4  11  20  38  61  96 128 168 213 277 338 399
#     4  10  21  40  57  90 127 171 223 252 324 395
#     4  11  20  32  58  95 130 157 198 273 341 379
#     4   9  21  35  57  87 124 170 208 260 312 389
#     4  11  22  40  63  91 133 172 219 266 329 407
#
# _framework density 21.859933999999999
#
# number of rings (size 3 to 8) (size 9 to 14) (size 15 to 20)
#    0.857    0.857    1.429    4.286    0.000    1.143 
#    0.000    1.429    0.000    0.857    0.000    2.000 
#    0.000    0.286    0.000    0.000    0.000    0.000 
#
# Total GULP energy -155953.728335 kJ/mol
# GULP energy per Si atom -5569.776012 kJ/mol
# Density = 2.181018 g / cm^3
# Si number density = 21.859934 Si / 1000 Ang^3
#
#
#
# Elastic Constant Matrix: (Units=GPa)
#
#
# Indices 1 2 3 4 5 6 
#
# 1 -228.2211 279.3197 6.8896 0.0000 0.0000 18.6641
# 2 279.3197 -228.2211 6.8896 0.0000 0.0000 -18.6641
# 3 6.8896 6.8896 89.6102 0.0000 0.0000 0.0000
# 4 0.0000 0.0000 0.0000 26.5204 0.0000 0.0000
# 5 0.0000 0.0000 0.0000 0.0000 26.5204 0.0000
# 6 18.6641 -18.6641 0.0000 0.0000 0.0000 29.3496
#
#
#
# Elastic Compliance Matrix: (Units=1/GPa)
#
#
# Indices 1 2 3 4 5 6 
#
# 1 0.009051 0.010933 -0.001536 0.000000 0.000000 0.001197
# 2 0.010933 0.009051 -0.001536 0.000000 0.000000 -0.001197
# 3 -0.001536 -0.001536 0.011396 0.000000 0.000000 0.000000
# 4 0.000000 0.000000 0.000000 0.037707 0.000000 0.000000
# 5 0.000000 0.000000 0.000000 0.000000 0.037707 0.000000
# 6 0.001197 -0.001197 0.000000 0.000000 0.000000 0.032550
#
#
# Mechanical properties :
#
#
# Convention : Reuss Voigt Hill
#
# Bulk Modulus (GPa) = 22.11486 24.37398 23.24442
# Shear Modulus (GPa) = 36.54617 -27.51732 4.51443
#
# Velocity S-wave (km/s) = 4.09324 -3.55181 1.43863
# Velocity P-wave (km/s) = 5.69895 2.37617 3.66278
#
# Compressibility (1/GPa) = 0.04521845
#
# Stress axis : x y z
#
# Youngs Moduli (GPa) = 110.48456 110.48456 87.75232
#
# Poissons Ratio (x) = -1.20796 0.13483
# Poissons Ratio (y) = -1.20796 0.13483
# Poissons Ratio (z) = 0.16976 0.16976
#
# Static dielectric constant tensor:
#      x y z
#    x 1.871400 0.000000 0.000000 
#    y 0.000000 1.871400 0.000000 
#    z 0.000000 0.000000 1.815370 
# 
# From -- ./inp_files/1411.got.cif
#   From: 2010.05.17/outbox.cif.g08.bks.cpg/sg79_cif.got.tgz:1411.got - 2010.06.03 18:47:27.
