data_PCOD9541444
_publ_section_title
;
Structure prediction by ZEFSAII (Michael W. Deem and Ramdas Pophale) SiO2 
 PCOD9541444
Probable space group: P 41
;
_chemical_formula_sum "Si O2"
_cell_formula_units_Z 12
_cell_length_a 8.123305
_cell_length_b 8.123305
_cell_length_c 6.848540
_cell_angle_alpha 90.000000
_cell_angle_beta 90.000000
_cell_angle_gamma 90.000000
_cell_volume 451.922034
_symmetry_space_group_name_H-M "P 41"
_symmetry_group_IT_number 76
_symmetry_cell_setting 'tetragonal'
loop_
_space_group_symop_operation_xyz
x,y,z
-y,x,1/4+z
-x,-y,1/2+z
y,-x,3/4+z
loop_
_atom_site_type_symbol
_atom_site_label
_atom_site_fract_x
_atom_site_fract_y
_atom_site_fract_z
Si Si1 0.300292 0.376849 0.475580
Si Si2 0.963172 0.768691 0.597740
Si Si3 0.950942 0.396487 0.688799
O O1 0.451140 0.346434 0.627039
O O2 0.128661 0.376870 0.591938
O O3 0.085137 0.408193 0.192392
O O4 0.039412 0.696147 0.395201
O O5 0.088410 0.850292 0.752211
O O6 0.682901 0.788904 0.842051
#
# Coordination Sequence:
#
# PCOD9541444 Si02
#       3
#     4   4   4
#     4  12  29  49  81 118 163 211 279 346 424 504
#     4  12  29  53  84 124 170 224 289 356 434 518
#     4  12  26  54  79 124 165 221 282 354 432 510
#
# _framework density 26.553255
#
# number of rings (size 3 to 8) (size 9 to 14) (size 15 to 20)
#    0.000    0.000    6.667    0.000    9.333    5.333 
#    0.000    0.000    0.000    0.000    0.000    0.000 
#    0.000    0.000    0.000    0.000    0.000    0.000 
#
# Total GULP energy -67089.931343 kJ/mol
# GULP energy per Si atom -5590.827612 kJ/mol
# Density = 2.649282 g / cm^3
# Si number density = 26.553255 Si / 1000 Ang^3
#
#
#
# Elastic Constant Matrix: (Units=GPa)
#
#
# Indices 1 2 3 4 5 6 
#
# 1 211.7114 118.7982 59.8089 0.0000 0.0000 -3.4357
# 2 118.7982 211.7114 59.8089 0.0000 0.0000 3.4357
# 3 59.8089 59.8089 124.5700 0.0000 0.0000 0.0000
# 4 0.0000 0.0000 0.0000 38.3595 0.0000 0.0000
# 5 0.0000 0.0000 0.0000 0.0000 38.3595 0.0000
# 6 -3.4357 3.4357 0.0000 0.0000 0.0000 39.1270
#
#
#
# Elastic Compliance Matrix: (Units=1/GPa)
#
#
# Indices 1 2 3 4 5 6 
#
# 1 0.007248 -0.003586 -0.001758 0.000000 0.000000 0.000951
# 2 -0.003586 0.007248 -0.001758 0.000000 0.000000 -0.000951
# 3 -0.001758 -0.001758 0.009716 0.000000 0.000000 0.000000
# 4 0.000000 0.000000 0.000000 0.026069 0.000000 0.000000
# 5 0.000000 0.000000 0.000000 0.000000 0.026069 0.000000
# 6 0.000951 -0.000951 0.000000 0.000000 0.000000 0.025725
#
#
# Mechanical properties :
#
#
# Convention : Reuss Voigt Hill
#
# Bulk Modulus (GPa) = 99.92940 113.86941 106.89940
# Shear Modulus (GPa) = 41.80125 43.80766 42.80446
#
# Velocity S-wave (km/s) = 3.97198 4.06618 4.01936
# Velocity P-wave (km/s) = 7.66490 8.06360 7.86678
#
# Compressibility (1/GPa) = 0.01000706
#
# Stress axis : x y z
#
# Youngs Moduli (GPa) = 137.97829 137.97829 102.92401
#
# Poissons Ratio (x) = 0.49473 0.18096
# Poissons Ratio (y) = 0.49473 0.18096
# Poissons Ratio (z) = 0.24259 0.24259
#
# Static dielectric constant tensor:
#      x y z
#    x 2.132320 0.000000 0.000000 
#    y 0.000000 2.132320 0.000000 
#    z 0.000000 0.000000 2.276190 
# 
# From -- ./inp_files/35.got.cif
#   From: 2010.05.17/outbox.cif.g08.bks.cpg/sg76_cif.got.tgz:35.got - 2010.06.03 18:43:17.
