data_PCOD9541136
_publ_section_title
;
Structure prediction by ZEFSAII (Michael W. Deem and Ramdas Pophale) SiO2 
 PCOD9541136
Probable space group: P 41
;
_chemical_formula_sum "Si O2"
_cell_formula_units_Z 24
_cell_length_a 14.533223
_cell_length_b 14.533223
_cell_length_c 5.442649
_cell_angle_alpha 90.000000
_cell_angle_beta 90.000000
_cell_angle_gamma 90.000000
_cell_volume 1149.566772
_symmetry_space_group_name_H-M "P 41"
_symmetry_group_IT_number 76
_symmetry_cell_setting 'tetragonal'
loop_
_space_group_symop_operation_xyz
x,y,z
-y,x,1/4+z
-x,-y,1/2+z
y,-x,3/4+z
loop_
_atom_site_type_symbol
_atom_site_label
_atom_site_fract_x
_atom_site_fract_y
_atom_site_fract_z
Si Si1 0.548580 0.028489 0.325210
Si Si2 0.303851 0.179336 0.177688
Si Si3 0.960508 0.128611 0.441285
Si Si4 0.841651 0.685586 0.700997
Si Si5 0.788905 0.119247 0.940794
Si Si6 0.680667 0.876059 0.181643
O O1 0.581649 0.129839 0.402134
O O2 0.506015 0.982752 0.570480
O O3 0.644416 0.974568 0.265386
O O4 0.218276 0.103974 0.147403
O O5 0.261746 0.278655 0.239966
O O6 0.358905 0.143522 0.411996
O O7 0.350620 0.184247 0.913808
O O8 0.038698 0.101165 0.243543
O O9 0.026981 0.151767 0.672544
O O10 0.865902 0.737929 0.445957
O O11 0.888656 0.720740 0.954761
O O12 0.850287 0.211259 0.900680
#
# Coordination Sequence:
#
# PCOD9541136 Si02
#       6
#     4   4   4   4   4   4
#     4  12  24  36  54  78 102 142 184 242 284 318
#     4  10  21  36  53  72  94 144 165 226 280 320
#     4  12  24  28  42  72 100 126 178 214 276 320
#     4  10  20  37  53  68  98 127 184 214 279 325
#     4  10  21  36  53  72  94 144 165 226 280 320
#     4  10  20  37  53  68  98 127 184 214 279 325
#
# _framework density 20.877427999999998
#
# number of rings (size 3 to 8) (size 9 to 14) (size 15 to 20)
#    0.000    1.333    3.333    4.000    4.667    0.000 
#    0.000    0.000    0.000    0.000    0.000    0.000 
#    0.000    0.000    0.000    0.000    0.000  746.667 
#
# Total GULP energy -133687.246657 kJ/mol
# GULP energy per Si atom -5570.301944 kJ/mol
# Density = 2.082991 g / cm^3
# Si number density = 20.877428 Si / 1000 Ang^3
#
#
#
# Elastic Constant Matrix: (Units=GPa)
#
#
# Indices 1 2 3 4 5 6 
#
# 1 51.5447 7.5214 12.1955 0.0000 0.0000 6.9941
# 2 7.5214 51.5447 12.1955 0.0000 0.0000 -6.9941
# 3 12.1955 12.1955 171.4289 0.0000 0.0000 0.0000
# 4 0.0000 0.0000 0.0000 26.3602 0.0000 0.0000
# 5 0.0000 0.0000 0.0000 0.0000 26.3602 0.0000
# 6 6.9941 -6.9941 0.0000 0.0000 0.0000 11.4321
#
#
#
# Elastic Compliance Matrix: (Units=1/GPa)
#
#
# Indices 1 2 3 4 5 6 
#
# 1 0.022820 -0.005377 -0.001241 0.000000 0.000000 -0.017250
# 2 -0.005377 0.022820 -0.001241 0.000000 0.000000 0.017250
# 3 -0.001241 -0.001241 0.006010 0.000000 0.000000 0.000000
# 4 0.000000 0.000000 0.000000 0.037936 0.000000 0.000000
# 5 0.000000 0.000000 0.000000 0.000000 0.037936 0.000000
# 6 -0.017250 0.017250 0.000000 0.000000 0.000000 0.108580
#
#
# Mechanical properties :
#
#
# Convention : Reuss Voigt Hill
#
# Bulk Modulus (GPa) = 27.83065 37.59366 32.71216
# Shear Modulus (GPa) = 18.95406 29.00424 23.97915
#
# Velocity S-wave (km/s) = 3.01636 3.73133 3.39273
# Velocity P-wave (km/s) = 5.04883 6.05059 5.57227
#
# Compressibility (1/GPa) = 0.03593161
#
# Stress axis : x y z
#
# Youngs Moduli (GPa) = 43.82207 43.82207 166.39288
#
# Poissons Ratio (x) = 0.23563 0.20647
# Poissons Ratio (y) = 0.23563 0.20647
# Poissons Ratio (z) = 0.05438 0.05438
#
# Static dielectric constant tensor:
#      x y z
#    x 1.799190 0.000000 0.000000 
#    y 0.000000 1.799190 0.000000 
#    z 0.000000 0.000000 1.880430 
# 
# From -- ./inp_files/172.got.cif
#   From: 2010.05.17/outbox.cif.g08.bks.cpg/sg76_cif.got.tgz:172.got - 2010.06.03 18:43:17.
