data_PCOD9541995
_publ_section_title
;
Structure prediction by ZEFSAII (Michael W. Deem and Ramdas Pophale) SiO2 
 PCOD9541995
Probable space group: I 4
;
_chemical_formula_sum "Si O2"
_cell_formula_units_Z 28
_cell_length_a 8.153558
_cell_length_b 8.153558
_cell_length_c 19.863765
_cell_angle_alpha 90.000000
_cell_angle_beta 90.000000
_cell_angle_gamma 90.000000
_cell_volume 1320.553189
_symmetry_space_group_name_H-M "I 4"
_symmetry_group_IT_number 79
_symmetry_cell_setting 'tetragonal'
loop_
_space_group_symop_operation_xyz
x,y,z
-y,x,z
-x,-y,z
y,-x,z
1/2+x,1/2+y,1/2+z
1/2-y,1/2+x,1/2+z
1/2-x,1/2-y,1/2+z
1/2+y,1/2-x,1/2+z
loop_
_atom_site_type_symbol
_atom_site_label
_atom_site_fract_x
_atom_site_fract_y
_atom_site_fract_z
Si Si1 0.500000 0.000000 0.553880
Si Si2 0.239124 0.407349 0.946250
Si Si3 0.082302 0.262324 0.665836
Si Si4 0.239422 0.405491 0.795082
O O1 0.608287 0.886916 0.504744
O O2 0.384112 0.896767 0.603533
O O3 0.403514 0.300083 0.952464
O O4 0.172740 0.381550 0.870722
O O5 0.120402 0.350963 0.735983
O O6 0.896515 0.197400 0.661757
O O7 0.406460 0.298495 0.789211
#
# Coordination Sequence:
#
# PCOD9541995 Si02
#       4
#     4   8   8   8
#     4  12  22  34  58  84 116 162 204 246 296 358
#     4   9  20  39  62  89 120 157 202 251 306 367
#     4  11  24  40  59  86 121 163 211 259 308 362
#     4   9  19  38  64  91 119 154 201 255 306 362
#
# _framework density 21.203236
#
# number of rings (size 3 to 8) (size 9 to 14) (size 15 to 20)
#    0.000    2.000    0.000    5.143    0.000    8.000 
#    0.000    0.000    0.000    7.714    0.000    0.000 
#    0.000    0.000    0.000    0.000    0.000    0.000 
#
# Total GULP energy -78294.324847 kJ/mol
# GULP energy per Si atom -5592.451775 kJ/mol
# Density = 2.115498 g / cm^3
# Si number density = 21.203236 Si / 1000 Ang^3
#
#
#
# Elastic Constant Matrix: (Units=GPa)
#
#
# Indices 1 2 3 4 5 6 
#
# 1 86.8240 28.8483 78.6934 0.0000 0.0000 0.7701
# 2 28.8483 86.8240 78.6934 0.0000 0.0000 -0.7701
# 3 78.6934 78.6934 223.6115 0.0000 0.0000 0.0000
# 4 0.0000 0.0000 0.0000 27.8287 0.0000 0.0000
# 5 0.0000 0.0000 0.0000 0.0000 27.8287 0.0000
# 6 0.7701 -0.7701 0.0000 0.0000 0.0000 24.0556
#
#
#
# Elastic Compliance Matrix: (Units=1/GPa)
#
#
# Indices 1 2 3 4 5 6 
#
# 1 0.016926 -0.000338 -0.005838 0.000000 0.000000 -0.000553
# 2 -0.000338 0.016926 -0.005838 0.000000 0.000000 0.000553
# 3 -0.005838 -0.005838 0.008581 0.000000 0.000000 0.000000
# 4 0.000000 0.000000 0.000000 0.035934 0.000000 0.000000
# 5 0.000000 0.000000 0.000000 0.000000 0.035934 0.000000
# 6 -0.000553 0.000553 0.000000 0.000000 0.000000 0.041606
#
#
# Mechanical properties :
#
#
# Convention : Reuss Voigt Hill
#
# Bulk Modulus (GPa) = 54.32959 85.52553 69.92756
# Shear Modulus (GPa) = 26.87197 30.01086 28.44141
#
# Velocity S-wave (km/s) = 3.56385 3.76625 3.66645
# Velocity P-wave (km/s) = 6.52791 7.70302 7.13968
#
# Compressibility (1/GPa) = 0.01840618
#
# Stress axis : x y z
#
# Youngs Moduli (GPa) = 59.08200 59.08200 116.53906
#
# Poissons Ratio (x) = 0.01995 0.68031
# Poissons Ratio (y) = 0.01995 0.68031
# Poissons Ratio (z) = 0.34490 0.34490
#
# Static dielectric constant tensor:
#      x y z
#    x 1.775420 0.000000 0.000000 
#    y 0.000000 1.775420 0.000000 
#    z 0.000000 0.000000 1.760630 
# 
# From -- ./inp_files/1477.got.cif
#   From: 2010.05.17/outbox.cif.g08.bks.cpg/sg79_cif.got.tgz:1477.got - 2010.06.03 18:47:27.
