data_PCOD9541191
_publ_section_title
;
Structure prediction by ZEFSAII (Michael W. Deem and Ramdas Pophale) SiO2 
 PCOD9541191
Probable space group: P 41
;
_chemical_formula_sum "Si O2"
_cell_formula_units_Z 20
_cell_length_a 6.873026
_cell_length_b 6.873026
_cell_length_c 18.579763
_cell_angle_alpha 90.000000
_cell_angle_beta 90.000000
_cell_angle_gamma 90.000000
_cell_volume 877.679882
_symmetry_space_group_name_H-M "P 41"
_symmetry_group_IT_number 76
_symmetry_cell_setting 'tetragonal'
loop_
_space_group_symop_operation_xyz
x,y,z
-y,x,1/4+z
-x,-y,1/2+z
y,-x,3/4+z
loop_
_atom_site_type_symbol
_atom_site_label
_atom_site_fract_x
_atom_site_fract_y
_atom_site_fract_z
Si Si1 0.408174 0.407799 0.681060
Si Si2 0.514101 0.001125 0.218090
Si Si3 0.739000 0.889156 0.433161
Si Si4 0.880498 0.245803 0.342002
Si Si5 0.545329 0.649040 0.800224
O O1 0.207033 0.525293 0.671841
O O2 0.556584 0.551608 0.722254
O O3 0.510462 0.351956 0.606535
O O4 0.407537 0.215249 0.729543
O O5 0.429328 0.121541 0.286147
O O6 0.350954 0.009573 0.156488
O O7 0.363191 0.317664 0.073634
O O8 0.753078 0.983309 0.513724
O O9 0.880367 0.702253 0.439615
O O10 0.812019 0.036876 0.372554
#
# Coordination Sequence:
#
# PCOD9541191 Si02
#       5
#     4   4   4   4   4
#     4  10  22  41  68  92 129 178 215 266 332 395
#     4  10  22  40  62  94 128 167 220 266 330 391
#     4  10  24  42  66  93 135 173 221 274 331 397
#     4  10  21  42  66  92 135 173 214 280 334 381
#     4  10  21  41  66  91 131 171 214 272 329 382
#
# _framework density 22.787348000000001
#
# number of rings (size 3 to 8) (size 9 to 14) (size 15 to 20)
#    0.000    2.400    4.000    0.000    8.400    0.000 
#    7.200    0.000    0.000    0.000    0.000    0.000 
#    0.000    0.000    0.000    0.000    0.000    0.000 
#
# Total GULP energy -111426.992471 kJ/mol
# GULP energy per Si atom -5571.349624 kJ/mol
# Density = 2.273548 g / cm^3
# Si number density = 22.787348 Si / 1000 Ang^3
#
#
#
# Elastic Constant Matrix: (Units=GPa)
#
#
# Indices 1 2 3 4 5 6 
#
# 1 81.4078 20.7646 7.9726 0.0000 0.0000 -1.3162
# 2 20.7646 81.4078 7.9726 0.0000 0.0000 1.3162
# 3 7.9726 7.9726 107.8445 0.0000 0.0000 0.0000
# 4 0.0000 0.0000 0.0000 25.3334 0.0000 0.0000
# 5 0.0000 0.0000 0.0000 0.0000 25.3334 0.0000
# 6 -1.3162 1.3162 0.0000 0.0000 0.0000 17.2839
#
#
#
# Elastic Compliance Matrix: (Units=1/GPa)
#
#
# Indices 1 2 3 4 5 6 
#
# 1 0.013223 -0.003321 -0.000732 0.000000 0.000000 0.001260
# 2 -0.003321 0.013223 -0.000732 0.000000 0.000000 -0.001260
# 3 -0.000732 -0.000732 0.009381 0.000000 0.000000 0.000000
# 4 0.000000 0.000000 0.000000 0.039474 0.000000 0.000000
# 5 0.000000 0.000000 0.000000 0.000000 0.039474 0.000000
# 6 0.001260 -0.001260 0.000000 0.000000 0.000000 0.058049
#
#
# Mechanical properties :
#
#
# Convention : Reuss Voigt Hill
#
# Bulk Modulus (GPa) = 38.08640 38.23108 38.15874
# Shear Modulus (GPa) = 26.15795 29.18681 27.67238
#
# Velocity S-wave (km/s) = 3.39177 3.58276 3.48857
# Velocity P-wave (km/s) = 5.66471 5.82483 5.74532
#
# Compressibility (1/GPa) = 0.02625609
#
# Stress axis : x y z
#
# Youngs Moduli (GPa) = 75.62518 75.62518 106.60026
#
# Poissons Ratio (x) = 0.25119 0.07803
# Poissons Ratio (y) = 0.25119 0.07803
# Poissons Ratio (z) = 0.05536 0.05536
#
# Static dielectric constant tensor:
#      x y z
#    x 1.873960 0.000000 0.000000 
#    y 0.000000 1.873960 0.000000 
#    z 0.000000 0.000000 1.960010 
# 
# From -- ./inp_files/1181.got.cif
#   From: 2010.05.17/outbox.cif.g08.bks.cpg/sg76_cif.got.tgz:1181.got - 2010.06.03 18:43:17.
