data_PCOD9541742
_publ_section_title
;
Structure prediction by ZEFSAII (Michael W. Deem and Ramdas Pophale) SiO2 
 PCOD9541742
Probable space group: P 43
;
_chemical_formula_sum "Si O2"
_cell_formula_units_Z 28
_cell_length_a 14.304090
_cell_length_b 14.304090
_cell_length_c 5.036879
_cell_angle_alpha 90.000000
_cell_angle_beta 90.000000
_cell_angle_gamma 90.000000
_cell_volume 1030.580655
_symmetry_space_group_name_H-M "P 43"
_symmetry_group_IT_number 78
_symmetry_cell_setting 'tetragonal'
loop_
_space_group_symop_operation_xyz
x,y,z
-y,x,3/4+z
-x,-y,1/2+z
y,-x,1/4+z
loop_
_atom_site_type_symbol
_atom_site_label
_atom_site_fract_x
_atom_site_fract_y
_atom_site_fract_z
Si Si1 0.861578 0.026223 0.334480
Si Si2 0.666356 0.777128 0.858829
Si Si3 0.479124 0.770888 0.520244
Si Si4 0.706110 0.968496 0.673392
Si Si5 0.053819 0.538518 0.024956
Si Si6 0.601339 0.596782 0.022853
Si Si7 0.295984 0.859691 0.528687
O O1 0.944971 0.094768 0.409136
O O2 0.813273 0.972662 0.580864
O O3 0.778483 0.086955 0.208650
O O4 0.573227 0.768988 0.687184
O O5 0.685844 0.887206 0.889038
O O6 0.648132 0.697777 0.084381
O O7 0.759507 0.745987 0.702768
O O8 0.504411 0.837877 0.273093
O O9 0.439515 0.665238 0.521802
O O10 0.395151 0.830727 0.655941
O O11 0.639158 0.948850 0.421609
O O12 0.687715 0.071243 0.785923
O O13 0.993887 0.479228 0.243225
O O14 0.492037 0.609320 0.963818
#
# Coordination Sequence:
#
# PCOD9541742 Si02
#       7
#     4   4   4   4   4   4   4
#     4  12  29  44  69 100 137 190 254 306 386 464
#     4   9  20  37  68  94 134 180 239 301 368 447
#     4   9  19  39  66 101 138 187 239 303 371 447
#     4  11  23  41  70  96 143 184 243 307 379 451
#     4  11  22  41  68 107 148 193 240 304 377 449
#     4   9  18  37  66  90 135 184 234 297 362 443
#     4  11  21  43  71  98 139 190 235 310 371 457
#
# _framework density 27.169149000000001
#
# number of rings (size 3 to 8) (size 9 to 14) (size 15 to 20)
#    0.000    1.714    1.429    2.571    4.000    0.000 
#    0.000    4.286   50.286    0.000    0.000    0.000 
#    0.000    0.000    0.000    0.000    0.000    0.000 
#
# Total GULP energy -156591.204685 kJ/mol
# GULP energy per Si atom -5592.543024 kJ/mol
# Density = 2.710731 g / cm^3
# Si number density = 27.169149 Si / 1000 Ang^3
#
#
#
# Elastic Constant Matrix: (Units=GPa)
#
#
# Indices 1 2 3 4 5 6 
#
# 1 164.6839 82.2519 46.3547 0.0000 0.0000 0.0992
# 2 82.2519 164.6839 46.3547 0.0000 0.0000 -0.0992
# 3 46.3547 46.3547 87.5903 0.0000 0.0000 0.0000
# 4 0.0000 0.0000 0.0000 14.8227 0.0000 0.0000
# 5 0.0000 0.0000 0.0000 0.0000 14.8227 0.0000
# 6 0.0992 -0.0992 0.0000 0.0000 0.0000 53.3557
#
#
#
# Elastic Compliance Matrix: (Units=1/GPa)
#
#
# Indices 1 2 3 4 5 6 
#
# 1 0.008593 -0.003539 -0.002675 0.000000 0.000000 -0.000023
# 2 -0.003539 0.008593 -0.002675 0.000000 0.000000 0.000023
# 3 -0.002675 -0.002675 0.014248 0.000000 0.000000 0.000000
# 4 0.000000 0.000000 0.000000 0.067464 0.000000 0.000000
# 5 0.000000 0.000000 0.000000 0.000000 0.067464 0.000000
# 6 -0.000023 0.000023 0.000000 0.000000 0.000000 0.018742
#
#
# Mechanical properties :
#
#
# Convention : Reuss Voigt Hill
#
# Bulk Modulus (GPa) = 73.22282 85.20897 79.21589
# Shear Modulus (GPa) = 24.10441 32.73334 28.41887
#
# Velocity S-wave (km/s) = 2.98182 3.47479 3.23770
# Velocity P-wave (km/s) = 6.23412 6.89415 6.57243
#
# Compressibility (1/GPa) = 0.01365695
#
# Stress axis : x y z
#
# Youngs Moduli (GPa) = 116.38027 116.38027 70.18691
#
# Poissons Ratio (x) = 0.41184 0.18772
# Poissons Ratio (y) = 0.41184 0.18772
# Poissons Ratio (z) = 0.31127 0.31127
#
# Static dielectric constant tensor:
#      x y z
#    x 2.153300 0.000000 0.000000 
#    y 0.000000 2.153300 0.000000 
#    z 0.000000 0.000000 2.138290 
# 
# From -- ./inp_files/224.got.cif
#   From: 2010.05.17/outbox.cif.g08.bks.cpg/sg78_cif.got.tgz:224.got - 2010.06.03 18:45:56.
