data_PCOD9541800
_publ_section_title
;
Structure prediction by ZEFSAII (Michael W. Deem and Ramdas Pophale) SiO2 
 PCOD9541800
Probable space group: I 4
;
_chemical_formula_sum "Si O2"
_cell_formula_units_Z 56
_cell_length_a 12.182444
_cell_length_b 12.182444
_cell_length_c 18.708352
_cell_angle_alpha 90.000000
_cell_angle_beta 90.000000
_cell_angle_gamma 90.000000
_cell_volume 2776.542848
_symmetry_space_group_name_H-M "I 4"
_symmetry_group_IT_number 79
_symmetry_cell_setting 'tetragonal'
loop_
_space_group_symop_operation_xyz
x,y,z
-y,x,z
-x,-y,z
y,-x,z
1/2+x,1/2+y,1/2+z
1/2-y,1/2+x,1/2+z
1/2-x,1/2-y,1/2+z
1/2+y,1/2-x,1/2+z
loop_
_atom_site_type_symbol
_atom_site_label
_atom_site_fract_x
_atom_site_fract_y
_atom_site_fract_z
Si Si1 0.902704 0.415249 0.868080
Si Si2 0.649434 0.204308 0.662659
Si Si3 0.335281 0.452190 0.057735
Si Si4 0.507364 0.267010 0.210259
Si Si5 0.376984 0.959949 0.530902
Si Si6 0.599443 0.800081 0.718770
Si Si7 0.975960 0.171298 0.869120
O O1 0.809926 0.407864 0.806159
O O2 0.958500 0.297838 0.883100
O O3 0.000000 0.500000 0.846253
O O4 0.861032 0.443559 0.946657
O O5 0.721530 0.115857 0.706720
O O6 0.648201 0.144715 0.583486
O O7 0.523419 0.208343 0.688443
O O8 0.709549 0.320026 0.681663
O O9 0.426440 0.369639 0.030732
O O10 0.339533 0.458620 0.143231
O O11 0.207605 0.440541 0.045151
O O12 0.583454 0.158654 0.204814
O O13 0.527995 0.329146 0.283143
O O14 0.500000 0.000000 0.544921
O O15 0.090419 0.120119 0.894833
#
# Coordination Sequence:
#
# PCOD9541800 Si02
#       7
#     8   8   8   8   8   8   8
#     4  10  22  41  60  89 124 168 214 259 318 378
#     4  11  22  38  62  90 120 163 212 257 308 378
#     4  10  19  33  54  87 121 150 191 248 314 370
#     4  10  17  31  58  88 116 151 195 252 308 356
#     4  10  22  41  60  89 124 168 214 259 318 378
#     4  11  22  38  62  90 120 163 212 257 308 378
#     4  10  19  33  54  87 121 150 191 248 314 370
#
# _framework density 20.168966999999999
#
# number of rings (size 3 to 8) (size 9 to 14) (size 15 to 20)
#    0.000    1.714    0.000    8.143    0.000    1.429 
#   10.286    0.000    0.000    0.000    0.000    0.000 
#    0.000    0.000    0.000    0.000    0.000    0.000 
#
# Total GULP energy -155925.457726 kJ/mol
# GULP energy per Si atom -5568.766347 kJ/mol
# Density = 2.012306 g / cm^3
# Si number density = 20.168967 Si / 1000 Ang^3
#
#
#
# Elastic Constant Matrix: (Units=GPa)
#
#
# Indices 1 2 3 4 5 6 
#
# 1 82.9264 14.2072 -5.3414 0.0000 0.0000 -11.2158
# 2 14.2072 82.9264 -5.3414 0.0000 0.0000 11.2158
# 3 -5.3414 -5.3414 75.3058 0.0000 0.0000 0.0000
# 4 0.0000 0.0000 0.0000 1.7998 0.0000 0.0000
# 5 0.0000 0.0000 0.0000 0.0000 1.7998 0.0000
# 6 -11.2158 11.2158 0.0000 0.0000 0.0000 20.1949
#
#
#
# Elastic Compliance Matrix: (Units=1/GPa)
#
#
# Indices 1 2 3 4 5 6 
#
# 1 0.014075 -0.003699 0.000736 0.000000 0.000000 0.009871
# 2 -0.003699 0.014075 0.000736 0.000000 0.000000 -0.009871
# 3 0.000736 0.000736 0.013384 0.000000 0.000000 0.000000
# 4 0.000000 0.000000 0.000000 0.555604 0.000000 0.000000
# 5 0.000000 0.000000 0.000000 0.000000 0.555603 0.000000
# 6 0.009871 -0.009871 0.000000 0.000000 0.000000 0.060482
#
#
# Mechanical properties :
#
#
# Convention : Reuss Voigt Hill
#
# Bulk Modulus (GPa) = 26.96905 27.57861 27.27383
# Shear Modulus (GPa) = 4.06492 20.60118 12.33305
#
# Velocity S-wave (km/s) = 1.42120 3.19945 2.47551
# Velocity P-wave (km/s) = 4.01169 5.22992 4.66078
#
# Compressibility (1/GPa) = 0.03707953
#
# Stress axis : x y z
#
# Youngs Moduli (GPa) = 71.04724 71.04724 74.71834
#
# Poissons Ratio (x) = 0.26281 -0.05499
# Poissons Ratio (y) = 0.26281 -0.05499
# Poissons Ratio (z) = -0.05229 -0.05229
#
# Static dielectric constant tensor:
#      x y z
#    x 1.773250 0.000000 0.000000 
#    y 0.000000 1.773250 0.000000 
#    z 0.000000 0.000000 1.763590 
# 
# From -- ./inp_files/1826.got.cif
#   From: 2010.05.17/outbox.cif.g08.bks.cpg/sg79_cif.got.tgz:1826.got - 2010.06.03 18:47:27.
