data_PCOD9541332
_publ_section_title
;
Structure prediction by ZEFSAII (Michael W. Deem and Ramdas Pophale) SiO2 
 PCOD9541332
Probable space group: P 41
;
_chemical_formula_sum "Si O2"
_cell_formula_units_Z 24
_cell_length_a 7.389572
_cell_length_b 7.389572
_cell_length_c 15.691764
_cell_angle_alpha 90.000000
_cell_angle_beta 90.000000
_cell_angle_gamma 90.000000
_cell_volume 856.860924
_symmetry_space_group_name_H-M "P 41"
_symmetry_group_IT_number 76
_symmetry_cell_setting 'tetragonal'
loop_
_space_group_symop_operation_xyz
x,y,z
-y,x,1/4+z
-x,-y,1/2+z
y,-x,3/4+z
loop_
_atom_site_type_symbol
_atom_site_label
_atom_site_fract_x
_atom_site_fract_y
_atom_site_fract_z
Si Si1 0.663442 0.777948 0.564100
Si Si2 0.180744 0.942213 0.373884
Si Si3 0.748433 0.307462 0.715281
Si Si4 0.297508 0.681643 0.490164
Si Si5 0.870923 0.495684 0.866699
Si Si6 0.026076 0.752701 0.638870
O O1 0.500070 0.654273 0.531048
O O2 0.827151 0.681906 0.612604
O O3 0.578158 0.935381 0.623391
O O4 0.730693 0.888907 0.481607
O O5 0.237529 0.862513 0.280477
O O6 0.318409 0.896584 0.458742
O O7 0.254556 0.158530 0.377852
O O8 0.966503 0.989268 0.373595
O O9 0.787492 0.476145 0.774655
O O10 0.533140 0.290673 0.688318
O O11 0.129175 0.705716 0.407177
O O12 0.167410 0.668820 0.571918
#
# Coordination Sequence:
#
# PCOD9541332 Si02
#       6
#     4   4   4   4   4   4
#     4  12  26  46  77 118 147 204 274 313 397 476
#     4  11  19  41  71 105 135 188 248 309 384 447
#     4  11  23  42  70  99 142 195 244 306 385 453
#     4  11  24  46  71 106 152 199 244 323 393 452
#     4  11  26  44  69 104 148 202 251 315 391 467
#     4  12  24  45  80 112 148 202 265 324 382 477
#
# _framework density 28.009212999999999
#
# number of rings (size 3 to 8) (size 9 to 14) (size 15 to 20)
#    0.000    0.667    6.667    1.000    4.667    0.000 
#    3.000    0.000    0.000    0.000    0.000    0.000 
#    0.000    0.000    0.000    0.000    0.000    0.000 
#
# Total GULP energy -133840.375299 kJ/mol
# GULP energy per Si atom -5576.682304 kJ/mol
# Density = 2.794546 g / cm^3
# Si number density = 28.009213 Si / 1000 Ang^3
#
#
#
# Elastic Constant Matrix: (Units=GPa)
#
#
# Indices 1 2 3 4 5 6 
#
# 1 96.8997 17.7475 29.8156 0.0000 0.0000 -5.4287
# 2 17.7475 96.8997 29.8156 0.0000 0.0000 5.4287
# 3 29.8156 29.8156 137.0898 0.0000 0.0000 0.0000
# 4 0.0000 0.0000 0.0000 47.5598 0.0000 0.0000
# 5 0.0000 0.0000 0.0000 0.0000 47.5598 0.0000
# 6 -5.4287 5.4287 0.0000 0.0000 0.0000 6.8105
#
#
#
# Elastic Compliance Matrix: (Units=1/GPa)
#
#
# Indices 1 2 3 4 5 6 
#
# 1 0.012010 -0.002175 -0.002139 0.000000 0.000000 0.011307
# 2 -0.002175 0.012010 -0.002139 0.000000 0.000000 -0.011307
# 3 -0.002139 -0.002139 0.008225 0.000000 0.000000 0.000000
# 4 0.000000 0.000000 0.000000 0.021026 0.000000 0.000000
# 5 0.000000 0.000000 0.000000 0.000000 0.021026 0.000000
# 6 0.011307 -0.011307 0.000000 0.000000 0.000000 0.164858
#
#
# Mechanical properties :
#
#
# Convention : Reuss Voigt Hill
#
# Bulk Modulus (GPa) = 51.70943 53.96072 52.83507
# Shear Modulus (GPa) = 19.34178 37.28674 28.31426
#
# Velocity S-wave (km/s) = 2.63068 3.65256 3.18290
# Velocity P-wave (km/s) = 5.26583 6.09060 5.69317
#
# Compressibility (1/GPa) = 0.01933883
#
# Stress axis : x y z
#
# Youngs Moduli (GPa) = 83.26448 83.26448 121.58187
#
# Poissons Ratio (x) = 0.18110 0.26006
# Poissons Ratio (y) = 0.18110 0.26006
# Poissons Ratio (z) = 0.17810 0.17810
#
# Static dielectric constant tensor:
#      x y z
#    x 2.454990 0.000000 0.000000 
#    y 0.000000 2.454990 0.000000 
#    z 0.000000 0.000000 2.155180 
# 
# From -- ./inp_files/1074.got.cif
#   From: 2010.05.17/outbox.cif.g08.bks.cpg/sg76_cif.got.tgz:1074.got - 2010.06.03 18:43:17.
