data_PCOD9541511
_publ_section_title
;
Structure prediction by ZEFSAII (Michael W. Deem and Ramdas Pophale) SiO2 
 PCOD9541511
Probable space group: P 42
;
_chemical_formula_sum "Si O2"
_cell_formula_units_Z 24
_cell_length_a 14.968039
_cell_length_b 14.968039
_cell_length_c 5.356394
_cell_angle_alpha 90.000000
_cell_angle_beta 90.000000
_cell_angle_gamma 90.000000
_cell_volume 1200.058250
_symmetry_space_group_name_H-M "P 42"
_symmetry_group_IT_number 77
_symmetry_cell_setting 'tetragonal'
loop_
_space_group_symop_operation_xyz
x,y,z
-y,x,1/2+z
-x,-y,z
y,-x,1/2+z
loop_
_atom_site_type_symbol
_atom_site_label
_atom_site_fract_x
_atom_site_fract_y
_atom_site_fract_z
Si Si1 0.143219 0.636372 0.300830
Si Si2 0.264855 0.776466 0.028160
Si Si3 0.034904 0.392221 0.049763
Si Si4 0.450264 0.866183 0.042547
Si Si5 0.788875 0.885998 0.152348
Si Si6 0.069388 0.204371 0.878480
O O1 0.166614 0.550045 0.469711
O O2 0.090032 0.706341 0.475303
O O3 0.226605 0.694316 0.195843
O O4 0.072916 0.612829 0.077859
O O5 0.371656 0.790796 0.031060
O O6 0.209578 0.765161 0.773104
O O7 0.227687 0.870667 0.137520
O O8 0.078394 0.437683 0.801809
O O9 0.074767 0.293327 0.042123
O O10 0.069133 0.431270 0.309201
O O11 0.805407 0.965263 0.340615
O O12 0.879737 0.876285 0.001500
#
# Coordination Sequence:
#
# PCOD9541511 Si02
#       6
#     4   4   4   4   4   4
#     4  11  24  38  67  95 130 175 218 275 349 398
#     4  10  22  42  62  90 132 173 215 276 328 395
#     4  11  22  39  63  95 131 166 212 275 332 399
#     4  11  25  41  63 101 132 166 219 274 332 402
#     4  11  22  40  63  87 124 181 223 279 321 392
#     4  10  22  38  61  83 127 169 226 265 323 385
#
# _framework density 19.999027999999999
#
# number of rings (size 3 to 8) (size 9 to 14) (size 15 to 20)
#    0.000    1.333    3.333    2.500    2.333    2.667 
#    0.000    2.500    0.000    0.000    0.000    3.500 
#    0.000    0.000    0.000    0.000    0.000    0.000 
#
# Total GULP energy -133806.117069 kJ/mol
# GULP energy per Si atom -5575.254878 kJ/mol
# Density = 1.995351 g / cm^3
# Si number density = 19.999028 Si / 1000 Ang^3
#
#
#
# Elastic Constant Matrix: (Units=GPa)
#
#
# Indices 1 2 3 4 5 6 
#
# 1 79.6291 76.3231 34.9592 0.0000 0.0000 -0.7949
# 2 76.3231 79.6291 34.9592 0.0000 0.0000 0.7949
# 3 34.9592 34.9592 98.1059 0.0000 0.0000 0.0000
# 4 0.0000 0.0000 0.0000 30.7608 0.0000 0.0000
# 5 0.0000 0.0000 0.0000 0.0000 30.7608 0.0000
# 6 -0.7949 0.7949 0.0000 0.0000 0.0000 23.2751
#
#
#
# Elastic Compliance Matrix: (Units=1/GPa)
#
#
# Indices 1 2 3 4 5 6 
#
# 1 0.157583 -0.149952 -0.002719 0.000000 0.000000 0.010503
# 2 -0.149952 0.157583 -0.002719 0.000000 0.000000 -0.010503
# 3 -0.002719 -0.002719 0.012131 0.000000 0.000000 0.000000
# 4 0.000000 0.000000 0.000000 0.032509 0.000000 0.000000
# 5 0.000000 0.000000 0.000000 0.000000 0.032509 0.000000
# 6 0.010503 -0.010503 0.000000 0.000000 0.000000 0.043682
#
#
# Mechanical properties :
#
#
# Convention : Reuss Voigt Hill
#
# Bulk Modulus (GPa) = 60.54590 61.09413 60.82002
# Shear Modulus (GPa) = 6.64643 24.36748 15.50696
#
# Velocity S-wave (km/s) = 1.82499 3.49439 2.78760
# Velocity P-wave (km/s) = 5.89754 6.84806 6.39049
#
# Compressibility (1/GPa) = 0.01651639
#
# Stress axis : x y z
#
# Youngs Moduli (GPa) = 6.34586 6.34586 82.43253
#
# Poissons Ratio (x) = 0.95157 0.22417
# Poissons Ratio (y) = 0.95157 0.22417
# Poissons Ratio (z) = 0.01726 0.01726
#
# Static dielectric constant tensor:
#      x y z
#    x 1.744860 0.000000 0.000000 
#    y 0.000000 1.744860 0.000000 
#    z 0.000000 0.000000 1.779820 
# 
# From -- ./inp_files/127.got.cif
#   From: 2010.05.17/outbox.cif.g08.bks.cpg/sg77_cif.got.tgz:127.got - 2010.06.03 18:44:51.
