data_PCOD9541924
_publ_section_title
;
Structure prediction by ZEFSAII (Michael W. Deem and Ramdas Pophale) SiO2 
 PCOD9541924
Probable space group: I 4
;
_chemical_formula_sum "Si O2"
_cell_formula_units_Z 42
_cell_length_a 14.098154
_cell_length_b 14.098154
_cell_length_c 8.536385
_cell_angle_alpha 90.000000
_cell_angle_beta 90.000000
_cell_angle_gamma 90.000000
_cell_volume 1696.674351
_symmetry_space_group_name_H-M "I 4"
_symmetry_group_IT_number 79
_symmetry_cell_setting 'tetragonal'
loop_
_space_group_symop_operation_xyz
x,y,z
-y,x,z
-x,-y,z
y,-x,z
1/2+x,1/2+y,1/2+z
1/2-y,1/2+x,1/2+z
1/2-x,1/2-y,1/2+z
1/2+y,1/2-x,1/2+z
loop_
_atom_site_type_symbol
_atom_site_label
_atom_site_fract_x
_atom_site_fract_y
_atom_site_fract_z
Si Si1 0.025234 0.206693 0.371340
Si Si2 0.042387 0.712333 0.910110
Si Si3 0.342057 0.710723 0.043489
Si Si4 0.000000 0.000000 0.239458
Si Si5 0.210335 0.842325 0.889949
Si Si6 0.045011 0.398964 0.196569
O O1 0.132618 0.202530 0.427278
O O2 0.011075 0.309833 0.299970
O O3 0.953789 0.194430 0.517624
O O4 0.007039 0.117516 0.258075
O O5 0.127224 0.780302 0.970314
O O6 0.079962 0.653986 0.756605
O O7 0.955429 0.785487 0.887018
O O8 0.000873 0.634198 0.030178
O O9 0.299597 0.687969 0.210859
O O10 0.305597 0.809474 0.975964
O O11 0.000000 0.500000 0.229212
#
# Coordination Sequence:
#
# PCOD9541924 Si02
#       6
#     8   8   8   2   8   8
#     4  10  22  44  75 109 155 202 273 325 410 495
#     4  12  29  49  78 113 160 215 273 343 415 496
#     4  11  24  44  73 107 150 203 259 328 402 487
#     4   8  20  40  76 116 146 216 256 348 390 504
#     4  12  27  46  74 108 157 205 269 329 411 485
#     4  12  27  49  78 117 160 212 269 336 416 496
#
# _framework density 24.754307000000001
#
# number of rings (size 3 to 8) (size 9 to 14) (size 15 to 20)
#    0.000    0.762    1.905    4.000    5.333    4.952 
#    0.000    1.905    0.000    0.000    0.000    0.000 
#    0.000    0.000    0.000    0.000    0.000    0.000 
#
# Total GULP energy -117028.645966 kJ/mol
# GULP energy per Si atom -5572.792665 kJ/mol
# Density = 2.469796 g / cm^3
# Si number density = 24.754307 Si / 1000 Ang^3
#
#
#
# Elastic Constant Matrix: (Units=GPa)
#
#
# Indices 1 2 3 4 5 6 
#
# 1 161.1286 18.0856 15.2148 0.0000 0.0000 -16.7533
# 2 18.0856 161.1286 15.2148 0.0000 0.0000 16.7533
# 3 15.2148 15.2148 71.5005 0.0000 0.0000 0.0000
# 4 0.0000 0.0000 0.0000 17.9368 0.0000 0.0000
# 5 0.0000 0.0000 0.0000 0.0000 17.9368 0.0000
# 6 -16.7533 16.7533 0.0000 0.0000 0.0000 29.4974
#
#
#
# Elastic Compliance Matrix: (Units=1/GPa)
#
#
# Indices 1 2 3 4 5 6 
#
# 1 0.006926 -0.001137 -0.001232 0.000000 0.000000 0.004580
# 2 -0.001137 0.006926 -0.001232 0.000000 0.000000 -0.004580
# 3 -0.001232 -0.001232 0.014510 0.000000 0.000000 0.000000
# 4 0.000000 0.000000 0.000000 0.055751 0.000000 0.000000
# 5 0.000000 0.000000 0.000000 0.000000 0.055751 0.000000
# 6 0.004580 -0.004580 0.000000 0.000000 0.000000 0.039104
#
#
# Mechanical properties :
#
#
# Convention : Reuss Voigt Hill
#
# Bulk Modulus (GPa) = 47.25710 54.53202 50.89456
# Shear Modulus (GPa) = 25.87657 36.09036 30.98347
#
# Velocity S-wave (km/s) = 3.23667 3.82244 3.54169
# Velocity P-wave (km/s) = 5.75326 6.44659 6.10977
#
# Compressibility (1/GPa) = 0.02116084
#
# Stress axis : x y z
#
# Youngs Moduli (GPa) = 144.37547 144.37547 68.91711
#
# Poissons Ratio (x) = 0.16420 0.08490
# Poissons Ratio (y) = 0.16420 0.08490
# Poissons Ratio (z) = 0.17785 0.17785
#
# Static dielectric constant tensor:
#      x y z
#    x 1.924750 0.000000 0.000000 
#    y 0.000000 1.924750 0.000000 
#    z 0.000000 0.000000 2.008180 
# 
# From -- ./inp_files/567.got.cif
#   From: 2010.05.17/outbox.cif.g08.bks.cpg/sg79_cif.got.tgz:567.got - 2010.06.03 18:47:27.
