data_PCOD9541664
_publ_section_title
;
Structure prediction by ZEFSAII (Michael W. Deem and Ramdas Pophale) SiO2 
 PCOD9541664
Probable space group: P 43
;
_chemical_formula_sum "Si O2"
_cell_formula_units_Z 20
_cell_length_a 11.689221
_cell_length_b 11.689221
_cell_length_c 7.005254
_cell_angle_alpha 90.000000
_cell_angle_beta 90.000000
_cell_angle_gamma 90.000000
_cell_volume 957.183109
_symmetry_space_group_name_H-M "P 43"
_symmetry_group_IT_number 78
_symmetry_cell_setting 'tetragonal'
loop_
_space_group_symop_operation_xyz
x,y,z
-y,x,3/4+z
-x,-y,1/2+z
y,-x,1/4+z
loop_
_atom_site_type_symbol
_atom_site_label
_atom_site_fract_x
_atom_site_fract_y
_atom_site_fract_z
Si Si1 0.451824 0.154467 0.823190
Si Si2 0.776463 0.482437 0.986008
Si Si3 0.295823 0.270869 0.509347
Si Si4 0.367051 0.997762 0.138882
Si Si5 0.932204 0.143847 0.088865
O O1 0.364289 0.216042 0.684233
O O2 0.517738 0.767753 0.506145
O O3 0.564394 0.113351 0.708739
O O4 0.390658 0.045122 0.926411
O O5 0.700468 0.391495 0.098237
O O6 0.763797 0.610239 0.058706
O O7 0.902693 0.428947 0.015023
O O8 0.206838 0.177583 0.430170
O O9 0.234469 0.007848 0.193266
O O10 0.029519 0.111293 0.238568
#
# Coordination Sequence:
#
# PCOD9541664 Si02
#       5
#     4   4   4   4   4
#     4  10  21  41  68 101 126 187 227 278 330 399
#     4   9  23  41  66 100 131 175 228 282 332 404
#     4  11  23  46  68 102 135 179 228 282 342 406
#     4   9  20  43  67  95 130 180 232 266 330 411
#     4  11  25  45  65 102 144 175 223 282 342 408
#
# _framework density 20.894642000000001
#
# number of rings (size 3 to 8) (size 9 to 14) (size 15 to 20)
#    1.200    0.800    0.000    3.600    2.800    3.200 
#   14.400    0.000    0.000    0.000    0.000    0.000 
#    0.000    0.000    0.000    0.000    0.000    0.000 
#
# Total GULP energy -111475.593562 kJ/mol
# GULP energy per Si atom -5573.779678 kJ/mol
# Density = 2.084708 g / cm^3
# Si number density = 20.894642 Si / 1000 Ang^3
#
#
#
# Elastic Constant Matrix: (Units=GPa)
#
#
# Indices 1 2 3 4 5 6 
#
# 1 79.7410 70.0874 36.3135 0.0000 0.0000 -3.8272
# 2 70.0874 79.7410 36.3135 0.0000 0.0000 3.8272
# 3 36.3135 36.3135 86.3405 0.0000 0.0000 0.0000
# 4 0.0000 0.0000 0.0000 36.3351 0.0000 0.0000
# 5 0.0000 0.0000 0.0000 0.0000 36.3351 0.0000
# 6 -3.8272 3.8272 0.0000 0.0000 0.0000 21.7660
#
#
#
# Elastic Compliance Matrix: (Units=1/GPa)
#
#
# Indices 1 2 3 4 5 6 
#
# 1 0.064377 -0.055994 -0.003526 0.000000 0.000000 0.021165
# 2 -0.055994 0.064377 -0.003526 0.000000 0.000000 -0.021165
# 3 -0.003526 -0.003526 0.014548 0.000000 0.000000 0.000000
# 4 0.000000 0.000000 0.000000 0.027522 0.000000 0.000000
# 5 0.000000 0.000000 0.000000 0.000000 0.027522 0.000000
# 6 0.021165 -0.021165 0.000000 0.000000 0.000000 0.053386
#
#
# Mechanical properties :
#
#
# Convention : Reuss Voigt Hill
#
# Bulk Modulus (GPa) = 58.10213 59.02791 58.56502
# Shear Modulus (GPa) = 13.03577 25.76110 19.39843
#
# Velocity S-wave (km/s) = 2.50047 3.51508 3.05026
# Velocity P-wave (km/s) = 6.01698 6.69223 6.36357
#
# Compressibility (1/GPa) = 0.01721107
#
# Stress axis : x y z
#
# Youngs Moduli (GPa) = 15.53347 15.53347 68.73811
#
# Poissons Ratio (x) = 0.86978 0.24237
# Poissons Ratio (y) = 0.86978 0.24237
# Poissons Ratio (z) = 0.05477 0.05477
#
# Static dielectric constant tensor:
#      x y z
#    x 1.750590 0.000000 0.000000 
#    y 0.000000 1.750590 0.000000 
#    z 0.000000 0.000000 1.767970 
# 
# From -- ./inp_files/490.got.cif
#   From: 2010.05.17/outbox.cif.g08.bks.cpg/sg78_cif.got.tgz:490.got - 2010.06.03 18:45:56.
