data_PCOD9541734
_publ_section_title
;
Structure prediction by ZEFSAII (Michael W. Deem and Ramdas Pophale) SiO2 
 PCOD9541734
Probable space group: P 43
;
_chemical_formula_sum "Si O2"
_cell_formula_units_Z 20
_cell_length_a 4.969035
_cell_length_b 4.969035
_cell_length_c 28.106488
_cell_angle_alpha 90.000000
_cell_angle_beta 90.000000
_cell_angle_gamma 90.000000
_cell_volume 693.985975
_symmetry_space_group_name_H-M "P 43"
_symmetry_group_IT_number 78
_symmetry_cell_setting 'tetragonal'
loop_
_space_group_symop_operation_xyz
x,y,z
-y,x,3/4+z
-x,-y,1/2+z
y,-x,1/4+z
loop_
_atom_site_type_symbol
_atom_site_label
_atom_site_fract_x
_atom_site_fract_y
_atom_site_fract_z
Si Si1 0.081107 0.581107 0.765470
Si Si2 0.495984 0.699557 0.687836
Si Si3 0.004016 0.199555 0.593104
Si Si4 0.609135 0.693407 0.582694
Si Si5 0.890865 0.193408 0.698246
O O1 0.232104 0.716271 0.720379
O O2 0.777630 0.572704 0.787851
O O3 0.072704 0.277630 0.743089
O O4 0.216271 0.732104 0.810561
O O5 0.440299 0.712264 0.631362
O O6 0.665472 0.426785 0.693746
O O7 0.710809 0.929491 0.701205
O O8 0.789190 0.429490 0.579735
O O9 0.059701 0.212263 0.649578
O O10 0.834530 0.926783 0.587194
#
# Coordination Sequence:
#
# PCOD9541734 Si02
#       5
#     4   4   4   4   4
#     4  12  26  40  82 106 156 208 282 314 420 476
#     4  10  25  47  72 111 161 209 268 335 404 480
#     4  10  25  47  72 111 161 209 268 335 404 480
#     4  10  25  47  72 111 161 209 268 335 404 480
#     4  10  25  47  72 111 161 209 268 335 404 480
#
# _framework density 28.819027999999999
#
# number of rings (size 3 to 8) (size 9 to 14) (size 15 to 20)
#    0.000    1.600    0.000    1.200   11.200    9.600 
#    0.000    0.000    0.000    0.000    0.000    0.000 
#    0.000    0.000    0.000    0.000    0.000    0.000 
#
# Total GULP energy -111994.629502 kJ/mol
# GULP energy per Si atom -5599.731475 kJ/mol
# Density = 2.875343 g / cm^3
# Si number density = 28.819028 Si / 1000 Ang^3
#
#
#
# Elastic Constant Matrix: (Units=GPa)
#
#
# Indices 1 2 3 4 5 6 
#
# 1 137.4115 60.1224 19.0999 0.0000 0.0000 -0.0005
# 2 60.1224 137.4115 19.0999 0.0000 0.0000 0.0005
# 3 19.0999 19.0999 223.4786 0.0000 0.0000 0.0000
# 4 0.0000 0.0000 0.0000 52.2327 0.0000 0.0000
# 5 0.0000 0.0000 0.0000 0.0000 52.2327 0.0000
# 6 -0.0005 0.0005 0.0000 0.0000 0.0000 46.6862
#
#
#
# Elastic Compliance Matrix: (Units=1/GPa)
#
#
# Indices 1 2 3 4 5 6 
#
# 1 0.009043 -0.003895 -0.000440 0.000000 0.000000 0.000000
# 2 -0.003895 0.009043 -0.000440 0.000000 0.000000 0.000000
# 3 -0.000440 -0.000440 0.004550 0.000000 0.000000 0.000000
# 4 0.000000 0.000000 0.000000 0.019145 0.000000 0.000000
# 5 0.000000 0.000000 0.000000 0.000000 0.019145 0.000000
# 6 0.000000 0.000000 0.000000 0.000000 0.000000 0.021420
#
#
# Mechanical properties :
#
#
# Convention : Reuss Voigt Hill
#
# Bulk Modulus (GPa) = 76.42254 77.21624 76.81939
# Shear Modulus (GPa) = 51.94371 56.89561 54.41966
#
# Velocity S-wave (km/s) = 4.25009 4.44806 4.35020
# Velocity P-wave (km/s) = 7.11758 7.29602 7.20735
#
# Compressibility (1/GPa) = 0.01308515
#
# Stress axis : x y z
#
# Youngs Moduli (GPa) = 110.58308 110.58308 219.78500
#
# Poissons Ratio (x) = 0.43077 0.09669
# Poissons Ratio (y) = 0.43077 0.09669
# Poissons Ratio (z) = 0.04865 0.04865
#
# Static dielectric constant tensor:
#      x y z
#    x 2.234980 0.000000 0.000000 
#    y 0.000000 2.234980 0.000000 
#    z 0.000000 0.000000 2.328170 
# 
# From -- ./inp_files/1718.got.cif
#   From: 2010.05.17/outbox.cif.g08.bks.cpg/sg78_cif.got.tgz:1718.got - 2010.06.03 18:45:56.
