data_PCOD9541578
_publ_section_title
;
Structure prediction by ZEFSAII (Michael W. Deem and Ramdas Pophale) SiO2 
 PCOD9541578
Probable space group: P 42
;
_chemical_formula_sum "Si O2"
_cell_formula_units_Z 16
_cell_length_a 8.749425
_cell_length_b 8.749425
_cell_length_c 7.408141
_cell_angle_alpha 90.000000
_cell_angle_beta 90.000000
_cell_angle_gamma 90.000000
_cell_volume 567.111253
_symmetry_space_group_name_H-M "P 42"
_symmetry_group_IT_number 77
_symmetry_cell_setting 'tetragonal'
loop_
_space_group_symop_operation_xyz
x,y,z
-y,x,1/2+z
-x,-y,z
y,-x,1/2+z
loop_
_atom_site_type_symbol
_atom_site_label
_atom_site_fract_x
_atom_site_fract_y
_atom_site_fract_z
Si Si1 0.843544 0.573500 0.236680
Si Si2 0.163580 0.923763 0.449731
Si Si3 0.359443 0.411817 0.558954
Si Si4 0.355010 0.106332 0.144214
O O1 0.900261 0.701487 0.096060
O O2 0.729120 0.443156 0.156497
O O3 0.762914 0.643677 0.413240
O O4 0.000000 0.500000 0.290499
O O5 0.120351 0.743433 0.459472
O O6 0.239112 0.021916 0.287468
O O7 0.000000 0.000000 0.492514
O O8 0.500000 0.500000 0.465984
O O9 0.268585 0.549901 0.662234
O O10 0.500000 0.000000 0.159244
#
# Coordination Sequence:
#
# PCOD9541578 Si02
#       4
#     4   4   4   4
#     4  12  31  56  94 135 187 250 321 408 485 576
#     4  12  31  57  92 136 194 253 318 395 486 572
#     4  12  29  58  94 135 185 249 326 395 478 572
#     4  12  31  56  93 136 192 251 322 399 477 569
#
# _framework density 28.213158
#
# number of rings (size 3 to 8) (size 9 to 14) (size 15 to 20)
#    0.000    0.000    2.500    3.000   14.000    4.000 
#    0.000    0.000    0.000    0.000    0.000    0.000 
#    0.000    0.000    0.000    0.000    0.000    0.000 
#
# Total GULP energy -89279.192700 kJ/mol
# GULP energy per Si atom -5579.949544 kJ/mol
# Density = 2.814894 g / cm^3
# Si number density = 28.213158 Si / 1000 Ang^3
#
#
#
# Elastic Constant Matrix: (Units=GPa)
#
#
# Indices 1 2 3 4 5 6 
#
# 1 215.2251 89.9442 75.7478 0.0000 0.0000 -18.3260
# 2 89.9442 215.2251 75.7478 0.0000 0.0000 18.3260
# 3 75.7478 75.7478 130.7474 0.0000 0.0000 0.0000
# 4 0.0000 0.0000 0.0000 52.1036 0.0000 0.0000
# 5 0.0000 0.0000 0.0000 0.0000 52.1036 0.0000
# 6 -18.3260 18.3260 0.0000 0.0000 0.0000 74.9357
#
#
#
# Elastic Compliance Matrix: (Units=1/GPa)
#
#
# Indices 1 2 3 4 5 6 
#
# 1 0.006598 -0.001999 -0.002665 0.000000 0.000000 0.002102
# 2 -0.001999 0.006598 -0.002665 0.000000 0.000000 -0.002102
# 3 -0.002665 -0.002665 0.010736 0.000000 0.000000 0.000000
# 4 0.000000 0.000000 0.000000 0.019193 0.000000 0.000000
# 5 0.000000 0.000000 0.000000 0.000000 0.019193 0.000000
# 6 0.002102 -0.002102 0.000000 0.000000 0.000000 0.014373
#
#
# Mechanical properties :
#
#
# Convention : Reuss Voigt Hill
#
# Bulk Modulus (GPa) = 107.80263 116.00857 111.90560
# Shear Modulus (GPa) = 52.94359 57.14578 55.04469
#
# Velocity S-wave (km/s) = 4.33662 4.50544 4.42184
# Velocity P-wave (km/s) = 7.96041 8.26276 8.11299
#
# Compressibility (1/GPa) = 0.00927621
#
# Stress axis : x y z
#
# Youngs Moduli (GPa) = 151.55011 151.55011 93.14383
#
# Poissons Ratio (x) = 0.30290 0.24822
# Poissons Ratio (y) = 0.30290 0.24822
# Poissons Ratio (z) = 0.40386 0.40386
#
# Static dielectric constant tensor:
#      x y z
#    x 2.346610 0.000000 0.000000 
#    y 0.000000 2.346610 0.000000 
#    z 0.000000 0.000000 2.339030 
# 
# From -- ./inp_files/285.got.cif
#   From: 2010.05.17/outbox.cif.g08.bks.cpg/sg77_cif.got.tgz:285.got - 2010.06.03 18:44:51.
