data_PCOD9541328
_publ_section_title
;
Structure prediction by ZEFSAII (Michael W. Deem and Ramdas Pophale) SiO2 
 PCOD9541328
Probable space group: P 41
;
_chemical_formula_sum "Si O2"
_cell_formula_units_Z 32
_cell_length_a 14.784017
_cell_length_b 14.784017
_cell_length_c 8.094574
_cell_angle_alpha 90.000000
_cell_angle_beta 90.000000
_cell_angle_gamma 90.000000
_cell_volume 1769.208040
_symmetry_space_group_name_H-M "P 41"
_symmetry_group_IT_number 76
_symmetry_cell_setting 'tetragonal'
loop_
_space_group_symop_operation_xyz
x,y,z
-y,x,1/4+z
-x,-y,1/2+z
y,-x,3/4+z
loop_
_atom_site_type_symbol
_atom_site_label
_atom_site_fract_x
_atom_site_fract_y
_atom_site_fract_z
Si Si1 0.856039 0.316111 0.921170
Si Si2 0.815457 0.748792 0.363849
Si Si3 0.498777 0.079995 0.571424
Si Si4 0.051396 0.087310 0.862307
Si Si5 0.123040 0.841177 0.168399
Si Si6 0.251737 0.011809 0.190686
Si Si7 0.072540 0.392926 0.661806
Si Si8 0.335632 0.952874 0.855633
O O1 0.850608 0.415233 0.838414
O O2 0.842957 0.240238 0.781936
O O3 0.784745 0.285440 0.065573
O O4 0.961796 0.318038 0.982337
O O5 0.870030 0.841952 0.336506
O O6 0.847835 0.666880 0.242311
O O7 0.864029 0.715056 0.534348
O O8 0.551298 0.092750 0.744966
O O9 0.566778 0.084922 0.416101
O O10 0.457857 0.978446 0.541485
O O11 0.970285 0.121814 0.746064
O O12 0.081263 0.990222 0.793926
O O13 0.189947 0.923764 0.179126
O O14 0.099455 0.805469 0.986094
O O15 0.319398 0.999089 0.344015
O O16 0.303845 0.004536 0.021360
#
# Coordination Sequence:
#
# PCOD9541328 Si02
#       8
#     4   4   4   4   4   4   4   4
#     4  12  21  37  59  79 106 156 198 238 300 347
#     4  12  21  38  54  76 112 148 190 249 295 338
#     4  11  21  36  59  83 106 150 198 239 295 363
#     4  12  21  33  46  67  99 150 196 234 271 320
#     4  12  19  36  48  67 106 144 196 241 282 324
#     4  11  23  33  50  74 104 151 191 241 286 323
#     4  11  18  36  55  76 107 142 187 237 293 337
#     4  11  24  37  55  80 114 153 194 247 292 346
#
# _framework density 18.087188000000001
#
# number of rings (size 3 to 8) (size 9 to 14) (size 15 to 20)
#    0.000    0.500   10.000    0.000    1.750    2.000 
#    0.000    0.000    0.000    0.000    0.000    0.000 
#    0.000    2.000    0.000    0.000    0.000    0.000 
#
# Total GULP energy -178207.848690 kJ/mol
# GULP energy per Si atom -5568.995272 kJ/mol
# Density = 1.804602 g / cm^3
# Si number density = 18.087188 Si / 1000 Ang^3
#
#
#
# Elastic Constant Matrix: (Units=GPa)
#
#
# Indices 1 2 3 4 5 6 
#
# 1 68.8409 20.8148 19.7210 0.0000 0.0000 -2.2096
# 2 20.8148 68.8409 19.7210 0.0000 0.0000 2.2096
# 3 19.7210 19.7210 50.7495 0.0000 0.0000 0.0000
# 4 0.0000 0.0000 0.0000 29.1080 0.0000 0.0000
# 5 0.0000 0.0000 0.0000 0.0000 29.1080 0.0000
# 6 -2.2096 2.2096 0.0000 0.0000 0.0000 15.8361
#
#
#
# Elastic Compliance Matrix: (Units=1/GPa)
#
#
# Indices 1 2 3 4 5 6 
#
# 1 0.017273 -0.003820 -0.005228 0.000000 0.000000 0.002943
# 2 -0.003820 0.017273 -0.005228 0.000000 0.000000 -0.002943
# 3 -0.005228 -0.005228 0.023768 0.000000 0.000000 0.000000
# 4 0.000000 0.000000 0.000000 0.034355 0.000000 0.000000
# 5 0.000000 0.000000 0.000000 0.000000 0.034355 0.000000
# 6 0.002943 -0.002943 0.000000 0.000000 0.000000 0.063968
#
#
# Mechanical properties :
#
#
# Convention : Reuss Voigt Hill
#
# Bulk Modulus (GPa) = 33.59867 34.32722 33.96294
# Shear Modulus (GPa) = 21.78988 23.35540 22.57264
#
# Velocity S-wave (km/s) = 3.47466 3.59732 3.53652
# Velocity P-wave (km/s) = 5.89186 6.02281 5.95769
#
# Compressibility (1/GPa) = 0.02976308
#
# Stress axis : x y z
#
# Youngs Moduli (GPa) = 57.89292 57.89292 42.07371
#
# Poissons Ratio (x) = 0.22112 0.21996
# Poissons Ratio (y) = 0.22112 0.21996
# Poissons Ratio (z) = 0.30267 0.30267
#
# Static dielectric constant tensor:
#      x y z
#    x 1.657350 0.000000 0.000000 
#    y 0.000000 1.657350 0.000000 
#    z 0.000000 0.000000 1.773520 
# 
# From -- ./inp_files/670.got.cif
#   From: 2010.05.17/outbox.cif.g08.bks.cpg/sg76_cif.got.tgz:670.got - 2010.06.03 18:43:17.
