data_PCOD9541592
_publ_section_title
;
Structure prediction by ZEFSAII (Michael W. Deem and Ramdas Pophale) SiO2 
 PCOD9541592
Probable space group: P 43
;
_chemical_formula_sum "Si O2"
_cell_formula_units_Z 32
_cell_length_a 7.656660
_cell_length_b 7.656660
_cell_length_c 27.232459
_cell_angle_alpha 90.000000
_cell_angle_beta 90.000000
_cell_angle_gamma 90.000000
_cell_volume 1596.487723
_symmetry_space_group_name_H-M "P 43"
_symmetry_group_IT_number 78
_symmetry_cell_setting 'tetragonal'
loop_
_space_group_symop_operation_xyz
x,y,z
-y,x,3/4+z
-x,-y,1/2+z
y,-x,1/4+z
loop_
_atom_site_type_symbol
_atom_site_label
_atom_site_fract_x
_atom_site_fract_y
_atom_site_fract_z
Si Si1 0.926504 0.330058 0.097880
Si Si2 0.382143 0.531664 0.114294
Si Si3 0.993507 0.371762 0.660023
Si Si4 0.306407 0.049596 0.020625
Si Si5 0.125757 0.493609 0.909942
Si Si6 0.547588 0.193075 0.770493
Si Si7 0.426627 0.827390 0.597802
Si Si8 0.971145 0.882360 0.364598
O O1 0.750029 0.251234 0.077848
O O2 0.889595 0.472082 0.139648
O O3 0.024592 0.432936 0.054895
O O4 0.041584 0.166915 0.117775
O O5 0.204780 0.558079 0.146704
O O6 0.504001 0.690086 0.131467
O O7 0.329840 0.547167 0.056672
O O8 0.458275 0.335928 0.117568
O O9 0.024139 0.339039 0.717165
O O10 0.004327 0.187143 0.631809
O O11 0.249734 0.250968 0.012670
O O12 0.475269 0.069462 0.054867
O O13 0.169934 0.955281 0.056982
O O14 0.969237 0.610132 0.889625
O O15 0.055381 0.295123 0.896947
O O16 0.159616 0.525348 0.966986
#
# Coordination Sequence:
#
# PCOD9541592 Si02
#       8
#     4   4   4   4   4   4   4   4
#     4  10  22  36  53  87 127 150 196 254 300 368
#     4   9  19  35  59  88 109 151 213 243 284 371
#     4  10  18  37  64  82 115 161 198 251 300 351
#     4   9  17  35  61  84 106 154 204 243 298 356
#     4  10  18  37  64  82 115 161 198 251 300 351
#     4   9  17  35  61  84 106 154 204 243 298 356
#     4  10  22  36  53  87 127 150 196 254 300 368
#     4   9  19  35  59  88 109 151 213 243 284 371
#
# _framework density 20.044001999999999
#
# number of rings (size 3 to 8) (size 9 to 14) (size 15 to 20)
#    0.000    2.500    2.500    2.250    0.000    3.000 
#    0.000   10.000    0.000    0.000    0.000    0.000 
#    0.000    0.000    0.000    0.000    0.000    0.000 
#
# Total GULP energy -178332.832988 kJ/mol
# GULP energy per Si atom -5572.901031 kJ/mol
# Density = 1.999838 g / cm^3
# Si number density = 20.044002 Si / 1000 Ang^3
#
#
#
# Elastic Constant Matrix: (Units=GPa)
#
#
# Indices 1 2 3 4 5 6 
#
# 1 61.5363 16.7060 35.6404 0.0000 0.0000 -1.4664
# 2 16.7060 61.5363 35.6404 0.0000 0.0000 1.4664
# 3 35.6404 35.6404 170.0882 0.0000 0.0000 0.0000
# 4 0.0000 0.0000 0.0000 10.7259 0.0000 0.0000
# 5 0.0000 0.0000 0.0000 0.0000 10.7259 0.0000
# 6 -1.4664 1.4664 0.0000 0.0000 0.0000 22.6674
#
#
#
# Elastic Compliance Matrix: (Units=1/GPa)
#
#
# Indices 1 2 3 4 5 6 
#
# 1 0.019099 -0.003302 -0.003310 0.000000 0.000000 0.001449
# 2 -0.003302 0.019099 -0.003310 0.000000 0.000000 -0.001449
# 3 -0.003310 -0.003310 0.007266 0.000000 0.000000 0.000000
# 4 0.000000 0.000000 0.000000 0.093232 0.000000 0.000000
# 5 0.000000 0.000000 0.000000 0.000000 0.093232 0.000000
# 6 0.001449 -0.001449 0.000000 0.000000 0.000000 0.044304
#
#
# Mechanical properties :
#
#
# Convention : Reuss Voigt Hill
#
# Bulk Modulus (GPa) = 39.03329 52.12604 45.57966
# Shear Modulus (GPa) = 16.41407 22.50209 19.45808
#
# Velocity S-wave (km/s) = 2.86475 3.35421 3.11910
# Velocity P-wave (km/s) = 5.51892 6.40806 5.98004
#
# Compressibility (1/GPa) = 0.02561916
#
# Stress axis : x y z
#
# Youngs Moduli (GPa) = 52.35951 52.35951 137.61875
#
# Poissons Ratio (x) = 0.17291 0.45551
# Poissons Ratio (y) = 0.17291 0.45551
# Poissons Ratio (z) = 0.17331 0.17331
#
# Static dielectric constant tensor:
#      x y z
#    x 1.757210 0.000000 0.000000 
#    y 0.000000 1.757210 0.000000 
#    z 0.000000 0.000000 1.698900 
# 
# From -- ./inp_files/1696.got.cif
#   From: 2010.05.17/outbox.cif.g08.bks.cpg/sg78_cif.got.tgz:1696.got - 2010.06.03 18:45:56.
