data_PCOD9541832
_publ_section_title
;
Structure prediction by ZEFSAII (Michael W. Deem and Ramdas Pophale) SiO2 
 PCOD9541832
Probable space group: I 4
;
_chemical_formula_sum "Si O2"
_cell_formula_units_Z 64
_cell_length_a 11.919072
_cell_length_b 11.919072
_cell_length_c 24.112420
_cell_angle_alpha 90.000000
_cell_angle_beta 90.000000
_cell_angle_gamma 90.000000
_cell_volume 3425.513522
_symmetry_space_group_name_H-M "I 4"
_symmetry_group_IT_number 79
_symmetry_cell_setting 'tetragonal'
loop_
_space_group_symop_operation_xyz
x,y,z
-y,x,z
-x,-y,z
y,-x,z
1/2+x,1/2+y,1/2+z
1/2-y,1/2+x,1/2+z
1/2-x,1/2-y,1/2+z
1/2+y,1/2-x,1/2+z
loop_
_atom_site_type_symbol
_atom_site_label
_atom_site_fract_x
_atom_site_fract_y
_atom_site_fract_z
Si Si1 0.994540 0.627043 0.083840
Si Si2 0.176920 0.013256 0.821989
Si Si3 0.805849 0.646278 0.000641
Si Si4 0.313587 0.509108 0.804075
Si Si5 0.185528 0.009509 0.173584
Si Si6 0.406036 0.906635 0.363258
Si Si7 0.615905 0.823411 0.984734
Si Si8 0.329555 0.544365 0.452229
O O1 0.019727 0.711966 0.132447
O O2 0.000000 0.500000 0.104163
O O3 0.870890 0.650388 0.059170
O O4 0.082483 0.633336 0.032379
O O5 0.161835 0.981834 0.887185
O O6 0.116862 0.899446 0.799443
O O7 0.307295 0.049042 0.822618
O O8 0.691448 0.715555 0.997921
O O9 0.795395 0.516665 0.984446
O O10 0.893832 0.713020 0.961798
O O11 0.386470 0.397592 0.815793
O O12 0.285884 0.498667 0.738740
O O13 0.201938 0.531433 0.837987
O O14 0.102100 0.112924 0.163222
O O15 0.369506 0.856865 0.423116
O O16 0.500000 0.000000 0.372478
O O17 0.368992 0.423866 0.475775
#
# Coordination Sequence:
#
# PCOD9541832 Si02
#       8
#     8   8   8   8   8   8   8   8
#     4  10  20  35  57  84 117 144 183 242 305 354
#     4   9  18  32  50  72 103 143 184 231 289 342
#     4  11  21  35  49  74 113 149 192 230 286 347
#     4   9  22  42  61  84 116 156 203 253 298 352
#     4   9  18  37  64  89 112 141 188 250 308 356
#     4  12  24  34  57  82 115 155 204 244 292 354
#     4  11  24  35  51  78 114 156 193 240 282 362
#     4   9  16  28  49  70  97 138 182 231 286 342
#
# _framework density 18.683330999999999
#
# number of rings (size 3 to 8) (size 9 to 14) (size 15 to 20)
#    0.000    2.000    0.000    7.125    3.500    0.750 
#    0.000    1.250    0.000    1.500    0.000    0.000 
#    0.000    0.000    0.000    0.000    0.000    0.000 
#
# Total GULP energy -178327.045604 kJ/mol
# GULP energy per Si atom -5572.720175 kJ/mol
# Density = 1.864081 g / cm^3
# Si number density = 18.683331 Si / 1000 Ang^3
#
#
#
# Elastic Constant Matrix: (Units=GPa)
#
#
# Indices 1 2 3 4 5 6 
#
# 1 115.7351 49.7388 38.5042 0.0000 0.0000 -7.6497
# 2 49.7388 115.7351 38.5042 0.0000 0.0000 7.6497
# 3 38.5042 38.5042 44.7258 0.0000 0.0000 0.0000
# 4 0.0000 0.0000 0.0000 20.1941 0.0000 0.0000
# 5 0.0000 0.0000 0.0000 0.0000 20.1941 0.0000
# 6 -7.6497 7.6497 0.0000 0.0000 0.0000 26.2661
#
#
#
# Elastic Compliance Matrix: (Units=1/GPa)
#
#
# Indices 1 2 3 4 5 6 
#
# 1 0.013166 -0.003083 -0.008680 0.000000 0.000000 0.004732
# 2 -0.003083 0.013166 -0.008680 0.000000 0.000000 -0.004732
# 3 -0.008680 -0.008680 0.037304 0.000000 0.000000 0.000000
# 4 0.000000 0.000000 0.000000 0.049519 0.000000 0.000000
# 5 0.000000 0.000000 0.000000 0.000000 0.049519 0.000000
# 6 0.004732 -0.004732 0.000000 0.000000 0.000000 0.040828
#
#
# Mechanical properties :
#
#
# Convention : Reuss Voigt Hill
#
# Bulk Modulus (GPa) = 43.95862 58.85451 51.40656
# Shear Modulus (GPa) = 19.84329 23.29413 21.56871
#
# Velocity S-wave (km/s) = 3.26250 3.53482 3.40139
# Velocity P-wave (km/s) = 6.14583 6.94474 6.55746
#
# Compressibility (1/GPa) = 0.02274867
#
# Stress axis : x y z
#
# Youngs Moduli (GPa) = 75.95219 75.95219 26.80664
#
# Poissons Ratio (x) = 0.23418 0.23269
# Poissons Ratio (y) = 0.23418 0.23269
# Poissons Ratio (z) = 0.65929 0.65929
#
# Static dielectric constant tensor:
#      x y z
#    x 1.694530 0.000000 0.000000 
#    y 0.000000 1.694530 0.000000 
#    z 0.000000 0.000000 1.640990 
# 
# From -- ./inp_files/1997.got.cif
#   From: 2010.05.17/outbox.cif.g08.bks.cpg/sg79_cif.got.tgz:1997.got - 2010.06.03 18:47:27.
