data_PCOD9541012
_publ_section_title
;
Structure prediction by ZEFSAII (Michael W. Deem and Ramdas Pophale) SiO2 
 PCOD9541012
Probable space group: P 4
;
_chemical_formula_sum "Si O2"
_cell_formula_units_Z 24
_cell_length_a 13.579032
_cell_length_b 13.579032
_cell_length_c 4.988052
_cell_angle_alpha 90.000000
_cell_angle_beta 90.000000
_cell_angle_gamma 90.000000
_cell_volume 919.747457
_symmetry_space_group_name_H-M "P 4"
_symmetry_group_IT_number 75
_symmetry_cell_setting 'tetragonal'
loop_
_space_group_symop_operation_xyz
x,y,z
-y,x,z
-x,-y,z
y,-x,z
loop_
_atom_site_type_symbol
_atom_site_label
_atom_site_fract_x
_atom_site_fract_y
_atom_site_fract_z
Si Si1 0.000000 0.000000 0.752181
Si Si2 0.800624 0.463135 0.635570
Si Si3 0.215393 0.949214 0.635379
Si Si4 0.500000 0.500000 0.322677
Si Si5 0.344614 0.072228 0.286866
Si Si6 0.500000 0.000000 0.956247
Si Si7 0.781228 0.186608 0.129463
Si Si8 0.324560 0.355210 0.480839
O O1 0.006610 0.879856 0.737264
O O2 0.844399 0.425636 0.351205
O O3 0.725014 0.372587 0.685662
O O4 0.737515 0.561344 0.629701
O O5 0.900056 0.482200 0.796131
O O6 0.193470 0.898118 0.348075
O O7 0.300095 0.026537 0.557262
O O8 0.241636 0.865242 0.849307
O O9 0.416753 0.410565 0.342388
O O10 0.403329 0.987786 0.137728
O O11 0.257755 0.123633 0.124946
O O12 0.697217 0.252534 0.269416
#
# Coordination Sequence:
#
# PCOD9541012 Si02
#       8
#     1   4   4   1   4   2   4   4
#     4  12  28  54  80 114 164 226 272 334 388 486
#     4  10  24  48  77 117 160 213 273 343 415 498
#     4  12  29  50  80 115 164 217 275 332 399 482
#     4   8  16  44  92 110 160 202 272 346 428 498
#     4  11  28  50  71 120 159 218 278 341 411 493
#     4  12  28  46  76 114 172 216 278 334 418 494
#     4  11  28  48  81 115 163 212 270 338 403 489
#     4   9  21  47  81 121 158 211 275 343 420 497
#
# _framework density 26.094121000000001
#
# number of rings (size 3 to 8) (size 9 to 14) (size 15 to 20)
#    0.000    1.333    1.667    0.500   14.000    0.667 
#    0.000    0.000    0.000    1.000    0.000    0.000 
#    0.000    0.000    0.000    0.000    0.000    0.000 
#
# Total GULP energy -133977.150192 kJ/mol
# GULP energy per Si atom -5582.381258 kJ/mol
# Density = 2.603473 g / cm^3
# Si number density = 26.094121 Si / 1000 Ang^3
#
#
#
# Elastic Constant Matrix: (Units=GPa)
#
#
# Indices 1 2 3 4 5 6 
#
# 1 156.1672 70.2316 36.1888 0.0000 0.0000 4.4028
# 2 70.2316 156.1672 36.1888 0.0000 0.0000 -4.4028
# 3 36.1888 36.1888 81.9181 0.0000 0.0000 0.0000
# 4 0.0000 0.0000 0.0000 22.5881 0.0000 0.0000
# 5 0.0000 0.0000 0.0000 0.0000 22.5881 0.0000
# 6 4.4028 -4.4028 0.0000 0.0000 0.0000 87.0389
#
#
#
# Elastic Compliance Matrix: (Units=1/GPa)
#
#
# Indices 1 2 3 4 5 6 
#
# 1 0.008420 -0.003277 -0.002272 0.000000 0.000000 -0.000592
# 2 -0.003277 0.008420 -0.002272 0.000000 0.000000 0.000592
# 3 -0.002272 -0.002272 0.014215 0.000000 0.000000 0.000000
# 4 0.000000 0.000000 0.000000 0.044271 0.000000 0.000000
# 5 0.000000 0.000000 0.000000 0.000000 0.044271 0.000000
# 6 -0.000592 0.000592 0.000000 0.000000 0.000000 0.011549
#
#
# Mechanical properties :
#
#
# Convention : Reuss Voigt Hill
#
# Bulk Modulus (GPa) = 64.88068 75.49676 70.18872
# Shear Modulus (GPa) = 32.91055 43.21924 38.06490
#
# Velocity S-wave (km/s) = 3.55523 4.07416 3.82351
# Velocity P-wave (km/s) = 6.46304 7.15031 6.81535
#
# Compressibility (1/GPa) = 0.01541291
#
# Stress axis : x y z
#
# Youngs Moduli (GPa) = 118.76047 118.76047 70.34889
#
# Poissons Ratio (x) = 0.38917 0.15985
# Poissons Ratio (y) = 0.38917 0.15985
# Poissons Ratio (z) = 0.26984 0.26984
#
# Static dielectric constant tensor:
#      x y z
#    x 2.053370 0.000000 0.000000 
#    y 0.000000 2.053370 0.000000 
#    z 0.000000 0.000000 2.085310 
# 
# From -- ./inp_files/205.got.cif
#   From: 2010.05.17/outbox.cif.g08.bks.cpg/sg75_cif.got.tgz:205.got - 2010.06.03 18:42:43.
