data_PCOD9541707
_publ_section_title
;
Structure prediction by ZEFSAII (Michael W. Deem and Ramdas Pophale) SiO2 
 PCOD9541707
Probable space group: P 43
;
_chemical_formula_sum "Si O2"
_cell_formula_units_Z 20
_cell_length_a 5.221471
_cell_length_b 5.221471
_cell_length_c 30.446454
_cell_angle_alpha 90.000000
_cell_angle_beta 90.000000
_cell_angle_gamma 90.000000
_cell_volume 830.084797
_symmetry_space_group_name_H-M "P 43"
_symmetry_group_IT_number 78
_symmetry_cell_setting 'tetragonal'
loop_
_space_group_symop_operation_xyz
x,y,z
-y,x,3/4+z
-x,-y,1/2+z
y,-x,1/4+z
loop_
_atom_site_type_symbol
_atom_site_label
_atom_site_fract_x
_atom_site_fract_y
_atom_site_fract_z
Si Si1 0.574132 0.693632 0.158120
Si Si2 0.542808 0.602536 0.061639
Si Si3 0.937031 0.032068 0.685597
Si Si4 0.781668 0.965424 0.270111
Si Si5 0.684083 0.397205 0.977051
O O1 0.579597 0.542088 0.112266
O O2 0.301908 0.835247 0.162307
O O3 0.580812 0.499696 0.199192
O O4 0.809809 0.891679 0.159512
O O5 0.265310 0.716470 0.051819
O O6 0.769263 0.799189 0.046983
O O7 0.574062 0.373514 0.026080
O O8 0.996631 0.111337 0.736345
O O9 0.844837 0.742064 0.696241
O O10 0.546660 0.050343 0.237772
#
# Coordination Sequence:
#
# PCOD9541707 Si02
#       5
#     4   4   4   4   4
#     4  12  25  44  79 107 158 197 268 321 396 465
#     4  10  22  48  71 113 145 204 252 328 384 474
#     4  12  23  46  72 110 145 209 247 320 386 474
#     4  10  22  47  71 103 151 198 251 308 394 461
#     4  10  24  45  75 103 155 198 250 317 396 456
#
# _framework density 24.093924000000001
#
# number of rings (size 3 to 8) (size 9 to 14) (size 15 to 20)
#    1.200    0.000    4.000    1.200    5.600    0.000 
#    3.600    4.000    0.000    0.000    0.000    0.000 
#    0.000    0.000    0.000    0.000    0.000    0.000 
#
# Total GULP energy -111463.175545 kJ/mol
# GULP energy per Si atom -5573.158777 kJ/mol
# Density = 2.403909 g / cm^3
# Si number density = 24.093924 Si / 1000 Ang^3
#
#
#
# Elastic Constant Matrix: (Units=GPa)
#
#
# Indices 1 2 3 4 5 6 
#
# 1 108.7176 21.1645 4.0919 0.0000 0.0000 0.3140
# 2 21.1645 108.7176 4.0919 0.0000 0.0000 -0.3140
# 3 4.0919 4.0919 81.7116 0.0000 0.0000 0.0000
# 4 0.0000 0.0000 0.0000 17.0570 0.0000 0.0000
# 5 0.0000 0.0000 0.0000 0.0000 17.0570 0.0000
# 6 0.3140 -0.3140 0.0000 0.0000 0.0000 24.7725
#
#
#
# Elastic Compliance Matrix: (Units=1/GPa)
#
#
# Indices 1 2 3 4 5 6 
#
# 1 0.009573 -0.001850 -0.000387 0.000000 0.000000 -0.000145
# 2 -0.001850 0.009573 -0.000387 0.000000 0.000000 0.000145
# 3 -0.000387 -0.000387 0.012277 0.000000 0.000000 0.000000
# 4 0.000000 0.000000 0.000000 0.058627 0.000000 0.000000
# 5 0.000000 0.000000 0.000000 0.000000 0.058627 0.000000
# 6 -0.000145 0.000145 0.000000 0.000000 0.000000 0.040371
#
#
# Mechanical properties :
#
#
# Convention : Reuss Voigt Hill
#
# Bulk Modulus (GPa) = 38.20133 39.76038 38.98085
# Shear Modulus (GPa) = 24.62810 29.76385 27.19598
#
# Velocity S-wave (km/s) = 3.20061 3.51853 3.36333
# Velocity P-wave (km/s) = 5.43582 5.74846 5.59433
#
# Compressibility (1/GPa) = 0.02617710
#
# Stress axis : x y z
#
# Youngs Moduli (GPa) = 104.45856 104.45856 81.45379
#
# Poissons Ratio (x) = 0.19320 0.03150
# Poissons Ratio (y) = 0.19320 0.03150
# Poissons Ratio (z) = 0.04040 0.04040
#
# Static dielectric constant tensor:
#      x y z
#    x 1.993950 0.000000 0.000000 
#    y 0.000000 1.993950 0.000000 
#    z 0.000000 0.000000 1.924880 
# 
# From -- ./inp_files/1643.got.cif
#   From: 2010.05.17/outbox.cif.g08.bks.cpg/sg78_cif.got.tgz:1643.got - 2010.06.03 18:45:56.
