data_PCOD9541867
_publ_section_title
;
Structure prediction by ZEFSAII (Michael W. Deem and Ramdas Pophale) SiO2 
 PCOD9541867
Probable space group: I 4
;
_chemical_formula_sum "Si O2"
_cell_formula_units_Z 60
_cell_length_a 16.489238
_cell_length_b 16.489238
_cell_length_c 11.860331
_cell_angle_alpha 90.000000
_cell_angle_beta 90.000000
_cell_angle_gamma 90.000000
_cell_volume 3224.764339
_symmetry_space_group_name_H-M "I 4"
_symmetry_group_IT_number 79
_symmetry_cell_setting 'tetragonal'
loop_
_space_group_symop_operation_xyz
x,y,z
-y,x,z
-x,-y,z
y,-x,z
1/2+x,1/2+y,1/2+z
1/2-y,1/2+x,1/2+z
1/2-x,1/2-y,1/2+z
1/2+y,1/2-x,1/2+z
loop_
_atom_site_type_symbol
_atom_site_label
_atom_site_fract_x
_atom_site_fract_y
_atom_site_fract_z
Si Si1 0.500000 0.000000 0.553510
Si Si2 0.779553 0.129272 0.601568
Si Si3 0.473993 0.168319 0.673152
Si Si4 0.973993 0.668319 0.433869
Si Si5 0.279553 0.629272 0.505453
Si Si6 0.756037 0.853363 0.429663
Si Si7 0.243963 0.146637 0.177358
Si Si8 0.952230 0.872003 0.803510
O O1 0.524840 0.923726 0.629965
O O2 0.423726 0.975160 0.477056
O O3 0.721825 0.081674 0.515115
O O4 0.845365 0.176729 0.526116
O O5 0.723267 0.196275 0.662294
O O6 0.820350 0.071665 0.693502
O O7 0.418326 0.221825 0.591906
O O8 0.564907 0.204131 0.666050
O O9 0.447522 0.172630 0.803510
O O10 0.064907 0.704131 0.440970
O O11 0.223267 0.696275 0.444727
O O12 0.345365 0.676729 0.580905
O O13 0.320350 0.571665 0.413519
O O14 0.791580 0.851862 0.303510
O O15 0.045676 0.898916 0.803510
#
# Coordination Sequence:
#
# PCOD9541867 Si02
#       8
#     4   8   8   8   8   8   8   8
#     4  12  22  40  56  94 124 170 200 256 306 376
#     4  11  21  39  60  89 118 161 204 251 308 361
#     4  11  23  40  60  88 125 163 204 255 307 371
#     4  11  23  40  60  88 125 163 204 255 307 371
#     4  11  21  39  60  89 118 161 204 251 308 361
#     4  10  21  38  60  86 120 158 205 252 299 360
#     4  10  21  38  60  86 120 158 205 252 299 360
#     4  11  24  42  64  91 122 160 206 258 313 369
#
# _framework density 18.606010000000001
#
# number of rings (size 3 to 8) (size 9 to 14) (size 15 to 20)
#    0.000    1.200    4.000    2.800    0.000    0.000 
#    2.400    0.000    0.000    0.000    0.000   11.200 
#    0.000    0.000    0.000    0.000    0.000    0.000 
#
# Total GULP energy -167635.357012 kJ/mol
# GULP energy per Si atom -5587.845234 kJ/mol
# Density = 1.856366 g / cm^3
# Si number density = 18.606010 Si / 1000 Ang^3
#
#
#
# Elastic Constant Matrix: (Units=GPa)
#
#
# Indices 1 2 3 4 5 6 
#
# 1 53.7627 10.3849 40.3966 0.0000 0.0000 0.8595
# 2 10.3849 53.7627 40.3966 0.0000 0.0000 -0.8595
# 3 40.3966 40.3966 142.1722 0.0000 0.0000 0.0000
# 4 0.0000 0.0000 0.0000 23.2400 0.0000 0.0000
# 5 0.0000 0.0000 0.0000 0.0000 23.2400 0.0000
# 6 0.8595 -0.8595 0.0000 0.0000 0.0000 27.4352
#
#
#
# Elastic Compliance Matrix: (Units=1/GPa)
#
#
# Indices 1 2 3 4 5 6 
#
# 1 0.023680 0.000598 -0.006898 0.000000 0.000000 -0.000723
# 2 0.000598 0.023680 -0.006898 0.000000 0.000000 0.000723
# 3 -0.006898 -0.006898 0.010954 0.000000 0.000000 0.000000
# 4 0.000000 0.000000 0.000000 0.043029 0.000000 0.000000
# 5 0.000000 0.000000 0.000000 0.000000 0.043029 0.000000
# 6 -0.000723 0.000723 0.000000 0.000000 0.000000 0.036495
#
#
# Mechanical properties :
#
#
# Convention : Reuss Voigt Hill
#
# Bulk Modulus (GPa) = 31.33256 48.00599 39.66928
# Shear Modulus (GPa) = 22.94613 25.35101 24.14857
#
# Velocity S-wave (km/s) = 3.51560 3.69523 3.60653
# Velocity P-wave (km/s) = 5.77545 6.63805 6.22172
#
# Compressibility (1/GPa) = 0.03191568
#
# Stress axis : x y z
#
# Youngs Moduli (GPa) = 42.23061 42.23061 91.29299
#
# Poissons Ratio (x) = -0.02524 0.62975
# Poissons Ratio (y) = -0.02524 0.62975
# Poissons Ratio (z) = 0.29131 0.29131
#
# Static dielectric constant tensor:
#      x y z
#    x 1.618040 0.000000 0.000000 
#    y 0.000000 1.618040 0.000000 
#    z 0.000000 0.000000 1.631640 
# 
# From -- ./inp_files/754.got.cif
#   From: 2010.05.17/outbox.cif.g08.bks.cpg/sg79_cif.got.tgz:754.got - 2010.06.03 18:47:27.
