data_PCOD9541872
_publ_section_title
;
Structure prediction by ZEFSAII (Michael W. Deem and Ramdas Pophale) SiO2 
 PCOD9541872
Probable space group: I 4
;
_chemical_formula_sum "Si O2"
_cell_formula_units_Z 32
_cell_length_a 13.177987
_cell_length_b 13.177987
_cell_length_c 8.616431
_cell_angle_alpha 90.000000
_cell_angle_beta 90.000000
_cell_angle_gamma 90.000000
_cell_volume 1496.323732
_symmetry_space_group_name_H-M "I 4"
_symmetry_group_IT_number 79
_symmetry_cell_setting 'tetragonal'
loop_
_space_group_symop_operation_xyz
x,y,z
-y,x,z
-x,-y,z
y,-x,z
1/2+x,1/2+y,1/2+z
1/2-y,1/2+x,1/2+z
1/2-x,1/2-y,1/2+z
1/2+y,1/2-x,1/2+z
loop_
_atom_site_type_symbol
_atom_site_label
_atom_site_fract_x
_atom_site_fract_y
_atom_site_fract_z
Si Si1 0.322010 0.702227 0.569910
Si Si2 0.983020 0.753522 0.244344
Si Si3 0.797995 0.623060 0.243137
Si Si4 0.990186 0.834379 0.591187
O O1 0.403889 0.755075 0.681903
O O2 0.319677 0.583046 0.619400
O O3 0.349253 0.737750 0.399005
O O4 0.206959 0.731007 0.612255
O O5 0.916875 0.650811 0.264357
O O6 0.983383 0.808466 0.409857
O O7 0.768099 0.511319 0.186578
O O8 0.899973 0.909610 0.629500
#
# Coordination Sequence:
#
# PCOD9541872 Si02
#       4
#     8   8   8   8
#     4  10  21  39  61  97 128 176 223 282 346 414
#     4  10  21  39  65  91 131 172 222 282 344 414
#     4  10  23  39  64  98 134 179 219 292 350 414
#     4  11  21  38  65  98 130 171 228 285 343 404
#
# _framework density 21.385745
#
# number of rings (size 3 to 8) (size 9 to 14) (size 15 to 20)
#    1.500    0.250    2.500    3.000    3.500    0.500 
#    0.000    0.000    0.000   12.000    0.000    0.000 
#    0.000    0.000    0.000    0.000    0.000    0.000 
#
# Total GULP energy -89071.267397 kJ/mol
# GULP energy per Si atom -5566.954212 kJ/mol
# Density = 2.133707 g / cm^3
# Si number density = 21.385745 Si / 1000 Ang^3
#
#
#
# Elastic Constant Matrix: (Units=GPa)
#
#
# Indices 1 2 3 4 5 6 
#
# 1 30.4283 24.0843 -28.7198 0.0000 0.0000 -5.7542
# 2 24.0843 30.4283 -28.7198 0.0000 0.0000 5.7542
# 3 -28.7198 -28.7198 41.0149 0.0000 0.0000 0.0000
# 4 0.0000 0.0000 0.0000 25.4561 0.0000 0.0000
# 5 0.0000 0.0000 0.0000 0.0000 25.4561 0.0000
# 6 -5.7542 5.7542 0.0000 0.0000 0.0000 39.4257
#
#
#
# Elastic Compliance Matrix: (Units=1/GPa)
#
#
# Indices 1 2 3 4 5 6 
#
# 1 0.142181 -0.072211 0.048995 0.000000 0.000000 0.031291
# 2 -0.072211 0.142181 0.048995 0.000000 0.000000 -0.031291
# 3 0.048995 0.048995 0.092997 0.000000 0.000000 0.000000
# 4 0.000000 0.000000 0.000000 0.039283 0.000000 0.000000
# 5 0.000000 0.000000 0.000000 0.000000 0.039283 0.000000
# 6 0.031291 -0.031291 0.000000 0.000000 0.000000 0.034498
#
#
# Mechanical properties :
#
#
# Convention : Reuss Voigt Hill
#
# Bulk Modulus (GPa) = 2.33145 3.90678 3.11912
# Shear Modulus (GPa) = 8.59348 27.08269 17.83809
#
# Velocity S-wave (km/s) = 2.00675 3.56250 2.89123
# Velocity P-wave (km/s) = 2.54204 4.33043 3.55068
#
# Compressibility (1/GPa) = 0.42891672
#
# Stress axis : x y z
#
# Youngs Moduli (GPa) = 7.03330 7.03330 10.75306
#
# Poissons Ratio (x) = 0.50788 -0.52685
# Poissons Ratio (y) = 0.50788 -0.52685
# Poissons Ratio (z) = -0.34460 -0.34460
#
# Static dielectric constant tensor:
#      x y z
#    x 1.808120 0.000000 0.000000 
#    y 0.000000 1.808120 0.000000 
#    z 0.000000 0.000000 1.730070 
# 
# From -- ./inp_files/432.got.cif
#   From: 2010.05.17/outbox.cif.g08.bks.cpg/sg79_cif.got.tgz:432.got - 2010.06.03 18:47:27.
