data_PCOD9541410
_publ_section_title
;
Structure prediction by ZEFSAII (Michael W. Deem and Ramdas Pophale) SiO2 
 PCOD9541410
Probable space group: P 41
;
_chemical_formula_sum "Si O2"
_cell_formula_units_Z 20
_cell_length_a 5.189689
_cell_length_b 5.189689
_cell_length_c 27.924887
_cell_angle_alpha 90.000000
_cell_angle_beta 90.000000
_cell_angle_gamma 90.000000
_cell_volume 752.097405
_symmetry_space_group_name_H-M "P 41"
_symmetry_group_IT_number 76
_symmetry_cell_setting 'tetragonal'
loop_
_space_group_symop_operation_xyz
x,y,z
-y,x,1/4+z
-x,-y,1/2+z
y,-x,3/4+z
loop_
_atom_site_type_symbol
_atom_site_label
_atom_site_fract_x
_atom_site_fract_y
_atom_site_fract_z
Si Si1 0.052371 0.478107 0.730710
Si Si2 0.261051 0.797065 0.811106
Si Si3 0.335207 0.192887 0.648588
Si Si4 0.250253 0.879407 0.297203
Si Si5 0.169903 0.140224 0.162851
O O1 0.867874 0.259852 0.751485
O O2 0.862298 0.697779 0.710845
O O3 0.229512 0.560756 0.775348
O O4 0.234288 0.401063 0.686547
O O5 0.476725 0.985667 0.790610
O O6 0.319564 0.757174 0.867136
O O7 0.973936 0.917818 0.811054
O O8 0.311374 0.273466 0.593045
O O9 0.610353 0.075447 0.661349
O O10 0.115157 0.973870 0.654844
#
# Coordination Sequence:
#
# PCOD9541410 Si02
#       5
#     4   4   4   4   4
#     4  12  26  50  88 116 174 226 282 354 438 504
#     4  11  26  50  79 121 166 219 286 353 422 512
#     4  11  26  50  79 121 166 219 286 353 422 512
#     4  11  26  50  79 121 166 219 286 353 422 512
#     4  11  26  50  79 121 166 219 286 353 422 512
#
# _framework density 26.592303999999999
#
# number of rings (size 3 to 8) (size 9 to 14) (size 15 to 20)
#    0.000    0.800    4.000    1.200    0.000   12.800 
#    0.000    0.000    0.000    0.000    0.000    0.000 
#    0.000    0.000    0.000    0.000    0.000    0.000 
#
# Total GULP energy -112249.688761 kJ/mol
# GULP energy per Si atom -5612.484438 kJ/mol
# Density = 2.653178 g / cm^3
# Si number density = 26.592304 Si / 1000 Ang^3
#
#
#
# Elastic Constant Matrix: (Units=GPa)
#
#
# Indices 1 2 3 4 5 6 
#
# 1 93.1472 43.2442 31.0357 0.0000 0.0000 3.2914
# 2 43.2442 93.1472 31.0357 0.0000 0.0000 -3.2914
# 3 31.0357 31.0357 108.1778 0.0000 0.0000 0.0000
# 4 0.0000 0.0000 0.0000 39.0352 0.0000 0.0000
# 5 0.0000 0.0000 0.0000 0.0000 39.0352 0.0000
# 6 3.2914 -3.2914 0.0000 0.0000 0.0000 44.7891
#
#
#
# Elastic Compliance Matrix: (Units=1/GPa)
#
#
# Indices 1 2 3 4 5 6 
#
# 1 0.014334 -0.005901 -0.002419 0.000000 0.000000 -0.001487
# 2 -0.005901 0.014334 -0.002419 0.000000 0.000000 0.001487
# 3 -0.002419 -0.002419 0.010632 0.000000 0.000000 0.000000
# 4 0.000000 0.000000 0.000000 0.025618 0.000000 0.000000
# 5 0.000000 0.000000 0.000000 0.000000 0.025618 0.000000
# 6 -0.001487 0.001487 0.000000 0.000000 0.000000 0.022545
#
#
# Mechanical properties :
#
#
# Convention : Reuss Voigt Hill
#
# Bulk Modulus (GPa) = 56.11488 56.12262 56.11875
# Shear Modulus (GPa) = 35.58690 37.18234 36.38462
#
# Velocity S-wave (km/s) = 3.66217 3.74336 3.70298
# Velocity P-wave (km/s) = 6.24737 6.31144 6.27949
#
# Compressibility (1/GPa) = 0.01782058
#
# Stress axis : x y z
#
# Youngs Moduli (GPa) = 69.76435 69.76435 94.05352
#
# Poissons Ratio (x) = 0.41169 0.22755
# Poissons Ratio (y) = 0.41169 0.22755
# Poissons Ratio (z) = 0.16878 0.16878
#
# Static dielectric constant tensor:
#      x y z
#    x 2.070630 0.000000 0.000000 
#    y 0.000000 2.070630 0.000000 
#    z 0.000000 0.000000 2.123820 
# 
# From -- ./inp_files/1677.got.cif
#   From: 2010.05.17/outbox.cif.g08.bks.cpg/sg76_cif.got.tgz:1677.got - 2010.06.03 18:43:17.
