data_PCOD9541205
_publ_section_title
;
Structure prediction by ZEFSAII (Michael W. Deem and Ramdas Pophale) SiO2 
 PCOD9541205
Probable space group: P 41
;
_chemical_formula_sum "Si O2"
_cell_formula_units_Z 20
_cell_length_a 11.027092
_cell_length_b 11.027092
_cell_length_c 6.488340
_cell_angle_alpha 90.000000
_cell_angle_beta 90.000000
_cell_angle_gamma 90.000000
_cell_volume 788.961109
_symmetry_space_group_name_H-M "P 41"
_symmetry_group_IT_number 76
_symmetry_cell_setting 'tetragonal'
loop_
_space_group_symop_operation_xyz
x,y,z
-y,x,1/4+z
-x,-y,1/2+z
y,-x,3/4+z
loop_
_atom_site_type_symbol
_atom_site_label
_atom_site_fract_x
_atom_site_fract_y
_atom_site_fract_z
Si Si1 0.712929 0.752854 0.503600
Si Si2 0.556317 0.653362 0.190313
Si Si3 0.942159 0.701676 0.271831
Si Si4 0.089196 0.538338 0.547144
Si Si5 0.130647 0.108524 0.281125
O O1 0.637295 0.641222 0.403406
O O2 0.816012 0.763987 0.326702
O O3 0.609791 0.856361 0.494043
O O4 0.790960 0.776015 0.707337
O O5 0.424650 0.610070 0.258689
O O6 0.551677 0.796160 0.143347
O O7 0.931716 0.601229 0.093507
O O8 0.980384 0.617373 0.463154
O O9 0.041708 0.800294 0.216678
O O10 0.993398 0.133015 0.350308
#
# Coordination Sequence:
#
# PCOD9541205 Si02
#       5
#     4   4   4   4   4
#     4  10  21  43  65  96 133 172 219 282 333 407
#     4  10  22  47  65  94 132 172 223 273 333 397
#     4  12  22  42  68  94 136 174 226 283 339 410
#     4  10  22  41  65  99 131 175 220 283 335 401
#     4  12  25  41  65  99 134 183 226 281 348 409
#
# _framework density 25.349791
#
# number of rings (size 3 to 8) (size 9 to 14) (size 15 to 20)
#    1.200    0.000    2.000    4.800    0.000    0.000 
#   10.800    0.000    0.000    0.000    0.000    0.000 
#    0.000    0.000    0.000    0.000    0.000    0.000 
#
# Total GULP energy -111584.144342 kJ/mol
# GULP energy per Si atom -5579.207217 kJ/mol
# Density = 2.529209 g / cm^3
# Si number density = 25.349791 Si / 1000 Ang^3
#
#
#
# Elastic Constant Matrix: (Units=GPa)
#
#
# Indices 1 2 3 4 5 6 
#
# 1 63.0008 15.6603 5.2887 0.0000 0.0000 -5.4287
# 2 15.6603 63.0008 5.2887 0.0000 0.0000 5.4287
# 3 5.2887 5.2887 12.6549 0.0000 0.0000 0.0000
# 4 0.0000 0.0000 0.0000 41.7109 0.0000 0.0000
# 5 0.0000 0.0000 0.0000 0.0000 41.7109 0.0000
# 6 -5.4287 5.4287 0.0000 0.0000 0.0000 25.4973
#
#
#
# Elastic Compliance Matrix: (Units=1/GPa)
#
#
# Indices 1 2 3 4 5 6 
#
# 1 0.017839 -0.004369 -0.005629 0.000000 0.000000 0.004728
# 2 -0.004369 0.017839 -0.005629 0.000000 0.000000 -0.004728
# 3 -0.005629 -0.005629 0.083726 0.000000 0.000000 0.000000
# 4 0.000000 0.000000 0.000000 0.023975 0.000000 0.000000
# 5 0.000000 0.000000 0.000000 0.000000 0.023975 0.000000
# 6 0.004728 -0.004728 0.000000 0.000000 0.000000 0.041233
#
#
# Mechanical properties :
#
#
# Convention : Reuss Voigt Hill
#
# Bulk Modulus (GPa) = 11.34454 21.23689 16.29071
# Shear Modulus (GPa) = 18.57191 29.27840 23.92516
#
# Velocity S-wave (km/s) = 2.70964 3.40218 3.07547
# Velocity P-wave (km/s) = 3.77816 4.88148 4.36482
#
# Compressibility (1/GPa) = 0.08814814
#
# Stress axis : x y z
#
# Youngs Moduli (GPa) = 56.05741 56.05741 11.94377
#
# Poissons Ratio (x) = 0.24492 0.06723
# Poissons Ratio (y) = 0.24492 0.06723
# Poissons Ratio (z) = 0.31556 0.31556
#
# Static dielectric constant tensor:
#      x y z
#    x 1.940790 0.000000 0.000000 
#    y 0.000000 1.940790 0.000000 
#    z 0.000000 0.000000 2.073640 
# 
# From -- ./inp_files/152.got.cif
#   From: 2010.05.17/outbox.cif.g08.bks.cpg/sg76_cif.got.tgz:152.got - 2010.06.03 18:43:17.
