data_PCOD9541423
_publ_section_title
;
Structure prediction by ZEFSAII (Michael W. Deem and Ramdas Pophale) SiO2 
 PCOD9541423
Probable space group: P 41
;
_chemical_formula_sum "Si O2"
_cell_formula_units_Z 20
_cell_length_a 12.301816
_cell_length_b 12.301816
_cell_length_c 6.142030
_cell_angle_alpha 90.000000
_cell_angle_beta 90.000000
_cell_angle_gamma 90.000000
_cell_volume 929.502126
_symmetry_space_group_name_H-M "P 41"
_symmetry_group_IT_number 76
_symmetry_cell_setting 'tetragonal'
loop_
_space_group_symop_operation_xyz
x,y,z
-y,x,1/4+z
-x,-y,1/2+z
y,-x,3/4+z
loop_
_atom_site_type_symbol
_atom_site_label
_atom_site_fract_x
_atom_site_fract_y
_atom_site_fract_z
Si Si1 0.681176 1.000000 0.562850
Si Si2 0.228516 0.771484 0.937850
Si Si3 0.417717 0.697397 0.625948
Si Si4 0.417717 0.302603 0.499752
Si Si5 0.881807 0.500000 0.062850
O O1 0.748875 0.896634 0.639253
O O2 0.601513 0.956229 0.374063
O O3 0.748875 0.103366 0.486447
O O4 0.601513 0.043771 0.751637
O O5 0.304827 0.732554 0.738436
O O6 0.267446 0.695173 0.137264
O O7 0.387462 0.612538 0.437850
O O8 0.472723 0.802211 0.513445
O O9 0.500000 0.659172 0.812850
O O10 0.472723 0.197789 0.612255
#
# Coordination Sequence:
#
# PCOD9541423 Si02
#       5
#     4   4   4   4   4
#     4  12  24  46  74 110 148 204 262 324 396 470
#     4  12  26  46  74 110 154 196 264 322 390 466
#     4  12  23  47  79 112 157 201 259 324 384 473
#     4  12  23  47  79 112 157 201 259 324 384 473
#     4  12  24  46  80 102 148 206 266 318 388 482
#
# _framework density 21.516893
#
# number of rings (size 3 to 8) (size 9 to 14) (size 15 to 20)
#    0.000    0.000    8.000    2.400    0.000    0.000 
#    0.000    4.000   61.600    0.000    0.000    0.000 
#    0.000    0.000    0.000    0.000    0.000    0.000 
#
# Total GULP energy -112140.538515 kJ/mol
# GULP energy per Si atom -5607.026926 kJ/mol
# Density = 2.146792 g / cm^3
# Si number density = 21.516893 Si / 1000 Ang^3
#
#
#
# Elastic Constant Matrix: (Units=GPa)
#
#
# Indices 1 2 3 4 5 6 
#
# 1 171.0649 98.1771 74.0217 0.0000 0.0000 0.0000
# 2 98.1771 171.0649 74.0217 0.0000 0.0000 0.0000
# 3 74.0217 74.0217 131.6301 0.0000 0.0000 0.0000
# 4 0.0000 0.0000 0.0000 31.0565 0.0000 0.0000
# 5 0.0000 0.0000 0.0000 0.0000 31.0565 0.0000
# 6 0.0000 0.0000 0.0000 0.0000 0.0000 38.1832
#
#
#
# Elastic Compliance Matrix: (Units=1/GPa)
#
#
# Indices 1 2 3 4 5 6 
#
# 1 0.009548 -0.004172 -0.003024 0.000000 0.000000 0.000000
# 2 -0.004172 0.009548 -0.003024 0.000000 0.000000 0.000000
# 3 -0.003024 -0.003024 0.010998 0.000000 0.000000 0.000000
# 4 0.000000 0.000000 0.000000 0.032199 0.000000 0.000000
# 5 0.000000 0.000000 0.000000 0.000000 0.032199 0.000000
# 6 0.000000 0.000000 0.000000 0.000000 0.000000 0.026190
#
#
# Mechanical properties :
#
#
# Convention : Reuss Voigt Hill
#
# Bulk Modulus (GPa) = 103.55471 107.35566 105.45519
# Shear Modulus (GPa) = 34.64086 35.22856 34.93471
#
# Velocity S-wave (km/s) = 4.01676 4.05069 4.03376
# Velocity P-wave (km/s) = 8.35129 8.47817 8.41497
#
# Compressibility (1/GPa) = 0.00965673
#
# Stress axis : x y z
#
# Youngs Moduli (GPa) = 104.73215 104.73215 90.92915
#
# Poissons Ratio (x) = 0.43690 0.27493
# Poissons Ratio (y) = 0.43690 0.27493
# Poissons Ratio (z) = 0.31666 0.31666
#
# Static dielectric constant tensor:
#      x y z
#    x 1.765230 0.000000 0.000000 
#    y 0.000000 1.765230 0.000000 
#    z 0.000000 0.000000 1.818590 
# 
# From -- ./inp_files/108.got.cif
#   From: 2010.05.17/outbox.cif.g08.bks.cpg/sg76_cif.got.tgz:108.got - 2010.06.03 18:43:17.
