data_PCOD9541065
_publ_section_title
;
Structure prediction by ZEFSAII (Michael W. Deem and Ramdas Pophale) SiO2 
 PCOD9541065
Probable space group: P 4
;
_chemical_formula_sum "Si O2"
_cell_formula_units_Z 24
_cell_length_a 7.993809
_cell_length_b 7.993809
_cell_length_c 16.788625
_cell_angle_alpha 90.000000
_cell_angle_beta 90.000000
_cell_angle_gamma 90.000000
_cell_volume 1072.809629
_symmetry_space_group_name_H-M "P 4"
_symmetry_group_IT_number 75
_symmetry_cell_setting 'tetragonal'
loop_
_space_group_symop_operation_xyz
x,y,z
-y,x,z
-x,-y,z
y,-x,z
loop_
_atom_site_type_symbol
_atom_site_label
_atom_site_fract_x
_atom_site_fract_y
_atom_site_fract_z
Si Si1 0.399039 0.233686 0.274040
Si Si2 0.732287 0.911557 0.602464
Si Si3 0.088443 0.732287 0.775322
Si Si4 0.766313 0.399039 0.103746
Si Si5 0.767145 0.408603 0.932283
Si Si6 0.591396 0.767145 0.445503
O O1 0.592645 0.294276 0.274030
O O2 0.364614 0.147331 0.188893
O O3 0.370314 0.148721 0.359553
O O4 0.649812 0.879574 0.688893
O O5 0.630597 0.869653 0.524024
O O6 0.898957 0.797611 0.600354
O O7 0.130346 0.630597 0.853762
O O8 0.898957 0.797611 0.777431
O O9 0.705724 0.592645 0.103755
O O10 0.851278 0.370312 0.018233
O O11 0.703413 0.598925 0.930311
O O12 0.401075 0.703413 0.447474
#
# Coordination Sequence:
#
# PCOD9541065 Si02
#       6
#     4   4   4   4   4   4
#     4   7  10  19  37  61  89 118 143 168 204 252
#     4   9  19  35  50  62  81 115 156 189 218 260
#     4   9  19  35  50  62  81 115 156 189 218 260
#     4   7  10  19  37  61  89 118 143 168 204 252
#     4   9  17  28  45  72  98 115 139 180 224 261
#     4   9  17  28  45  72  98 115 139 180 224 261
#
# _framework density 22.371162000000002
#
# number of rings (size 3 to 8) (size 9 to 14) (size 15 to 20)
#    0.000    3.667    0.000    4.000    0.000    2.667 
#    0.000    5.000    0.000    2.000    0.000   11.667 
#    0.000    0.000    0.000    0.000    0.000    0.000 
#
# Total GULP energy -133880.799553 kJ/mol
# GULP energy per Si atom -5578.366648 kJ/mol
# Density = 2.232024 g / cm^3
# Si number density = 22.371162 Si / 1000 Ang^3
#
#
#
# Elastic Constant Matrix: (Units=GPa)
#
#
# Indices 1 2 3 4 5 6 
#
# 1 32.9042 16.4016 53.3234 0.0000 0.0000 1.9583
# 2 16.4016 32.9042 53.3234 0.0000 0.0000 -1.9583
# 3 53.3234 53.3234 312.1051 0.0000 0.0000 0.0000
# 4 0.0000 0.0000 0.0000 249.7469 0.0000 0.0000
# 5 0.0000 0.0000 0.0000 0.0000 249.7469 0.0000
# 6 1.9583 -1.9583 0.0000 0.0000 0.0000 25.4393
#
#
#
# Elastic Compliance Matrix: (Units=1/GPa)
#
#
# Indices 1 2 3 4 5 6 
#
# 1 0.046947 -0.014777 -0.005496 0.000000 0.000000 -0.004751
# 2 -0.014777 0.046947 -0.005496 0.000000 0.000000 0.004751
# 3 -0.005496 -0.005496 0.005082 0.000000 0.000000 0.000000
# 4 0.000000 0.000000 0.000000 0.004004 0.000000 0.000000
# 5 0.000000 0.000000 0.000000 0.000000 0.004004 0.000000
# 6 -0.004751 0.004751 0.000000 0.000000 0.000000 0.040041
#
#
# Mechanical properties :
#
#
# Convention : Reuss Voigt Hill
#
# Bulk Modulus (GPa) = 21.08071 69.33445 45.20758
# Shear Modulus (GPa) = 23.32341 121.97763 72.65052
#
# Velocity S-wave (km/s) = 3.23238 7.39208 5.70487
# Velocity P-wave (km/s) = 4.83474 10.19398 7.97784
#
# Compressibility (1/GPa) = 0.04743674
#
# Stress axis : x y z
#
# Youngs Moduli (GPa) = 21.30060 21.30060 196.76845
#
# Poissons Ratio (x) = 0.31476 1.08148
# Poissons Ratio (y) = 0.31476 1.08148
# Poissons Ratio (z) = 0.11707 0.11707
#
# Static dielectric constant tensor:
#      x y z
#    x 1.812520 0.000000 0.000000 
#    y 0.000000 1.812520 0.000000 
#    z 0.000000 0.000000 1.903270 
# 
# From -- ./inp_files/665.got.cif
#   From: 2010.05.17/outbox.cif.g08.bks.cpg/sg75_cif.got.tgz:665.got - 2010.06.03 18:42:43.
