data_PCOD9541749
_publ_section_title
;
Structure prediction by ZEFSAII (Michael W. Deem and Ramdas Pophale) SiO2 
 PCOD9541749
Probable space group: P 43
;
_chemical_formula_sum "Si O2"
_cell_formula_units_Z 24
_cell_length_a 10.909027
_cell_length_b 10.909027
_cell_length_c 9.140861
_cell_angle_alpha 90.000000
_cell_angle_beta 90.000000
_cell_angle_gamma 90.000000
_cell_volume 1087.825258
_symmetry_space_group_name_H-M "P 43"
_symmetry_group_IT_number 78
_symmetry_cell_setting 'tetragonal'
loop_
_space_group_symop_operation_xyz
x,y,z
-y,x,3/4+z
-x,-y,1/2+z
y,-x,1/4+z
loop_
_atom_site_type_symbol
_atom_site_label
_atom_site_fract_x
_atom_site_fract_y
_atom_site_fract_z
Si Si1 0.228511 0.206497 0.337740
Si Si2 0.388793 0.642305 0.777718
Si Si3 0.374311 0.692307 0.093404
Si Si4 0.403099 0.216494 0.094111
Si Si5 0.054441 0.463658 0.961768
Si Si6 0.989862 0.338258 0.262357
O O1 0.338524 0.275632 0.420424
O O2 0.270347 0.213842 0.170694
O O3 0.105985 0.282151 0.343933
O O4 0.231034 0.078173 0.420932
O O5 0.383953 0.503104 0.837521
O O6 0.502499 0.693294 0.681640
O O7 0.359564 0.720518 0.921847
O O8 0.272593 0.613965 0.181952
O O9 0.388822 0.823783 0.170785
O O10 0.440187 0.075691 0.127950
O O11 0.084408 0.596792 0.893287
O O12 0.023150 0.432516 0.129578
#
# Coordination Sequence:
#
# PCOD9541749 Si02
#       6
#     4   4   4   4   4   4
#     4  11  23  44  68  97 134 181 230 288 343 412
#     4  12  25  40  63 103 142 169 229 281 353 431
#     4  12  27  41  66 102 138 185 225 284 358 426
#     4  11  25  43  67  99 140 184 225 291 351 422
#     4  11  23  43  68  97 133 184 235 274 349 432
#     4  11  23  43  72  96 137 183 232 286 350 413
#
# _framework density 22.062366999999998
#
# number of rings (size 3 to 8) (size 9 to 14) (size 15 to 20)
#    0.000    0.667    6.667    1.000    7.000    0.000 
#    0.000    0.000    7.333    0.000    0.000    0.000 
#    0.000    0.000    0.000    0.000    0.000    0.000 
#
# Total GULP energy -133640.477972 kJ/mol
# GULP energy per Si atom -5568.353249 kJ/mol
# Density = 2.201215 g / cm^3
# Si number density = 22.062367 Si / 1000 Ang^3
#
#
#
# Elastic Constant Matrix: (Units=GPa)
#
#
# Indices 1 2 3 4 5 6 
#
# 1 73.0850 15.9541 23.1959 0.0000 0.0000 -6.6605
# 2 15.9541 73.0850 23.1959 0.0000 0.0000 6.6605
# 3 23.1959 23.1959 123.3298 0.0000 0.0000 0.0000
# 4 0.0000 0.0000 0.0000 31.8899 0.0000 0.0000
# 5 0.0000 0.0000 0.0000 0.0000 31.8899 0.0000
# 6 -6.6605 6.6605 0.0000 0.0000 0.0000 20.2313
#
#
#
# Elastic Compliance Matrix: (Units=1/GPa)
#
#
# Indices 1 2 3 4 5 6 
#
# 1 0.015705 -0.003254 -0.002342 0.000000 0.000000 0.006242
# 2 -0.003254 0.015705 -0.002342 0.000000 0.000000 -0.006242
# 3 -0.002342 -0.002342 0.008989 0.000000 0.000000 0.000000
# 4 0.000000 0.000000 0.000000 0.031358 0.000000 0.000000
# 5 0.000000 0.000000 0.000000 0.000000 0.031358 0.000000
# 6 0.006242 -0.006242 0.000000 0.000000 0.000000 0.053538
#
#
# Mechanical properties :
#
#
# Convention : Reuss Voigt Hill
#
# Bulk Modulus (GPa) = 40.77587 43.79906 42.28747
# Shear Modulus (GPa) = 27.66968 30.61247 29.14108
#
# Velocity S-wave (km/s) = 3.54525 3.72901 3.63829
# Velocity P-wave (km/s) = 5.93975 6.19969 6.07111
#
# Compressibility (1/GPa) = 0.02452431
#
# Stress axis : x y z
#
# Youngs Moduli (GPa) = 63.67366 63.67366 111.24408
#
# Poissons Ratio (x) = 0.20719 0.26051
# Poissons Ratio (y) = 0.20719 0.26051
# Poissons Ratio (z) = 0.14911 0.14911
#
# Static dielectric constant tensor:
#      x y z
#    x 1.883630 0.000000 0.000000 
#    y 0.000000 1.883630 0.000000 
#    z 0.000000 0.000000 1.872220 
# 
# From -- ./inp_files/592.got.cif
#   From: 2010.05.17/outbox.cif.g08.bks.cpg/sg78_cif.got.tgz:592.got - 2010.06.03 18:45:56.
