data_PCOD9541987
_publ_section_title
;
Structure prediction by ZEFSAII (Michael W. Deem and Ramdas Pophale) SiO2 
 PCOD9541987
Probable space group: I 4
;
_chemical_formula_sum "Si O2"
_cell_formula_units_Z 48
_cell_length_a 8.826807
_cell_length_b 8.826807
_cell_length_c 33.597842
_cell_angle_alpha 90.000000
_cell_angle_beta 90.000000
_cell_angle_gamma 90.000000
_cell_volume 2617.692598
_symmetry_space_group_name_H-M "I 4"
_symmetry_group_IT_number 79
_symmetry_cell_setting 'tetragonal'
loop_
_space_group_symop_operation_xyz
x,y,z
-y,x,z
-x,-y,z
y,-x,z
1/2+x,1/2+y,1/2+z
1/2-y,1/2+x,1/2+z
1/2-x,1/2-y,1/2+z
1/2+y,1/2-x,1/2+z
loop_
_atom_site_type_symbol
_atom_site_label
_atom_site_fract_x
_atom_site_fract_y
_atom_site_fract_z
Si Si1 0.500000 0.000000 0.179140
Si Si2 0.000000 0.500000 0.898783
Si Si3 0.251771 0.053146 0.965664
Si Si4 0.435054 0.255631 0.119570
Si Si5 0.463282 0.247331 0.742754
Si Si6 0.755626 0.077037 0.526799
Si Si7 0.253456 0.999733 0.331343
O O1 0.580650 0.879101 0.150461
O O2 0.374512 0.934377 0.208858
O O3 0.041084 0.643006 0.926602
O O4 0.137909 0.482061 0.868417
O O5 0.111456 0.171810 0.967603
O O6 0.363540 0.118267 0.999884
O O7 0.604172 0.321899 0.125456
O O8 0.416561 0.211329 0.073322
O O9 0.623190 0.335739 0.739128
O O10 0.476769 0.178071 0.787199
O O11 0.905234 0.183285 0.519765
O O12 0.144543 0.855002 0.333473
#
# Coordination Sequence:
#
# PCOD9541987 Si02
#       7
#     4   4   8   8   8   8   8
#     4  12  19  29  54  82 106 142 176 211 269 326
#     4  12  21  35  56  80 106 138 176 217 267 330
#     4  11  24  38  54  81 114 142 172 222 282 330
#     4   9  20  36  53  78 110 141 179 224 262 305
#     4   9  19  35  52  75 107 138 174 220 264 310
#     4   9  19  38  60  78 102 143 189 225 262 317
#     4   9  19  36  56  76 101 137 180 221 259 309
#
# _framework density 18.336760000000002
#
# number of rings (size 3 to 8) (size 9 to 14) (size 15 to 20)
#    0.000    2.167    0.000    5.500    0.000    3.333 
#    0.000    1.667    0.000    2.000    0.000   14.000 
#    0.000    0.000    0.000    0.000    0.000    0.000 
#
# Total GULP energy -133716.221502 kJ/mol
# GULP energy per Si atom -5571.509229 kJ/mol
# Density = 1.829502 g / cm^3
# Si number density = 18.336760 Si / 1000 Ang^3
#
#
#
# Elastic Constant Matrix: (Units=GPa)
#
#
# Indices 1 2 3 4 5 6 
#
# 1 67.2532 26.4000 52.9038 0.0000 0.0000 -5.0123
# 2 26.4000 67.2532 52.9037 0.0000 0.0000 5.0123
# 3 52.9038 52.9037 128.3931 0.0000 0.0000 0.0000
# 4 0.0000 0.0000 0.0000 21.5814 0.0000 0.0000
# 5 0.0000 0.0000 0.0000 0.0000 21.5814 0.0000
# 6 -5.0123 5.0123 0.0000 0.0000 0.0000 22.4355
#
#
#
# Elastic Compliance Matrix: (Units=1/GPa)
#
#
# Indices 1 2 3 4 5 6 
#
# 1 0.022938 -0.002960 -0.008232 0.000000 0.000000 0.005786
# 2 -0.002960 0.022938 -0.008232 0.000000 0.000000 -0.005786
# 3 -0.008232 -0.008232 0.014572 0.000000 0.000000 0.000000
# 4 0.000000 0.000000 0.000000 0.046336 0.000000 0.000000
# 5 0.000000 0.000000 0.000000 0.000000 0.046336 0.000000
# 6 0.005786 -0.005786 0.000000 0.000000 0.000000 0.047157
#
#
# Mechanical properties :
#
#
# Convention : Reuss Voigt Hill
#
# Bulk Modulus (GPa) = 46.29453 58.59049 52.44251
# Shear Modulus (GPa) = 20.29844 21.83246 21.06545
#
# Velocity S-wave (km/s) = 3.33074 3.45431 3.39309
# Velocity P-wave (km/s) = 6.33194 6.92326 6.63419
#
# Compressibility (1/GPa) = 0.02160082
#
# Stress axis : x y z
#
# Youngs Moduli (GPa) = 43.59645 43.59645 68.62346
#
# Poissons Ratio (x) = 0.12904 0.56489
# Poissons Ratio (y) = 0.12904 0.56489
# Poissons Ratio (z) = 0.35887 0.35887
#
# Static dielectric constant tensor:
#      x y z
#    x 1.665610 0.000000 0.000000 
#    y 0.000000 1.665610 0.000000 
#    z 0.000000 0.000000 1.624210 
# 
# From -- ./inp_files/2149.got.cif
#   From: 2010.05.17/outbox.cif.g08.bks.cpg/sg79_cif.got.tgz:2149.got - 2010.06.03 18:47:27.
