data_PCOD9541086
_publ_section_title
;
Structure prediction by ZEFSAII (Michael W. Deem and Ramdas Pophale) SiO2 
 PCOD9541086
Probable space group: P 41
;
_chemical_formula_sum "Si O2"
_cell_formula_units_Z 24
_cell_length_a 11.578631
_cell_length_b 11.578631
_cell_length_c 6.844171
_cell_angle_alpha 90.000000
_cell_angle_beta 90.000000
_cell_angle_gamma 90.000000
_cell_volume 917.561703
_symmetry_space_group_name_H-M "P 41"
_symmetry_group_IT_number 76
_symmetry_cell_setting 'tetragonal'
loop_
_space_group_symop_operation_xyz
x,y,z
-y,x,1/4+z
-x,-y,1/2+z
y,-x,3/4+z
loop_
_atom_site_type_symbol
_atom_site_label
_atom_site_fract_x
_atom_site_fract_y
_atom_site_fract_z
Si Si1 0.039495 0.855252 0.416470
Si Si2 0.392053 0.612607 0.716322
Si Si3 0.930629 0.744149 0.911227
Si Si4 0.394306 0.970228 0.546876
Si Si5 0.185037 0.511374 0.115893
Si Si6 0.797945 0.265284 0.386464
O O1 0.132685 0.893629 0.253293
O O2 0.918025 0.912194 0.356602
O O3 0.021899 0.719336 0.400760
O O4 0.481659 0.619722 0.539177
O O5 0.449911 0.691987 0.889065
O O6 0.268732 0.677247 0.703221
O O7 0.919521 0.653696 0.091227
O O8 0.065352 0.740548 0.862678
O O9 0.850882 0.739246 0.719230
O O10 0.455892 0.872875 0.672314
O O11 0.480542 0.078032 0.513015
O O12 0.214946 0.642729 0.062368
#
# Coordination Sequence:
#
# PCOD9541086 Si02
#       6
#     4   4   4   4   4   4
#     4  10  19  37  60  94 138 173 217 263 342 411
#     4  10  24  49  70  94 135 179 241 290 337 410
#     4  10  18  38  67 101 144 170 214 276 345 419
#     4  10  22  39  62 100 138 178 228 278 339 416
#     4  10  22  43  63  97 136 178 236 281 340 409
#     4  10  21  40  70 100 133 176 220 282 351 409
#
# _framework density 26.156282000000001
#
# number of rings (size 3 to 8) (size 9 to 14) (size 15 to 20)
#    0.000    2.000    5.000    0.000    4.667    1.333 
#   12.000    6.667    0.000    0.000    0.000    0.000 
#    0.000    0.000    0.000    0.000    0.000    0.000 
#
# Total GULP energy -134313.853561 kJ/mol
# GULP energy per Si atom -5596.410565 kJ/mol
# Density = 2.609675 g / cm^3
# Si number density = 26.156282 Si / 1000 Ang^3
#
#
#
# Elastic Constant Matrix: (Units=GPa)
#
#
# Indices 1 2 3 4 5 6 
#
# 1 126.8029 27.9157 30.8129 0.0000 0.0000 -12.6485
# 2 27.9157 126.8029 30.8129 0.0000 0.0000 12.6485
# 3 30.8129 30.8129 68.1682 0.0000 0.0000 0.0000
# 4 0.0000 0.0000 0.0000 30.1458 0.0000 0.0000
# 5 0.0000 0.0000 0.0000 0.0000 30.1458 0.0000
# 6 -12.6485 12.6485 0.0000 0.0000 0.0000 51.3587
#
#
#
# Elastic Compliance Matrix: (Units=1/GPa)
#
#
# Indices 1 2 3 4 5 6 
#
# 1 0.009338 -0.001455 -0.003563 0.000000 0.000000 0.002658
# 2 -0.001455 0.009338 -0.003563 0.000000 0.000000 -0.002658
# 3 -0.003563 -0.003563 0.017891 0.000000 0.000000 0.000000
# 4 0.000000 0.000000 0.000000 0.033172 0.000000 0.000000
# 5 0.000000 0.000000 0.000000 0.000000 0.033172 0.000000
# 6 0.002658 -0.002658 0.000000 0.000000 0.000000 0.020780
#
#
# Mechanical properties :
#
#
# Convention : Reuss Voigt Hill
#
# Bulk Modulus (GPa) = 51.53664 55.65081 53.59373
# Shear Modulus (GPa) = 33.93975 37.81222 35.87598
#
# Velocity S-wave (km/s) = 3.60610 3.80626 3.70753
# Velocity P-wave (km/s) = 6.08972 6.37490 6.23394
#
# Compressibility (1/GPa) = 0.01940367
#
# Stress axis : x y z
#
# Youngs Moduli (GPa) = 107.09503 107.09503 55.89515
#
# Poissons Ratio (x) = 0.15582 0.19915
# Poissons Ratio (y) = 0.15582 0.19915
# Poissons Ratio (z) = 0.38158 0.38158
#
# Static dielectric constant tensor:
#      x y z
#    x 2.091190 0.000000 0.000000 
#    y 0.000000 2.091190 0.000000 
#    z 0.000000 0.000000 2.078340 
# 
# From -- ./inp_files/564.got.cif
#   From: 2010.05.17/outbox.cif.g08.bks.cpg/sg76_cif.got.tgz:564.got - 2010.06.03 18:43:17.
