data_PCOD9541243
_publ_section_title
;
Structure prediction by ZEFSAII (Michael W. Deem and Ramdas Pophale) SiO2 
 PCOD9541243
Probable space group: P 41
;
_chemical_formula_sum "Si O2"
_cell_formula_units_Z 32
_cell_length_a 8.226902
_cell_length_b 8.226902
_cell_length_c 18.647901
_cell_angle_alpha 90.000000
_cell_angle_beta 90.000000
_cell_angle_gamma 90.000000
_cell_volume 1262.125679
_symmetry_space_group_name_H-M "P 41"
_symmetry_group_IT_number 76
_symmetry_cell_setting 'tetragonal'
loop_
_space_group_symop_operation_xyz
x,y,z
-y,x,1/4+z
-x,-y,1/2+z
y,-x,3/4+z
loop_
_atom_site_type_symbol
_atom_site_label
_atom_site_fract_x
_atom_site_fract_y
_atom_site_fract_z
Si Si1 0.618210 0.248650 0.787580
Si Si2 0.256109 0.020889 0.961959
Si Si3 0.291361 0.380076 0.708966
Si Si4 0.359190 0.061615 0.458778
Si Si5 0.234582 0.286250 0.330281
Si Si6 0.880002 0.796561 0.583787
Si Si7 0.554542 0.297208 0.258970
Si Si8 0.385313 0.024199 0.180202
O O1 0.451764 0.303101 0.746218
O O2 0.605466 0.278611 0.872450
O O3 0.789730 0.324604 0.762086
O O4 0.633917 0.063629 0.756830
O O5 0.450026 0.987195 0.958597
O O6 0.210756 0.041007 0.878681
O O7 0.214049 0.868862 0.014877
O O8 0.145170 0.149245 0.003569
O O9 0.317626 0.566070 0.736718
O O10 0.119440 0.292481 0.727932
O O11 0.285994 0.144609 0.386467
O O12 0.388118 0.367725 0.291350
O O13 0.125269 0.414365 0.375111
O O14 0.799426 0.621281 0.577538
O O15 0.766752 0.901710 0.636502
O O16 0.505588 0.173924 0.195296
#
# Coordination Sequence:
#
# PCOD9541243 Si02
#       8
#     4   4   4   4   4   4   4   4
#     4  11  29  49  78 117 160 212 270 345 411 484
#     4  11  22  42  71 109 146 196 265 313 409 477
#     4  12  29  46  81 121 153 213 280 337 408 495
#     4  11  24  48  78 109 160 200 267 338 401 491
#     4  10  22  41  74 102 148 210 252 326 406 488
#     4  11  24  40  77 107 142 211 254 329 402 492
#     4  12  23  43  76 111 154 197 270 335 397 499
#     4  10  25  45  71 108 157 205 262 333 414 484
#
# _framework density 25.354049
#
# number of rings (size 3 to 8) (size 9 to 14) (size 15 to 20)
#    0.000    1.000    3.750    1.500   10.500    0.000 
#    0.000    3.750    0.000    0.000    0.000    0.000 
#    0.000    0.000    0.000    0.000    0.000    0.000 
#
# Total GULP energy -178137.052681 kJ/mol
# GULP energy per Si atom -5566.782896 kJ/mol
# Density = 2.529634 g / cm^3
# Si number density = 25.354049 Si / 1000 Ang^3
#
#
#
# Elastic Constant Matrix: (Units=GPa)
#
#
# Indices 1 2 3 4 5 6 
#
# 1 63.1354 -6.1311 13.2283 0.0000 0.0000 10.4002
# 2 -6.1311 63.1354 13.2283 0.0000 0.0000 -10.4002
# 3 13.2283 13.2283 110.1739 0.0000 0.0000 0.0000
# 4 0.0000 0.0000 0.0000 37.1102 0.0000 0.0000
# 5 0.0000 0.0000 0.0000 0.0000 37.1102 0.0000
# 6 10.4002 -10.4002 0.0000 0.0000 0.0000 10.5157
#
#
#
# Elastic Compliance Matrix: (Units=1/GPa)
#
#
# Indices 1 2 3 4 5 6 
#
# 1 0.019557 -0.000979 -0.002231 0.000000 0.000000 -0.020311
# 2 -0.000979 0.019557 -0.002231 0.000000 0.000000 0.020311
# 3 -0.002231 -0.002231 0.009612 0.000000 0.000000 0.000000
# 4 0.000000 0.000000 0.000000 0.026947 0.000000 0.000000
# 5 0.000000 0.000000 0.000000 0.000000 0.026947 0.000000
# 6 -0.020311 0.020311 0.000000 0.000000 0.000000 0.135272
#
#
# Mechanical properties :
#
#
# Convention : Reuss Voigt Hill
#
# Bulk Modulus (GPa) = 26.42323 30.78838 28.60580
# Shear Modulus (GPa) = 19.12871 31.35516 25.24193
#
# Velocity S-wave (km/s) = 2.74973 3.52048 3.15870
# Velocity P-wave (km/s) = 4.53053 5.35675 4.96087
#
# Compressibility (1/GPa) = 0.03784548
#
# Stress axis : x y z
#
# Youngs Moduli (GPa) = 51.13258 51.13258 104.03448
#
# Poissons Ratio (x) = 0.05007 0.23206
# Poissons Ratio (y) = 0.05007 0.23206
# Poissons Ratio (z) = 0.11406 0.11406
#
# Static dielectric constant tensor:
#      x y z
#    x 2.228410 0.000000 0.000000 
#    y 0.000000 2.228410 0.000000 
#    z 0.000000 0.000000 2.021970 
# 
# From -- ./inp_files/1455.got.cif
#   From: 2010.05.17/outbox.cif.g08.bks.cpg/sg76_cif.got.tgz:1455.got - 2010.06.03 18:43:17.
