data_PCOD9541257
_publ_section_title
;
Structure prediction by ZEFSAII (Michael W. Deem and Ramdas Pophale) SiO2 
 PCOD9541257
Probable space group: P 41
;
_chemical_formula_sum "Si O2"
_cell_formula_units_Z 28
_cell_length_a 15.035994
_cell_length_b 15.035994
_cell_length_c 5.355011
_cell_angle_alpha 90.000000
_cell_angle_beta 90.000000
_cell_angle_gamma 90.000000
_cell_volume 1210.666861
_symmetry_space_group_name_H-M "P 41"
_symmetry_group_IT_number 76
_symmetry_cell_setting 'tetragonal'
loop_
_space_group_symop_operation_xyz
x,y,z
-y,x,1/4+z
-x,-y,1/2+z
y,-x,3/4+z
loop_
_atom_site_type_symbol
_atom_site_label
_atom_site_fract_x
_atom_site_fract_y
_atom_site_fract_z
Si Si1 0.960451 0.128229 0.230350
Si Si2 0.232781 0.509504 0.240412
Si Si3 0.347095 0.330385 0.153296
Si Si4 0.378682 0.517882 0.552892
Si Si5 0.801994 0.776650 0.419584
Si Si6 0.087688 0.263508 0.430927
Si Si7 0.465245 0.962503 0.109950
O O1 0.883341 0.193076 0.129167
O O2 0.013821 0.184786 0.439996
O O3 0.907813 0.039453 0.308037
O O4 0.274087 0.517156 0.516926
O O5 0.129203 0.500001 0.241220
O O6 0.274864 0.410825 0.187628
O O7 0.266200 0.597391 0.091712
O O8 0.425852 0.391264 0.047097
O O9 0.294373 0.265942 0.962253
O O10 0.424912 0.424821 0.588702
O O11 0.852700 0.756171 0.683257
O O12 0.852356 0.736295 0.179771
O O13 0.042769 0.359097 0.394817
O O14 0.492444 0.028921 0.886403
#
# Coordination Sequence:
#
# PCOD9541257 Si02
#       7
#     4   4   4   4   4   4   4
#     4  10  22  44  78 113 149 191 247 316 391 454
#     4  12  27  47  73 105 150 199 260 325 382 468
#     4  12  26  45  70 110 148 204 254 316 393 448
#     4  12  24  40  69 108 152 191 251 320 386 452
#     4  11  26  44  73 108 150 195 248 311 381 459
#     4  11  25  48  73 109 153 193 247 319 378 450
#     4  12  30  52  76 107 152 209 263 313 385 471
#
# _framework density 23.127749000000001
#
# number of rings (size 3 to 8) (size 9 to 14) (size 15 to 20)
#    0.000    0.571    4.286    2.571    8.000    3.429 
#    0.000    0.000    0.000    0.000    0.000    0.000 
#    0.000    0.000    0.000    0.000    0.000    0.000 
#
# Total GULP energy -155994.267360 kJ/mol
# GULP energy per Si atom -5571.223834 kJ/mol
# Density = 2.307511 g / cm^3
# Si number density = 23.127749 Si / 1000 Ang^3
#
#
#
# Elastic Constant Matrix: (Units=GPa)
#
#
# Indices 1 2 3 4 5 6 
#
# 1 79.7366 15.6086 10.6505 0.0000 0.0000 -3.6887
# 2 15.6086 79.7366 10.6505 0.0000 0.0000 3.6887
# 3 10.6505 10.6505 86.8887 0.0000 0.0000 0.0000
# 4 0.0000 0.0000 0.0000 33.2916 0.0000 0.0000
# 5 0.0000 0.0000 0.0000 0.0000 33.2916 0.0000
# 6 -3.6887 3.6887 0.0000 0.0000 0.0000 12.7870
#
#
#
# Elastic Compliance Matrix: (Units=1/GPa)
#
#
# Indices 1 2 3 4 5 6 
#
# 1 0.013456 -0.002673 -0.001322 0.000000 0.000000 0.004653
# 2 -0.002673 0.013456 -0.001322 0.000000 0.000000 -0.004653
# 3 -0.001322 -0.001322 0.011833 0.000000 0.000000 0.000000
# 4 0.000000 0.000000 0.000000 0.030038 0.000000 0.000000
# 5 0.000000 0.000000 0.000000 0.000000 0.030038 0.000000
# 6 0.004653 -0.004653 0.000000 0.000000 0.000000 0.080889
#
#
# Mechanical properties :
#
#
# Convention : Reuss Voigt Hill
#
# Bulk Modulus (GPa) = 35.57098 35.57570 35.57334
# Shear Modulus (GPa) = 25.03589 29.83753 27.43671
#
# Velocity S-wave (km/s) = 3.29371 3.59572 3.44802
# Velocity P-wave (km/s) = 5.46611 5.71442 5.59164
#
# Compressibility (1/GPa) = 0.02811280
#
# Stress axis : x y z
#
# Youngs Moduli (GPa) = 74.31467 74.31467 84.50927
#
# Poissons Ratio (x) = 0.19863 0.11171
# Poissons Ratio (y) = 0.19863 0.11171
# Poissons Ratio (z) = 0.09823 0.09823
#
# Static dielectric constant tensor:
#      x y z
#    x 2.003460 0.000000 0.000000 
#    y 0.000000 2.003460 0.000000 
#    z 0.000000 0.000000 1.965880 
# 
# From -- ./inp_files/265.got.cif
#   From: 2010.05.17/outbox.cif.g08.bks.cpg/sg76_cif.got.tgz:265.got - 2010.06.03 18:43:17.
