data_PCOD9541975
_publ_section_title
;
Structure prediction by ZEFSAII (Michael W. Deem and Ramdas Pophale) SiO2 
 PCOD9541975
Probable space group: I 4
;
_chemical_formula_sum "Si O2"
_cell_formula_units_Z 60
_cell_length_a 11.847244
_cell_length_b 11.847244
_cell_length_c 22.632173
_cell_angle_alpha 90.000000
_cell_angle_beta 90.000000
_cell_angle_gamma 90.000000
_cell_volume 3176.588215
_symmetry_space_group_name_H-M "I 4"
_symmetry_group_IT_number 79
_symmetry_cell_setting 'tetragonal'
loop_
_space_group_symop_operation_xyz
x,y,z
-y,x,z
-x,-y,z
y,-x,z
1/2+x,1/2+y,1/2+z
1/2-y,1/2+x,1/2+z
1/2-x,1/2-y,1/2+z
1/2+y,1/2-x,1/2+z
loop_
_atom_site_type_symbol
_atom_site_label
_atom_site_fract_x
_atom_site_fract_y
_atom_site_fract_z
Si Si1 0.716450 0.073244 0.173680
Si Si2 0.908962 0.168498 0.368806
Si Si3 0.675316 0.432441 0.193080
Si Si4 0.733749 0.839679 0.493751
Si Si5 0.000000 0.500000 0.118806
Si Si6 0.324684 0.567559 0.544533
Si Si7 0.073244 0.283550 0.563933
Si Si8 0.160321 0.733749 0.243862
O O1 0.584459 0.076234 0.156887
O O2 0.784552 0.082739 0.112352
O O3 0.758315 0.170808 0.216548
O O4 0.735797 0.953229 0.204820
O O5 0.871821 0.234600 0.427360
O O6 0.871821 0.234600 0.310253
O O7 0.043789 0.147175 0.368806
O O8 0.640517 0.561747 0.202431
O O9 0.715448 0.417261 0.125260
O O10 0.774210 0.383398 0.234072
O O11 0.616602 0.774210 0.503540
O O12 0.829192 0.758315 0.521065
O O13 0.735797 0.953229 0.532793
O O14 0.084459 0.576234 0.080726
O O15 0.359483 0.438253 0.535181
#
# Coordination Sequence:
#
# PCOD9541975 Si02
#       8
#     8   8   8   8   4   8   8   8
#     4  12  22  37  63  95 134 166 209 262 325 377
#     4  11  24  44  66  91 128 174 216 262 311 378
#     4  11  23  40  63  94 132 171 209 259 325 391
#     4  12  24  40  64  96 130 169 213 266 314 383
#     4  12  24  36  60 102 136 168 196 268 338 372
#     4  11  23  40  63  94 132 171 209 259 325 391
#     4  12  22  37  63  95 134 166 209 262 325 377
#     4  12  24  40  64  96 130 169 213 266 314 383
#
# _framework density 18.888190000000002
#
# number of rings (size 3 to 8) (size 9 to 14) (size 15 to 20)
#    0.000    0.400    8.000    2.400    0.000    0.533 
#    0.000    1.333    0.000    4.800    0.000    0.000 
#    0.000    0.000    0.000    0.000    0.000    0.000 
#
# Total GULP energy -167801.384392 kJ/mol
# GULP energy per Si atom -5593.379480 kJ/mol
# Density = 1.884520 g / cm^3
# Si number density = 18.888190 Si / 1000 Ang^3
#
#
#
# Elastic Constant Matrix: (Units=GPa)
#
#
# Indices 1 2 3 4 5 6 
#
# 1 95.0934 38.3777 46.3389 0.0000 0.0000 6.7545
# 2 38.3777 95.0934 46.3389 0.0000 0.0000 -6.7545
# 3 46.3389 46.3389 136.1650 0.0000 0.0000 0.0000
# 4 0.0000 0.0000 0.0000 25.4726 0.0000 0.0000
# 5 0.0000 0.0000 0.0000 0.0000 25.4726 0.0000
# 6 6.7545 -6.7545 0.0000 0.0000 0.0000 39.8134
#
#
#
# Elastic Compliance Matrix: (Units=1/GPa)
#
#
# Indices 1 2 3 4 5 6 
#
# 1 0.014092 -0.004282 -0.003339 0.000000 0.000000 -0.003117
# 2 -0.004282 0.014092 -0.003339 0.000000 0.000000 0.003117
# 3 -0.003339 -0.003339 0.009616 0.000000 0.000000 0.000000
# 4 0.000000 0.000000 0.000000 0.039258 0.000000 0.000000
# 5 0.000000 0.000000 0.000000 0.000000 0.039258 0.000000
# 6 -0.003117 0.003117 0.000000 0.000000 0.000000 0.026175
#
#
# Mechanical properties :
#
#
# Convention : Reuss Voigt Hill
#
# Bulk Modulus (GPa) = 62.96115 65.38474 64.17294
# Shear Modulus (GPa) = 29.46299 31.17147 30.31723
#
# Velocity S-wave (km/s) = 3.95379 4.06681 4.01070
# Velocity P-wave (km/s) = 7.36541 7.53285 7.44960
#
# Compressibility (1/GPa) = 0.01588281
#
# Stress axis : x y z
#
# Youngs Moduli (GPa) = 70.96027 70.96027 103.98881
#
# Poissons Ratio (x) = 0.30384 0.34718
# Poissons Ratio (y) = 0.30384 0.34718
# Poissons Ratio (z) = 0.23691 0.23691
#
# Static dielectric constant tensor:
#      x y z
#    x 1.680960 0.000000 0.000000 
#    y 0.000000 1.680960 0.000000 
#    z 0.000000 0.000000 1.602920 
# 
# From -- ./inp_files/1860.got.cif
#   From: 2010.05.17/outbox.cif.g08.bks.cpg/sg79_cif.got.tgz:1860.got - 2010.06.03 18:47:27.
