data_PCOD9541033
_publ_section_title
;
Structure prediction by ZEFSAII (Michael W. Deem and Ramdas Pophale) SiO2 
 PCOD9541033
Probable space group: P 4
;
_chemical_formula_sum "Si O2"
_cell_formula_units_Z 20
_cell_length_a 8.157701
_cell_length_b 8.157701
_cell_length_c 13.247662
_cell_angle_alpha 90.000000
_cell_angle_beta 90.000000
_cell_angle_gamma 90.000000
_cell_volume 881.606545
_symmetry_space_group_name_H-M "P 4"
_symmetry_group_IT_number 75
_symmetry_cell_setting 'tetragonal'
loop_
_space_group_symop_operation_xyz
x,y,z
-y,x,z
-x,-y,z
y,-x,z
loop_
_atom_site_type_symbol
_atom_site_label
_atom_site_fract_x
_atom_site_fract_y
_atom_site_fract_z
Si Si1 0.239506 0.594597 0.174880
Si Si2 0.262604 0.083218 0.981119
Si Si3 0.418605 0.236201 0.788182
Si Si4 0.239505 0.594597 0.401484
Si Si5 0.262605 0.083217 0.595245
O O1 0.298854 0.406776 0.165541
O O2 0.173183 0.619587 0.288182
O O3 0.120457 0.649018 0.086463
O O4 0.375019 0.134843 0.887771
O O5 0.101241 0.198061 0.975233
O O6 0.602675 0.302894 0.788181
O O7 0.375018 0.134840 0.688594
O O8 0.298855 0.406776 0.410823
O O9 0.120457 0.649016 0.489902
O O10 0.101241 0.198061 0.601130
#
# Coordination Sequence:
#
# PCOD9541033 Si02
#       5
#     4   4   4   4   4
#     4   9  19  37  60  85 113 147 190 236 278 326
#     4  11  24  39  56  83 118 151 185 228 278 333
#     4  11  24  41  62  86 110 141 186 235 280 332
#     4   9  19  37  60  85 113 147 190 236 278 326
#     4  11  24  39  56  83 118 151 185 228 278 333
#
# _framework density 22.685856999999999
#
# number of rings (size 3 to 8) (size 9 to 14) (size 15 to 20)
#    0.000    1.800    0.000    4.800    0.000   14.400 
#    0.000    6.000    0.000    0.000    0.000    0.000 
#    0.000    0.000    0.000    0.000    0.000    0.000 
#
# Total GULP energy -112145.423109 kJ/mol
# GULP energy per Si atom -5607.271155 kJ/mol
# Density = 2.263422 g / cm^3
# Si number density = 22.685857 Si / 1000 Ang^3
#
#
#
# Elastic Constant Matrix: (Units=GPa)
#
#
# Indices 1 2 3 4 5 6 
#
# 1 89.7769 60.9529 66.2929 0.0000 0.0000 -0.3119
# 2 60.9529 89.7769 66.2929 0.0000 0.0000 0.3119
# 3 66.2929 66.2929 185.3433 0.0000 0.0000 0.0000
# 4 0.0000 0.0000 0.0000-1317.5751 0.0000 0.0000
# 5 0.0000 0.0000 0.0000 0.0000-1317.5751 0.0000
# 6 -0.3119 0.3119 0.0000 0.0000 0.0000 47.9161
#
#
#
# Elastic Compliance Matrix: (Units=1/GPa)
#
#
# Indices 1 2 3 4 5 6 
#
# 1 0.022189 -0.012509 -0.003462 0.000000 0.000000 0.000226
# 2 -0.012509 0.022189 -0.003462 0.000000 0.000000 -0.000226
# 3 -0.003462 -0.003462 0.007872 0.000000 0.000000 0.000000
# 4 0.000000 0.000000 0.000000 -0.000759 0.000000 0.000000
# 5 0.000000 0.000000 0.000000 0.000000 -0.000759 0.000000
# 6 0.000226 -0.000226 0.000000 0.000000 0.000000 0.020873
#
#
# Mechanical properties :
#
#
# Convention : Reuss Voigt Hill
#
# Bulk Modulus (GPa) = 74.72253 83.55270 79.13762
# Shear Modulus (GPa) = 43.50341 -506.02293 -231.25976
#
# Velocity S-wave (km/s) = 4.38384 -14.95128 -10.10749
# Velocity P-wave (km/s) = 7.65725 16.15995 10.06257
#
# Compressibility (1/GPa) = 0.01338284
#
# Stress axis : x y z
#
# Youngs Moduli (GPa) = 45.06719 45.06719 127.03039
#
# Poissons Ratio (x) = 0.56375 0.43981
# Poissons Ratio (y) = 0.56375 0.43981
# Poissons Ratio (z) = 0.15603 0.15603
#
# Static dielectric constant tensor:
#      x y z
#    x 1.814600 0.000000 0.000000 
#    y 0.000000 1.814600 0.000000 
#    z 0.000000 0.000000 1.778620 
# 
# From -- ./inp_files/496.got.cif
#   From: 2010.05.17/outbox.cif.g08.bks.cpg/sg75_cif.got.tgz:496.got - 2010.06.03 18:42:43.
