data_PCOD9541154
_publ_section_title
;
Structure prediction by ZEFSAII (Michael W. Deem and Ramdas Pophale) SiO2 
 PCOD9541154
Probable space group: P 41
;
_chemical_formula_sum "Si O2"
_cell_formula_units_Z 28
_cell_length_a 8.267634
_cell_length_b 8.267634
_cell_length_c 20.807185
_cell_angle_alpha 90.000000
_cell_angle_beta 90.000000
_cell_angle_gamma 90.000000
_cell_volume 1422.249579
_symmetry_space_group_name_H-M "P 41"
_symmetry_group_IT_number 76
_symmetry_cell_setting 'tetragonal'
loop_
_space_group_symop_operation_xyz
x,y,z
-y,x,1/4+z
-x,-y,1/2+z
y,-x,3/4+z
loop_
_atom_site_type_symbol
_atom_site_label
_atom_site_fract_x
_atom_site_fract_y
_atom_site_fract_z
Si Si1 0.108636 0.356429 0.752530
Si Si2 0.379698 0.588293 0.589340
Si Si3 0.082867 0.375057 0.609459
Si Si4 0.673773 0.116135 0.510477
Si Si5 0.952025 0.899511 0.002330
Si Si6 0.430078 0.473782 0.216583
Si Si7 0.250900 0.745454 0.144878
O O1 0.238794 0.387214 0.806640
O O2 0.162864 0.329998 0.678371
O O3 0.998737 0.519254 0.749314
O O4 0.028446 0.185265 0.769618
O O5 0.195959 0.521118 0.586726
O O6 0.493901 0.487861 0.539591
O O7 0.443282 0.583435 0.662504
O O8 0.078763 0.239620 0.554838
O O9 0.890513 0.381740 0.624264
O O10 0.647453 0.278440 0.468911
O O11 0.666178 0.176860 0.583764
O O12 0.858328 0.053428 0.501023
O O13 0.890161 0.834278 0.933742
O O14 0.368350 0.647207 0.191008
#
# Coordination Sequence:
#
# PCOD9541154 Si02
#       7
#     4   4   4   4   4   4   4
#     4  11  24  45  63  95 137 171 217 278 335 393
#     4  12  24  40  65  97 127 176 215 272 341 399
#     4  10  20  42  64  91 124 164 219 264 330 393
#     4  11  23  42  65  96 131 170 224 271 331 404
#     4  10  22  43  68  94 124 179 218 271 336 404
#     4  12  22  40  67  90 132 171 218 272 331 404
#     4  10  21  40  66  91 123 175 217 266 332 395
#
# _framework density 19.687121999999999
#
# number of rings (size 3 to 8) (size 9 to 14) (size 15 to 20)
#    0.000    1.143    7.143    0.000    2.000    0.000 
#   10.286    0.000    0.000    0.000    0.000    0.000 
#    0.000    0.000    0.000    0.000    0.000    0.000 
#
# Total GULP energy -155903.491345 kJ/mol
# GULP energy per Si atom -5567.981834 kJ/mol
# Density = 1.964231 g / cm^3
# Si number density = 19.687122 Si / 1000 Ang^3
#
#
#
# Elastic Constant Matrix: (Units=GPa)
#
#
# Indices 1 2 3 4 5 6 
#
# 1 73.4099 40.7474 8.8084 0.0000 0.0000 5.9273
# 2 40.7474 73.4099 8.8084 0.0000 0.0000 -5.9273
# 3 8.8084 8.8084 63.6840 0.0000 0.0000 0.0000
# 4 0.0000 0.0000 0.0000 22.9215 0.0000 0.0000
# 5 0.0000 0.0000 0.0000 0.0000 22.9215 0.0000
# 6 5.9273 -5.9273 0.0000 0.0000 0.0000 7.8401
#
#
#
# Elastic Compliance Matrix: (Units=1/GPa)
#
#
# Indices 1 2 3 4 5 6 
#
# 1 0.025573 -0.016622 -0.001238 0.000000 0.000000 -0.031900
# 2 -0.016622 0.025573 -0.001238 0.000000 0.000000 0.031900
# 3 -0.001238 -0.001238 0.016045 0.000000 0.000000 0.000000
# 4 0.000000 0.000000 0.000000 0.043627 0.000000 0.000000
# 5 0.000000 0.000000 0.000000 0.000000 0.043627 0.000000
# 6 -0.031900 0.031900 0.000000 0.000000 0.000000 0.175785
#
#
# Mechanical properties :
#
#
# Convention : Reuss Voigt Hill
#
# Bulk Modulus (GPa) = 34.48909 36.35911 35.42410
# Shear Modulus (GPa) = 13.22436 20.87924 17.05180
#
# Velocity S-wave (km/s) = 2.59458 3.26015 2.94622
# Velocity P-wave (km/s) = 5.15096 5.71664 5.44116
#
# Compressibility (1/GPa) = 0.02899467
#
# Stress axis : x y z
#
# Youngs Moduli (GPa) = 39.10443 39.10443 62.32468
#
# Poissons Ratio (x) = 0.64998 0.07716
# Poissons Ratio (y) = 0.64998 0.07716
# Poissons Ratio (z) = 0.04841 0.04841
#
# Static dielectric constant tensor:
#      x y z
#    x 1.735200 0.000000 0.000000 
#    y 0.000000 1.735200 0.000000 
#    z 0.000000 0.000000 1.713090 
# 
# From -- ./inp_files/1400.got.cif
#   From: 2010.05.17/outbox.cif.g08.bks.cpg/sg76_cif.got.tgz:1400.got - 2010.06.03 18:43:17.
