data_PCOD9541487
_publ_section_title
;
Structure prediction by ZEFSAII (Michael W. Deem and Ramdas Pophale) SiO2 
 PCOD9541487
Probable space group: P 42
;
_chemical_formula_sum "Si O2"
_cell_formula_units_Z 18
_cell_length_a 9.001135
_cell_length_b 9.001135
_cell_length_c 9.600804
_cell_angle_alpha 90.000000
_cell_angle_beta 90.000000
_cell_angle_gamma 90.000000
_cell_volume 777.861281
_symmetry_space_group_name_H-M "P 42"
_symmetry_group_IT_number 77
_symmetry_cell_setting 'tetragonal'
loop_
_space_group_symop_operation_xyz
x,y,z
-y,x,1/2+z
-x,-y,z
y,-x,1/2+z
loop_
_atom_site_type_symbol
_atom_site_label
_atom_site_fract_x
_atom_site_fract_y
_atom_site_fract_z
Si Si1 0.196684 0.455424 0.289240
Si Si2 0.233509 0.306877 0.558620
Si Si3 0.810393 0.844582 0.814008
Si Si4 0.500000 0.500000 0.672028
Si Si5 0.747294 0.031404 0.585571
O O1 0.147075 0.370493 0.427784
O O2 0.172525 0.630293 0.313987
O O3 0.371227 0.428632 0.265366
O O4 0.119915 0.391206 0.150472
O O5 0.145210 0.286773 0.704545
O O6 0.373003 0.414870 0.586067
O O7 0.281936 0.135893 0.529267
O O8 0.839768 0.993867 0.726144
O O9 0.878555 0.827257 0.964555
#
# Coordination Sequence:
#
# PCOD9541487 Si02
#       5
#     4   4   4   2   4
#     4  11  20  41  70 108 145 186 253 311 383 454
#     4   9  22  39  66 103 139 195 237 308 372 450
#     4   9  22  42  71  98 144 198 241 314 370 448
#     4  10  20  36  68 106 136 188 240 316 378 438
#     4  10  22  45  66 106 147 192 251 310 372 452
#
# _framework density 23.140376
#
# number of rings (size 3 to 8) (size 9 to 14) (size 15 to 20)
#    1.333    0.889    0.000    2.667    0.000    5.333 
#    4.000    3.333    0.000    0.000    0.000    0.000 
#    0.000    0.000    0.000    0.000    0.000    0.000 
#
# Total GULP energy -100294.829076 kJ/mol
# GULP energy per Si atom -5571.934949 kJ/mol
# Density = 2.308771 g / cm^3
# Si number density = 23.140376 Si / 1000 Ang^3
#
#
#
# Elastic Constant Matrix: (Units=GPa)
#
#
# Indices 1 2 3 4 5 6 
#
# 1 113.3358 21.2682 55.9884 0.0000 0.0000 0.0671
# 2 21.2682 113.3358 55.9884 0.0000 0.0000 -0.0671
# 3 55.9884 55.9884 193.3254 0.0000 0.0000 0.0000
# 4 0.0000 0.0000 0.0000 41.0328 0.0000 0.0000
# 5 0.0000 0.0000 0.0000 0.0000 41.0328 0.0000
# 6 0.0671 -0.0671 0.0000 0.0000 0.0000 7.8301
#
#
#
# Elastic Compliance Matrix: (Units=1/GPa)
#
#
# Indices 1 2 3 4 5 6 
#
# 1 0.010324 -0.000537 -0.002834 0.000000 0.000000 -0.000093
# 2 -0.000537 0.010324 -0.002834 0.000000 0.000000 0.000093
# 3 -0.002834 -0.002834 0.006814 0.000000 0.000000 0.000000
# 4 0.000000 0.000000 0.000000 0.024371 0.000000 0.000000
# 5 0.000000 0.000000 0.000000 0.000000 0.024371 0.000000
# 6 -0.000093 0.000093 0.000000 0.000000 0.000000 0.127715
#
#
# Mechanical properties :
#
#
# Convention : Reuss Voigt Hill
#
# Bulk Modulus (GPa) = 66.44092 76.27631 71.35861
# Shear Modulus (GPa) = 22.58881 37.09594 29.84238
#
# Velocity S-wave (km/s) = 3.12775 4.00820 3.59503
# Velocity P-wave (km/s) = 6.46670 7.37935 6.93805
#
# Compressibility (1/GPa) = 0.01505097
#
# Stress axis : x y z
#
# Youngs Moduli (GPa) = 96.85754 96.85754 146.74878
#
# Poissons Ratio (x) = 0.05204 0.41595
# Poissons Ratio (y) = 0.05204 0.41595
# Poissons Ratio (z) = 0.27454 0.27454
#
# Static dielectric constant tensor:
#      x y z
#    x 1.924820 0.000000 0.000000 
#    y 0.000000 1.924820 0.000000 
#    z 0.000000 0.000000 1.925480 
# 
# From -- ./inp_files/788.got.cif
#   From: 2010.05.17/outbox.cif.g08.bks.cpg/sg77_cif.got.tgz:788.got - 2010.06.03 18:44:51.
