data_PCOD9541040
_publ_section_title
;
Structure prediction by ZEFSAII (Michael W. Deem and Ramdas Pophale) SiO2 
 PCOD9541040
Probable space group: P 4
;
_chemical_formula_sum "Si O2"
_cell_formula_units_Z 26
_cell_length_a 8.298979
_cell_length_b 8.298979
_cell_length_c 17.671039
_cell_angle_alpha 90.000000
_cell_angle_beta 90.000000
_cell_angle_gamma 90.000000
_cell_volume 1217.058396
_symmetry_space_group_name_H-M "P 4"
_symmetry_group_IT_number 75
_symmetry_cell_setting 'tetragonal'
loop_
_space_group_symop_operation_xyz
x,y,z
-y,x,z
-x,-y,z
y,-x,z
loop_
_atom_site_type_symbol
_atom_site_label
_atom_site_fract_x
_atom_site_fract_y
_atom_site_fract_z
Si Si1 0.500000 0.000000 0.620151
Si Si2 0.139412 0.766348 0.054579
Si Si3 0.748572 0.394991 0.904774
Si Si4 0.593806 0.757534 0.738922
Si Si5 0.908455 0.750547 0.508490
Si Si6 0.197285 0.190357 0.217471
Si Si7 0.723344 0.640807 0.370534
O O1 0.611241 0.891727 0.674988
O O2 0.396512 0.883795 0.565561
O O3 0.212822 0.715986 0.135906
O O4 0.947245 0.789998 0.051899
O O5 0.171950 0.656805 0.982546
O O6 0.702922 0.581694 0.904887
O O7 0.828349 0.368855 0.822694
O O8 0.406601 0.697908 0.733067
O O9 0.867713 0.706026 0.422103
O O10 0.092529 0.801048 0.521434
O O11 0.259370 0.304674 0.283711
O O12 0.003700 0.216456 0.223562
O O13 0.548042 0.713129 0.389111
#
# Coordination Sequence:
#
# PCOD9541040 Si02
#       7
#     2   4   4   4   4   4   4
#     4  12  22  38  64  90 114 152 204 254 300 362
#     4   9  19  35  55  82 115 150 191 238 289 348
#     4   9  19  35  54  79 113 151 192 237 288 347
#     4   9  20  38  58  83 116 153 193 243 301 356
#     4  11  24  41  61  87 119 153 192 244 303 360
#     4   9  19  37  59  83 114 152 192 237 292 353
#     4  11  24  40  59  86 118 152 194 243 295 354
#
# _framework density 21.362984000000001
#
# number of rings (size 3 to 8) (size 9 to 14) (size 15 to 20)
#    0.000    2.154    0.000    4.615    0.000    7.385 
#    0.000    6.154    0.000    1.846    0.000    0.000 
#    0.000    0.000    0.000    0.000    0.000    0.000 
#
# Total GULP energy -144905.003495 kJ/mol
# GULP energy per Si atom -5573.269365 kJ/mol
# Density = 2.131436 g / cm^3
# Si number density = 21.362984 Si / 1000 Ang^3
#
#
#
# Elastic Constant Matrix: (Units=GPa)
#
#
# Indices 1 2 3 4 5 6 
#
# 1 28.2565 21.6879 35.5489 0.0000 0.0000 9.4549
# 2 21.6879 28.2565 35.5489 0.0000 0.0000 -9.4549
# 3 35.5489 35.5489 156.0021 0.0000 0.0000 0.0000
# 4 0.0000 0.0000 0.0000 35.3391 0.0000 0.0000
# 5 0.0000 0.0000 0.0000 0.0000 35.3391 0.0000
# 6 9.4549 -9.4549 0.0000 0.0000 0.0000 16.0646
#
#
#
# Elastic Compliance Matrix: (Units=1/GPa)
#
#
# Indices 1 2 3 4 5 6 
#
# 1 -0.094813 0.124449 -0.006753 0.000000 0.000000 0.129047
# 2 0.124449 -0.094813 -0.006753 0.000000 0.000000 -0.129047
# 3 -0.006753 -0.006753 0.009488 0.000000 0.000000 0.000000
# 4 0.000000 0.000000 0.000000 0.028297 0.000000 0.000000
# 5 0.000000 0.000000 0.000000 0.000000 0.028297 0.000000
# 6 0.129047 -0.129047 0.000000 0.000000 0.000000 -0.089654
#
#
# Mechanical properties :
#
#
# Convention : Reuss Voigt Hill
#
# Bulk Modulus (GPa) = 23.95410 44.23184 34.09297
# Shear Modulus (GPa) = -11.87178 25.33051 6.72937
#
# Velocity S-wave (km/s) = -2.35992 3.44716 1.77675
# Velocity P-wave (km/s) = 1.95233 6.04928 4.49474
#
# Compressibility (1/GPa) = 0.04174650
#
# Stress axis : x y z
#
# Youngs Moduli (GPa) = -10.54706 -10.54706 105.39683
#
# Poissons Ratio (x) = 1.31257 0.71177
# Poissons Ratio (y) = 1.31257 0.71177
# Poissons Ratio (z) = -0.07123 -0.07123
#
# Static dielectric constant tensor:
#      x y z
#    x 1.791260 0.000000 0.000000 
#    y 0.000000 1.791260 0.000000 
#    z 0.000000 0.000000 1.828270 
# 
# From -- ./inp_files/732.got.cif
#   From: 2010.05.17/outbox.cif.g08.bks.cpg/sg75_cif.got.tgz:732.got - 2010.06.03 18:42:43.
