data_PCOD9541688
_publ_section_title
;
Structure prediction by ZEFSAII (Michael W. Deem and Ramdas Pophale) SiO2 
 PCOD9541688
Probable space group: P 43
;
_chemical_formula_sum "Si O2"
_cell_formula_units_Z 28
_cell_length_a 12.045332
_cell_length_b 12.045332
_cell_length_c 7.821008
_cell_angle_alpha 90.000000
_cell_angle_beta 90.000000
_cell_angle_gamma 90.000000
_cell_volume 1134.750231
_symmetry_space_group_name_H-M "P 43"
_symmetry_group_IT_number 78
_symmetry_cell_setting 'tetragonal'
loop_
_space_group_symop_operation_xyz
x,y,z
-y,x,3/4+z
-x,-y,1/2+z
y,-x,1/4+z
loop_
_atom_site_type_symbol
_atom_site_label
_atom_site_fract_x
_atom_site_fract_y
_atom_site_fract_z
Si Si1 0.420043 0.915541 0.192030
Si Si2 0.118291 0.678182 0.926962
Si Si3 0.947894 0.240320 0.056049
Si Si4 0.073760 0.890926 0.110073
Si Si5 0.756833 0.633719 0.125376
Si Si6 0.381006 0.559334 0.473447
Si Si7 0.201628 0.298743 0.256903
O O1 0.552059 0.917417 0.204026
O O2 0.367556 0.855581 0.357996
O O3 0.355066 0.032052 0.201542
O O4 0.386540 0.843410 0.026580
O O5 0.058793 0.724383 0.755038
O O6 0.251305 0.689860 0.899640
O O7 0.093859 0.761821 0.082035
O O8 0.831598 0.180801 0.020734
O O9 0.042820 0.158305 0.983291
O O10 0.951405 0.909690 0.180089
O O11 0.672945 0.531032 0.101210
O O12 0.817643 0.647690 0.942736
O O13 0.398855 0.498066 0.296140
O O14 0.305753 0.666812 0.470121
#
# Coordination Sequence:
#
# PCOD9541688 Si02
#       7
#     4   4   4   4   4   4   4
#     4  12  25  49  79 110 159 209 257 332 405 482
#     4  11  27  49  76 116 160 206 272 336 406 490
#     4  11  25  51  75 115 155 208 269 334 400 486
#     4  12  26  50  81 113 153 208 272 335 408 476
#     4  10  22  46  70 109 153 205 261 321 390 473
#     4  10  22  39  67 105 145 200 254 322 378 467
#     4  10  25  46  74 110 155 202 265 322 395 478
#
# _framework density 24.675032000000002
#
# number of rings (size 3 to 8) (size 9 to 14) (size 15 to 20)
#    0.000    1.143    1.429    4.286    4.000    4.571 
#   12.857    0.000    0.000    0.000    0.000    0.000 
#    0.000    0.000    0.000    0.000    0.000    0.000 
#
# Total GULP energy -156919.420794 kJ/mol
# GULP energy per Si atom -5604.265028 kJ/mol
# Density = 2.461887 g / cm^3
# Si number density = 24.675032 Si / 1000 Ang^3
#
#
#
# Elastic Constant Matrix: (Units=GPa)
#
#
# Indices 1 2 3 4 5 6 
#
# 1 133.7543 31.1377 54.7005 0.0000 0.0000 1.2990
# 2 31.1377 133.7543 54.7005 0.0000 0.0000 -1.2990
# 3 54.7005 54.7005 105.6448 0.0000 0.0000 0.0000
# 4 0.0000 0.0000 0.0000 38.7683 0.0000 0.0000
# 5 0.0000 0.0000 0.0000 0.0000 38.7683 0.0000
# 6 1.2990 -1.2990 0.0000 0.0000 0.0000 22.8195
#
#
#
# Elastic Compliance Matrix: (Units=1/GPa)
#
#
# Indices 1 2 3 4 5 6 
#
# 1 0.009499 -0.000260 -0.004783 0.000000 0.000000 -0.000556
# 2 -0.000260 0.009499 -0.004783 0.000000 0.000000 0.000556
# 3 -0.004783 -0.004783 0.014419 0.000000 0.000000 0.000000
# 4 0.000000 0.000000 0.000000 0.025794 0.000000 0.000000
# 5 0.000000 0.000000 0.000000 0.000000 0.025794 0.000000
# 6 -0.000556 0.000556 0.000000 0.000000 0.000000 0.043885
#
#
# Mechanical properties :
#
#
# Convention : Reuss Voigt Hill
#
# Bulk Modulus (GPa) = 72.66313 72.69232 72.67773
# Shear Modulus (GPa) = 32.65160 35.57888 34.11524
#
# Velocity S-wave (km/s) = 3.64162 3.80135 3.72234
# Velocity P-wave (km/s) = 6.86977 6.98505 6.92765
#
# Compressibility (1/GPa) = 0.01376214
#
# Stress axis : x y z
#
# Youngs Moduli (GPa) = 105.27843 105.27843 69.35260
#
# Poissons Ratio (x) = 0.02742 0.33174
# Poissons Ratio (y) = 0.02742 0.33174
# Poissons Ratio (z) = 0.50358 0.50358
#
# Static dielectric constant tensor:
#      x y z
#    x 1.958120 0.000000 0.000000 
#    y 0.000000 1.958120 0.000000 
#    z 0.000000 0.000000 1.958530 
# 
# From -- ./inp_files/637.got.cif
#   From: 2010.05.17/outbox.cif.g08.bks.cpg/sg78_cif.got.tgz:637.got - 2010.06.03 18:45:56.
