data_PCOD9541576
_publ_section_title
;
Structure prediction by ZEFSAII (Michael W. Deem and Ramdas Pophale) SiO2 
 PCOD9541576
Probable space group: P 42
;
_chemical_formula_sum "Si O2"
_cell_formula_units_Z 20
_cell_length_a 8.306075
_cell_length_b 8.306075
_cell_length_c 12.274541
_cell_angle_alpha 90.000000
_cell_angle_beta 90.000000
_cell_angle_gamma 90.000000
_cell_volume 846.831409
_symmetry_space_group_name_H-M "P 42"
_symmetry_group_IT_number 77
_symmetry_cell_setting 'tetragonal'
loop_
_space_group_symop_operation_xyz
x,y,z
-y,x,1/2+z
-x,-y,z
y,-x,1/2+z
loop_
_atom_site_type_symbol
_atom_site_label
_atom_site_fract_x
_atom_site_fract_y
_atom_site_fract_z
Si Si1 0.500000 0.500000 0.238720
Si Si2 0.687253 0.036009 0.137195
Si Si3 0.000000 0.500000 0.036155
Si Si4 0.968977 0.806974 0.415477
Si Si5 0.181851 0.304499 0.193709
Si Si6 0.223014 0.325771 0.863609
O O1 0.342324 0.417939 0.180188
O O2 0.577942 0.369989 0.316398
O O3 0.775176 0.867830 0.148007
O O4 0.500000 0.000000 0.118784
O O5 0.704225 0.118693 0.254180
O O6 0.762863 0.115144 0.029722
O O7 0.135342 0.439723 0.951174
O O8 0.025415 0.360912 0.126705
O O9 0.866568 0.727589 0.318724
O O10 0.150111 0.735774 0.410017
O O11 0.000000 0.000000 0.405059
#
# Coordination Sequence:
#
# PCOD9541576 Si02
#       6
#     2   4   2   4   4   4
#     4  12  28  50  76 106 156 198 250 318 378 462
#     4  12  26  51  74 108 156 202 254 313 383 461
#     4  12  26  50  80 112 154 196 258 320 382 464
#     4  12  29  48  80 113 151 201 260 316 384 465
#     4  12  27  51  77 113 152 204 255 318 388 457
#     4  12  26  51  75 111 155 201 256 314 387 459
#
# _framework density 23.617455
#
# number of rings (size 3 to 8) (size 9 to 14) (size 15 to 20)
#    0.000    0.000    7.000    1.200    7.000    2.400 
#    0.000    0.000    0.000    0.000    0.000    0.000 
#    0.000    0.000    0.000    0.000    0.000    0.000 
#
# Total GULP energy -111679.937973 kJ/mol
# GULP energy per Si atom -5583.996899 kJ/mol
# Density = 2.356370 g / cm^3
# Si number density = 23.617455 Si / 1000 Ang^3
#
#
#
# Elastic Constant Matrix: (Units=GPa)
#
#
# Indices 1 2 3 4 5 6 
#
# 1 21.5095 11.0516 26.6237 0.0000 0.0000 -4.2485
# 2 11.0516 21.5095 26.6237 0.0000 0.0000 4.2485
# 3 26.6237 26.6237 184.9219 0.0000 0.0000 0.0000
# 4 0.0000 0.0000 0.0000 44.8495 0.0000 0.0000
# 5 0.0000 0.0000 0.0000 0.0000 44.8495 0.0000
# 6 -4.2485 4.2485 0.0000 0.0000 0.0000 33.9872
#
#
#
# Elastic Compliance Matrix: (Units=1/GPa)
#
#
# Indices 1 2 3 4 5 6 
#
# 1 0.073300 -0.033131 -0.005783 0.000000 0.000000 0.013304
# 2 -0.033131 0.073300 -0.005783 0.000000 0.000000 -0.013304
# 3 -0.005783 -0.005783 0.007073 0.000000 0.000000 0.000000
# 4 0.000000 0.000000 0.000000 0.022297 0.000000 0.000000
# 5 0.000000 0.000000 0.000000 0.000000 0.022297 0.000000
# 6 0.013304 -0.013304 0.000000 0.000000 0.000000 0.032749
#
#
# Mechanical properties :
#
#
# Convention : Reuss Voigt Hill
#
# Bulk Modulus (GPa) = 15.55744 39.61542 27.58643
# Shear Modulus (GPa) = 14.62685 35.64669 25.13677
#
# Velocity S-wave (km/s) = 2.49132 3.88923 3.26595
# Velocity P-wave (km/s) = 3.85709 6.08098 5.09193
#
# Compressibility (1/GPa) = 0.06427791
#
# Stress axis : x y z
#
# Youngs Moduli (GPa) = 13.64254 13.64254 141.38380
#
# Poissons Ratio (x) = 0.45199 0.81766
# Poissons Ratio (y) = 0.45199 0.81766
# Poissons Ratio (z) = 0.07890 0.07890
#
# Static dielectric constant tensor:
#      x y z
#    x 1.878590 0.000000 0.000000 
#    y 0.000000 1.878590 0.000000 
#    z 0.000000 0.000000 1.943570 
# 
# From -- ./inp_files/823.got.cif
#   From: 2010.05.17/outbox.cif.g08.bks.cpg/sg77_cif.got.tgz:823.got - 2010.06.03 18:44:51.
