data_PCOD9541114
_publ_section_title
;
Structure prediction by ZEFSAII (Michael W. Deem and Ramdas Pophale) SiO2 
 PCOD9541114
Probable space group: P 41
;
_chemical_formula_sum "Si O2"
_cell_formula_units_Z 32
_cell_length_a 9.247725
_cell_length_b 9.247725
_cell_length_c 18.535451
_cell_angle_alpha 90.000000
_cell_angle_beta 90.000000
_cell_angle_gamma 90.000000
_cell_volume 1585.159511
_symmetry_space_group_name_H-M "P 41"
_symmetry_group_IT_number 76
_symmetry_cell_setting 'tetragonal'
loop_
_space_group_symop_operation_xyz
x,y,z
-y,x,1/4+z
-x,-y,1/2+z
y,-x,3/4+z
loop_
_atom_site_type_symbol
_atom_site_label
_atom_site_fract_x
_atom_site_fract_y
_atom_site_fract_z
Si Si1 0.774812 0.907386 0.340310
Si Si2 0.348551 0.353631 0.142945
Si Si3 0.222275 0.012343 0.496979
Si Si4 0.350182 0.647237 0.676820
Si Si5 0.986554 0.778138 0.071814
Si Si6 0.471239 0.122658 0.030352
Si Si7 0.910250 0.775814 0.729161
Si Si8 0.121528 0.471437 0.039287
O O1 0.712277 0.751881 0.365014
O O2 0.890961 0.883611 0.279011
O O3 0.831997 0.997449 0.409998
O O4 0.646453 0.004126 0.310778
O O5 0.498840 0.430139 0.161029
O O6 0.407688 0.215731 0.096891
O O7 0.244488 0.286832 0.203385
O O8 0.245527 0.463654 0.100489
O O9 0.225912 0.999359 0.409401
O O10 0.161014 0.160182 0.534350
O O11 0.378293 0.962483 0.528283
O O12 0.245464 0.537846 0.718648
O O13 0.406485 0.786563 0.722687
O O14 0.036882 0.622220 0.040515
O O15 0.107554 0.884619 0.040015
O O16 0.352435 0.005354 0.010034
#
# Coordination Sequence:
#
# PCOD9541114 Si02
#       8
#     4   4   4   4   4   4   4   4
#     4  10  22  40  64  95 128 170 220 268 327 397
#     4  10  19  39  70  94 125 174 224 267 321 399
#     4  12  26  42  63  95 132 168 216 272 337 392
#     4  10  19  39  70  94 125 174 224 267 321 399
#     4  12  26  42  63  95 132 168 216 272 337 392
#     4  10  23  41  65  96 132 167 222 272 324 391
#     4  10  22  40  64  95 128 170 220 268 327 397
#     4  10  23  41  65  96 132 167 222 272 324 391
#
# _framework density 20.187245000000001
#
# number of rings (size 3 to 8) (size 9 to 14) (size 15 to 20)
#    0.000    1.500    2.500    3.000   10.500    0.000 
#    0.000    5.000    0.000    0.000    0.000    0.000 
#    0.000    0.000    0.000    0.000    0.000    0.000 
#
# Total GULP energy -178284.929830 kJ/mol
# GULP energy per Si atom -5571.404057 kJ/mol
# Density = 2.014130 g / cm^3
# Si number density = 20.187245 Si / 1000 Ang^3
#
#
#
# Elastic Constant Matrix: (Units=GPa)
#
#
# Indices 1 2 3 4 5 6 
#
# 1 77.8537 60.1289 -1.7503 0.0000 0.0000 -0.9263
# 2 60.1289 77.8537 -1.7503 0.0000 0.0000 0.9263
# 3 -1.7503 -1.7503 17.9637 0.0000 0.0000 0.0000
# 4 0.0000 0.0000 0.0000 25.2697 0.0000 0.0000
# 5 0.0000 0.0000 0.0000 0.0000 25.2697 0.0000
# 6 -0.9263 0.9263 0.0000 0.0000 0.0000 31.8446
#
#
#
# Elastic Compliance Matrix: (Units=1/GPa)
#
#
# Indices 1 2 3 4 5 6 
#
# 1 0.031928 -0.024662 0.000708 0.000000 0.000000 0.001646
# 2 -0.024662 0.031928 0.000708 0.000000 0.000000 -0.001646
# 3 0.000708 0.000708 0.055806 0.000000 0.000000 0.000000
# 4 0.000000 0.000000 0.000000 0.039573 0.000000 0.000000
# 5 0.000000 0.000000 0.000000 0.000000 0.039573 0.000000
# 6 0.001646 -0.001646 0.000000 0.000000 0.000000 0.031498
#
#
# Mechanical properties :
#
#
# Convention : Reuss Voigt Hill
#
# Bulk Modulus (GPa) = 13.66724 31.88089 22.77407
# Shear Modulus (GPa) = 16.60091 24.27964 20.44027
#
# Velocity S-wave (km/s) = 2.87077 3.47179 3.18549
# Velocity P-wave (km/s) = 4.21585 5.64783 4.98354
#
# Compressibility (1/GPa) = 0.07316767
#
# Stress axis : x y z
#
# Youngs Moduli (GPa) = 31.32077 31.32077 17.91932
#
# Poissons Ratio (x) = 0.77245 -0.01268
# Poissons Ratio (y) = 0.77245 -0.01268
# Poissons Ratio (z) = -0.02217 -0.02217
#
# Static dielectric constant tensor:
#      x y z
#    x 1.717750 0.000000 0.000000 
#    y 0.000000 1.717750 0.000000 
#    z 0.000000 0.000000 2.287880 
# 
# From -- ./inp_files/1476.got.cif
#   From: 2010.05.17/outbox.cif.g08.bks.cpg/sg76_cif.got.tgz:1476.got - 2010.06.03 18:43:17.
