data_PCOD9541927
_publ_section_title
;
Structure prediction by ZEFSAII (Michael W. Deem and Ramdas Pophale) SiO2 
 PCOD9541927
Probable space group: I 4
;
_chemical_formula_sum "Si O2"
_cell_formula_units_Z 34
_cell_length_a 11.212484
_cell_length_b 11.212484
_cell_length_c 13.033650
_cell_angle_alpha 90.000000
_cell_angle_beta 90.000000
_cell_angle_gamma 90.000000
_cell_volume 1638.587838
_symmetry_space_group_name_H-M "I 4"
_symmetry_group_IT_number 79
_symmetry_cell_setting 'tetragonal'
loop_
_space_group_symop_operation_xyz
x,y,z
-y,x,z
-x,-y,z
y,-x,z
1/2+x,1/2+y,1/2+z
1/2-y,1/2+x,1/2+z
1/2-x,1/2-y,1/2+z
1/2+y,1/2-x,1/2+z
loop_
_atom_site_type_symbol
_atom_site_label
_atom_site_fract_x
_atom_site_fract_y
_atom_site_fract_z
Si Si1 0.377913 0.937871 0.702410
Si Si2 0.237707 0.418432 0.514379
Si Si3 0.314453 0.831305 0.909118
Si Si4 0.459984 0.696279 0.070071
Si Si5 0.000000 0.000000 0.078006
O O1 0.399514 0.863801 0.598599
O O2 0.333544 0.846974 0.788793
O O3 0.534070 0.796143 0.448924
O O4 0.500000 0.000000 0.736397
O O5 0.258941 0.303404 0.442596
O O6 0.961745 0.281900 0.669176
O O7 0.363698 0.444216 0.569427
O O8 0.424832 0.772217 0.969865
O O9 0.365885 0.588806 0.072130
#
# Coordination Sequence:
#
# PCOD9541927 Si02
#       5
#     8   8   8   8   2
#     4  12  26  42  75 104 138 190 239 289 361 424
#     4  10  22  47  69  98 141 175 236 297 344 428
#     4  11  25  44  73 101 139 184 236 292 360 419
#     4  11  25  48  68 101 148 186 236 298 352 426
#     4   8  20  44  68  92 124 178 216 296 352 388
#
# _framework density 20.749575
#
# number of rings (size 3 to 8) (size 9 to 14) (size 15 to 20)
#    0.000    1.176    4.706    0.000    6.588    0.000 
#    8.471    0.000    0.000    0.000    0.000    0.000 
#    0.000    0.000    0.000    0.000    0.000    0.000 
#
# Total GULP energy -94703.180955 kJ/mol
# GULP energy per Si atom -5570.775350 kJ/mol
# Density = 2.070235 g / cm^3
# Si number density = 20.749575 Si / 1000 Ang^3
#
#
#
# Elastic Constant Matrix: (Units=GPa)
#
#
# Indices 1 2 3 4 5 6 
#
# 1 93.2774 7.5716 2.1163 0.0000 0.0000 0.5257
# 2 7.5716 93.2774 2.1163 0.0000 0.0000 -0.5257
# 3 2.1163 2.1163 47.2716 0.0000 0.0000 0.0000
# 4 0.0000 0.0000 0.0000 25.3187 0.0000 0.0000
# 5 0.0000 0.0000 0.0000 0.0000 25.3187 0.0000
# 6 0.5257 -0.5257 0.0000 0.0000 0.0000 47.2771
#
#
#
# Elastic Compliance Matrix: (Units=1/GPa)
#
#
# Indices 1 2 3 4 5 6 
#
# 1 0.010802 -0.000867 -0.000445 0.000000 0.000000 -0.000130
# 2 -0.000867 0.010802 -0.000445 0.000000 0.000000 0.000130
# 3 -0.000445 -0.000445 0.021194 0.000000 0.000000 0.000000
# 4 0.000000 0.000000 0.000000 0.039497 0.000000 0.000000
# 5 0.000000 0.000000 0.000000 0.000000 0.039497 0.000000
# 6 -0.000130 0.000130 0.000000 0.000000 0.000000 0.021155
#
#
# Mechanical properties :
#
#
# Convention : Reuss Voigt Hill
#
# Bulk Modulus (GPa) = 25.45560 28.60388 27.02974
# Shear Modulus (GPa) = 31.33724 34.38436 32.86080
#
# Velocity S-wave (km/s) = 3.89042 4.07518 3.98387
# Velocity P-wave (km/s) = 5.69870 5.99650 5.84949
#
# Compressibility (1/GPa) = 0.03928409
#
# Stress axis : x y z
#
# Youngs Moduli (GPa) = 92.57585 92.57585 47.18275
#
# Poissons Ratio (x) = 0.08031 0.02099
# Poissons Ratio (y) = 0.08031 0.02099
# Poissons Ratio (z) = 0.04117 0.04117
#
# Static dielectric constant tensor:
#      x y z
#    x 1.754780 0.000000 0.000000 
#    y 0.000000 1.754780 0.000000 
#    z 0.000000 0.000000 1.703750 
# 
# From -- ./inp_files/964.got.cif
#   From: 2010.05.17/outbox.cif.g08.bks.cpg/sg79_cif.got.tgz:964.got - 2010.06.03 18:47:27.
