data_PCOD9541334
_publ_section_title
;
Structure prediction by ZEFSAII (Michael W. Deem and Ramdas Pophale) SiO2 
 PCOD9541334
Probable space group: P 41
;
_chemical_formula_sum "Si O2"
_cell_formula_units_Z 32
_cell_length_a 8.596333
_cell_length_b 8.596333
_cell_length_c 19.128598
_cell_angle_alpha 90.000000
_cell_angle_beta 90.000000
_cell_angle_gamma 90.000000
_cell_volume 1413.544879
_symmetry_space_group_name_H-M "P 41"
_symmetry_group_IT_number 76
_symmetry_cell_setting 'tetragonal'
loop_
_space_group_symop_operation_xyz
x,y,z
-y,x,1/4+z
-x,-y,1/2+z
y,-x,3/4+z
loop_
_atom_site_type_symbol
_atom_site_label
_atom_site_fract_x
_atom_site_fract_y
_atom_site_fract_z
Si Si1 0.098060 0.844716 0.876210
Si Si2 0.756085 0.883158 0.944380
Si Si3 0.380441 0.464014 0.689650
Si Si4 0.372669 0.244533 0.306175
Si Si5 0.576784 0.093881 0.028726
Si Si6 0.251682 0.963734 0.994902
Si Si7 0.496502 0.806601 0.669574
Si Si8 0.375210 0.372714 0.540808
O O1 0.928846 0.863925 0.913558
O O2 0.078841 0.847833 0.793099
O O3 0.212243 0.965411 0.913625
O O4 0.157162 0.669646 0.891571
O O5 0.637275 0.826504 0.883225
O O6 0.711959 0.775673 0.010234
O O7 0.717422 0.049886 0.977609
O O8 0.254851 0.492151 0.749616
O O9 0.461777 0.623867 0.666521
O O10 0.310037 0.403300 0.617631
O O11 0.502235 0.352680 0.728729
O O12 0.206460 0.204409 0.272062
O O13 0.498420 0.168770 0.253412
O O14 0.376377 0.434754 0.303528
O O15 0.432669 0.979344 0.013149
O O16 0.608022 0.106751 0.111563
#
# Coordination Sequence:
#
# PCOD9541334 Si02
#       8
#     4   4   4   4   4   4   4   4
#     4   9  20  37  63  85 117 158 212 246 302 372
#     4  11  22  37  64  92 124 160 203 261 314 381
#     4  11  22  37  61  92 129 156 210 261 314 373
#     4   9  18  34  62  90 108 157 218 252 290 369
#     4  11  22  39  62  92 126 161 201 263 322 372
#     4   9  18  38  59  82 113 160 203 248 292 373
#     4   9  20  38  62  85 123 163 204 256 313 371
#     4  11  20  36  61  90 122 157 207 261 309 361
#
# _framework density 22.638117999999999
#
# number of rings (size 3 to 8) (size 9 to 14) (size 15 to 20)
#    0.000    2.000    3.750    0.000    0.000    3.000 
#    4.500    0.000    2.750    0.000    0.000    0.000 
#    0.000    0.000    0.000    0.000    0.000    0.000 
#
# Total GULP energy -178241.189874 kJ/mol
# GULP energy per Si atom -5570.037184 kJ/mol
# Density = 2.258659 g / cm^3
# Si number density = 22.638118 Si / 1000 Ang^3
#
#
#
# Elastic Constant Matrix: (Units=GPa)
#
#
# Indices 1 2 3 4 5 6 
#
# 1 22.0504 14.1349 -0.4614 0.0000 0.0000 -2.0601
# 2 14.1349 22.0504 -0.4614 0.0000 0.0000 2.0601
# 3 -0.4614 -0.4614 55.8730 0.0000 0.0000 0.0000
# 4 0.0000 0.0000 0.0000 31.3098 0.0000 0.0000
# 5 0.0000 0.0000 0.0000 0.0000 31.3098 0.0000
# 6 -2.0601 2.0601 0.0000 0.0000 0.0000 22.6819
#
#
#
# Elastic Compliance Matrix: (Units=1/GPa)
#
#
# Indices 1 2 3 4 5 6 
#
# 1 0.080122 -0.052481 0.000228 0.000000 0.000000 0.012044
# 2 -0.052481 0.080122 0.000228 0.000000 0.000000 -0.012044
# 3 0.000228 0.000228 0.017901 0.000000 0.000000 0.000000
# 4 0.000000 0.000000 0.000000 0.031939 0.000000 0.000000
# 5 0.000000 0.000000 0.000000 0.000000 0.031939 0.000000
# 6 0.012044 -0.012044 0.000000 0.000000 0.000000 0.046276
#
#
# Mechanical properties :
#
#
# Convention : Reuss Voigt Hill
#
# Bulk Modulus (GPa) = 13.49580 14.04425 13.77002
# Shear Modulus (GPa) = 11.98908 22.84442 17.41675
#
# Velocity S-wave (km/s) = 2.30379 3.18010 2.77673
# Velocity P-wave (km/s) = 3.61263 4.43862 4.04675
#
# Compressibility (1/GPa) = 0.07409714
#
# Stress axis : x y z
#
# Youngs Moduli (GPa) = 12.48098 12.48098 55.86128
#
# Poissons Ratio (x) = 0.65501 -0.01275
# Poissons Ratio (y) = 0.65501 -0.01275
# Poissons Ratio (z) = -0.00285 -0.00285
#
# Static dielectric constant tensor:
#      x y z
#    x 1.936360 0.000000 0.000000 
#    y 0.000000 1.936360 0.000000 
#    z 0.000000 0.000000 1.890750 
# 
# From -- ./inp_files/1418.got.cif
#   From: 2010.05.17/outbox.cif.g08.bks.cpg/sg76_cif.got.tgz:1418.got - 2010.06.03 18:43:17.
