data_PCOD9541855
_publ_section_title
;
Structure prediction by ZEFSAII (Michael W. Deem and Ramdas Pophale) SiO2 
 PCOD9541855
Probable space group: I 4
;
_chemical_formula_sum "Si O2"
_cell_formula_units_Z 58
_cell_length_a 16.559925
_cell_length_b 16.559925
_cell_length_c 8.589684
_cell_angle_alpha 90.000000
_cell_angle_beta 90.000000
_cell_angle_gamma 90.000000
_cell_volume 2355.558629
_symmetry_space_group_name_H-M "I 4"
_symmetry_group_IT_number 79
_symmetry_cell_setting 'tetragonal'
loop_
_space_group_symop_operation_xyz
x,y,z
-y,x,z
-x,-y,z
y,-x,z
1/2+x,1/2+y,1/2+z
1/2-y,1/2+x,1/2+z
1/2-x,1/2-y,1/2+z
1/2+y,1/2-x,1/2+z
loop_
_atom_site_type_symbol
_atom_site_label
_atom_site_fract_x
_atom_site_fract_y
_atom_site_fract_z
Si Si1 0.401782 0.407043 0.647680
Si Si2 0.214743 0.181258 0.928559
Si Si3 0.000000 0.000000 0.567945
Si Si4 0.921336 0.460213 0.482529
Si Si5 0.365960 0.117343 0.787579
Si Si6 0.100049 0.846523 0.492792
Si Si7 0.991686 0.690458 0.468558
Si Si8 0.730309 0.147603 0.665440
O O1 0.496693 0.390334 0.643853
O O2 0.357371 0.369372 0.501102
O O3 0.369018 0.379163 0.814373
O O4 0.271652 0.136305 0.802772
O O5 0.175539 0.258831 0.843998
O O6 0.277403 0.193283 0.070524
O O7 0.031620 0.906789 0.554273
O O8 0.884101 0.405446 0.618152
O O9 0.881134 0.535125 0.391402
O O10 0.000000 0.500000 0.562878
O O11 0.963321 0.386671 0.388723
O O12 0.413075 0.194292 0.860096
O O13 0.179112 0.857969 0.596765
O O14 0.055692 0.760398 0.482927
O O15 0.938792 0.686934 0.630922
#
# Coordination Sequence:
#
# PCOD9541855 Si02
#       8
#     8   8   2   8   8   8   8   8
#     4  11  23  45  69 100 135 183 238 291 350 427
#     4  11  26  46  66 102 141 185 238 291 365 432
#     4  12  20  40  72 102 132 188 244 278 352 428
#     4  10  20  41  63  96 135 175 231 287 349 421
#     4  10  23  42  64  99 138 183 235 289 355 425
#     4  12  21  42  71 101 135 183 237 290 346 423
#     4  10  22  38  67  95 130 177 228 282 345 411
#     4  11  24  45  65  97 140 178 233 292 351 422
#
# _framework density 24.622610999999999
#
# number of rings (size 3 to 8) (size 9 to 14) (size 15 to 20)
#    0.000    1.241    2.759    2.897    1.931    3.310 
#   12.414    0.000    0.000    0.000    0.000    0.000 
#    0.000    0.000    0.000    0.000    0.000    0.000 
#
# Total GULP energy -161535.165949 kJ/mol
# GULP energy per Si atom -5570.178136 kJ/mol
# Density = 2.456657 g / cm^3
# Si number density = 24.622611 Si / 1000 Ang^3
#
#
#
# Elastic Constant Matrix: (Units=GPa)
#
#
# Indices 1 2 3 4 5 6 
#
# 1 127.6425 -8.7400 20.0733 0.0000 0.0000 3.7767
# 2 -8.7400 127.6425 20.0733 0.0000 0.0000 -3.7767
# 3 20.0733 20.0733 67.5665 0.0000 0.0000 0.0000
# 4 0.0000 0.0000 0.0000 27.6827 0.0000 0.0000
# 5 0.0000 0.0000 0.0000 0.0000 27.6827 0.0000
# 6 3.7767 -3.7767 0.0000 0.0000 0.0000 25.7789
#
#
#
# Elastic Compliance Matrix: (Units=1/GPa)
#
#
# Indices 1 2 3 4 5 6 
#
# 1 0.008370 0.000978 -0.002777 0.000000 0.000000 -0.001083
# 2 0.000978 0.008370 -0.002777 0.000000 0.000000 0.001083
# 3 -0.002777 -0.002777 0.016450 0.000000 0.000000 0.000000
# 4 0.000000 0.000000 0.000000 0.036124 0.000000 0.000000
# 5 0.000000 0.000000 0.000000 0.000000 0.036124 0.000000
# 6 -0.001083 0.001083 0.000000 0.000000 0.000000 0.039109
#
#
# Mechanical properties :
#
#
# Convention : Reuss Voigt Hill
#
# Bulk Modulus (GPa) = 41.60157 42.85164 42.22661
# Shear Modulus (GPa) = 30.91914 35.65853 33.28883
#
# Velocity S-wave (km/s) = 3.54746 3.80965 3.68089
# Velocity P-wave (km/s) = 5.80617 6.06568 5.93734
#
# Compressibility (1/GPa) = 0.02403755
#
# Stress axis : x y z
#
# Youngs Moduli (GPa) = 119.47251 119.47251 60.78888
#
# Poissons Ratio (x) = -0.11682 0.16882
# Poissons Ratio (y) = -0.11682 0.16882
# Poissons Ratio (z) = 0.33180 0.33180
#
# Static dielectric constant tensor:
#      x y z
#    x 1.991120 0.000000 0.000000 
#    y 0.000000 1.991120 0.000000 
#    z 0.000000 0.000000 2.113480 
# 
# From -- ./inp_files/731.got.cif
#   From: 2010.05.17/outbox.cif.g08.bks.cpg/sg79_cif.got.tgz:731.got - 2010.06.03 18:47:27.
