data_PCOD9541888
_publ_section_title
;
Structure prediction by ZEFSAII (Michael W. Deem and Ramdas Pophale) SiO2 
 PCOD9541888
Probable space group: I 4
;
_chemical_formula_sum "Si O2"
_cell_formula_units_Z 36
_cell_length_a 15.048666
_cell_length_b 15.048666
_cell_length_c 8.586259
_cell_angle_alpha 90.000000
_cell_angle_beta 90.000000
_cell_angle_gamma 90.000000
_cell_volume 1944.464377
_symmetry_space_group_name_H-M "I 4"
_symmetry_group_IT_number 79
_symmetry_cell_setting 'tetragonal'
loop_
_space_group_symop_operation_xyz
x,y,z
-y,x,z
-x,-y,z
y,-x,z
1/2+x,1/2+y,1/2+z
1/2-y,1/2+x,1/2+z
1/2-x,1/2-y,1/2+z
1/2+y,1/2-x,1/2+z
loop_
_atom_site_type_symbol
_atom_site_label
_atom_site_fract_x
_atom_site_fract_y
_atom_site_fract_z
Si Si1 0.272599 0.208029 0.648880
Si Si2 0.500000 0.000000 0.536123
Si Si3 0.761068 0.875128 0.328741
Si Si4 0.047993 0.354457 0.286961
Si Si5 0.404320 0.611110 0.087928
O O1 0.290367 0.176911 0.470519
O O2 0.258270 0.312085 0.679136
O O3 0.353752 0.183042 0.761660
O O4 0.182281 0.153329 0.684140
O O5 0.418266 0.964906 0.434241
O O6 0.530821 0.918910 0.641846
O O7 0.857670 0.886932 0.409195
O O8 0.718720 0.970757 0.298561
O O9 0.378671 0.509516 0.115858
#
# Coordination Sequence:
#
# PCOD9541888 Si02
#       5
#     8   4   8   8   8
#     4  10  23  38  60  89 125 166 207 264 310 382
#     4  10  22  34  62  84 124 158 210 254 314 390
#     4  10  22  36  60  88 121 163 208 257 314 374
#     4  11  21  40  56  93 121 167 203 261 321 374
#     4   9  19  38  63  89 117 165 211 251 305 375
#
# _framework density 18.514095000000001
#
# number of rings (size 3 to 8) (size 9 to 14) (size 15 to 20)
#    1.333    0.667    2.222    1.333    3.111    3.556 
#    0.000    0.000    0.000    0.000    0.000    3.111 
#    0.000    0.000    0.000    0.000    0.000    0.000 
#
# Total GULP energy -100200.870116 kJ/mol
# GULP energy per Si atom -5566.715006 kJ/mol
# Density = 1.847196 g / cm^3
# Si number density = 18.514095 Si / 1000 Ang^3
#
#
#
# Elastic Constant Matrix: (Units=GPa)
#
#
# Indices 1 2 3 4 5 6 
#
# 1 84.7545 28.5046 2.5794 0.0000 0.0000 3.6067
# 2 28.5046 84.7545 2.5794 0.0000 0.0000 -3.6067
# 3 2.5794 2.5794 37.5328 0.0000 0.0000 0.0000
# 4 0.0000 0.0000 0.0000 81.6196 0.0000 0.0000
# 5 0.0000 0.0000 0.0000 0.0000 81.6196 0.0000
# 6 3.6067 -3.6067 0.0000 0.0000 0.0000 29.1624
#
#
#
# Elastic Compliance Matrix: (Units=1/GPa)
#
#
# Indices 1 2 3 4 5 6 
#
# 1 0.013461 -0.004604 -0.000609 0.000000 0.000000 -0.002234
# 2 -0.004604 0.013461 -0.000609 0.000000 0.000000 0.002234
# 3 -0.000609 -0.000609 0.026727 0.000000 0.000000 0.000000
# 4 0.000000 0.000000 0.000000 0.012252 0.000000 0.000000
# 5 0.000000 0.000000 0.000000 0.000000 0.012252 0.000000
# 6 -0.002234 0.002234 0.000000 0.000000 0.000000 0.034843
#
#
# Mechanical properties :
#
#
# Convention : Reuss Voigt Hill
#
# Bulk Modulus (GPa) = 23.80590 30.48537 27.14564
# Shear Modulus (GPa) = 36.06467 50.03888 43.05177
#
# Velocity S-wave (km/s) = 4.41836 5.20443 4.82742
# Velocity P-wave (km/s) = 6.23821 7.25373 6.76505
#
# Compressibility (1/GPa) = 0.04200639
#
# Stress axis : x y z
#
# Youngs Moduli (GPa) = 74.29043 74.29043 37.41528
#
# Poissons Ratio (x) = 0.34201 0.02277
# Poissons Ratio (y) = 0.34201 0.02277
# Poissons Ratio (z) = 0.04522 0.04522
#
# Static dielectric constant tensor:
#      x y z
#    x 1.620080 0.000000 0.000000 
#    y 0.000000 1.620080 0.000000 
#    z 0.000000 0.000000 1.644200 
# 
# From -- ./inp_files/485.got.cif
#   From: 2010.05.17/outbox.cif.g08.bks.cpg/sg79_cif.got.tgz:485.got - 2010.06.03 18:47:27.
