data_PCOD9541857
_publ_section_title
;
Structure prediction by ZEFSAII (Michael W. Deem and Ramdas Pophale) SiO2 
 PCOD9541857
Probable space group: I 4
;
_chemical_formula_sum "Si O2"
_cell_formula_units_Z 48
_cell_length_a 11.214849
_cell_length_b 11.214849
_cell_length_c 17.360318
_cell_angle_alpha 90.000000
_cell_angle_beta 90.000000
_cell_angle_gamma 90.000000
_cell_volume 2183.456465
_symmetry_space_group_name_H-M "I 4"
_symmetry_group_IT_number 79
_symmetry_cell_setting 'tetragonal'
loop_
_space_group_symop_operation_xyz
x,y,z
-y,x,z
-x,-y,z
y,-x,z
1/2+x,1/2+y,1/2+z
1/2-y,1/2+x,1/2+z
1/2-x,1/2-y,1/2+z
1/2+y,1/2-x,1/2+z
loop_
_atom_site_type_symbol
_atom_site_label
_atom_site_fract_x
_atom_site_fract_y
_atom_site_fract_z
Si Si1 0.936999 0.810769 0.722730
Si Si2 0.938347 0.376405 0.429769
Si Si3 0.503510 0.145355 0.094691
Si Si4 0.445986 0.315842 0.502078
Si Si5 0.103763 0.259637 0.171540
Si Si6 0.787793 0.615579 0.776095
O O1 0.895181 0.711044 0.782595
O O2 0.071264 0.857607 0.730603
O O3 0.920694 0.733084 0.644069
O O4 0.009795 0.330891 0.504628
O O5 0.809207 0.409809 0.465236
O O6 0.930369 0.278880 0.362901
O O7 0.000000 0.500000 0.402166
O O8 0.632236 0.172983 0.131257
O O9 0.500000 0.000000 0.100548
O O10 0.578536 0.356313 0.478998
O O11 0.443835 0.307993 0.595729
O O12 0.180439 0.182193 0.231667
O O13 0.996342 0.313702 0.221585
#
# Coordination Sequence:
#
# PCOD9541857 Si02
#       6
#     8   8   8   8   8   8
#     4  11  24  41  68 101 134 176 232 283 340 412
#     4  10  26  42  64  97 141 179 218 277 351 421
#     4  10  20  43  68  96 126 181 231 273 333 413
#     4  10  21  42  72  99 126 168 228 291 332 392
#     4  11  22  39  71  98 128 173 230 281 335 406
#     4  12  25  42  66 103 138 177 223 289 351 408
#
# _framework density 21.983492999999999
#
# number of rings (size 3 to 8) (size 9 to 14) (size 15 to 20)
#    0.000    1.333    5.000    0.000    2.333    3.000 
#    3.000    1.667    0.000    0.000    0.000    0.000 
#    0.000    0.000    0.000    0.000    0.000    0.000 
#
# Total GULP energy -133842.283123 kJ/mol
# GULP energy per Si atom -5576.761797 kJ/mol
# Density = 2.193346 g / cm^3
# Si number density = 21.983493 Si / 1000 Ang^3
#
#
#
# Elastic Constant Matrix: (Units=GPa)
#
#
# Indices 1 2 3 4 5 6 
#
# 1 49.2488 -1.0112 11.6044 0.0000 0.0000 -1.3748
# 2 -1.0112 49.2488 11.6044 0.0000 0.0000 1.3748
# 3 11.6044 11.6044 95.0293 0.0000 0.0000 0.0000
# 4 0.0000 0.0000 0.0000 26.0560 0.0000 0.0000
# 5 0.0000 0.0000 0.0000 0.0000 26.0560 0.0000
# 6 -1.3748 1.3748 0.0000 0.0000 0.0000 32.0122
#
#
#
# Elastic Compliance Matrix: (Units=1/GPa)
#
#
# Indices 1 2 3 4 5 6 
#
# 1 0.020984 0.001041 -0.002690 0.000000 0.000000 0.000856
# 2 0.001041 0.020984 -0.002690 0.000000 0.000000 -0.000856
# 3 -0.002690 -0.002690 0.011180 0.000000 0.000000 0.000000
# 4 0.000000 0.000000 0.000000 0.038379 0.000000 0.000000
# 5 0.000000 0.000000 0.000000 0.000000 0.038379 0.000000
# 6 0.000856 -0.000856 0.000000 0.000000 0.000000 0.031312
#
#
# Mechanical properties :
#
#
# Convention : Reuss Voigt Hill
#
# Bulk Modulus (GPa) = 22.48641 26.43580 24.46110
# Shear Modulus (GPa) = 27.06826 28.24677 27.65751
#
# Velocity S-wave (km/s) = 3.51279 3.58845 3.55082
# Velocity P-wave (km/s) = 5.16759 5.40562 5.28794
#
# Compressibility (1/GPa) = 0.04447131
#
# Stress axis : x y z
#
# Youngs Moduli (GPa) = 47.65517 47.65517 89.44597
#
# Poissons Ratio (x) = -0.04959 0.24057
# Poissons Ratio (y) = -0.04959 0.24057
# Poissons Ratio (z) = 0.12817 0.12817
#
# Static dielectric constant tensor:
#      x y z
#    x 1.837470 0.000000 0.000000 
#    y 0.000000 1.837470 0.000000 
#    z 0.000000 0.000000 1.828410 
# 
# From -- ./inp_files/1584.got.cif
#   From: 2010.05.17/outbox.cif.g08.bks.cpg/sg79_cif.got.tgz:1584.got - 2010.06.03 18:47:27.
