data_PCOD9541747
_publ_section_title
;
Structure prediction by ZEFSAII (Michael W. Deem and Ramdas Pophale) SiO2 
 PCOD9541747
Probable space group: P 43
;
_chemical_formula_sum "Si O2"
_cell_formula_units_Z 32
_cell_length_a 8.426178
_cell_length_b 8.426178
_cell_length_c 19.451769
_cell_angle_alpha 90.000000
_cell_angle_beta 90.000000
_cell_angle_gamma 90.000000
_cell_volume 1381.084852
_symmetry_space_group_name_H-M "P 43"
_symmetry_group_IT_number 78
_symmetry_cell_setting 'tetragonal'
loop_
_space_group_symop_operation_xyz
x,y,z
-y,x,3/4+z
-x,-y,1/2+z
y,-x,1/4+z
loop_
_atom_site_type_symbol
_atom_site_label
_atom_site_fract_x
_atom_site_fract_y
_atom_site_fract_z
Si Si1 0.184559 0.098899 0.279420
Si Si2 0.895540 0.624115 0.883727
Si Si3 0.385939 0.319047 0.200803
Si Si4 0.871229 0.954211 0.236157
Si Si5 0.456893 0.381740 0.747095
Si Si6 0.721810 0.081561 0.363831
Si Si7 0.413623 0.882233 0.348501
Si Si8 0.556347 0.764941 0.095469
O O1 0.135548 0.248371 0.324725
O O2 0.335284 0.156664 0.236792
O O3 0.036990 0.046201 0.234278
O O4 0.247493 0.958292 0.326816
O O5 0.738688 0.525873 0.900885
O O6 0.050177 0.525103 0.861019
O O7 0.953851 0.728092 0.948573
O O8 0.440193 0.458022 0.250834
O O9 0.234137 0.385919 0.161672
O O10 0.820705 0.957153 0.316333
O O11 0.897696 0.798393 0.189491
O O12 0.523127 0.230897 0.787654
O O13 0.299135 0.440870 0.786394
O O14 0.457397 0.334313 0.666779
O O15 0.743366 0.255523 0.329165
O O16 0.543381 0.016972 0.365139
#
# Coordination Sequence:
#
# PCOD9541747 Si02
#       8
#     4   4   4   4   4   4   4   4
#     4  12  25  45  74 103 148 190 244 304 360 433
#     4  11  25  49  70 107 144 187 247 294 369 434
#     4  12  27  44  72 104 152 190 240 301 368 434
#     4  11  22  47  78 105 139 190 248 300 361 434
#     4  12  25  47  72 108 145 194 241 297 368 439
#     4  11  25  47  73 110 143 193 240 303 369 439
#     4  12  27  46  68 108 151 186 245 297 364 439
#     4  11  24  47  77 105 142 194 243 300 363 438
#
# _framework density 23.170193000000001
#
# number of rings (size 3 to 8) (size 9 to 14) (size 15 to 20)
#    0.000    0.500    3.750    6.000    3.500    2.000 
#    4.500    0.000    0.000    0.000    0.000    0.000 
#    0.000    0.000    0.000    0.000    0.000    0.000 
#
# Total GULP energy -179012.259710 kJ/mol
# GULP energy per Si atom -5594.133116 kJ/mol
# Density = 2.311746 g / cm^3
# Si number density = 23.170193 Si / 1000 Ang^3
#
#
#
# Elastic Constant Matrix: (Units=GPa)
#
#
# Indices 1 2 3 4 5 6 
#
# 1 43.8841 32.7330 12.7095 0.0000 0.0000 -3.4287
# 2 32.7330 43.8841 12.7095 0.0000 0.0000 3.4287
# 3 12.7095 12.7095 72.3270 0.0000 0.0000 0.0000
# 4 0.0000 0.0000 0.0000 27.2928 0.0000 0.0000
# 5 0.0000 0.0000 0.0000 0.0000 27.2928 0.0000
# 6 -3.4287 3.4287 0.0000 0.0000 0.0000 30.2333
#
#
#
# Elastic Compliance Matrix: (Units=1/GPa)
#
#
# Indices 1 2 3 4 5 6 
#
# 1 0.055130 -0.041270 -0.002435 0.000000 0.000000 0.010933
# 2 -0.041270 0.055130 -0.002435 0.000000 0.000000 -0.010933
# 3 -0.002435 -0.002435 0.014682 0.000000 0.000000 0.000000
# 4 0.000000 0.000000 0.000000 0.036640 0.000000 0.000000
# 5 0.000000 0.000000 0.000000 0.000000 0.036640 0.000000
# 6 0.010933 -0.010933 0.000000 0.000000 0.000000 0.035556
#
#
# Mechanical properties :
#
#
# Convention : Reuss Voigt Hill
#
# Bulk Modulus (GPa) = 30.61859 30.71102 30.66480
# Shear Modulus (GPa) = 14.83918 23.75998 19.29958
#
# Velocity S-wave (km/s) = 2.53344 3.20575 2.88922
# Velocity P-wave (km/s) = 4.66917 5.19478 4.93897
#
# Compressibility (1/GPa) = 0.03265990
#
# Stress axis : x y z
#
# Youngs Moduli (GPa) = 18.13897 18.13897 68.11045
#
# Poissons Ratio (x) = 0.74860 0.16588
# Poissons Ratio (y) = 0.74860 0.16588
# Poissons Ratio (z) = 0.04418 0.04418
#
# Static dielectric constant tensor:
#      x y z
#    x 1.858520 0.000000 0.000000 
#    y 0.000000 1.858520 0.000000 
#    z 0.000000 0.000000 1.913900 
# 
# From -- ./inp_files/1501.got.cif
#   From: 2010.05.17/outbox.cif.g08.bks.cpg/sg78_cif.got.tgz:1501.got - 2010.06.03 18:45:56.
