data_PCOD9541895
_publ_section_title
;
Structure prediction by ZEFSAII (Michael W. Deem and Ramdas Pophale) SiO2 
 PCOD9541895
Probable space group: I 4
;
_chemical_formula_sum "Si O2"
_cell_formula_units_Z 36
_cell_length_a 14.829671
_cell_length_b 14.829671
_cell_length_c 7.710689
_cell_angle_alpha 90.000000
_cell_angle_beta 90.000000
_cell_angle_gamma 90.000000
_cell_volume 1695.728109
_symmetry_space_group_name_H-M "I 4"
_symmetry_group_IT_number 79
_symmetry_cell_setting 'tetragonal'
loop_
_space_group_symop_operation_xyz
x,y,z
-y,x,z
-x,-y,z
y,-x,z
1/2+x,1/2+y,1/2+z
1/2-y,1/2+x,1/2+z
1/2-x,1/2-y,1/2+z
1/2+y,1/2-x,1/2+z
loop_
_atom_site_type_symbol
_atom_site_label
_atom_site_fract_x
_atom_site_fract_y
_atom_site_fract_z
Si Si1 0.500000 0.000000 0.583840
Si Si2 0.438295 0.847354 0.835428
Si Si3 0.119321 0.232680 0.368815
Si Si4 0.406650 0.383871 0.546460
Si Si5 0.732645 0.304562 0.258859
O O1 0.545257 0.084017 0.678448
O O2 0.417728 0.049264 0.489871
O O3 0.521030 0.778199 0.856378
O O4 0.338725 0.808918 0.808948
O O5 0.198740 0.292178 0.277961
O O6 0.152356 0.218827 0.567774
O O7 0.113168 0.146249 0.243307
O O8 0.513558 0.377360 0.519397
O O9 0.357303 0.321615 0.406531
#
# Coordination Sequence:
#
# PCOD9541895 Si02
#       5
#     4   8   8   8   8
#     4  10  22  38  66  98 138 182 234 302 368 428
#     4  11  23  43  65 104 142 188 240 300 363 439
#     4  12  25  45  73 105 148 191 246 298 372 442
#     4  11  27  50  76 108 149 195 252 310 359 434
#     4  12  26  46  75 111 146 199 245 303 372 442
#
# _framework density 21.22982
#
# number of rings (size 3 to 8) (size 9 to 14) (size 15 to 20)
#    0.000    0.667    4.444    2.667    0.000    7.111 
#    0.000    2.222    0.000    0.000    0.000    0.000 
#    0.000    0.000    0.000    0.000    0.000    0.000 
#
# Total GULP energy -100497.906876 kJ/mol
# GULP energy per Si atom -5583.217049 kJ/mol
# Density = 2.118150 g / cm^3
# Si number density = 21.229820 Si / 1000 Ang^3
#
#
#
# Elastic Constant Matrix: (Units=GPa)
#
#
# Indices 1 2 3 4 5 6 
#
# 1 98.0814 69.3102 39.6070 0.0000 0.0000 -15.4852
# 2 69.3102 98.0814 39.6070 0.0000 0.0000 15.4852
# 3 39.6070 39.6070 104.1737 0.0000 0.0000 0.0000
# 4 0.0000 0.0000 0.0000 38.1277 0.0000 0.0000
# 5 0.0000 0.0000 0.0000 0.0000 38.1277 0.0000
# 6 -15.4852 15.4852 0.0000 0.0000 0.0000 30.3879
#
#
#
# Elastic Compliance Matrix: (Units=1/GPa)
#
#
# Indices 1 2 3 4 5 6 
#
# 1 0.042136 -0.034851 -0.002770 0.000000 0.000000 0.039232
# 2 -0.034851 0.042136 -0.002770 0.000000 0.000000 -0.039232
# 3 -0.002770 -0.002770 0.011705 0.000000 0.000000 0.000000
# 4 0.000000 0.000000 0.000000 0.026228 0.000000 0.000000
# 5 0.000000 0.000000 0.000000 0.000000 0.026228 0.000000
# 6 0.039232 -0.039232 0.000000 0.000000 0.000000 0.072891
#
#
# Mechanical properties :
#
#
# Convention : Reuss Voigt Hill
#
# Bulk Modulus (GPa) = 65.80605 66.37612 66.09108
# Shear Modulus (GPa) = 16.27758 31.44947 23.86352
#
# Velocity S-wave (km/s) = 2.77200 3.85305 3.35633
# Velocity P-wave (km/s) = 6.42725 7.15039 6.79844
#
# Compressibility (1/GPa) = 0.01519617
#
# Stress axis : x y z
#
# Youngs Moduli (GPa) = 23.73265 23.73265 85.43061
#
# Poissons Ratio (x) = 0.82712 0.23661
# Poissons Ratio (y) = 0.82712 0.23661
# Poissons Ratio (z) = 0.06573 0.06573
#
# Static dielectric constant tensor:
#      x y z
#    x 1.762920 0.000000 0.000000 
#    y 0.000000 1.762920 0.000000 
#    z 0.000000 0.000000 1.814010 
# 
# From -- ./inp_files/496.got.cif
#   From: 2010.05.17/outbox.cif.g08.bks.cpg/sg79_cif.got.tgz:496.got - 2010.06.03 18:47:27.
