data_PCOD9541714
_publ_section_title
;
Structure prediction by ZEFSAII (Michael W. Deem and Ramdas Pophale) SiO2 
 PCOD9541714
Probable space group: P 43
;
_chemical_formula_sum "Si O2"
_cell_formula_units_Z 28
_cell_length_a 14.145824
_cell_length_b 14.145824
_cell_length_c 5.348321
_cell_angle_alpha 90.000000
_cell_angle_beta 90.000000
_cell_angle_gamma 90.000000
_cell_volume 1070.222226
_symmetry_space_group_name_H-M "P 43"
_symmetry_group_IT_number 78
_symmetry_cell_setting 'tetragonal'
loop_
_space_group_symop_operation_xyz
x,y,z
-y,x,3/4+z
-x,-y,1/2+z
y,-x,1/4+z
loop_
_atom_site_type_symbol
_atom_site_label
_atom_site_fract_x
_atom_site_fract_y
_atom_site_fract_z
Si Si1 0.113431 0.177970 0.817710
Si Si2 0.357510 0.862726 0.771875
Si Si3 0.764963 0.489031 0.322636
Si Si4 0.596668 0.598501 0.546915
Si Si5 0.458092 0.035942 0.779767
Si Si6 0.908664 0.189778 0.053660
Si Si7 0.249696 0.690979 0.567705
O O1 0.135207 0.286082 0.755326
O O2 0.125571 0.122715 0.547808
O O3 0.182135 0.139263 0.027717
O O4 0.015280 0.171812 0.971548
O O5 0.304789 0.790079 0.590316
O O6 0.366808 0.972678 0.695857
O O7 0.458190 0.819207 0.844733
O O8 0.673523 0.552979 0.361962
O O9 0.852207 0.474154 0.513754
O O10 0.725445 0.385012 0.277938
O O11 0.485140 0.604710 0.501958
O O12 0.636425 0.702994 0.591576
O O13 0.529314 0.996040 0.566593
O O14 0.861003 0.290422 0.115611
#
# Coordination Sequence:
#
# PCOD9541714 Si02
#       7
#     4   4   4   4   4   4   4
#     4  11  25  46  74 104 145 184 230 290 348 423
#     4  10  23  43  66  98 137 177 228 289 357 412
#     4  11  23  41  67  97 133 183 239 291 353 430
#     4  12  24  40  63  93 140 190 243 299 359 425
#     4  10  23  42  67  97 133 176 228 288 351 419
#     4  11  26  47  74 108 141 186 234 290 357 421
#     4  11  24  41  67  99 137 182 238 293 353 428
#
# _framework density 26.162793000000001
#
# number of rings (size 3 to 8) (size 9 to 14) (size 15 to 20)
#    0.000    1.143    0.000    5.143    0.000   17.143 
#    0.000    0.000    0.000    0.000    0.000    0.000 
#    0.000    0.000    0.000    0.000    0.000    0.000 
#
# Total GULP energy -155922.193415 kJ/mol
# GULP energy per Si atom -5568.649765 kJ/mol
# Density = 2.610325 g / cm^3
# Si number density = 26.162793 Si / 1000 Ang^3
#
#
#
# Elastic Constant Matrix: (Units=GPa)
#
#
# Indices 1 2 3 4 5 6 
#
# 1 58.3623 34.4929 39.2006 0.0000 0.0000 14.6725
# 2 34.4929 58.3623 39.2006 0.0000 0.0000 -14.6725
# 3 39.2006 39.2006 111.8990 0.0000 0.0000 0.0000
# 4 0.0000 0.0000 0.0000 31.0355 0.0000 0.0000
# 5 0.0000 0.0000 0.0000 0.0000 31.0355 0.0000
# 6 14.6725 -14.6725 0.0000 0.0000 0.0000 -6.4030
#
#
#
# Elastic Compliance Matrix: (Units=1/GPa)
#
#
# Indices 1 2 3 4 5 6 
#
# 1 0.013134 0.002159 -0.005357 0.000000 0.000000 0.025150
# 2 0.002159 0.013134 -0.005357 0.000000 0.000000 -0.025150
# 3 -0.005357 -0.005357 0.012690 0.000000 0.000000 0.000000
# 4 0.000000 0.000000 0.000000 0.032221 0.000000 0.000000
# 5 0.000000 0.000000 0.000000 0.000000 0.032221 0.000000
# 6 0.025150 -0.025150 0.000000 0.000000 0.000000 -0.040914
#
#
# Mechanical properties :
#
#
# Convention : Reuss Voigt Hill
#
# Bulk Modulus (GPa) = 45.77412 50.49020 48.13216
# Shear Modulus (GPa) = 57.55005 18.84890 38.19947
#
# Velocity S-wave (km/s) = 4.69517 2.68703 3.82523
# Velocity P-wave (km/s) = 6.85031 5.38212 6.16011
#
# Compressibility (1/GPa) = 0.02184640
#
# Stress axis : x y z
#
# Youngs Moduli (GPa) = 76.13759 76.13759 78.80039
#
# Poissons Ratio (x) = -0.16437 0.42217
# Poissons Ratio (y) = -0.16437 0.42217
# Poissons Ratio (z) = 0.40790 0.40790
#
# Static dielectric constant tensor:
#      x y z
#    x 2.203680 0.000000 0.000000 
#    y 0.000000 2.203680 0.000000 
#    z 0.000000 0.000000 2.162710 
# 
# From -- ./inp_files/254.got.cif
#   From: 2010.05.17/outbox.cif.g08.bks.cpg/sg78_cif.got.tgz:254.got - 2010.06.03 18:45:56.
