data_PCOD9541416
_publ_section_title
;
Structure prediction by ZEFSAII (Michael W. Deem and Ramdas Pophale) SiO2 
 PCOD9541416
Probable space group: P 41
;
_chemical_formula_sum "Si O2"
_cell_formula_units_Z 16
_cell_length_a 8.915617
_cell_length_b 8.915617
_cell_length_c 8.511902
_cell_angle_alpha 90.000000
_cell_angle_beta 90.000000
_cell_angle_gamma 90.000000
_cell_volume 676.595994
_symmetry_space_group_name_H-M "P 41"
_symmetry_group_IT_number 76
_symmetry_cell_setting 'tetragonal'
loop_
_space_group_symop_operation_xyz
x,y,z
-y,x,1/4+z
-x,-y,1/2+z
y,-x,3/4+z
loop_
_atom_site_type_symbol
_atom_site_label
_atom_site_fract_x
_atom_site_fract_y
_atom_site_fract_z
Si Si1 0.009303 0.192386 0.305540
Si Si2 0.700883 0.748525 0.343761
Si Si3 0.237991 0.345308 0.515729
Si Si4 0.496414 0.689031 0.816170
O O1 0.899925 0.277131 0.186419
O O2 0.104934 0.080354 0.194009
O O3 0.105958 0.318655 0.394328
O O4 0.787055 0.733593 0.181217
O O5 0.521762 0.726224 0.302640
O O6 0.772509 0.624730 0.461788
O O7 0.375700 0.256196 0.432391
O O8 0.584528 0.599174 0.681555
#
# Coordination Sequence:
#
# PCOD9541416 Si02
#       4
#     4   4   4   4
#     4  12  30  52  72 102 160 212 246 296 374 462
#     4  12  25  45  79 117 146 193 253 319 375 437
#     4  12  25  45  79 117 146 193 253 319 375 437
#     4  12  18  40  74 118 144 174 240 322 374 414
#
# _framework density 23.647787999999998
#
# number of rings (size 3 to 8) (size 9 to 14) (size 15 to 20)
#    0.000    0.000    7.500    3.000    0.000    4.000 
#    4.500    0.000    0.000    0.000    0.000    0.000 
#    0.000    0.000    0.000    0.000    0.000    0.000 
#
# Total GULP energy -89364.529454 kJ/mol
# GULP energy per Si atom -5585.283091 kJ/mol
# Density = 2.359396 g / cm^3
# Si number density = 23.647788 Si / 1000 Ang^3
#
#
#
# Elastic Constant Matrix: (Units=GPa)
#
#
# Indices 1 2 3 4 5 6 
#
# 1 18.6714 18.7349 -6.7921 0.0000 0.0000 0.7874
# 2 18.7349 18.6714 -6.7921 0.0000 0.0000 -0.7874
# 3 -6.7921 -6.7921 64.9669 0.0000 0.0000 0.0000
# 4 0.0000 0.0000 0.0000 37.5537 0.0000 0.0000
# 5 0.0000 0.0000 0.0000 0.0000 37.5537 0.0000
# 6 0.7874 -0.7874 0.0000 0.0000 0.0000 24.1195
#
#
#
# Elastic Compliance Matrix: (Units=1/GPa)
#
#
# Indices 1 2 3 4 5 6 
#
# 1 -4.337109 4.364898 0.002905 0.000000 0.000000 0.284069
# 2 4.364898 -4.337109 0.002905 0.000000 0.000000 -0.284069
# 3 0.002905 0.002905 0.016000 0.000000 0.000000 0.000000
# 4 0.000000 0.000000 0.000000 0.026629 0.000000 0.000000
# 5 0.000000 0.000000 0.000000 0.000000 0.026629 0.000000
# 6 0.284069 -0.284069 0.000000 0.000000 0.000000 0.022914
#
#
# Mechanical properties :
#
#
# Convention : Reuss Voigt Hill
#
# Bulk Modulus (GPa) = 12.01954 12.51234 12.26594
# Shear Modulus (GPa) = -0.28909 26.32266 13.01678
#
# Velocity S-wave (km/s) = -0.35002 3.33995 2.34870
# Velocity P-wave (km/s) = 2.22045 4.49181 3.54307
#
# Compressibility (1/GPa) = 0.08319783
#
# Stress axis : x y z
#
# Youngs Moduli (GPa) = -0.23057 -0.23057 62.50035
#
# Poissons Ratio (x) = 1.00641 -0.18158
# Poissons Ratio (y) = 1.00641 -0.18158
# Poissons Ratio (z) = 0.00067 0.00067
#
# Static dielectric constant tensor:
#      x y z
#    x 1.936070 0.000000 0.000000 
#    y 0.000000 1.936070 0.000000 
#    z 0.000000 0.000000 1.888440 
# 
# From -- ./inp_files/394.got.cif
#   From: 2010.05.17/outbox.cif.g08.bks.cpg/sg76_cif.got.tgz:394.got - 2010.06.03 18:43:17.
