data_PCOD9541431
_publ_section_title
;
Structure prediction by ZEFSAII (Michael W. Deem and Ramdas Pophale) SiO2 
 PCOD9541431
Probable space group: P 41
;
_chemical_formula_sum "Si O2"
_cell_formula_units_Z 20
_cell_length_a 5.063293
_cell_length_b 5.063293
_cell_length_c 29.496338
_cell_angle_alpha 90.000000
_cell_angle_beta 90.000000
_cell_angle_gamma 90.000000
_cell_volume 756.195730
_symmetry_space_group_name_H-M "P 41"
_symmetry_group_IT_number 76
_symmetry_cell_setting 'tetragonal'
loop_
_space_group_symop_operation_xyz
x,y,z
-y,x,1/4+z
-x,-y,1/2+z
y,-x,3/4+z
loop_
_atom_site_type_symbol
_atom_site_label
_atom_site_fract_x
_atom_site_fract_y
_atom_site_fract_z
Si Si1 0.641357 0.129856 0.684470
Si Si2 0.626683 0.595390 0.463035
Si Si3 0.083258 0.661996 0.097412
Si Si4 0.436092 0.569462 0.555641
Si Si5 0.016690 0.011228 0.766384
O O1 0.404623 0.343242 0.688930
O O2 0.839626 0.229722 0.646303
O O3 0.790509 0.107211 0.732394
O O4 0.532632 0.835312 0.678632
O O5 0.554081 0.441040 0.509377
O O6 0.796315 0.829414 0.485662
O O7 0.295863 0.434109 0.085035
O O8 0.785144 0.573340 0.086283
O O9 0.119066 0.895555 0.061024
O O10 0.260690 0.809727 0.534429
#
# Coordination Sequence:
#
# PCOD9541431 Si02
#       5
#     4   4   4   4   4
#     4  12  30  49  79 122 162 211 281 343 410 501
#     4  12  25  49  76 114 158 212 269 329 413 490
#     4  12  30  49  79 122 162 211 281 343 410 501
#     4  12  25  49  76 114 158 212 269 329 413 490
#     4  12  26  50  86 112 164 228 258 348 422 496
#
# _framework density 26.448177999999999
#
# number of rings (size 3 to 8) (size 9 to 14) (size 15 to 20)
#    0.000    0.000    8.000    0.000   11.200    1.600 
#    0.000    0.000    0.000    0.000    0.000    0.000 
#    0.000    0.000    0.000    0.000    0.000    0.000 
#
# Total GULP energy -111643.728002 kJ/mol
# GULP energy per Si atom -5582.186400 kJ/mol
# Density = 2.638798 g / cm^3
# Si number density = 26.448178 Si / 1000 Ang^3
#
#
#
# Elastic Constant Matrix: (Units=GPa)
#
#
# Indices 1 2 3 4 5 6 
#
# 1 135.1906 57.2924 17.2316 0.0000 0.0000 2.9012
# 2 57.2924 135.1906 17.2316 0.0000 0.0000 -2.9012
# 3 17.2316 17.2316 64.2369 0.0000 0.0000 0.0000
# 4 0.0000 0.0000 0.0000 33.2039 0.0000 0.0000
# 5 0.0000 0.0000 0.0000 0.0000 33.2039 0.0000
# 6 2.9012 -2.9012 0.0000 0.0000 0.0000 32.8602
#
#
#
# Elastic Compliance Matrix: (Units=1/GPa)
#
#
# Indices 1 2 3 4 5 6 
#
# 1 0.009190 -0.003732 -0.001464 0.000000 0.000000 -0.001141
# 2 -0.003732 0.009190 -0.001464 0.000000 0.000000 0.001141
# 3 -0.001464 -0.001464 0.016353 0.000000 0.000000 0.000000
# 4 0.000000 0.000000 0.000000 0.030117 0.000000 0.000000
# 5 0.000000 0.000000 0.000000 0.000000 0.030117 0.000000
# 6 -0.001141 0.001141 0.000000 0.000000 0.000000 0.030633
#
#
# Mechanical properties :
#
#
# Convention : Reuss Voigt Hill
#
# Bulk Modulus (GPa) = 46.70334 57.56995 52.13665
# Shear Modulus (GPa) = 34.23308 36.04444 35.13876
#
# Velocity S-wave (km/s) = 3.60160 3.69566 3.64894
# Velocity P-wave (km/s) = 5.91542 6.32652 6.12442
#
# Compressibility (1/GPa) = 0.02141175
#
# Stress axis : x y z
#
# Youngs Moduli (GPa) = 108.81610 108.81610 61.15165
#
# Poissons Ratio (x) = 0.40615 0.08952
# Poissons Ratio (y) = 0.40615 0.08952
# Poissons Ratio (z) = 0.15930 0.15930
#
# Static dielectric constant tensor:
#      x y z
#    x 2.169950 0.000000 0.000000 
#    y 0.000000 2.169950 0.000000 
#    z 0.000000 0.000000 2.027480 
# 
# From -- ./inp_files/1692.got.cif
#   From: 2010.05.17/outbox.cif.g08.bks.cpg/sg76_cif.got.tgz:1692.got - 2010.06.03 18:43:17.
