data_PCOD9541616
_publ_section_title
;
Structure prediction by ZEFSAII (Michael W. Deem and Ramdas Pophale) SiO2 
 PCOD9541616
Probable space group: P 43
;
_chemical_formula_sum "Si O2"
_cell_formula_units_Z 28
_cell_length_a 14.080840
_cell_length_b 14.080840
_cell_length_c 5.185409
_cell_angle_alpha 90.000000
_cell_angle_beta 90.000000
_cell_angle_gamma 90.000000
_cell_volume 1028.111328
_symmetry_space_group_name_H-M "P 43"
_symmetry_group_IT_number 78
_symmetry_cell_setting 'tetragonal'
loop_
_space_group_symop_operation_xyz
x,y,z
-y,x,3/4+z
-x,-y,1/2+z
y,-x,1/4+z
loop_
_atom_site_type_symbol
_atom_site_label
_atom_site_fract_x
_atom_site_fract_y
_atom_site_fract_z
Si Si1 0.901120 0.901159 0.356200
Si Si2 0.645720 0.799036 0.317591
Si Si3 0.490039 0.777242 0.931824
Si Si4 0.729186 0.979904 0.117925
Si Si5 0.962323 0.445397 0.003998
Si Si6 0.564342 0.626010 0.583851
Si Si7 0.273081 0.824578 0.912139
O O1 0.837279 0.940431 0.112983
O O2 0.855947 0.797129 0.397638
O O3 0.011925 0.889778 0.299396
O O4 0.543391 0.799579 0.192144
O O5 0.681152 0.908624 0.335090
O O6 0.721461 0.767891 0.090267
O O7 0.641746 0.704705 0.494825
O O8 0.538327 0.849558 0.726145
O O9 0.513012 0.672682 0.832495
O O10 0.381997 0.804970 0.959923
O O11 0.659526 0.978524 0.872296
O O12 0.733279 0.086765 0.221974
O O13 0.009527 0.485945 0.746445
O O14 0.609856 0.524651 0.644044
#
# Coordination Sequence:
#
# PCOD9541616 Si02
#       7
#     4   4   4   4   4   4   4
#     4   9  19  39  65  95 142 192 244 308 366 457
#     4  10  23  43  70 103 143 193 243 317 382 463
#     4  11  24  41  71  97 146 184 248 310 386 457
#     4   9  20  40  70 103 146 196 252 307 389 451
#     4  11  24  44  71 112 154 196 245 315 386 454
#     4  12  29  46  72 101 140 194 254 318 393 474
#     4  10  19  39  71  97 139 189 246 311 372 458
#
# _framework density 27.234403
#
# number of rings (size 3 to 8) (size 9 to 14) (size 15 to 20)
#    0.000    1.714    1.429    1.714    8.000    0.000 
#    2.571    0.000   34.571    0.000    0.000    0.000 
#    0.000    0.000    0.000    0.000    0.000    0.000 
#
# Total GULP energy -156471.257854 kJ/mol
# GULP energy per Si atom -5588.259209 kJ/mol
# Density = 2.717242 g / cm^3
# Si number density = 27.234403 Si / 1000 Ang^3
#
#
#
# Elastic Constant Matrix: (Units=GPa)
#
#
# Indices 1 2 3 4 5 6 
#
# 1 126.7566 17.6498 23.6160 0.0000 0.0000 -16.9208
# 2 17.6498 126.7566 23.6160 0.0000 0.0000 16.9208
# 3 23.6160 23.6160 97.4356 0.0000 0.0000 0.0000
# 4 0.0000 0.0000 0.0000 20.6807 0.0000 0.0000
# 5 0.0000 0.0000 0.0000 0.0000 20.6807 0.0000
# 6 -16.9208 16.9208 0.0000 0.0000 0.0000 55.0309
#
#
#
# Elastic Compliance Matrix: (Units=1/GPa)
#
#
# Indices 1 2 3 4 5 6 
#
# 1 0.008826 -0.001305 -0.001823 0.000000 0.000000 0.003115
# 2 -0.001305 0.008826 -0.001823 0.000000 0.000000 -0.003115
# 3 -0.001823 -0.001823 0.011147 0.000000 0.000000 0.000000
# 4 0.000000 0.000000 0.000000 0.048354 0.000000 0.000000
# 5 0.000000 0.000000 0.000000 0.000000 0.048354 0.000000
# 6 0.003115 -0.003115 0.000000 0.000000 0.000000 0.020087
#
#
# Mechanical properties :
#
#
# Convention : Reuss Voigt Hill
#
# Bulk Modulus (GPa) = 52.91740 53.41251 53.16495
# Shear Modulus (GPa) = 30.90300 38.34961 34.62630
#
# Velocity S-wave (km/s) = 3.37219 3.75658 3.56956
# Velocity P-wave (km/s) = 5.88513 6.20246 6.04588
#
# Compressibility (1/GPa) = 0.01889738
#
# Stress axis : x y z
#
# Youngs Moduli (GPa) = 113.29697 113.29697 89.71134
#
# Poissons Ratio (x) = 0.14788 0.16354
# Poissons Ratio (y) = 0.14788 0.16354
# Poissons Ratio (z) = 0.20653 0.20653
#
# Static dielectric constant tensor:
#      x y z
#    x 2.181280 0.000000 0.000000 
#    y 0.000000 2.181280 0.000000 
#    z 0.000000 0.000000 2.219940 
# 
# From -- ./inp_files/225.got.cif
#   From: 2010.05.17/outbox.cif.g08.bks.cpg/sg78_cif.got.tgz:225.got - 2010.06.03 18:45:56.
