data_PCOD9541038
_publ_section_title
;
Structure prediction by ZEFSAII (Michael W. Deem and Ramdas Pophale) SiO2 
 PCOD9541038
Probable space group: P 4
;
_chemical_formula_sum "Si O2"
_cell_formula_units_Z 30
_cell_length_a 8.116697
_cell_length_b 8.116697
_cell_length_c 20.731233
_cell_angle_alpha 90.000000
_cell_angle_beta 90.000000
_cell_angle_gamma 90.000000
_cell_volume 1365.789597
_symmetry_space_group_name_H-M "P 4"
_symmetry_group_IT_number 75
_symmetry_cell_setting 'tetragonal'
loop_
_space_group_symop_operation_xyz
x,y,z
-y,x,z
-x,-y,z
y,-x,z
loop_
_atom_site_type_symbol
_atom_site_label
_atom_site_fract_x
_atom_site_fract_y
_atom_site_fract_z
Si Si1 0.900938 0.257877 0.476760
Si Si2 0.132472 0.234596 0.013879
Si Si3 0.329992 0.276046 0.742380
Si Si4 0.290416 0.313700 0.880333
Si Si5 0.624927 0.749048 0.605920
Si Si6 0.754806 0.591765 0.134506
Si Si7 0.737368 0.903629 0.335287
Si Si8 0.500000 0.000000 0.232024
O O1 0.854488 0.345203 0.542611
O O2 0.871296 0.337275 0.406656
O O3 0.090210 0.204477 0.477429
O O4 0.177853 0.258210 0.939238
O O5 0.940451 0.215678 0.029011
O O6 0.197951 0.376694 0.060362
O O7 0.530030 0.280781 0.742587
O O8 0.253019 0.227944 0.811080
O O9 0.304146 0.183565 0.674424
O O10 0.486757 0.278187 0.884676
O O11 0.430354 0.710865 0.604586
O O12 0.595919 0.702834 0.145610
O O13 0.900974 0.621642 0.184525
O O14 0.604387 0.882701 0.279483
O O15 0.904916 0.797477 0.330596
#
# Coordination Sequence:
#
# PCOD9541038 Si02
#       8
#     4   4   4   4   4   4   4   2
#     4   9  19  35  52  73 105 145 186 224 267 327
#     4  11  24  40  57  80 112 150 190 231 278 336
#     4   7  12  26  48  75 107 140 176 222 276 332
#     4   9  17  32  57  84 108 140 183 230 281 336
#     4   9  17  30  51  79 108 139 180 230 279 328
#     4  11  24  41  61  87 117 146 180 227 285 343
#     4   9  20  38  58  81 111 147 185 225 278 342
#     4  12  22  38  64  90 112 142 186 238 288 338
#
# _framework density 21.965316999999999
#
# number of rings (size 3 to 8) (size 9 to 14) (size 15 to 20)
#    0.000    2.533    0.000    4.800    0.000    5.333 
#    0.000    2.667    0.000    8.000    0.000    0.000 
#    0.000    0.000    0.000    0.000    0.000    0.000 
#
# Total GULP energy -167209.791914 kJ/mol
# GULP energy per Si atom -5573.659730 kJ/mol
# Density = 2.191532 g / cm^3
# Si number density = 21.965317 Si / 1000 Ang^3
#
#
#
# Elastic Constant Matrix: (Units=GPa)
#
#
# Indices 1 2 3 4 5 6 
#
# 1 33.7169 11.9552 32.4103 0.0000 0.0000 -8.0399
# 2 11.9552 33.7169 32.4103 0.0000 0.0000 8.0399
# 3 32.4103 32.4103 181.2645 0.0000 0.0000 0.0000
# 4 0.0000 0.0000 0.0000 25.1317 0.0000 0.0000
# 5 0.0000 0.0000 0.0000 0.0000 25.1317 0.0000
# 6 -8.0399 8.0399 0.0000 0.0000 0.0000 18.7466
#
#
#
# Elastic Compliance Matrix: (Units=1/GPa)
#
#
# Indices 1 2 3 4 5 6 
#
# 1 0.048305 -0.018964 -0.005246 0.000000 0.000000 0.028850
# 2 -0.018964 0.048305 -0.005246 0.000000 0.000000 -0.028850
# 3 -0.005246 -0.005246 0.007393 0.000000 0.000000 0.000000
# 4 0.000000 0.000000 0.000000 0.039790 0.000000 0.000000
# 5 0.000000 0.000000 0.000000 0.000000 0.039790 0.000000
# 6 0.028850 -0.028850 0.000000 0.000000 0.000000 0.078088
#
#
# Mechanical properties :
#
#
# Convention : Reuss Voigt Hill
#
# Bulk Modulus (GPa) = 22.17786 44.69443 33.43615
# Shear Modulus (GPa) = 14.89801 25.26351 20.08076
#
# Velocity S-wave (km/s) = 2.60715 3.39507 3.02686
# Velocity P-wave (km/s) = 4.37969 5.98002 5.24129
#
# Compressibility (1/GPa) = 0.04509001
#
# Stress axis : x y z
#
# Youngs Moduli (GPa) = 20.70174 20.70174 135.26565
#
# Poissons Ratio (x) = 0.39259 0.70963
# Poissons Ratio (y) = 0.39259 0.70963
# Poissons Ratio (z) = 0.10861 0.10861
#
# Static dielectric constant tensor:
#      x y z
#    x 1.825720 0.000000 0.000000 
#    y 0.000000 1.825720 0.000000 
#    z 0.000000 0.000000 1.881050 
# 
# From -- ./inp_files/769.got.cif
#   From: 2010.05.17/outbox.cif.g08.bks.cpg/sg75_cif.got.tgz:769.got - 2010.06.03 18:42:43.
