data_PCOD9541342
_publ_section_title
;
Structure prediction by ZEFSAII (Michael W. Deem and Ramdas Pophale) SiO2 
 PCOD9541342
Probable space group: P 41
;
_chemical_formula_sum "Si O2"
_cell_formula_units_Z 28
_cell_length_a 9.174633
_cell_length_b 9.174633
_cell_length_c 14.206442
_cell_angle_alpha 90.000000
_cell_angle_beta 90.000000
_cell_angle_gamma 90.000000
_cell_volume 1195.811496
_symmetry_space_group_name_H-M "P 41"
_symmetry_group_IT_number 76
_symmetry_cell_setting 'tetragonal'
loop_
_space_group_symop_operation_xyz
x,y,z
-y,x,1/4+z
-x,-y,1/2+z
y,-x,3/4+z
loop_
_atom_site_type_symbol
_atom_site_label
_atom_site_fract_x
_atom_site_fract_y
_atom_site_fract_z
Si Si1 0.532547 0.639128 0.610940
Si Si2 0.105048 0.659690 0.757791
Si Si3 0.857681 0.096374 0.624112
Si Si4 0.327744 0.642760 0.057697
Si Si5 0.136088 0.217556 0.574456
Si Si6 0.198191 0.552742 0.569876
Si Si7 0.445768 0.114558 0.599758
O O1 0.630064 0.728424 0.536772
O O2 0.605803 0.481052 0.623194
O O3 0.563827 0.713138 0.711020
O O4 0.366202 0.609841 0.578083
O O5 0.101963 0.642853 0.645220
O O6 0.021627 0.801168 0.798239
O O7 0.028361 0.525260 0.812491
O O8 0.800399 0.257538 0.596441
O O9 0.781179 0.059553 0.722303
O O10 0.027988 0.122458 0.637593
O O11 0.457525 0.759695 0.052112
O O12 0.180800 0.382353 0.600657
O O13 0.283368 0.128026 0.564336
O O14 0.143217 0.558679 0.462212
#
# Coordination Sequence:
#
# PCOD9541342 Si02
#       7
#     4   4   4   4   4   4   4
#     4  12  22  41  72 108 140 177 240 316 367 416
#     4  11  25  47  68 108 148 186 246 304 370 436
#     4  11  26  47  71 101 145 195 241 295 361 451
#     4  11  21  40  72 104 135 183 240 297 358 431
#     4  12  23  48  73 102 143 192 246 292 366 448
#     4  12  23  44  76 106 149 184 248 316 363 436
#     4  11  24  45  74 103 140 197 243 294 371 446
#
# _framework density 23.41506
#
# number of rings (size 3 to 8) (size 9 to 14) (size 15 to 20)
#    0.000    0.571    5.714    4.286    0.000    1.143 
#    5.143    0.000    0.000    0.000    0.000    0.000 
#    0.000    0.000    0.000    0.000    0.000    0.000 
#
# Total GULP energy -156391.926267 kJ/mol
# GULP energy per Si atom -5585.425938 kJ/mol
# Density = 2.336177 g / cm^3
# Si number density = 23.415060 Si / 1000 Ang^3
#
#
#
# Elastic Constant Matrix: (Units=GPa)
#
#
# Indices 1 2 3 4 5 6 
#
# 1 73.8694 13.7013 -6.2781 0.0000 0.0000 -11.9709
# 2 13.7013 73.8694 -6.2781 0.0000 0.0000 11.9709
# 3 -6.2781 -6.2781 102.9588 0.0000 0.0000 0.0000
# 4 0.0000 0.0000 0.0000 22.4836 0.0000 0.0000
# 5 0.0000 0.0000 0.0000 0.0000 22.4836 0.0000
# 6 -11.9709 11.9709 0.0000 0.0000 0.0000 -14.0799
#
#
#
# Elastic Compliance Matrix: (Units=1/GPa)
#
#
# Indices 1 2 3 4 5 6 
#
# 1 0.011969 -0.000449 0.000702 0.000000 0.000000 -0.010559
# 2 -0.000449 0.011969 0.000702 0.000000 0.000000 0.010559
# 3 0.000702 0.000702 0.009798 0.000000 0.000000 0.000000
# 4 0.000000 0.000000 0.000000 0.044477 0.000000 0.000000
# 5 0.000000 0.000000 0.000000 0.000000 0.044477 0.000000
# 6 -0.010559 0.010559 0.000000 0.000000 0.000000 -0.053069
#
#
# Mechanical properties :
#
#
# Convention : Reuss Voigt Hill
#
# Bulk Modulus (GPa) = 28.05188 28.10977 28.08083
# Shear Modulus (GPa) = 62.81961 22.81430 42.81695
#
# Velocity S-wave (km/s) = 5.18526 3.12483 4.28086
# Velocity P-wave (km/s) = 6.91777 5.00505 6.03763
#
# Compressibility (1/GPa) = 0.03564823
#
# Stress axis : x y z
#
# Youngs Moduli (GPa) = 83.54639 83.54639 102.05865
#
# Poissons Ratio (x) = 0.03754 -0.07169
# Poissons Ratio (y) = 0.03754 -0.07169
# Poissons Ratio (z) = -0.05869 -0.05869
#
# Static dielectric constant tensor:
#      x y z
#    x 2.033150 0.000000 0.000000 
#    y 0.000000 2.033150 0.000000 
#    z 0.000000 0.000000 1.951210 
# 
# From -- ./inp_files/1108.got.cif
#   From: 2010.05.17/outbox.cif.g08.bks.cpg/sg76_cif.got.tgz:1108.got - 2010.06.03 18:43:17.
