data_PCOD9541387
_publ_section_title
;
Structure prediction by ZEFSAII (Michael W. Deem and Ramdas Pophale) SiO2 
 PCOD9541387
Probable space group: P 41
;
_chemical_formula_sum "Si O2"
_cell_formula_units_Z 28
_cell_length_a 8.937953
_cell_length_b 8.937953
_cell_length_c 14.885818
_cell_angle_alpha 90.000000
_cell_angle_beta 90.000000
_cell_angle_gamma 90.000000
_cell_volume 1189.183400
_symmetry_space_group_name_H-M "P 41"
_symmetry_group_IT_number 76
_symmetry_cell_setting 'tetragonal'
loop_
_space_group_symop_operation_xyz
x,y,z
-y,x,1/4+z
-x,-y,1/2+z
y,-x,3/4+z
loop_
_atom_site_type_symbol
_atom_site_label
_atom_site_fract_x
_atom_site_fract_y
_atom_site_fract_z
Si Si1 0.192239 0.403786 0.750000
Si Si2 0.967023 0.195260 0.272443
Si Si3 0.850003 0.402602 0.421875
Si Si4 0.527168 0.359501 0.708342
Si Si5 0.931958 0.502817 0.068393
Si Si6 0.169951 0.082509 0.820294
Si Si7 0.591619 0.259038 0.514148
O O1 0.154417 0.465323 0.849041
O O2 0.365887 0.441183 0.724371
O O3 0.077602 0.461667 0.673985
O O4 0.170945 0.227044 0.758391
O O5 0.113106 0.300778 0.262249
O O6 0.871094 0.265122 0.353228
O O7 0.885689 0.184306 0.176441
O O8 0.972728 0.021955 0.301958
O O9 0.701298 0.389635 0.479727
O O10 0.976164 0.400558 0.497696
O O11 0.522094 0.238386 0.786954
O O12 0.528364 0.274430 0.614055
O O13 0.686037 0.447368 0.707512
O O14 0.989645 0.333786 0.052572
#
# Coordination Sequence:
#
# PCOD9541387 Si02
#       7
#     4   4   4   4   4   4   4
#     4  11  25  48  79 114 157 204 264 335 406 486
#     4  12  25  48  67 107 153 207 255 315 401 492
#     4  12  26  44  76 113 154 206 258 330 402 475
#     4  11  24  45  75 115 150 199 261 338 399 461
#     4  11  24  46  75 113 151 200 266 325 396 480
#     4  11  26  46  72 102 157 205 255 320 402 489
#     4  12  26  43  76 110 154 197 265 331 392 479
#
# _framework density 23.545567999999999
#
# number of rings (size 3 to 8) (size 9 to 14) (size 15 to 20)
#    0.000    0.571    5.714    1.714    4.000    3.429 
#    0.000    2.857    0.000    0.000    0.000    0.000 
#    0.000    0.000    0.000    0.000    0.000    0.000 
#
# Total GULP energy -156043.023903 kJ/mol
# GULP energy per Si atom -5572.965139 kJ/mol
# Density = 2.349198 g / cm^3
# Si number density = 23.545568 Si / 1000 Ang^3
#
#
#
# Elastic Constant Matrix: (Units=GPa)
#
#
# Indices 1 2 3 4 5 6 
#
# 1 77.0923 33.8335 19.0299 0.0000 0.0000 0.5364
# 2 33.8335 77.0923 19.0299 0.0000 0.0000 -0.5364
# 3 19.0299 19.0299 111.4779 0.0000 0.0000 0.0000
# 4 0.0000 0.0000 0.0000 10.6809 0.0000 0.0000
# 5 0.0000 0.0000 0.0000 0.0000 10.6809 0.0000
# 6 0.5364 -0.5364 0.0000 0.0000 0.0000 32.0841
#
#
#
# Elastic Compliance Matrix: (Units=1/GPa)
#
#
# Indices 1 2 3 4 5 6 
#
# 1 0.016351 -0.006775 -0.001635 0.000000 0.000000 -0.000387
# 2 -0.006775 0.016351 -0.001635 0.000000 0.000000 0.000387
# 3 -0.001635 -0.001635 0.009528 0.000000 0.000000 0.000000
# 4 0.000000 0.000000 0.000000 0.093625 0.000000 0.000000
# 5 0.000000 0.000000 0.000000 0.000000 0.093625 0.000000
# 6 -0.000387 0.000387 0.000000 0.000000 0.000000 0.031181
#
#
# Mechanical properties :
#
#
# Convention : Reuss Voigt Hill
#
# Bulk Modulus (GPa) = 45.16380 45.49438 45.32909
# Shear Modulus (GPa) = 17.35322 23.60714 20.48018
#
# Velocity S-wave (km/s) = 2.71773 3.16984 2.95245
# Velocity P-wave (km/s) = 5.39177 5.72372 5.56022
#
# Compressibility (1/GPa) = 0.02214163
#
# Stress axis : x y z
#
# Youngs Moduli (GPa) = 61.15802 61.15802 104.94857
#
# Poissons Ratio (x) = 0.41436 0.17156
# Poissons Ratio (y) = 0.41436 0.17156
# Poissons Ratio (z) = 0.09997 0.09997
#
# Static dielectric constant tensor:
#      x y z
#    x 2.011120 0.000000 0.000000 
#    y 0.000000 2.011120 0.000000 
#    z 0.000000 0.000000 1.875010 
# 
# From -- ./inp_files/1106.got.cif
#   From: 2010.05.17/outbox.cif.g08.bks.cpg/sg76_cif.got.tgz:1106.got - 2010.06.03 18:43:17.
