data_PCOD9541745
_publ_section_title
;
Structure prediction by ZEFSAII (Michael W. Deem and Ramdas Pophale) SiO2 
 PCOD9541745
Probable space group: P 43
;
_chemical_formula_sum "Si O2"
_cell_formula_units_Z 16
_cell_length_a 9.825628
_cell_length_b 9.825628
_cell_length_c 7.478387
_cell_angle_alpha 90.000000
_cell_angle_beta 90.000000
_cell_angle_gamma 90.000000
_cell_volume 721.985659
_symmetry_space_group_name_H-M "P 43"
_symmetry_group_IT_number 78
_symmetry_cell_setting 'tetragonal'
loop_
_space_group_symop_operation_xyz
x,y,z
-y,x,3/4+z
-x,-y,1/2+z
y,-x,1/4+z
loop_
_atom_site_type_symbol
_atom_site_label
_atom_site_fract_x
_atom_site_fract_y
_atom_site_fract_z
Si Si1 0.284560 0.826725 0.206900
Si Si2 0.331655 0.021728 0.911252
Si Si3 0.355220 0.038686 0.496037
Si Si4 0.320189 0.536788 0.794833
O O1 0.167416 0.717598 0.229286
O O2 0.278465 0.943921 0.355745
O O3 0.431938 0.753619 0.184841
O O4 0.257326 0.902912 0.019125
O O5 0.315574 0.009907 0.699695
O O6 0.488165 0.004230 0.964944
O O7 0.362792 0.202326 0.473307
O O8 0.381388 0.439577 0.642394
#
# Coordination Sequence:
#
# PCOD9541745 Si02
#       4
#     4   4   4   4
#     4  11  24  46  69 101 142 183 238 293 348 430
#     4  11  23  45  68 102 136 184 239 283 362 417
#     4  11  22  45  73  97 143 189 223 304 351 416
#     4  11  23  44  68 110 145 180 240 292 361 429
#
# _framework density 22.161104999999999
#
# number of rings (size 3 to 8) (size 9 to 14) (size 15 to 20)
#    0.000    1.000    7.500    0.000    0.000    4.000 
#   13.500    0.000    0.000    0.000    0.000    0.000 
#    0.000    0.000    0.000    0.000    0.000    0.000 
#
# Total GULP energy -89462.479388 kJ/mol
# GULP energy per Si atom -5591.404962 kJ/mol
# Density = 2.211067 g / cm^3
# Si number density = 22.161105 Si / 1000 Ang^3
#
#
#
# Elastic Constant Matrix: (Units=GPa)
#
#
# Indices 1 2 3 4 5 6 
#
# 1 43.0652 15.8179 46.9023 0.0000 0.0000 15.0849
# 2 15.8179 43.0652 46.9023 0.0000 0.0000 -15.0849
# 3 46.9023 46.9023 126.6877 0.0000 0.0000 0.0000
# 4 0.0000 0.0000 0.0000 26.3372 0.0000 0.0000
# 5 0.0000 0.0000 0.0000 0.0000 26.3372 0.0000
# 6 15.0849 -15.0849 0.0000 0.0000 0.0000 7.3848
#
#
#
# Elastic Compliance Matrix: (Units=1/GPa)
#
#
# Indices 1 2 3 4 5 6 
#
# 1 0.006157 0.035243 -0.015327 0.000000 0.000000 0.059415
# 2 0.035243 0.006157 -0.015327 0.000000 0.000000 -0.059415
# 3 -0.015327 -0.015327 0.019242 0.000000 0.000000 0.000000
# 4 0.000000 0.000000 0.000000 0.037969 0.000000 0.000000
# 5 0.000000 0.000000 0.000000 0.000000 0.037969 0.000000
# 6 0.059415 -0.059415 0.000000 0.000000 0.000000 -0.107319
#
#
# Mechanical properties :
#
#
# Convention : Reuss Voigt Hill
#
# Bulk Modulus (GPa) = 24.54980 48.00704 36.27842
# Shear Modulus (GPa) = 1092.97059 18.89155 555.93107
#
# Velocity S-wave (km/s) = 22.23205 2.92287 15.85571
# Velocity P-wave (km/s) = 25.88668 5.75332 18.75128
#
# Compressibility (1/GPa) = 0.04073353
#
# Stress axis : x y z
#
# Youngs Moduli (GPa) = 162.42765 162.42765 51.96924
#
# Poissons Ratio (x) = -5.72445 0.79653
# Poissons Ratio (y) = -5.72445 0.79653
# Poissons Ratio (z) = 2.48953 2.48953
#
# Static dielectric constant tensor:
#      x y z
#    x 1.827170 0.000000 0.000000 
#    y 0.000000 1.827170 0.000000 
#    z 0.000000 0.000000 1.833730 
# 
# From -- ./inp_files/53.got.cif
#   From: 2010.05.17/outbox.cif.g08.bks.cpg/sg78_cif.got.tgz:53.got - 2010.06.03 18:45:56.
