data_PCOD9541540
_publ_section_title
;
Structure prediction by ZEFSAII (Michael W. Deem and Ramdas Pophale) SiO2 
 PCOD9541540
Probable space group: P 42
;
_chemical_formula_sum "Si O2"
_cell_formula_units_Z 18
_cell_length_a 5.282160
_cell_length_b 5.282160
_cell_length_c 25.743664
_cell_angle_alpha 90.000000
_cell_angle_beta 90.000000
_cell_angle_gamma 90.000000
_cell_volume 718.279485
_symmetry_space_group_name_H-M "P 42"
_symmetry_group_IT_number 77
_symmetry_cell_setting 'tetragonal'
loop_
_space_group_symop_operation_xyz
x,y,z
-y,x,1/2+z
-x,-y,z
y,-x,1/2+z
loop_
_atom_site_type_symbol
_atom_site_label
_atom_site_fract_x
_atom_site_fract_y
_atom_site_fract_z
Si Si1 0.334173 0.247170 0.434030
Si Si2 0.834584 0.243214 0.048184
Si Si3 0.323024 0.751437 0.707599
Si Si4 0.669245 0.245557 0.820049
Si Si5 0.500000 0.000000 0.125636
O O1 0.500000 0.500000 0.431849
O O2 0.192847 0.259369 0.488896
O O3 0.214222 0.211084 0.377069
O O4 0.500000 0.000000 0.440108
O O5 0.000000 0.500000 0.051808
O O6 0.605779 0.220760 0.088445
O O7 0.000000 0.000000 0.061114
O O8 0.500000 0.500000 0.706084
O O9 0.189714 0.748697 0.764831
O O10 0.116795 0.711860 0.663325
O O11 0.500000 0.000000 0.701081
O O12 0.500000 0.500000 0.821862
O O13 0.500000 0.000000 0.814819
#
# Coordination Sequence:
#
# PCOD9541540 Si02
#       5
#     4   4   4   4   2
#     4  10  24  46  77 110 151 196 249 316 390 463
#     4  11  30  50  75 114 153 203 262 319 393 467
#     4  10  25  47  73 110 151 201 262 319 391 465
#     4   9  20  42  72 106 147 192 247 316 383 462
#     4  12  30  44  82 104 164 204 272 322 398 472
#
# _framework density 25.05988
#
# number of rings (size 3 to 8) (size 9 to 14) (size 15 to 20)
#    0.000    1.778    0.000    0.000   15.556    3.556 
#    0.000    0.000    0.000    0.000    0.000    0.000 
#    0.000    0.000    0.000    0.000    0.000    0.000 
#
# Total GULP energy -100645.464024 kJ/mol
# GULP energy per Si atom -5591.414668 kJ/mol
# Density = 2.500284 g / cm^3
# Si number density = 25.059880 Si / 1000 Ang^3
#
#
#
# Elastic Constant Matrix: (Units=GPa)
#
#
# Indices 1 2 3 4 5 6 
#
# 1 127.1335 40.0896 45.2571 0.0000 0.0000 -3.9870
# 2 40.0896 127.1335 45.2571 0.0000 0.0000 3.9870
# 3 45.2571 45.2571 283.2581 0.0000 0.0000 0.0000
# 4 0.0000 0.0000 0.0000 36.1865 0.0000 0.0000
# 5 0.0000 0.0000 0.0000 0.0000 36.1865 0.0000
# 6 -3.9870 3.9870 0.0000 0.0000 0.0000 46.6157
#
#
#
# Elastic Compliance Matrix: (Units=1/GPa)
#
#
# Indices 1 2 3 4 5 6 
#
# 1 0.009063 -0.002517 -0.001046 0.000000 0.000000 0.000990
# 2 -0.002517 0.009063 -0.001046 0.000000 0.000000 -0.000990
# 3 -0.001046 -0.001046 0.003865 0.000000 0.000000 0.000000
# 4 0.000000 0.000000 0.000000 0.027635 0.000000 0.000000
# 5 0.000000 0.000000 0.000000 0.000000 0.027635 0.000000
# 6 0.000990 -0.000990 0.000000 0.000000 0.000000 0.021621
#
#
# Mechanical properties :
#
#
# Convention : Reuss Voigt Hill
#
# Bulk Modulus (GPa) = 78.28846 88.74807 83.51827
# Shear Modulus (GPa) = 44.50181 50.92581 47.71381
#
# Velocity S-wave (km/s) = 4.21862 4.51284 4.36821
# Velocity P-wave (km/s) = 7.41872 7.91490 7.67082
#
# Compressibility (1/GPa) = 0.01277327
#
# Stress axis : x y z
#
# Youngs Moduli (GPa) = 110.34274 110.34274 258.76144
#
# Poissons Ratio (x) = 0.27768 0.27064
# Poissons Ratio (y) = 0.27768 0.27064
# Poissons Ratio (z) = 0.11541 0.11541
#
# Static dielectric constant tensor:
#      x y z
#    x 2.003760 0.000000 0.000000 
#    y 0.000000 2.003760 0.000000 
#    z 0.000000 0.000000 2.136510 
# 
# From -- ./inp_files/1642.got.cif
#   From: 2010.05.17/outbox.cif.g08.bks.cpg/sg77_cif.got.tgz:1642.got - 2010.06.03 18:44:51.
