data_PCOD9541344
_publ_section_title
;
Structure prediction by ZEFSAII (Michael W. Deem and Ramdas Pophale) SiO2 
 PCOD9541344
Probable space group: P 41
;
_chemical_formula_sum "Si O2"
_cell_formula_units_Z 32
_cell_length_a 8.700560
_cell_length_b 8.700560
_cell_length_c 20.212627
_cell_angle_alpha 90.000000
_cell_angle_beta 90.000000
_cell_angle_gamma 90.000000
_cell_volume 1530.090696
_symmetry_space_group_name_H-M "P 41"
_symmetry_group_IT_number 76
_symmetry_cell_setting 'tetragonal'
loop_
_space_group_symop_operation_xyz
x,y,z
-y,x,1/4+z
-x,-y,1/2+z
y,-x,3/4+z
loop_
_atom_site_type_symbol
_atom_site_label
_atom_site_fract_x
_atom_site_fract_y
_atom_site_fract_z
Si Si1 0.465917 0.767014 0.851050
Si Si2 0.071474 0.044004 0.270031
Si Si3 0.084212 0.350264 0.597627
Si Si4 0.289113 0.584270 0.524501
Si Si5 0.201795 0.278035 0.882565
Si Si6 0.106471 0.786510 0.442591
Si Si7 0.169362 0.919561 0.879900
Si Si8 0.602196 0.480476 0.466313
O O1 0.292477 0.825295 0.837494
O O2 0.543278 0.678166 0.789202
O O3 0.430710 0.656617 0.913980
O O4 0.564055 0.922902 0.862448
O O5 0.992539 0.096504 0.339979
O O6 0.123376 0.150284 0.207714
O O7 0.924454 0.959255 0.237183
O O8 0.220631 0.949237 0.291773
O O9 0.222929 0.459486 0.574693
O O10 0.146472 0.257427 0.659848
O O11 0.338603 0.736932 0.563440
O O12 0.143535 0.635133 0.482840
O O13 0.430696 0.534849 0.481590
O O14 0.290239 0.386385 0.934275
O O15 0.020172 0.269600 0.890735
O O16 0.234087 0.094582 0.884081
#
# Coordination Sequence:
#
# PCOD9541344 Si02
#       8
#     4   4   4   4   4   4   4   4
#     4  12  26  46  67 102 144 190 236 300 359 435
#     4  11  21  41  71 104 133 175 236 299 350 427
#     4  12  24  43  69 103 145 177 237 298 360 424
#     4  12  24  43  68  99 142 182 231 297 355 431
#     4  11  21  46  68  98 131 182 236 290 346 433
#     4  11  23  42  74  99 133 184 236 287 359 419
#     4  11  22  43  71 100 137 183 242 292 359 423
#     4  12  27  46  70 101 145 191 240 289 374 436
#
# _framework density 20.913792000000001
#
# number of rings (size 3 to 8) (size 9 to 14) (size 15 to 20)
#    0.000    0.500    6.250    3.750    1.750    0.000 
#    0.000    0.000    0.000    0.000    0.000    0.000 
#    0.000    0.000    0.000    0.000    0.000    0.000 
#
# Total GULP energy -178300.483448 kJ/mol
# GULP energy per Si atom -5571.890108 kJ/mol
# Density = 2.086619 g / cm^3
# Si number density = 20.913792 Si / 1000 Ang^3
#
#
#
# Elastic Constant Matrix: (Units=GPa)
#
#
# Indices 1 2 3 4 5 6 
#
# 1 53.6478 27.6991 24.9018 0.0000 0.0000 1.1131
# 2 27.6991 53.6478 24.9018 0.0000 0.0000 -1.1131
# 3 24.9018 24.9018 81.3729 0.0000 0.0000 0.0000
# 4 0.0000 0.0000 0.0000 37.3520 0.0000 0.0000
# 5 0.0000 0.0000 0.0000 0.0000 37.3520 0.0000
# 6 1.1131 -1.1131 0.0000 0.0000 0.0000 22.4752
#
#
#
# Elastic Compliance Matrix: (Units=1/GPa)
#
#
# Indices 1 2 3 4 5 6 
#
# 1 0.026915 -0.011787 -0.004629 0.000000 0.000000 -0.001917
# 2 -0.011787 0.026915 -0.004629 0.000000 0.000000 0.001917
# 3 -0.004629 -0.004629 0.015122 0.000000 0.000000 0.000000
# 4 0.000000 0.000000 0.000000 0.026772 0.000000 0.000000
# 5 0.000000 0.000000 0.000000 0.000000 0.026772 0.000000
# 6 -0.001917 0.001917 0.000000 0.000000 0.000000 0.044683
#
#
# Mechanical properties :
#
#
# Convention : Reuss Voigt Hill
#
# Bulk Modulus (GPa) = 37.23026 38.18598 37.70812
# Shear Modulus (GPa) = 22.91218 26.84690 24.87954
#
# Velocity S-wave (km/s) = 3.31351 3.58675 3.45283
# Velocity P-wave (km/s) = 5.69908 5.95411 5.82799
#
# Compressibility (1/GPa) = 0.02685987
#
# Stress axis : x y z
#
# Youngs Moduli (GPa) = 37.15459 37.15459 66.12716
#
# Poissons Ratio (x) = 0.43795 0.30612
# Poissons Ratio (y) = 0.43795 0.30612
# Poissons Ratio (z) = 0.17200 0.17200
#
# Static dielectric constant tensor:
#      x y z
#    x 1.771540 0.000000 0.000000 
#    y 0.000000 1.771540 0.000000 
#    z 0.000000 0.000000 1.815260 
# 
# From -- ./inp_files/1466.got.cif
#   From: 2010.05.17/outbox.cif.g08.bks.cpg/sg76_cif.got.tgz:1466.got - 2010.06.03 18:43:17.
