data_PCOD9541905
_publ_section_title
;
Structure prediction by ZEFSAII (Michael W. Deem and Ramdas Pophale) SiO2 
 PCOD9541905
Probable space group: I 4
;
_chemical_formula_sum "Si O2"
_cell_formula_units_Z 48
_cell_length_a 19.788443
_cell_length_b 19.788443
_cell_length_c 5.343764
_cell_angle_alpha 90.000000
_cell_angle_beta 90.000000
_cell_angle_gamma 90.000000
_cell_volume 2092.524340
_symmetry_space_group_name_H-M "I 4"
_symmetry_group_IT_number 79
_symmetry_cell_setting 'tetragonal'
loop_
_space_group_symop_operation_xyz
x,y,z
-y,x,z
-x,-y,z
y,-x,z
1/2+x,1/2+y,1/2+z
1/2-y,1/2+x,1/2+z
1/2-x,1/2-y,1/2+z
1/2+y,1/2-x,1/2+z
loop_
_atom_site_type_symbol
_atom_site_label
_atom_site_fract_x
_atom_site_fract_y
_atom_site_fract_z
Si Si1 0.134428 0.378720 0.097120
Si Si2 0.106358 0.844336 0.903778
Si Si3 0.751987 0.382705 0.960174
Si Si4 0.822223 0.483373 0.349339
Si Si5 0.317842 0.532065 0.571727
Si Si6 0.276614 0.351583 0.913134
O O1 0.132300 0.312095 0.267164
O O2 0.151637 0.447800 0.235169
O O3 0.196923 0.362655 0.915301
O O4 0.060477 0.380697 0.976467
O O5 0.154327 0.909719 0.888330
O O6 0.138669 0.799905 0.127559
O O7 0.033446 0.862872 0.021418
O O8 0.099698 0.807585 0.634261
O O9 0.692523 0.427884 0.830530
O O10 0.788073 0.430095 0.159847
O O11 0.718351 0.309877 0.013245
O O12 0.758042 0.496368 0.527903
#
# Coordination Sequence:
#
# PCOD9541905 Si02
#       6
#     8   8   8   8   8   8
#     4  11  26  41  72  97 143 184 238 301 360 430
#     4  11  23  40  71 100 143 186 227 284 352 417
#     4  10  24  41  68 100 138 177 245 288 354 426
#     4  11  23  45  65  98 134 185 232 290 361 420
#     4  10  22  41  64  99 141 183 230 284 347 425
#     4  11  24  42  71 105 136 181 230 300 349 408
#
# _framework density 22.938800000000001
#
# number of rings (size 3 to 8) (size 9 to 14) (size 15 to 20)
#    0.000    1.333    3.333    1.000    4.667    3.000 
#    0.000    2.500    0.000    2.000    0.000    0.000 
#    0.000    0.000    0.000    0.000    0.000    0.000 
#
# Total GULP energy -133891.648396 kJ/mol
# GULP energy per Si atom -5578.818683 kJ/mol
# Density = 2.288659 g / cm^3
# Si number density = 22.938800 Si / 1000 Ang^3
#
#
#
# Elastic Constant Matrix: (Units=GPa)
#
#
# Indices 1 2 3 4 5 6 
#
# 1 85.7586 48.5364 5.8570 0.0000 0.0000 4.4060
# 2 48.5364 85.7586 5.8570 0.0000 0.0000 -4.4060
# 3 5.8570 5.8570 41.7423 0.0000 0.0000 0.0000
# 4 0.0000 0.0000 0.0000 27.8426 0.0000 0.0000
# 5 0.0000 0.0000 0.0000 0.0000 27.8426 0.0000
# 6 4.4060 -4.4060 0.0000 0.0000 0.0000 29.1153
#
#
#
# Elastic Compliance Matrix: (Units=1/GPa)
#
#
# Indices 1 2 3 4 5 6 
#
# 1 0.017701 -0.010163 -0.001058 0.000000 0.000000 -0.004217
# 2 -0.010163 0.017701 -0.001058 0.000000 0.000000 0.004217
# 3 -0.001058 -0.001058 0.024253 0.000000 0.000000 0.000000
# 4 0.000000 0.000000 0.000000 0.035916 0.000000 0.000000
# 5 0.000000 0.000000 0.000000 0.000000 0.035916 0.000000
# 6 -0.004217 0.004217 0.000000 0.000000 0.000000 0.035622
#
#
# Mechanical properties :
#
#
# Convention : Reuss Voigt Hill
#
# Bulk Modulus (GPa) = 28.49050 37.08450 32.78750
# Shear Modulus (GPa) = 24.58609 27.16069 25.87339
#
# Velocity S-wave (km/s) = 3.27741 3.44474 3.36211
# Velocity P-wave (km/s) = 5.17388 5.65892 5.42183
#
# Compressibility (1/GPa) = 0.03509942
#
# Stress axis : x y z
#
# Youngs Moduli (GPa) = 56.49315 56.49315 41.23139
#
# Poissons Ratio (x) = 0.57412 0.04361
# Poissons Ratio (y) = 0.57412 0.04361
# Poissons Ratio (z) = 0.05976 0.05976
#
# Static dielectric constant tensor:
#      x y z
#    x 1.890880 0.000000 0.000000 
#    y 0.000000 1.890880 0.000000 
#    z 0.000000 0.000000 1.973010 
# 
# From -- ./inp_files/222.got.cif
#   From: 2010.05.17/outbox.cif.g08.bks.cpg/sg79_cif.got.tgz:222.got - 2010.06.03 18:47:27.
