data_PCOD9541379
_publ_section_title
;
Structure prediction by ZEFSAII (Michael W. Deem and Ramdas Pophale) SiO2 
 PCOD9541379
Probable space group: P 41
;
_chemical_formula_sum "Si O2"
_cell_formula_units_Z 20
_cell_length_a 5.128901
_cell_length_b 5.128901
_cell_length_c 29.388085
_cell_angle_alpha 90.000000
_cell_angle_beta 90.000000
_cell_angle_gamma 90.000000
_cell_volume 773.071957
_symmetry_space_group_name_H-M "P 41"
_symmetry_group_IT_number 76
_symmetry_cell_setting 'tetragonal'
loop_
_space_group_symop_operation_xyz
x,y,z
-y,x,1/4+z
-x,-y,1/2+z
y,-x,3/4+z
loop_
_atom_site_type_symbol
_atom_site_label
_atom_site_fract_x
_atom_site_fract_y
_atom_site_fract_z
Si Si1 0.533084 0.300403 0.776610
Si Si2 0.266766 0.454321 0.162626
Si Si3 0.211223 0.314262 0.066847
Si Si4 0.246510 0.244850 0.685393
Si Si5 0.070792 0.108907 0.237383
O O1 0.529682 0.576511 0.801306
O O2 0.321604 0.330180 0.736547
O O3 0.778697 0.154739 0.753102
O O4 0.426878 0.078809 0.810735
O O5 0.271658 0.264166 0.119376
O O6 0.496397 0.667196 0.159206
O O7 0.996629 0.609952 0.163765
O O8 0.269116 0.293784 0.210026
O O9 0.218438 0.074462 0.031619
O O10 0.144300 0.956213 0.697905
#
# Coordination Sequence:
#
# PCOD9541379 Si02
#       5
#     4   4   4   4   4
#     4  11  23  48  75 110 154 208 259 323 399 474
#     4  12  25  46  76 115 157 205 269 328 402 477
#     4  11  26  44  76 116 154 206 267 330 401 481
#     4  11  24  45  73 110 152 204 258 319 390 471
#     4  11  26  47  78 109 161 215 257 334 400 481
#
# _framework density 25.870812999999998
#
# number of rings (size 3 to 8) (size 9 to 14) (size 15 to 20)
#    0.000    0.800    4.000    2.400    2.800    3.200 
#    0.000    0.000    0.000    0.000    0.000    0.000 
#    0.000    0.000    0.000    0.000    0.000    0.000 
#
# Total GULP energy -111798.300204 kJ/mol
# GULP energy per Si atom -5589.915010 kJ/mol
# Density = 2.581193 g / cm^3
# Si number density = 25.870813 Si / 1000 Ang^3
#
#
#
# Elastic Constant Matrix: (Units=GPa)
#
#
# Indices 1 2 3 4 5 6 
#
# 1 120.6899 33.9970 10.8610 0.0000 0.0000 1.5680
# 2 33.9970 120.6899 10.8610 0.0000 0.0000 -1.5680
# 3 10.8610 10.8610 105.8679 0.0000 0.0000 0.0000
# 4 0.0000 0.0000 0.0000 23.0028 0.0000 0.0000
# 5 0.0000 0.0000 0.0000 0.0000 23.0028 0.0000
# 6 1.5680 -1.5680 0.0000 0.0000 0.0000 38.7312
#
#
#
# Elastic Compliance Matrix: (Units=1/GPa)
#
#
# Indices 1 2 3 4 5 6 
#
# 1 0.009056 -0.002496 -0.000673 0.000000 0.000000 -0.000468
# 2 -0.002496 0.009056 -0.000673 0.000000 0.000000 0.000468
# 3 -0.000673 -0.000673 0.009584 0.000000 0.000000 0.000000
# 4 0.000000 0.000000 0.000000 0.043473 0.000000 0.000000
# 5 0.000000 0.000000 0.000000 0.000000 0.043473 0.000000
# 6 -0.000468 0.000468 0.000000 0.000000 0.000000 0.025857
#
#
# Mechanical properties :
#
#
# Convention : Reuss Voigt Hill
#
# Bulk Modulus (GPa) = 49.97375 50.96509 50.46942
# Shear Modulus (GPa) = 32.28888 36.38262 34.33575
#
# Velocity S-wave (km/s) = 3.53665 3.75416 3.64703
# Velocity P-wave (km/s) = 6.00298 6.20759 6.10615
#
# Compressibility (1/GPa) = 0.02001050
#
# Stress axis : x y z
#
# Youngs Moduli (GPa) = 110.42980 110.42980 104.34273
#
# Poissons Ratio (x) = 0.27567 0.07021
# Poissons Ratio (y) = 0.27567 0.07021
# Poissons Ratio (z) = 0.07431 0.07431
#
# Static dielectric constant tensor:
#      x y z
#    x 2.077820 0.000000 0.000000 
#    y 0.000000 2.077820 0.000000 
#    z 0.000000 0.000000 2.009290 
# 
# From -- ./inp_files/1598.got.cif
#   From: 2010.05.17/outbox.cif.g08.bks.cpg/sg76_cif.got.tgz:1598.got - 2010.06.03 18:43:17.
