data_PCOD9541323
_publ_section_title
;
Structure prediction by ZEFSAII (Michael W. Deem and Ramdas Pophale) SiO2 
 PCOD9541323
Probable space group: P 41
;
_chemical_formula_sum "Si O2"
_cell_formula_units_Z 12
_cell_length_a 6.974439
_cell_length_b 6.974439
_cell_length_c 10.103174
_cell_angle_alpha 90.000000
_cell_angle_beta 90.000000
_cell_angle_gamma 90.000000
_cell_volume 491.446666
_symmetry_space_group_name_H-M "P 41"
_symmetry_group_IT_number 76
_symmetry_cell_setting 'tetragonal'
loop_
_space_group_symop_operation_xyz
x,y,z
-y,x,1/4+z
-x,-y,1/2+z
y,-x,3/4+z
loop_
_atom_site_type_symbol
_atom_site_label
_atom_site_fract_x
_atom_site_fract_y
_atom_site_fract_z
Si Si1 0.500000 0.679738 0.147930
Si Si2 0.647239 0.961216 0.544058
Si Si3 0.352760 0.961215 0.751800
O O1 0.442104 0.557896 0.272930
O O2 0.669854 0.828445 0.187418
O O3 0.330146 0.828445 0.108442
O O4 0.562863 0.000001 0.397929
O O5 0.833944 0.833945 0.522929
O O6 0.500000 0.865773 0.647929
#
# Coordination Sequence:
#
# PCOD9541323 Si02
#       3
#     4   4   4
#     4  10  26  48  82 120 166 218 274 332 412 490
#     4  10  26  47  77 113 159 208 271 332 408 476
#     4  10  26  47  77 113 159 208 271 332 408 476
#
# _framework density 24.417705000000002
#
# number of rings (size 3 to 8) (size 9 to 14) (size 15 to 20)
#    2.000    0.000    0.000    0.000    9.333    5.333 
#    0.000    3.333    0.000    0.000    0.000    0.000 
#    0.000    0.000    0.000    0.000    0.000    0.000 
#
# Total GULP energy -66994.214550 kJ/mol
# GULP energy per Si atom -5582.851213 kJ/mol
# Density = 2.436213 g / cm^3
# Si number density = 24.417705 Si / 1000 Ang^3
#
#
#
# Elastic Constant Matrix: (Units=GPa)
#
#
# Indices 1 2 3 4 5 6 
#
# 1 123.6425 86.5454 81.8401 0.0000 0.0000 -0.0002
# 2 86.5454 123.6425 81.8401 0.0000 0.0000 0.0002
# 3 81.8401 81.8401 235.6856 0.0000 0.0000 0.0000
# 4 0.0000 0.0000 0.0000 36.9903 0.0000 0.0000
# 5 0.0000 0.0000 0.0000 0.0000 36.9903 0.0000
# 6 -0.0002 0.0002 0.0000 0.0000 0.0000 12.2686
#
#
#
# Elastic Compliance Matrix: (Units=1/GPa)
#
#
# Indices 1 2 3 4 5 6 
#
# 1 0.016739 -0.010218 -0.002264 0.000000 0.000000 0.000000
# 2 -0.010218 0.016739 -0.002264 0.000000 0.000000 0.000000
# 3 -0.002264 -0.002264 0.005816 0.000000 0.000000 0.000000
# 4 0.000000 0.000000 0.000000 0.027034 0.000000 0.000000
# 5 0.000000 0.000000 0.000000 0.000000 0.027034 0.000000
# 6 0.000000 0.000000 0.000000 0.000000 0.000000 0.081509
#
#
# Mechanical properties :
#
#
# Convention : Reuss Voigt Hill
#
# Bulk Modulus (GPa) = 102.04062 109.26907 105.65485
# Shear Modulus (GPa) = 24.08140 32.76617 28.42379
#
# Velocity S-wave (km/s) = 3.14383 3.66717 3.41554
# Velocity P-wave (km/s) = 7.42015 7.92325 7.67582
#
# Compressibility (1/GPa) = 0.00980002
#
# Stress axis : x y z
#
# Youngs Moduli (GPa) = 59.74205 59.74205 171.95414
#
# Poissons Ratio (x) = 0.61042 0.38937
# Poissons Ratio (y) = 0.61042 0.38937
# Poissons Ratio (z) = 0.13528 0.13528
#
# Static dielectric constant tensor:
#      x y z
#    x 1.978160 0.000000 0.000000 
#    y 0.000000 1.978160 0.000000 
#    z 0.000000 0.000000 1.928210 
# 
# From -- ./inp_files/385.got.cif
#   From: 2010.05.17/outbox.cif.g08.bks.cpg/sg76_cif.got.tgz:385.got - 2010.06.03 18:43:17.
