data_PCOD9541527
_publ_section_title
;
Structure prediction by ZEFSAII (Michael W. Deem and Ramdas Pophale) SiO2 
 PCOD9541527
Probable space group: P 42
;
_chemical_formula_sum "Si O2"
_cell_formula_units_Z 26
_cell_length_a 13.276924
_cell_length_b 13.276924
_cell_length_c 6.304595
_cell_angle_alpha 90.000000
_cell_angle_beta 90.000000
_cell_angle_gamma 90.000000
_cell_volume 1111.353270
_symmetry_space_group_name_H-M "P 42"
_symmetry_group_IT_number 77
_symmetry_cell_setting 'tetragonal'
loop_
_space_group_symop_operation_xyz
x,y,z
-y,x,1/2+z
-x,-y,z
y,-x,1/2+z
loop_
_atom_site_type_symbol
_atom_site_label
_atom_site_fract_x
_atom_site_fract_y
_atom_site_fract_z
Si Si1 0.841454 0.430553 0.305540
Si Si2 0.234706 0.882785 0.372981
Si Si3 0.242668 0.092838 0.566201
Si Si4 0.097366 0.438967 0.658545
Si Si5 0.243171 0.708785 0.682678
Si Si6 0.713307 0.478062 0.916125
Si Si7 0.500000 0.500000 0.367519
O O1 0.910269 0.355879 0.165211
O O2 0.887265 0.529359 0.414281
O O3 0.807555 0.362015 0.504059
O O4 0.749562 0.461798 0.154980
O O5 0.147085 0.827948 0.239955
O O6 0.321920 0.912323 0.206589
O O7 0.278908 0.803969 0.546538
O O8 0.205118 0.983812 0.495863
O O9 0.252899 0.163271 0.357871
O O10 0.192788 0.478004 0.789353
O O11 0.000000 0.500000 0.733830
O O12 0.314181 0.633029 0.817834
O O13 0.617792 0.545217 0.875395
O O14 0.500000 0.500000 0.618490
#
# Coordination Sequence:
#
# PCOD9541527 Si02
#       7
#     4   4   4   4   4   4   2
#     4   9  20  42  68  99 144 186 248 320 373 451
#     4  11  24  43  74 105 146 192 242 307 384 463
#     4  10  23  45  69 105 145 190 241 307 382 463
#     4  11  24  42  75 113 141 190 261 322 399 463
#     4   9  21  42  70  98 141 188 241 305 377 448
#     4  10  24  46  69 103 152 200 259 318 389 478
#     4  12  32  48  72 106 164 218 274 330 398 502
#
# _framework density 23.394901999999998
#
# number of rings (size 3 to 8) (size 9 to 14) (size 15 to 20)
#    0.000    1.846    0.000    2.769    6.462    9.231 
#    0.000    2.308    0.000    0.000    0.000    0.000 
#    0.000    0.000    0.000    0.000    0.000    0.000 
#
# Total GULP energy -144861.940704 kJ/mol
# GULP energy per Si atom -5571.613104 kJ/mol
# Density = 2.334165 g / cm^3
# Si number density = 23.394902 Si / 1000 Ang^3
#
#
#
# Elastic Constant Matrix: (Units=GPa)
#
#
# Indices 1 2 3 4 5 6 
#
# 1 85.2296 29.7297 32.1711 0.0000 0.0000 12.6681
# 2 29.7297 85.2296 32.1711 0.0000 0.0000 -12.6681
# 3 32.1711 32.1711 164.9800 0.0000 0.0000 0.0000
# 4 0.0000 0.0000 0.0000 32.9217 0.0000 0.0000
# 5 0.0000 0.0000 0.0000 0.0000 32.9217 0.0000
# 6 12.6681 -12.6681 0.0000 0.0000 0.0000 10.8334
#
#
#
# Elastic Compliance Matrix: (Units=1/GPa)
#
#
# Indices 1 2 3 4 5 6 
#
# 1 0.024208 -0.014443 -0.001904 0.000000 0.000000 -0.045196
# 2 -0.014443 0.024208 -0.001904 0.000000 0.000000 0.045196
# 3 -0.001904 -0.001904 0.006804 0.000000 0.000000 0.000000
# 4 0.000000 0.000000 0.000000 0.030375 0.000000 0.000000
# 5 0.000000 0.000000 0.000000 0.000000 0.030375 0.000000
# 6 -0.045196 0.045196 0.000000 0.000000 0.000000 0.198008
#
#
# Mechanical properties :
#
#
# Convention : Reuss Voigt Hill
#
# Bulk Modulus (GPa) = 53.42869 58.17586 55.80228
# Shear Modulus (GPa) = 14.01664 31.42652 22.72158
#
# Velocity S-wave (km/s) = 2.45037 3.66909 3.11982
# Velocity P-wave (km/s) = 5.55816 6.54756 6.07304
#
# Compressibility (1/GPa) = 0.01871654
#
# Stress axis : x y z
#
# Youngs Moduli (GPa) = 41.30946 41.30946 146.97403
#
# Poissons Ratio (x) = 0.59664 0.27985
# Poissons Ratio (y) = 0.59664 0.27985
# Poissons Ratio (z) = 0.07866 0.07866
#
# Static dielectric constant tensor:
#      x y z
#    x 1.937960 0.000000 0.000000 
#    y 0.000000 1.937960 0.000000 
#    z 0.000000 0.000000 1.860640 
# 
# From -- ./inp_files/146.got.cif
#   From: 2010.05.17/outbox.cif.g08.bks.cpg/sg77_cif.got.tgz:146.got - 2010.06.03 18:44:51.
