data_PCOD9541266
_publ_section_title
;
Structure prediction by ZEFSAII (Michael W. Deem and Ramdas Pophale) SiO2 
 PCOD9541266
Probable space group: P 41
;
_chemical_formula_sum "Si O2"
_cell_formula_units_Z 28
_cell_length_a 13.647598
_cell_length_b 13.647598
_cell_length_c 6.383411
_cell_angle_alpha 90.000000
_cell_angle_beta 90.000000
_cell_angle_gamma 90.000000
_cell_volume 1188.954543
_symmetry_space_group_name_H-M "P 41"
_symmetry_group_IT_number 76
_symmetry_cell_setting 'tetragonal'
loop_
_space_group_symop_operation_xyz
x,y,z
-y,x,1/4+z
-x,-y,1/2+z
y,-x,3/4+z
loop_
_atom_site_type_symbol
_atom_site_label
_atom_site_fract_x
_atom_site_fract_y
_atom_site_fract_z
Si Si1 0.914910 0.682533 0.576870
Si Si2 0.903070 0.378411 0.322689
Si Si3 0.229317 0.658744 0.438694
Si Si4 0.561469 0.375843 0.026687
Si Si5 0.947546 0.242922 0.717677
Si Si6 0.486934 0.782137 0.848726
Si Si7 0.103267 0.929979 0.964090
O O1 0.815198 0.624669 0.619812
O O2 0.903054 0.784572 0.696566
O O3 0.001928 0.617124 0.677463
O O4 0.960681 0.715356 0.350943
O O5 0.931130 0.300563 0.500446
O O6 0.867367 0.473435 0.444384
O O7 0.811298 0.353440 0.173767
O O8 0.344240 0.683491 0.442205
O O9 0.152747 0.735518 0.343051
O O10 0.218796 0.558886 0.298637
O O11 0.604550 0.478954 0.105910
O O12 0.513042 0.319704 0.223136
O O13 0.948892 0.130276 0.650015
O O14 0.044522 0.902519 0.757653
#
# Coordination Sequence:
#
# PCOD9541266 Si02
#       7
#     4   4   4   4   4   4   4
#     4  11  26  42  73 104 139 184 231 290 357 417
#     4  10  22  48  66 104 138 174 230 288 346 416
#     4  10  24  45  70 104 141 179 229 294 348 418
#     4  12  25  45  69  99 140 187 236 284 344 424
#     4  10  24  45  70 104 141 179 229 294 348 418
#     4  11  26  42  73 104 139 184 231 290 357 417
#     4  12  25  45  69  99 140 187 236 284 344 424
#
# _framework density 23.550101000000002
#
# number of rings (size 3 to 8) (size 9 to 14) (size 15 to 20)
#    0.000    1.143    2.857    1.714    8.000    2.286 
#    0.000    0.000    0.000    0.000    0.000    0.000 
#    0.000    0.000    0.000    0.000    0.000    0.000 
#
# Total GULP energy -156492.211594 kJ/mol
# GULP energy per Si atom -5589.007557 kJ/mol
# Density = 2.349650 g / cm^3
# Si number density = 23.550101 Si / 1000 Ang^3
#
#
#
# Elastic Constant Matrix: (Units=GPa)
#
#
# Indices 1 2 3 4 5 6 
#
# 1 43.7234 -19.8864 4.3908 0.0000 0.0000 -0.3808
# 2 -19.8864 43.7234 4.3908 0.0000 0.0000 0.3808
# 3 4.3908 4.3908 76.0475 0.0000 0.0000 0.0000
# 4 0.0000 0.0000 0.0000 38.3440 0.0000 0.0000
# 5 0.0000 0.0000 0.0000 0.0000 38.3440 0.0000
# 6 -0.3808 0.3808 0.0000 0.0000 0.0000 25.4712
#
#
#
# Elastic Compliance Matrix: (Units=1/GPa)
#
#
# Indices 1 2 3 4 5 6 
#
# 1 0.029293 0.013570 -0.002475 0.000000 0.000000 0.000235
# 2 0.013570 0.029293 -0.002475 0.000000 0.000000 -0.000235
# 3 -0.002475 -0.002475 0.013435 0.000000 0.000000 0.000000
# 4 0.000000 0.000000 0.000000 0.026080 0.000000 0.000000
# 5 0.000000 0.000000 0.000000 0.000000 0.026080 0.000000
# 6 0.000235 -0.000235 0.000000 0.000000 0.000000 0.039267
#
#
# Mechanical properties :
#
#
# Convention : Reuss Voigt Hill
#
# Bulk Modulus (GPa) = 11.20288 15.69829 13.45059
# Shear Modulus (GPa) = 28.41511 32.07179 30.24345
#
# Velocity S-wave (km/s) = 3.47736 3.69433 3.58749
# Velocity P-wave (km/s) = 4.57056 4.98777 4.78372
#
# Compressibility (1/GPa) = 0.08926274
#
# Stress axis : x y z
#
# Youngs Moduli (GPa) = 34.13732 34.13732 74.42991
#
# Poissons Ratio (x) = -0.46324 0.18420
# Poissons Ratio (y) = -0.46324 0.18420
# Poissons Ratio (z) = 0.08448 0.08448
#
# Static dielectric constant tensor:
#      x y z
#    x 1.899440 0.000000 0.000000 
#    y 0.000000 1.899440 0.000000 
#    z 0.000000 0.000000 1.910630 
# 
# From -- ./inp_files/237.got.cif
#   From: 2010.05.17/outbox.cif.g08.bks.cpg/sg76_cif.got.tgz:237.got - 2010.06.03 18:43:17.
