data_PCOD9541634
_publ_section_title
;
Structure prediction by ZEFSAII (Michael W. Deem and Ramdas Pophale) SiO2 
 PCOD9541634
Probable space group: P 43
;
_chemical_formula_sum "Si O2"
_cell_formula_units_Z 24
_cell_length_a 4.941404
_cell_length_b 4.941404
_cell_length_c 31.181485
_cell_angle_alpha 90.000000
_cell_angle_beta 90.000000
_cell_angle_gamma 90.000000
_cell_volume 761.373083
_symmetry_space_group_name_H-M "P 43"
_symmetry_group_IT_number 78
_symmetry_cell_setting 'tetragonal'
loop_
_space_group_symop_operation_xyz
x,y,z
-y,x,3/4+z
-x,-y,1/2+z
y,-x,1/4+z
loop_
_atom_site_type_symbol
_atom_site_label
_atom_site_fract_x
_atom_site_fract_y
_atom_site_fract_z
Si Si1 0.205364 0.470755 0.363360
Si Si2 0.029245 0.294636 0.797385
Si Si3 0.986759 0.762868 0.113327
Si Si4 0.357798 0.430461 0.454993
Si Si5 0.857798 0.069540 0.455752
Si Si6 0.486760 0.737132 0.797418
O O1 0.265995 0.504992 0.310753
O O2 0.311167 0.564691 0.408858
O O3 0.465959 0.207363 0.353006
O O4 0.959395 0.268616 0.368171
O O5 0.935311 0.188832 0.751888
O O6 0.231385 0.540605 0.792574
O O7 0.995008 0.234004 0.849992
O O8 0.073777 0.741608 0.163417
O O9 0.034041 0.707362 0.057739
O O10 0.666846 0.337648 0.458476
O O11 0.241609 0.573778 0.497328
O O12 0.166846 0.162354 0.452269
#
# Coordination Sequence:
#
# PCOD9541634 Si02
#       6
#     4   4   4   4   4   4
#     4  10  22  40  59  92 127 168 220 280 346 416
#     4  10  22  40  59  92 127 168 220 280 346 416
#     4  10  20  40  63  86 126 167 218 275 340 413
#     4  10  20  39  68  95 131 179 226 282 352 420
#     4  10  20  39  68  95 131 179 226 282 352 420
#     4  10  20  40  63  86 126 167 218 275 340 413
#
# _framework density 31.521999999999998
#
# number of rings (size 3 to 8) (size 9 to 14) (size 15 to 20)
#    0.000    2.000    3.333    0.000    0.000    1.333 
#    6.000    0.000    0.000    0.000    0.000    0.000 
#    0.000    0.000    0.000    0.000    0.000    0.000 
#
# Total GULP energy -133854.675776 kJ/mol
# GULP energy per Si atom -5577.278157 kJ/mol
# Density = 3.145025 g / cm^3
# Si number density = 31.522000 Si / 1000 Ang^3
#
#
#
# Elastic Constant Matrix: (Units=GPa)
#
#
# Indices 1 2 3 4 5 6 
#
# 1 136.4995 98.5366 26.4739 0.0000 0.0000 0.0001
# 2 98.5366 136.4995 26.4739 0.0000 0.0000 -0.0001
# 3 26.4739 26.4739 304.1292 0.0000 0.0000 0.0000
# 4 0.0000 0.0000 0.0000 23.8756 0.0000 0.0000
# 5 0.0000 0.0000 0.0000 0.0000 23.8756 0.0000
# 6 0.0001 -0.0001 0.0000 0.0000 0.0000 94.0771
#
#
#
# Elastic Compliance Matrix: (Units=1/GPa)
#
#
# Indices 1 2 3 4 5 6 
#
# 1 0.015341 -0.011001 -0.000378 0.000000 0.000000 0.000000
# 2 -0.011001 0.015341 -0.000378 0.000000 0.000000 0.000000
# 3 -0.000378 -0.000378 0.003354 0.000000 0.000000 0.000000
# 4 0.000000 0.000000 0.000000 0.041884 0.000000 0.000000
# 5 0.000000 0.000000 0.000000 0.000000 0.041884 0.000000
# 6 0.000000 0.000000 0.000000 0.000000 0.000000 0.010630
#
#
# Mechanical properties :
#
#
# Convention : Reuss Voigt Hill
#
# Bulk Modulus (GPa) = 95.03622 97.78855 96.41239
# Shear Modulus (GPa) = 32.16415 56.74191 44.45303
#
# Velocity S-wave (km/s) = 3.19779 4.24733 3.75937
# Velocity P-wave (km/s) = 6.62187 7.42582 7.03533
#
# Compressibility (1/GPa) = 0.01052230
#
# Stress axis : x y z
#
# Youngs Moduli (GPa) = 65.18633 65.18633 298.16524
#
# Poissons Ratio (x) = 0.71711 0.11264
# Poissons Ratio (y) = 0.71711 0.11264
# Poissons Ratio (z) = 0.02463 0.02463
#
# Static dielectric constant tensor:
#      x y z
#    x 3.307510 0.000000 0.000000 
#    y 0.000000 3.307510 0.000000 
#    z 0.000000 0.000000 2.555070 
# 
# From -- ./inp_files/1747.got.cif
#   From: 2010.05.17/outbox.cif.g08.bks.cpg/sg78_cif.got.tgz:1747.got - 2010.06.03 18:45:56.
