data_PCOD9541441
_publ_section_title
;
Structure prediction by ZEFSAII (Michael W. Deem and Ramdas Pophale) SiO2 
 PCOD9541441
Probable space group: P 41
;
_chemical_formula_sum "Si O2"
_cell_formula_units_Z 16
_cell_length_a 5.027835
_cell_length_b 5.027835
_cell_length_c 24.477257
_cell_angle_alpha 90.000000
_cell_angle_beta 90.000000
_cell_angle_gamma 90.000000
_cell_volume 618.763634
_symmetry_space_group_name_H-M "P 41"
_symmetry_group_IT_number 76
_symmetry_cell_setting 'tetragonal'
loop_
_space_group_symop_operation_xyz
x,y,z
-y,x,1/4+z
-x,-y,1/2+z
y,-x,3/4+z
loop_
_atom_site_type_symbol
_atom_site_label
_atom_site_fract_x
_atom_site_fract_y
_atom_site_fract_z
Si Si1 0.313780 0.190203 0.993280
Si Si2 0.915041 0.003899 0.908821
Si Si3 0.338204 0.349723 0.482088
Si Si4 0.976065 0.406714 0.083468
O O1 0.469722 0.419223 0.961704
O O2 0.033486 0.137340 0.963700
O O3 0.246441 0.320744 0.051852
O O4 0.487331 0.918414 0.994413
O O5 0.631277 0.019222 0.879540
O O6 0.879488 0.710144 0.935378
O O7 0.131105 0.085404 0.863817
O O8 0.203186 0.462153 0.536549
#
# Coordination Sequence:
#
# PCOD9541441 Si02
#       4
#     4   4   4   4
#     4  12  27  53  84 123 175 221 285 346 417 512
#     4  12  26  52  82 132 166 228 278 350 424 504
#     4  12  27  53  84 123 175 221 285 346 417 512
#     4  12  28  50  86 124 172 222 284 346 426 498
#
# _framework density 25.858014000000001
#
# number of rings (size 3 to 8) (size 9 to 14) (size 15 to 20)
#    0.000    0.000    2.500    7.500    0.000    6.000 
#    9.000    0.000    0.000    0.000    0.000    0.000 
#    0.000    0.000    0.000    0.000    0.000    0.000 
#
# Total GULP energy -89342.492277 kJ/mol
# GULP energy per Si atom -5583.905767 kJ/mol
# Density = 2.579916 g / cm^3
# Si number density = 25.858014 Si / 1000 Ang^3
#
#
#
# Elastic Constant Matrix: (Units=GPa)
#
#
# Indices 1 2 3 4 5 6 
#
# 1 150.0423 57.3026 40.9948 0.0000 0.0000 12.8880
# 2 57.3026 150.0423 40.9948 0.0000 0.0000 -12.8880
# 3 40.9948 40.9948 111.3069 0.0000 0.0000 0.0000
# 4 0.0000 0.0000 0.0000 36.2460 0.0000 0.0000
# 5 0.0000 0.0000 0.0000 0.0000 36.2460 0.0000
# 6 12.8880 -12.8880 0.0000 0.0000 0.0000 47.1864
#
#
#
# Elastic Compliance Matrix: (Units=1/GPa)
#
#
# Indices 1 2 3 4 5 6 
#
# 1 0.008657 -0.003012 -0.002079 0.000000 0.000000 -0.003187
# 2 -0.003012 0.008657 -0.002079 0.000000 0.000000 0.003187
# 3 -0.002079 -0.002079 0.010516 0.000000 0.000000 0.000000
# 4 0.000000 0.000000 0.000000 0.027589 0.000000 0.000000
# 5 0.000000 0.000000 0.000000 0.000000 0.027589 0.000000
# 6 -0.003187 0.003187 0.000000 0.000000 0.000000 0.022934
#
#
# Mechanical properties :
#
#
# Convention : Reuss Voigt Hill
#
# Bulk Modulus (GPa) = 74.13268 76.66399 75.39834
# Shear Modulus (GPa) = 40.07123 42.07562 41.07343
#
# Velocity S-wave (km/s) = 3.94085 4.03821 3.98982
# Velocity P-wave (km/s) = 7.03125 7.17323 7.10259
#
# Compressibility (1/GPa) = 0.01348933
#
# Stress axis : x y z
#
# Youngs Moduli (GPa) = 115.51553 115.51553 95.09640
#
# Poissons Ratio (x) = 0.34791 0.19771
# Poissons Ratio (y) = 0.34791 0.19771
# Poissons Ratio (z) = 0.24017 0.24017
#
# Static dielectric constant tensor:
#      x y z
#    x 2.094970 0.000000 0.000000 
#    y 0.000000 2.094970 0.000000 
#    z 0.000000 0.000000 2.068360 
# 
# From -- ./inp_files/1501.got.cif
#   From: 2010.05.17/outbox.cif.g08.bks.cpg/sg76_cif.got.tgz:1501.got - 2010.06.03 18:43:17.
