data_PCOD9541652
_publ_section_title
;
Structure prediction by ZEFSAII (Michael W. Deem and Ramdas Pophale) SiO2 
 PCOD9541652
Probable space group: P 43
;
_chemical_formula_sum "Si O2"
_cell_formula_units_Z 32
_cell_length_a 8.750804
_cell_length_b 8.750804
_cell_length_c 18.705595
_cell_angle_alpha 90.000000
_cell_angle_beta 90.000000
_cell_angle_gamma 90.000000
_cell_volume 1432.410317
_symmetry_space_group_name_H-M "P 43"
_symmetry_group_IT_number 78
_symmetry_cell_setting 'tetragonal'
loop_
_space_group_symop_operation_xyz
x,y,z
-y,x,3/4+z
-x,-y,1/2+z
y,-x,1/4+z
loop_
_atom_site_type_symbol
_atom_site_label
_atom_site_fract_x
_atom_site_fract_y
_atom_site_fract_z
Si Si1 0.794449 0.746588 0.365020
Si Si2 0.390257 0.830648 0.252680
Si Si3 0.995787 0.575265 0.119437
Si Si4 0.115946 0.789466 0.351856
Si Si5 0.700859 0.232417 0.259679
Si Si6 0.290540 0.957213 0.476204
Si Si7 0.561732 0.221224 0.108348
Si Si8 0.465150 0.467432 0.798052
O O1 0.876789 0.640067 0.422948
O O2 0.706395 0.891291 0.398040
O O3 0.665489 0.640298 0.331380
O O4 0.942675 0.807947 0.324327
O O5 0.513317 0.920817 0.297774
O O6 0.233665 0.855736 0.294455
O O7 0.436733 0.651878 0.251011
O O8 0.844161 0.642689 0.083721
O O9 0.996156 0.436869 0.175807
O O10 0.162908 0.611923 0.356828
O O11 0.166141 0.873392 0.425636
O O12 0.883579 0.231826 0.257927
O O13 0.641393 0.172039 0.182571
O O14 0.627425 0.400334 0.260287
O O15 0.348548 0.846447 0.539659
O O16 0.543839 0.405450 0.098421
#
# Coordination Sequence:
#
# PCOD9541652 Si02
#       8
#     4   4   4   4   4   4   4   4
#     4  11  21  38  63  90 123 162 207 264 329 391
#     4   9  20  39  61  85 119 163 208 252 316 393
#     4  10  23  41  61  89 125 165 211 264 324 396
#     4  10  22  39  63  90 124 166 212 266 325 397
#     4  12  24  39  63  94 127 161 213 279 326 380
#     4  11  25  44  64  95 134 176 221 273 341 411
#     4  11  22  42  67  90 125 174 222 266 329 405
#     4  10  21  38  62  91 119 159 214 266 316 381
#
# _framework density 22.339970000000001
#
# number of rings (size 3 to 8) (size 9 to 14) (size 15 to 20)
#    0.000    1.500    0.000    6.000    0.000    4.000 
#    0.000    5.000    0.000    0.000    0.000    0.000 
#    0.000    0.000    0.000    0.000    0.000    0.000 
#
# Total GULP energy -178521.491521 kJ/mol
# GULP energy per Si atom -5578.796610 kJ/mol
# Density = 2.228912 g / cm^3
# Si number density = 22.339970 Si / 1000 Ang^3
#
#
#
# Elastic Constant Matrix: (Units=GPa)
#
#
# Indices 1 2 3 4 5 6 
#
# 1 78.7063 13.3048 15.7809 0.0000 0.0000 1.8954
# 2 13.3048 78.7063 15.7809 0.0000 0.0000 -1.8954
# 3 15.7809 15.7809 53.4487 0.0000 0.0000 0.0000
# 4 0.0000 0.0000 0.0000 25.7672 0.0000 0.0000
# 5 0.0000 0.0000 0.0000 0.0000 25.7672 0.0000
# 6 1.8954 -1.8954 0.0000 0.0000 0.0000 11.3504
#
#
#
# Elastic Compliance Matrix: (Units=1/GPa)
#
#
# Indices 1 2 3 4 5 6 
#
# 1 0.013766 -0.001673 -0.003570 0.000000 0.000000 -0.002578
# 2 -0.001673 0.013766 -0.003570 0.000000 0.000000 0.002578
# 3 -0.003570 -0.003570 0.020818 0.000000 0.000000 0.000000
# 4 0.000000 0.000000 0.000000 0.038809 0.000000 0.000000
# 5 0.000000 0.000000 0.000000 0.000000 0.038809 0.000000
# 6 -0.002578 0.002578 0.000000 0.000000 0.000000 0.088964
#
#
# Mechanical properties :
#
#
# Convention : Reuss Voigt Hill
#
# Bulk Modulus (GPa) = 32.55001 33.39939 32.97470
# Shear Modulus (GPa) = 20.59295 23.64327 22.11811
#
# Velocity S-wave (km/s) = 3.03941 3.25674 3.14995
# Velocity P-wave (km/s) = 5.18838 5.39674 5.29358
#
# Compressibility (1/GPa) = 0.03072196
#
# Stress axis : x y z
#
# Youngs Moduli (GPa) = 72.64113 72.64113 48.03556
#
# Poissons Ratio (x) = 0.12155 0.17151
# Poissons Ratio (y) = 0.12155 0.17151
# Poissons Ratio (z) = 0.25936 0.25936
#
# Static dielectric constant tensor:
#      x y z
#    x 1.872530 0.000000 0.000000 
#    y 0.000000 1.872530 0.000000 
#    z 0.000000 0.000000 1.844140 
# 
# From -- ./inp_files/1451.got.cif
#   From: 2010.05.17/outbox.cif.g08.bks.cpg/sg78_cif.got.tgz:1451.got - 2010.06.03 18:45:56.
