data_PCOD9541644
_publ_section_title
;
Structure prediction by ZEFSAII (Michael W. Deem and Ramdas Pophale) SiO2 
 PCOD9541644
Probable space group: P 43
;
_chemical_formula_sum "Si O2"
_cell_formula_units_Z 16
_cell_length_a 7.594179
_cell_length_b 7.594179
_cell_length_c 9.869656
_cell_angle_alpha 90.000000
_cell_angle_beta 90.000000
_cell_angle_gamma 90.000000
_cell_volume 569.198406
_symmetry_space_group_name_H-M "P 43"
_symmetry_group_IT_number 78
_symmetry_cell_setting 'tetragonal'
loop_
_space_group_symop_operation_xyz
x,y,z
-y,x,3/4+z
-x,-y,1/2+z
y,-x,1/4+z
loop_
_atom_site_type_symbol
_atom_site_label
_atom_site_fract_x
_atom_site_fract_y
_atom_site_fract_z
Si Si1 0.658402 0.809713 0.435060
Si Si2 0.893669 0.115085 0.316904
Si Si3 0.742402 0.469895 0.248815
Si Si4 0.293840 0.635333 0.471510
O O1 0.748871 0.979298 0.372692
O O2 0.726277 0.641217 0.344519
O O3 0.448639 0.780952 0.454660
O O4 0.696968 0.822469 0.595573
O O5 0.910415 0.063903 0.159852
O O6 0.826445 0.313511 0.335155
O O7 0.546809 0.405526 0.200982
O O8 0.822330 0.431794 0.098767
#
# Coordination Sequence:
#
# PCOD9541644 Si02
#       4
#     4   4   4   4
#     4  11  21  47  79 112 151 198 253 312 380 453
#     4  12  30  50  70 116 156 198 258 318 380 458
#     4  11  21  47  79 112 151 198 253 312 380 453
#     4  10  20  42  80 118 144 200 258 308 386 456
#
# _framework density 28.109708000000001
#
# number of rings (size 3 to 8) (size 9 to 14) (size 15 to 20)
#    0.000    1.000    5.000    3.000    3.500    0.000 
#   27.000    2.500    0.000    0.000    0.000    0.000 
#    0.000    0.000    0.000    0.000    0.000    0.000 
#
# Total GULP energy -89189.667355 kJ/mol
# GULP energy per Si atom -5574.354210 kJ/mol
# Density = 2.804573 g / cm^3
# Si number density = 28.109708 Si / 1000 Ang^3
#
#
#
# Elastic Constant Matrix: (Units=GPa)
#
#
# Indices 1 2 3 4 5 6 
#
# 1 109.3728 37.0295 20.3445 0.0000 0.0000 14.6728
# 2 37.0295 109.3728 20.3445 0.0000 0.0000 -14.6728
# 3 20.3445 20.3445 147.9947 0.0000 0.0000 0.0000
# 4 0.0000 0.0000 0.0000 34.5338 0.0000 0.0000
# 5 0.0000 0.0000 0.0000 0.0000 34.5338 0.0000
# 6 14.6728 -14.6728 0.0000 0.0000 0.0000 30.1114
#
#
#
# Elastic Compliance Matrix: (Units=1/GPa)
#
#
# Indices 1 2 3 4 5 6 
#
# 1 0.012165 -0.005063 -0.000976 0.000000 0.000000 -0.008395
# 2 -0.005063 0.012165 -0.000976 0.000000 0.000000 0.008395
# 3 -0.000976 -0.000976 0.007025 0.000000 0.000000 0.000000
# 4 0.000000 0.000000 0.000000 0.028957 0.000000 0.000000
# 5 0.000000 0.000000 0.000000 0.000000 0.028957 0.000000
# 6 -0.008395 0.008395 0.000000 0.000000 0.000000 0.041392
#
#
# Mechanical properties :
#
#
# Convention : Reuss Voigt Hill
#
# Bulk Modulus (GPa) = 57.72345 58.01967 57.87156
# Shear Modulus (GPa) = 33.22969 39.10392 36.16681
#
# Velocity S-wave (km/s) = 3.44196 3.73382 3.59085
# Velocity P-wave (km/s) = 6.03123 6.26688 6.15018
#
# Compressibility (1/GPa) = 0.01732398
#
# Stress axis : x y z
#
# Youngs Moduli (GPa) = 82.20229 82.20229 142.34041
#
# Poissons Ratio (x) = 0.41621 0.13896
# Poissons Ratio (y) = 0.41621 0.13896
# Poissons Ratio (z) = 0.08025 0.08025
#
# Static dielectric constant tensor:
#      x y z
#    x 2.388450 0.000000 0.000000 
#    y 0.000000 2.388450 0.000000 
#    z 0.000000 0.000000 2.639060 
# 
# From -- ./inp_files/803.got.cif
#   From: 2010.05.17/outbox.cif.g08.bks.cpg/sg78_cif.got.tgz:803.got - 2010.06.03 18:45:56.
