data_PCOD9541420
_publ_section_title
;
Structure prediction by ZEFSAII (Michael W. Deem and Ramdas Pophale) SiO2 
 PCOD9541420
Probable space group: P 41
;
_chemical_formula_sum "Si O2"
_cell_formula_units_Z 16
_cell_length_a 11.590462
_cell_length_b 11.590462
_cell_length_c 4.947909
_cell_angle_alpha 90.000000
_cell_angle_beta 90.000000
_cell_angle_gamma 90.000000
_cell_volume 664.696204
_symmetry_space_group_name_H-M "P 41"
_symmetry_group_IT_number 76
_symmetry_cell_setting 'tetragonal'
loop_
_space_group_symop_operation_xyz
x,y,z
-y,x,1/4+z
-x,-y,1/2+z
y,-x,3/4+z
loop_
_atom_site_type_symbol
_atom_site_label
_atom_site_fract_x
_atom_site_fract_y
_atom_site_fract_z
Si Si1 0.182729 0.501413 0.497960
Si Si2 0.741675 0.087675 0.681295
Si Si3 0.502740 0.323950 0.252091
Si Si4 0.260369 0.068484 0.689441
O O1 0.140016 0.383311 0.358055
O O2 0.229527 0.460661 0.786026
O O3 0.107104 0.614573 0.550601
O O4 0.274830 0.547406 0.279319
O O5 0.829118 0.177099 0.829451
O O6 0.790100 0.017871 0.420181
O O7 0.713472 0.998133 0.915604
O O8 0.604100 0.407207 0.342845
#
# Coordination Sequence:
#
# PCOD9541420 Si02
#       4
#     4   4   4   4
#     4  12  25  45  72 104 144 190 241 301 364 432
#     4  12  26  47  74 107 146 191 244 301 364 432
#     4  12  23  39  64 102 146 192 239 289 360 438
#     4  12  26  47  74 107 146 191 244 301 364 432
#
# _framework density 24.071148000000001
#
# number of rings (size 3 to 8) (size 9 to 14) (size 15 to 20)
#    0.000    0.000    0.000   12.000    0.000    2.000 
#    0.000    0.000    0.000    0.000    0.000    0.000 
#    0.000    0.000    0.000    0.000    0.000    0.000 
#
# Total GULP energy -89461.553596 kJ/mol
# GULP energy per Si atom -5591.347100 kJ/mol
# Density = 2.401636 g / cm^3
# Si number density = 24.071148 Si / 1000 Ang^3
#
#
#
# Elastic Constant Matrix: (Units=GPa)
#
#
# Indices 1 2 3 4 5 6 
#
# 1 74.8830 44.7777 31.4666 0.0000 0.0000 -1.6321
# 2 44.7777 74.8830 31.4666 0.0000 0.0000 1.6321
# 3 31.4666 31.4666 169.7712 0.0000 0.0000 0.0000
# 4 0.0000 0.0000 0.0000 49.4212 0.0000 0.0000
# 5 0.0000 0.0000 0.0000 0.0000 49.4212 0.0000
# 6 -1.6321 1.6321 0.0000 0.0000 0.0000 23.4722
#
#
#
# Elastic Compliance Matrix: (Units=1/GPa)
#
#
# Indices 1 2 3 4 5 6 
#
# 1 0.021364 -0.012105 -0.001716 0.000000 0.000000 0.002327
# 2 -0.012105 0.021364 -0.001716 0.000000 0.000000 -0.002327
# 3 -0.001716 -0.001716 0.006526 0.000000 0.000000 0.000000
# 4 0.000000 0.000000 0.000000 0.020234 0.000000 0.000000
# 5 0.000000 0.000000 0.000000 0.000000 0.020234 0.000000
# 6 0.002327 -0.002327 0.000000 0.000000 0.000000 0.042927
#
#
# Mechanical properties :
#
#
# Convention : Reuss Voigt Hill
#
# Bulk Modulus (GPa) = 55.00335 59.43986 57.22161
# Shear Modulus (GPa) = 29.44892 38.58469 34.01680
#
# Velocity S-wave (km/s) = 3.50152 4.00802 3.76330
# Velocity P-wave (km/s) = 6.26478 6.79456 6.53504
#
# Compressibility (1/GPa) = 0.01818071
#
# Stress axis : x y z
#
# Youngs Moduli (GPa) = 46.80698 46.80698 153.22201
#
# Poissons Ratio (x) = 0.56659 0.26297
# Poissons Ratio (y) = 0.56659 0.26297
# Poissons Ratio (z) = 0.08033 0.08033
#
# Static dielectric constant tensor:
#      x y z
#    x 2.069360 0.000000 0.000000 
#    y 0.000000 2.069360 0.000000 
#    z 0.000000 0.000000 1.880590 
# 
# From -- ./inp_files/73.got.cif
#   From: 2010.05.17/outbox.cif.g08.bks.cpg/sg76_cif.got.tgz:73.got - 2010.06.03 18:43:17.
