data_PCOD9541655
_publ_section_title
;
Structure prediction by ZEFSAII (Michael W. Deem and Ramdas Pophale) SiO2 
 PCOD9541655
Probable space group: P 43
;
_chemical_formula_sum "Si O2"
_cell_formula_units_Z 28
_cell_length_a 13.745451
_cell_length_b 13.745451
_cell_length_c 6.695099
_cell_angle_alpha 90.000000
_cell_angle_beta 90.000000
_cell_angle_gamma 90.000000
_cell_volume 1264.954753
_symmetry_space_group_name_H-M "P 43"
_symmetry_group_IT_number 78
_symmetry_cell_setting 'tetragonal'
loop_
_space_group_symop_operation_xyz
x,y,z
-y,x,3/4+z
-x,-y,1/2+z
y,-x,1/4+z
loop_
_atom_site_type_symbol
_atom_site_label
_atom_site_fract_x
_atom_site_fract_y
_atom_site_fract_z
Si Si1 0.082213 0.496013 0.220970
Si Si2 0.757690 0.490720 0.415823
Si Si3 0.870529 0.025111 0.942756
Si Si4 0.588815 0.879702 0.861292
Si Si5 0.146901 0.777918 0.865213
Si Si6 0.709256 0.314603 0.679863
Si Si7 0.286334 0.829802 0.523239
O O1 0.110998 0.581565 0.372865
O O2 0.131069 0.395389 0.297599
O O3 0.970220 0.480204 0.172619
O O4 0.135798 0.511994 0.013571
O O5 0.776083 0.447062 0.197067
O O6 0.703755 0.422993 0.580192
O O7 0.724411 0.600301 0.390054
O O8 0.777307 0.092161 0.898929
O O9 0.904768 0.956948 0.763350
O O10 0.845796 0.948027 0.122716
O O11 0.690897 0.891936 0.972005
O O12 0.232204 0.826114 0.734202
O O13 0.202221 0.735525 0.056348
O O14 0.719750 0.273708 0.907519
#
# Coordination Sequence:
#
# PCOD9541655 Si02
#       7
#     4   4   4   4   4   4   4
#     4  11  20  34  58  89 120 154 200 256 312 378
#     4  10  22  40  62  90 118 158 206 260 328 384
#     4  10  22  36  54  82 124 168 218 252 298 374
#     4  11  20  34  58  89 120 154 200 256 312 378
#     4  10  21  39  56  85 121 161 204 260 307 368
#     4  10  22  40  66  86 120 160 206 264 326 386
#     4  10  21  39  56  85 121 161 204 260 307 368
#
# _framework density 22.135176999999999
#
# number of rings (size 3 to 8) (size 9 to 14) (size 15 to 20)
#    0.000    1.714    2.857    1.714    2.000    0.000 
#    0.000    0.000   15.714    0.000    0.000    0.000 
#    0.000    0.000    0.000    0.000    0.000    0.000 
#
# Total GULP energy -155965.913395 kJ/mol
# GULP energy per Si atom -5570.211193 kJ/mol
# Density = 2.208480 g / cm^3
# Si number density = 22.135177 Si / 1000 Ang^3
#
#
#
# Elastic Constant Matrix: (Units=GPa)
#
#
# Indices 1 2 3 4 5 6 
#
# 1 57.8661 11.4489 17.4315 0.0000 0.0000 -3.0364
# 2 11.4489 57.8661 17.4315 0.0000 0.0000 3.0364
# 3 17.4315 17.4315 43.3607 0.0000 0.0000 0.0000
# 4 0.0000 0.0000 0.0000 23.5428 0.0000 0.0000
# 5 0.0000 0.0000 0.0000 0.0000 23.5428 0.0000
# 6 -3.0364 3.0364 0.0000 0.0000 0.0000 13.3784
#
#
#
# Elastic Compliance Matrix: (Units=1/GPa)
#
#
# Indices 1 2 3 4 5 6 
#
# 1 0.020143 -0.002060 -0.007270 0.000000 0.000000 0.005039
# 2 -0.002060 0.020143 -0.007270 0.000000 0.000000 -0.005039
# 3 -0.007270 -0.007270 0.028907 0.000000 0.000000 0.000000
# 4 0.000000 0.000000 0.000000 0.042476 0.000000 0.000000
# 5 0.000000 0.000000 0.000000 0.000000 0.042476 0.000000
# 6 0.005039 -0.005039 0.000000 0.000000 0.000000 0.077035
#
#
# Mechanical properties :
#
#
# Convention : Reuss Voigt Hill
#
# Bulk Modulus (GPa) = 27.78151 27.96853 27.87502
# Shear Modulus (GPa) = 18.09122 19.61153 18.85137
#
# Velocity S-wave (km/s) = 2.86196 2.97979 2.92147
# Velocity P-wave (km/s) = 4.84759 4.94991 4.89902
#
# Compressibility (1/GPa) = 0.03599517
#
# Stress axis : x y z
#
# Youngs Moduli (GPa) = 49.64459 49.64459 34.59319
#
# Poissons Ratio (x) = 0.10226 0.25148
# Poissons Ratio (y) = 0.10226 0.25148
# Poissons Ratio (z) = 0.36090 0.36090
#
# Static dielectric constant tensor:
#      x y z
#    x 1.839370 0.000000 0.000000 
#    y 0.000000 1.839370 0.000000 
#    z 0.000000 0.000000 1.850930 
# 
# From -- ./inp_files/273.got.cif
#   From: 2010.05.17/outbox.cif.g08.bks.cpg/sg78_cif.got.tgz:273.got - 2010.06.03 18:45:56.
