data_PCOD9541005
_publ_section_title
;
Structure prediction by ZEFSAII (Michael W. Deem and Ramdas Pophale) SiO2 
 PCOD9541005
Probable space group: P 4
;
_chemical_formula_sum "Si O2"
_cell_formula_units_Z 25
_cell_length_a 8.248767
_cell_length_b 8.248767
_cell_length_c 16.901856
_cell_angle_alpha 90.000000
_cell_angle_beta 90.000000
_cell_angle_gamma 90.000000
_cell_volume 1150.038740
_symmetry_space_group_name_H-M "P 4"
_symmetry_group_IT_number 75
_symmetry_cell_setting 'tetragonal'
loop_
_space_group_symop_operation_xyz
x,y,z
-y,x,z
-x,-y,z
y,-x,z
loop_
_atom_site_type_symbol
_atom_site_label
_atom_site_fract_x
_atom_site_fract_y
_atom_site_fract_z
Si Si1 0.746201 0.104563 0.424700
Si Si2 0.000000 0.500000 0.547171
Si Si3 0.237332 0.862584 0.249860
Si Si4 0.581067 0.763014 0.680579
Si Si5 0.094747 0.247611 0.929390
Si Si6 0.590306 0.166828 0.092025
Si Si7 0.500000 0.500000 0.055779
Si Si8 0.500000 0.000000 0.813808
O O1 0.611522 0.113970 0.491885
O O2 0.685882 0.154349 0.337069
O O3 0.914735 0.201779 0.430629
O O4 0.120902 0.599639 0.604364
O O5 0.334978 0.790210 0.177039
O O6 0.056786 0.788648 0.244125
O O7 0.394630 0.695807 0.681283
O O8 0.600709 0.882584 0.755382
O O9 0.118485 0.397784 0.871065
O O10 0.908755 0.201101 0.913524
O O11 0.120811 0.290701 0.020556
O O12 0.469505 0.304778 0.060539
O O13 0.500000 0.000000 0.108261
#
# Coordination Sequence:
#
# PCOD9541005 Si02
#       8
#     4   2   4   4   4   4   1   2
#     4   9  19  35  56  86 119 157 208 258 314 389
#     4  11  20  34  61  88 118 154 207 258 322 391
#     4   9  18  35  60  85 120 170 218 265 330 394
#     4  10  22  40  60  85 120 159 201 255 327 405
#     4  11  23  40  62  92 127 165 214 270 338 399
#     4  12  24  42  63  92 134 180 223 287 331 388
#     4  12  28  44  68 104 136 180 258 292 336 424
#     4  11  22  40  63  92 116 160 211 268 324 405
#
# _framework density 21.738398
#
# number of rings (size 3 to 8) (size 9 to 14) (size 15 to 20)
#    0.000    1.600    0.800    5.760    1.120    1.280 
#    0.000    0.000    0.000    7.680    0.000    0.000 
#    0.000    0.000    0.000    0.000    0.000    0.000 
#
# Total GULP energy -139331.716796 kJ/mol
# GULP energy per Si atom -5573.268672 kJ/mol
# Density = 2.168892 g / cm^3
# Si number density = 21.738398 Si / 1000 Ang^3
#
#
#
# Elastic Constant Matrix: (Units=GPa)
#
#
# Indices 1 2 3 4 5 6 
#
# 1 43.7820 -10.8488 12.9379 0.0000 0.0000 -11.0445
# 2 -10.8488 43.7820 12.9379 0.0000 0.0000 11.0445
# 3 12.9379 12.9379 123.1190 0.0000 0.0000 0.0000
# 4 0.0000 0.0000 0.0000 16.6139 0.0000 0.0000
# 5 0.0000 0.0000 0.0000 0.0000 16.6139 0.0000
# 6 -11.0445 11.0445 0.0000 0.0000 0.0000 9.3337
#
#
#
# Elastic Compliance Matrix: (Units=1/GPa)
#
#
# Indices 1 2 3 4 5 6 
#
# 1 0.034097 -0.000999 -0.003478 0.000000 0.000000 0.041529
# 2 -0.000999 0.034097 -0.003478 0.000000 0.000000 -0.041529
# 3 -0.003478 -0.003478 0.008853 0.000000 0.000000 0.000000
# 4 0.000000 0.000000 0.000000 0.060190 0.000000 0.000000
# 5 0.000000 0.000000 0.000000 0.000000 0.060190 0.000000
# 6 0.041529 -0.041529 0.000000 0.000000 0.000000 0.205419
#
#
# Mechanical properties :
#
#
# Convention : Reuss Voigt Hill
#
# Bulk Modulus (GPa) = 16.35706 26.74854 21.55280
# Shear Modulus (GPa) = 11.38601 21.55605 16.47103
#
# Velocity S-wave (km/s) = 2.29109 3.15240 2.75561
# Velocity P-wave (km/s) = 3.81309 5.05783 4.47891
#
# Compressibility (1/GPa) = 0.06113568
#
# Stress axis : x y z
#
# Youngs Moduli (GPa) = 29.32842 29.32842 112.95356
#
# Poissons Ratio (x) = 0.02931 0.39285
# Poissons Ratio (y) = 0.02931 0.39285
# Poissons Ratio (z) = 0.10200 0.10200
#
# Static dielectric constant tensor:
#      x y z
#    x 1.834070 0.000000 0.000000 
#    y 0.000000 1.834070 0.000000 
#    z 0.000000 0.000000 1.806060 
# 
# From -- ./inp_files/715.got.cif
#   From: 2010.05.17/outbox.cif.g08.bks.cpg/sg75_cif.got.tgz:715.got - 2010.06.03 18:42:43.
