data_PCOD9541014
_publ_section_title
;
Structure prediction by ZEFSAII (Michael W. Deem and Ramdas Pophale) SiO2 
 PCOD9541014
Probable space group: P 4
;
_chemical_formula_sum "Si O2"
_cell_formula_units_Z 20
_cell_length_a 11.796320
_cell_length_b 11.796320
_cell_length_c 7.643509
_cell_angle_alpha 90.000000
_cell_angle_beta 90.000000
_cell_angle_gamma 90.000000
_cell_volume 1063.618473
_symmetry_space_group_name_H-M "P 4"
_symmetry_group_IT_number 75
_symmetry_cell_setting 'tetragonal'
loop_
_space_group_symop_operation_xyz
x,y,z
-y,x,z
-x,-y,z
y,-x,z
loop_
_atom_site_type_symbol
_atom_site_label
_atom_site_fract_x
_atom_site_fract_y
_atom_site_fract_z
Si Si1 0.099117 0.733107 0.620040
Si Si2 0.589874 0.093356 0.102818
Si Si3 0.500290 0.137362 0.463730
Si Si4 0.003354 0.816040 0.259652
Si Si5 0.684404 0.138984 0.753126
O O1 0.163097 0.625957 0.530548
O O2 0.028989 0.796007 0.465455
O O3 0.193131 0.808666 0.713533
O O4 0.998451 0.693387 0.747097
O O5 0.464114 0.836741 0.264804
O O6 0.694342 0.020101 0.179511
O O7 0.500000 0.000000 0.039913
O O8 0.634327 0.167270 0.942364
O O9 0.596684 0.173713 0.600341
O O10 0.500000 0.000000 0.465734
O O11 0.892817 0.889444 0.210229
#
# Coordination Sequence:
#
# PCOD9541014 Si02
#       5
#     4   4   4   4   4
#     4  11  19  37  57  77 118 152 192 243 300 350
#     4  11  20  37  58  79 115 157 203 248 282 349
#     4   9  18  38  54  75 108 151 199 239 280 348
#     4  11  21  35  55  83 120 158 194 236 295 364
#     4  11  23  34  54  86 112 150 195 240 299 354
#
# _framework density 18.803733999999999
#
# number of rings (size 3 to 8) (size 9 to 14) (size 15 to 20)
#    0.000    1.400    8.000    1.800    2.800    0.400 
#    0.000    0.000    0.000    0.600    0.000    0.000 
#    0.000    5.200    0.000    0.000    0.000    0.000 
#
# Total GULP energy -111474.702016 kJ/mol
# GULP energy per Si atom -5573.735101 kJ/mol
# Density = 1.876094 g / cm^3
# Si number density = 18.803734 Si / 1000 Ang^3
#
#
#
# Elastic Constant Matrix: (Units=GPa)
#
#
# Indices 1 2 3 4 5 6 
#
# 1 57.8032 29.6176 22.1177 0.0000 0.0000 4.4493
# 2 29.6176 57.8032 22.1177 0.0000 0.0000 -4.4493
# 3 22.1177 22.1177 104.3929 0.0000 0.0000 0.0000
# 4 0.0000 0.0000 0.0000 16.7868 0.0000 0.0000
# 5 0.0000 0.0000 0.0000 0.0000 16.7868 0.0000
# 6 4.4493 -4.4493 0.0000 0.0000 0.0000 4.3807
#
#
#
# Elastic Compliance Matrix: (Units=1/GPa)
#
#
# Indices 1 2 3 4 5 6 
#
# 1 0.032519 -0.019706 -0.002715 0.000000 0.000000 -0.053043
# 2 -0.019706 0.032519 -0.002715 0.000000 0.000000 0.053043
# 3 -0.002715 -0.002715 0.010729 0.000000 0.000000 0.000000
# 4 0.000000 0.000000 0.000000 0.059571 0.000000 0.000000
# 5 0.000000 0.000000 0.000000 0.000000 0.059571 0.000000
# 6 -0.053043 0.053043 0.000000 0.000000 0.000000 0.336020
#
#
# Mechanical properties :
#
#
# Convention : Reuss Voigt Hill
#
# Bulk Modulus (GPa) = 39.22155 40.85612 40.03884
# Shear Modulus (GPa) = 8.47891 17.33396 12.90644
#
# Velocity S-wave (km/s) = 2.12578 3.03947 2.62272
# Velocity P-wave (km/s) = 5.18931 5.83889 5.52366
#
# Compressibility (1/GPa) = 0.02549619
#
# Stress axis : x y z
#
# Youngs Moduli (GPa) = 30.75131 30.75131 93.20129
#
# Poissons Ratio (x) = 0.60600 0.25300
# Poissons Ratio (y) = 0.60600 0.25300
# Poissons Ratio (z) = 0.08348 0.08348
#
# Static dielectric constant tensor:
#      x y z
#    x 1.661050 0.000000 0.000000 
#    y 0.000000 1.661050 0.000000 
#    z 0.000000 0.000000 1.741270 
# 
# From -- ./inp_files/306.got.cif
#   From: 2010.05.17/outbox.cif.g08.bks.cpg/sg75_cif.got.tgz:306.got - 2010.06.03 18:42:43.
