data_PCOD9541790
_publ_section_title
;
Structure prediction by ZEFSAII (Michael W. Deem and Ramdas Pophale) SiO2 
 PCOD9541790
Probable space group: P 43
;
_chemical_formula_sum "Si O2"
_cell_formula_units_Z 20
_cell_length_a 12.367978
_cell_length_b 12.367978
_cell_length_c 4.788623
_cell_angle_alpha 90.000000
_cell_angle_beta 90.000000
_cell_angle_gamma 90.000000
_cell_volume 732.500719
_symmetry_space_group_name_H-M "P 43"
_symmetry_group_IT_number 78
_symmetry_cell_setting 'tetragonal'
loop_
_space_group_symop_operation_xyz
x,y,z
-y,x,3/4+z
-x,-y,1/2+z
y,-x,1/4+z
loop_
_atom_site_type_symbol
_atom_site_label
_atom_site_fract_x
_atom_site_fract_y
_atom_site_fract_z
Si Si1 0.252623 0.444517 0.476810
Si Si2 0.423420 0.978514 0.506404
Si Si3 0.088616 0.738914 0.339941
Si Si4 0.152468 0.933977 0.706238
Si Si5 0.261525 0.598277 0.992163
O O1 0.976374 0.480011 0.532050
O O2 0.222706 0.523595 0.733738
O O3 0.327109 0.352407 0.603270
O O4 0.304582 0.517897 0.233579
O O5 0.396271 0.854756 0.582579
O O6 0.328836 0.046296 0.359007
O O7 0.149868 0.847127 0.453794
O O8 0.176089 0.675170 0.153637
O O9 0.975262 0.756374 0.171115
O O10 0.051954 0.886443 0.870195
#
# Coordination Sequence:
#
# PCOD9541790 Si02
#       5
#     4   4   4   4   4
#     4  12  29  62  93 140 174 246 307 393 466 559
#     4  12  29  58  89 132 191 234 305 382 452 556
#     4  12  30  57  92 130 195 246 300 380 449 558
#     4  12  26  57  78 128 179 244 309 351 442 546
#     4  12  30  62  94 138 183 236 321 382 481 541
#
# _framework density 27.303723000000002
#
# number of rings (size 3 to 8) (size 9 to 14) (size 15 to 20)
#    0.000    0.000    4.000    2.400    5.600    3.200 
#   25.200    0.000    0.000    0.000    0.000    0.000 
#    0.000    0.000    0.000    0.000    0.000    0.000 
#
# Total GULP energy -112089.993431 kJ/mol
# GULP energy per Si atom -5604.499672 kJ/mol
# Density = 2.724158 g / cm^3
# Si number density = 27.303723 Si / 1000 Ang^3
#
#
#
# Elastic Constant Matrix: (Units=GPa)
#
#
# Indices 1 2 3 4 5 6 
#
# 1 113.1465 134.8211 81.4100 0.0000 0.0000 6.0283
# 2 134.8211 113.1465 81.4100 0.0000 0.0000 -6.0283
# 3 81.4100 81.4100 196.2737 0.0000 0.0000 0.0000
# 4 0.0000 0.0000 0.0000 71.2151 0.0000 0.0000
# 5 0.0000 0.0000 0.0000 0.0000 71.2151 0.0000
# 6 6.0283 -6.0283 0.0000 0.0000 0.0000 31.2047
#
#
#
# Elastic Compliance Matrix: (Units=1/GPa)
#
#
# Indices 1 2 3 4 5 6 
#
# 1 -0.018059 0.023601 -0.002299 0.000000 0.000000 0.008048
# 2 0.023601 -0.018059 -0.002299 0.000000 0.000000 -0.008048
# 3 -0.002299 -0.002299 0.007002 0.000000 0.000000 0.000000
# 4 0.000000 0.000000 0.000000 0.014042 0.000000 0.000000
# 5 0.000000 0.000000 0.000000 0.000000 0.014042 0.000000
# 6 0.008048 -0.008048 0.000000 0.000000 0.000000 0.028937
#
#
# Mechanical properties :
#
#
# Convention : Reuss Voigt Hill
#
# Bulk Modulus (GPa) = 112.47111 113.09432 112.78272
# Shear Modulus (GPa) = -700.43488 43.05533 -328.68978
#
# Velocity S-wave (km/s) = -16.03407 3.97533 -10.98381
# Velocity P-wave (km/s) = 17.36395 7.91086 10.92989
#
# Compressibility (1/GPa) = 0.00889117
#
# Stress axis : x y z
#
# Youngs Moduli (GPa) = -55.37434 -55.37434 142.81839
#
# Poissons Ratio (x) = 1.30690 0.32831
# Poissons Ratio (y) = 1.30690 0.32831
# Poissons Ratio (z) = -0.12729 -0.12729
#
# Static dielectric constant tensor:
#      x y z
#    x 2.190120 0.000000 0.000000 
#    y 0.000000 2.190120 0.000000 
#    z 0.000000 0.000000 2.198210 
# 
# From -- ./inp_files/155.got.cif
#   From: 2010.05.17/outbox.cif.g08.bks.cpg/sg78_cif.got.tgz:155.got - 2010.06.03 18:45:56.
