data_PCOD9541622
_publ_section_title
;
Structure prediction by ZEFSAII (Michael W. Deem and Ramdas Pophale) SiO2 
 PCOD9541622
Probable space group: P 43
;
_chemical_formula_sum "Si O2"
_cell_formula_units_Z 32
_cell_length_a 11.987025
_cell_length_b 11.987025
_cell_length_c 9.639126
_cell_angle_alpha 90.000000
_cell_angle_beta 90.000000
_cell_angle_gamma 90.000000
_cell_volume 1385.034143
_symmetry_space_group_name_H-M "P 43"
_symmetry_group_IT_number 78
_symmetry_cell_setting 'tetragonal'
loop_
_space_group_symop_operation_xyz
x,y,z
-y,x,3/4+z
-x,-y,1/2+z
y,-x,1/4+z
loop_
_atom_site_type_symbol
_atom_site_label
_atom_site_fract_x
_atom_site_fract_y
_atom_site_fract_z
Si Si1 0.086578 0.190625 0.699880
Si Si2 0.914840 0.328325 0.835225
Si Si3 0.798546 0.335093 0.552421
Si Si4 0.853448 0.700174 0.927618
Si Si5 0.963110 0.906729 0.774511
Si Si6 0.620341 0.799479 0.869329
Si Si7 0.447594 0.611989 0.937102
Si Si8 0.031954 0.546030 0.844125
O O1 0.203581 0.182226 0.777611
O O2 0.098290 0.285220 0.582093
O O3 0.077093 0.080531 0.606570
O O4 0.981803 0.215947 0.796935
O O5 0.831596 0.357161 0.710062
O O6 0.017834 0.414671 0.844963
O O7 0.842525 0.335640 0.972763
O O8 0.673754 0.362304 0.502522
O O9 0.885697 0.405721 0.460662
O O10 0.722669 0.727102 0.932720
O O11 0.908148 0.792872 0.827045
O O12 0.905453 0.587455 0.869331
O O13 0.997708 0.897043 0.612451
O O14 0.511403 0.721311 0.877378
O O15 0.592751 0.910289 0.956492
O O16 0.524249 0.566441 0.062493
#
# Coordination Sequence:
#
# PCOD9541622 Si02
#       8
#     4   4   4   4   4   4   4   4
#     4  11  21  44  70 101 144 195 244 300 392 468
#     4  12  29  42  76 114 153 192 270 326 377 470
#     4  12  24  50  75 109 151 207 256 319 401 474
#     4  11  22  44  73  99 145 195 253 305 381 465
#     4  10  20  35  61  93 132 180 224 282 362 449
#     4  12  28  48  72 118 153 206 261 330 389 466
#     4  12  29  50  82 106 150 208 265 324 395 460
#     4  12  23  47  75 106 148 207 251 316 405 454
#
# _framework density 23.104120999999999
#
# number of rings (size 3 to 8) (size 9 to 14) (size 15 to 20)
#    0.000    0.500    5.000    3.000    7.000    1.000 
#    0.000    0.000    0.000    0.000    0.000    0.000 
#    0.000    0.000    0.000    0.000    0.000    0.000 
#
# Total GULP energy -178994.211512 kJ/mol
# GULP energy per Si atom -5593.569110 kJ/mol
# Density = 2.305154 g / cm^3
# Si number density = 23.104121 Si / 1000 Ang^3
#
#
#
# Elastic Constant Matrix: (Units=GPa)
#
#
# Indices 1 2 3 4 5 6 
#
# 1 92.8198 19.1367 6.6958 0.0000 0.0000 -4.8300
# 2 19.1367 92.8198 6.6958 0.0000 0.0000 4.8300
# 3 6.6958 6.6958 104.3042 0.0000 0.0000 0.0000
# 4 0.0000 0.0000 0.0000 20.9616 0.0000 0.0000
# 5 0.0000 0.0000 0.0000 0.0000 20.9616 0.0000
# 6 -4.8300 4.8300 0.0000 0.0000 0.0000 41.2128
#
#
#
# Elastic Compliance Matrix: (Units=1/GPa)
#
#
# Indices 1 2 3 4 5 6 
#
# 1 0.011392 -0.002391 -0.000578 0.000000 0.000000 0.001615
# 2 -0.002391 0.011392 -0.000578 0.000000 0.000000 -0.001615
# 3 -0.000578 -0.000578 0.009662 0.000000 0.000000 0.000000
# 4 0.000000 0.000000 0.000000 0.047706 0.000000 0.000000
# 5 0.000000 0.000000 0.000000 0.000000 0.047706 0.000000
# 6 0.001615 -0.001615 0.000000 0.000000 0.000000 0.024643
#
#
# Mechanical properties :
#
#
# Convention : Reuss Voigt Hill
#
# Bulk Modulus (GPa) = 39.44380 39.44450 39.44415
# Shear Modulus (GPa) = 29.75371 33.78821 31.77096
#
# Velocity S-wave (km/s) = 3.59250 3.82832 3.71229
# Velocity P-wave (km/s) = 5.85810 6.05401 5.95686
#
# Compressibility (1/GPa) = 0.02535252
#
# Stress axis : x y z
#
# Youngs Moduli (GPa) = 87.77866 87.77866 103.50333
#
# Poissons Ratio (x) = 0.20989 0.05981
# Poissons Ratio (y) = 0.20989 0.05981
# Poissons Ratio (z) = 0.05072 0.05072
#
# Static dielectric constant tensor:
#      x y z
#    x 1.921890 0.000000 0.000000 
#    y 0.000000 1.921890 0.000000 
#    z 0.000000 0.000000 1.908310 
# 
# From -- ./inp_files/950.got.cif
#   From: 2010.05.17/outbox.cif.g08.bks.cpg/sg78_cif.got.tgz:950.got - 2010.06.03 18:45:56.
