data_PCOD9541140
_publ_section_title
;
Structure prediction by ZEFSAII (Michael W. Deem and Ramdas Pophale) SiO2 
 PCOD9541140
Probable space group: P 41
;
_chemical_formula_sum "Si O2"
_cell_formula_units_Z 20
_cell_length_a 9.436308
_cell_length_b 9.436308
_cell_length_c 7.809595
_cell_angle_alpha 90.000000
_cell_angle_beta 90.000000
_cell_angle_gamma 90.000000
_cell_volume 695.396864
_symmetry_space_group_name_H-M "P 41"
_symmetry_group_IT_number 76
_symmetry_cell_setting 'tetragonal'
loop_
_space_group_symop_operation_xyz
x,y,z
-y,x,1/4+z
-x,-y,1/2+z
y,-x,3/4+z
loop_
_atom_site_type_symbol
_atom_site_label
_atom_site_fract_x
_atom_site_fract_y
_atom_site_fract_z
Si Si1 0.851077 0.217456 0.263400
Si Si2 0.823267 0.489111 0.035687
Si Si3 0.877939 0.883943 0.971784
Si Si4 0.580766 0.122268 0.164312
Si Si5 0.644590 0.710173 0.847097
O O1 0.823215 0.332090 0.114733
O O2 0.570767 0.169319 0.967956
O O3 0.742485 0.093235 0.215953
O O4 0.755739 0.513274 0.540735
O O5 0.697332 0.555466 0.915919
O O6 0.975789 0.505634 0.942596
O O7 0.991106 0.817335 0.829321
O O8 0.868958 0.039554 0.896451
O O9 0.724545 0.812368 0.981239
O O10 0.774514 0.281758 0.429501
#
# Coordination Sequence:
#
# PCOD9541140 Si02
#       5
#     4   4   4   4   4
#     4  10  22  41  63  94 135 179 225 281 344 407
#     4  11  22  41  69  96 132 184 228 282 349 413
#     4  10  20  37  62  95 134 174 221 277 334 398
#     4  11  24  41  66 100 137 175 228 290 350 405
#     4  10  22  42  64  91 136 182 224 280 343 409
#
# _framework density 28.760556000000001
#
# number of rings (size 3 to 8) (size 9 to 14) (size 15 to 20)
#    0.000    1.600    0.000    7.200    0.000    6.400 
#    0.000    8.000    0.000    0.000    0.000    0.000 
#    0.000    0.000    0.000    0.000    0.000    0.000 
#
# Total GULP energy -111750.013880 kJ/mol
# GULP energy per Si atom -5587.500694 kJ/mol
# Density = 2.869510 g / cm^3
# Si number density = 28.760556 Si / 1000 Ang^3
#
#
#
# Elastic Constant Matrix: (Units=GPa)
#
#
# Indices 1 2 3 4 5 6 
#
# 1 133.1091 29.5698 31.4068 0.0000 0.0000 -5.8967
# 2 29.5698 133.1091 31.4068 0.0000 0.0000 5.8967
# 3 31.4068 31.4068 171.8127 0.0000 0.0000 0.0000
# 4 0.0000 0.0000 0.0000 54.6288 0.0000 0.0000
# 5 0.0000 0.0000 0.0000 0.0000 54.6288 0.0000
# 6 -5.8967 5.8967 0.0000 0.0000 0.0000 35.6130
#
#
#
# Elastic Compliance Matrix: (Units=1/GPa)
#
#
# Indices 1 2 3 4 5 6 
#
# 1 0.008229 -0.001615 -0.001209 0.000000 0.000000 0.001630
# 2 -0.001615 0.008229 -0.001209 0.000000 0.000000 -0.001630
# 3 -0.001209 -0.001209 0.006262 0.000000 0.000000 0.000000
# 4 0.000000 0.000000 0.000000 0.018305 0.000000 0.000000
# 5 0.000000 0.000000 0.000000 0.000000 0.018305 0.000000
# 6 0.001630 -0.001630 0.000000 0.000000 0.000000 0.028619
#
#
# Mechanical properties :
#
#
# Convention : Reuss Voigt Hill
#
# Bulk Modulus (GPa) = 68.24031 69.19974 68.72002
# Shear Modulus (GPa) = 49.55366 52.01728 50.78547
#
# Velocity S-wave (km/s) = 4.15537 4.25742 4.20670
# Velocity P-wave (km/s) = 6.84115 6.94840 6.89499
#
# Compressibility (1/GPa) = 0.01465410
#
# Stress axis : x y z
#
# Youngs Moduli (GPa) = 121.52353 121.52353 159.68588
#
# Poissons Ratio (x) = 0.19626 0.19306
# Poissons Ratio (y) = 0.19626 0.19306
# Poissons Ratio (z) = 0.14692 0.14692
#
# Static dielectric constant tensor:
#      x y z
#    x 2.302500 0.000000 0.000000 
#    y 0.000000 2.302500 0.000000 
#    z 0.000000 0.000000 2.225560 
# 
# From -- ./inp_files/472.got.cif
#   From: 2010.05.17/outbox.cif.g08.bks.cpg/sg76_cif.got.tgz:472.got - 2010.06.03 18:43:17.
