data_PCOD9541360
_publ_section_title
;
Structure prediction by ZEFSAII (Michael W. Deem and Ramdas Pophale) SiO2 
 PCOD9541360
Probable space group: P 41
;
_chemical_formula_sum "Si O2"
_cell_formula_units_Z 28
_cell_length_a 14.230326
_cell_length_b 14.230326
_cell_length_c 5.587392
_cell_angle_alpha 90.000000
_cell_angle_beta 90.000000
_cell_angle_gamma 90.000000
_cell_volume 1131.459050
_symmetry_space_group_name_H-M "P 41"
_symmetry_group_IT_number 76
_symmetry_cell_setting 'tetragonal'
loop_
_space_group_symop_operation_xyz
x,y,z
-y,x,1/4+z
-x,-y,1/2+z
y,-x,3/4+z
loop_
_atom_site_type_symbol
_atom_site_label
_atom_site_fract_x
_atom_site_fract_y
_atom_site_fract_z
Si Si1 0.016624 0.413271 0.653320
Si Si2 0.963533 0.737652 0.750085
Si Si3 0.626069 0.659213 0.244739
Si Si4 0.702533 0.863506 0.213561
Si Si5 0.429441 0.681132 0.016331
Si Si6 0.096487 0.097833 0.531778
Si Si7 0.425901 0.875120 0.787229
O O1 0.046459 0.334837 0.466122
O O2 0.933367 0.359911 0.800063
O O3 0.965876 0.512009 0.602872
O O4 0.119035 0.442886 0.756758
O O5 0.072389 0.727694 0.689490
O O6 0.896982 0.685175 0.559374
O O7 0.938876 0.843822 0.802274
O O8 0.650225 0.768685 0.281777
O O9 0.638065 0.610327 0.510660
O O10 0.523359 0.638707 0.133906
O O11 0.686284 0.636213 0.001759
O O12 0.805037 0.853660 0.094762
O O13 0.454941 0.784917 0.925776
O O14 0.011875 0.109902 0.721347
#
# Coordination Sequence:
#
# PCOD9541360 Si02
#       7
#     4   4   4   4   4   4   4
#     4  11  22  43  69 109 147 193 249 327 392 460
#     4  11  25  43  70 104 153 194 259 327 390 469
#     4  12  29  52  83 117 155 207 260 336 394 494
#     4  11  26  45  73 107 147 202 265 325 391 460
#     4  12  29  50  81 115 157 202 265 317 407 478
#     4  12  25  44  68  99 147 203 262 308 385 464
#     4  11  24  41  76 109 148 193 248 322 401 465
#
# _framework density 24.746805999999999
#
# number of rings (size 3 to 8) (size 9 to 14) (size 15 to 20)
#    0.000    0.571    4.286    2.571    6.000    3.429 
#    0.000    0.000    0.000    0.000    0.000    0.000 
#    0.000    0.000    0.000    0.000    0.000    0.000 
#
# Total GULP energy -156059.609845 kJ/mol
# GULP energy per Si atom -5573.557494 kJ/mol
# Density = 2.469048 g / cm^3
# Si number density = 24.746806 Si / 1000 Ang^3
#
#
#
# Elastic Constant Matrix: (Units=GPa)
#
#
# Indices 1 2 3 4 5 6 
#
# 1 100.8350 3.8208 29.2633 0.0000 0.0000 -5.4359
# 2 3.8208 100.8350 29.2633 0.0000 0.0000 5.4359
# 3 29.2633 29.2633 83.8201 0.0000 0.0000 0.0000
# 4 0.0000 0.0000 0.0000 39.4011 0.0000 0.0000
# 5 0.0000 0.0000 0.0000 0.0000 39.4011 0.0000
# 6 -5.4359 5.4359 0.0000 0.0000 0.0000 28.0567
#
#
#
# Elastic Compliance Matrix: (Units=1/GPa)
#
#
# Indices 1 2 3 4 5 6 
#
# 1 0.011205 0.000668 -0.004145 0.000000 0.000000 0.002041
# 2 0.000668 0.011205 -0.004145 0.000000 0.000000 -0.002041
# 3 -0.004145 -0.004145 0.014825 0.000000 0.000000 0.000000
# 4 0.000000 0.000000 0.000000 0.025380 0.000000 0.000000
# 5 0.000000 0.000000 0.000000 0.000000 0.025380 0.000000
# 6 0.002041 -0.002041 0.000000 0.000000 0.000000 0.036433
#
#
# Mechanical properties :
#
#
# Convention : Reuss Voigt Hill
#
# Bulk Modulus (GPa) = 45.47445 45.57611 45.52528
# Shear Modulus (GPa) = 34.01320 36.24796 35.13058
#
# Velocity S-wave (km/s) = 3.71138 3.83136 3.77185
# Velocity P-wave (km/s) = 6.06478 6.16680 6.11600
#
# Compressibility (1/GPa) = 0.02199037
#
# Stress axis : x y z
#
# Youngs Moduli (GPa) = 89.24672 89.24672 67.45516
#
# Poissons Ratio (x) = -0.05965 0.27961
# Poissons Ratio (y) = -0.05965 0.27961
# Poissons Ratio (z) = 0.36995 0.36995
#
# Static dielectric constant tensor:
#      x y z
#    x 1.970980 0.000000 0.000000 
#    y 0.000000 1.970980 0.000000 
#    z 0.000000 0.000000 2.262290 
# 
# From -- ./inp_files/236.got.cif
#   From: 2010.05.17/outbox.cif.g08.bks.cpg/sg76_cif.got.tgz:236.got - 2010.06.03 18:43:17.
