data_PCOD9541593
_publ_section_title
;
Structure prediction by ZEFSAII (Michael W. Deem and Ramdas Pophale) SiO2 
 PCOD9541593
Probable space group: P 43
;
_chemical_formula_sum "Si O2"
_cell_formula_units_Z 32
_cell_length_a 8.027981
_cell_length_b 8.027981
_cell_length_c 18.956688
_cell_angle_alpha 90.000000
_cell_angle_beta 90.000000
_cell_angle_gamma 90.000000
_cell_volume 1221.729707
_symmetry_space_group_name_H-M "P 43"
_symmetry_group_IT_number 78
_symmetry_cell_setting 'tetragonal'
loop_
_space_group_symop_operation_xyz
x,y,z
-y,x,3/4+z
-x,-y,1/2+z
y,-x,1/4+z
loop_
_atom_site_type_symbol
_atom_site_label
_atom_site_fract_x
_atom_site_fract_y
_atom_site_fract_z
Si Si1 0.806997 0.574844 0.921440
Si Si2 0.994466 0.131484 0.408889
Si Si3 0.317491 0.860953 0.825735
Si Si4 0.775606 0.964520 0.663801
Si Si5 0.705800 0.295963 0.749404
Si Si6 0.433235 0.623632 0.930002
Si Si7 0.828497 0.496848 0.625920
Si Si8 0.271793 0.820220 0.034519
O O1 0.614300 0.574846 0.904248
O O2 0.866900 0.389012 0.936238
O O3 0.829419 0.671682 0.994509
O O4 0.917533 0.704327 0.876663
O O5 0.104504 0.964311 0.419666
O O6 0.856408 0.067834 0.352874
O O7 0.876281 0.172924 0.476384
O O8 0.334355 0.684410 0.862828
O O9 0.467208 0.979706 0.852771
O O10 0.777799 0.128679 0.714156
O O11 0.727943 0.018380 0.583301
O O12 0.524416 0.335264 0.716651
O O13 0.802866 0.453204 0.709966
O O14 0.653444 0.249343 0.831300
O O15 0.428956 0.775314 0.985829
O O16 0.747954 0.334111 0.587826
#
# Coordination Sequence:
#
# PCOD9541593 Si02
#       8
#     4   4   4   4   4   4   4   4
#     4  12  25  44  63 101 141 179 226 284 361 416
#     4  11  21  42  71  99 128 182 231 287 352 421
#     4  11  21  42  67  93 132 175 234 278 347 429
#     4  11  21  42  70  98 131 178 230 286 344 417
#     4  10  20  40  66  94 127 177 232 285 348 421
#     4  10  25  40  64  96 131 182 220 280 355 419
#     4  10  18  38  67  96 125 177 231 289 350 423
#     4   9  19  40  66  95 123 172 232 275 335 416
#
# _framework density 26.192371999999999
#
# number of rings (size 3 to 8) (size 9 to 14) (size 15 to 20)
#    0.000    1.500    5.000    1.500    7.000    0.000 
#    9.000    0.000    0.000    0.000    0.000    0.000 
#    0.000    0.000    0.000    0.000    0.000    0.000 
#
# Total GULP energy -178575.604071 kJ/mol
# GULP energy per Si atom -5580.487627 kJ/mol
# Density = 2.613276 g / cm^3
# Si number density = 26.192372 Si / 1000 Ang^3
#
#
#
# Elastic Constant Matrix: (Units=GPa)
#
#
# Indices 1 2 3 4 5 6 
#
# 1 61.7905 27.1325 -11.0485 0.0000 0.0000 12.4456
# 2 27.1325 61.7905 -11.0485 0.0000 0.0000 -12.4456
# 3 -11.0485 -11.0485 51.8200 0.0000 0.0000 0.0000
# 4 0.0000 0.0000 0.0000 24.9340 0.0000 0.0000
# 5 0.0000 0.0000 0.0000 0.0000 24.9340 0.0000
# 6 12.4456 -12.4456 0.0000 0.0000 0.0000 24.4500
#
#
#
# Elastic Compliance Matrix: (Units=1/GPa)
#
#
# Indices 1 2 3 4 5 6 
#
# 1 0.028677 -0.016802 0.002532 0.000000 0.000000 -0.023150
# 2 -0.016802 0.028677 0.002532 0.000000 0.000000 0.023150
# 3 0.002532 0.002532 0.020377 0.000000 0.000000 0.000000
# 4 0.000000 0.000000 0.000000 0.040106 0.000000 0.000000
# 5 0.000000 0.000000 0.000000 0.000000 0.040106 0.000000
# 6 -0.023150 0.023150 0.000000 0.000000 0.000000 0.064468
#
#
# Mechanical properties :
#
#
# Convention : Reuss Voigt Hill
#
# Bulk Modulus (GPa) = 18.43175 20.60798 19.51987
# Shear Modulus (GPa) = 18.94127 26.22129 22.58128
#
# Velocity S-wave (km/s) = 2.69208 3.16746 2.93939
# Velocity P-wave (km/s) = 4.08845 4.61108 4.35761
#
# Compressibility (1/GPa) = 0.05425420
#
# Stress axis : x y z
#
# Youngs Moduli (GPa) = 34.87078 34.87078 49.07445
#
# Poissons Ratio (x) = 0.58592 -0.12425
# Poissons Ratio (y) = 0.58592 -0.12425
# Poissons Ratio (z) = -0.08829 -0.08829
#
# Static dielectric constant tensor:
#      x y z
#    x 2.131310 0.000000 0.000000 
#    y 0.000000 2.131310 0.000000 
#    z 0.000000 0.000000 2.132500 
# 
# From -- ./inp_files/1627.got.cif
#   From: 2010.05.17/outbox.cif.g08.bks.cpg/sg78_cif.got.tgz:1627.got - 2010.06.03 18:45:56.
