data_PCOD9541925
_publ_section_title
;
Structure prediction by ZEFSAII (Michael W. Deem and Ramdas Pophale) SiO2 
 PCOD9541925
Probable space group: I 4
;
_chemical_formula_sum "Si O2"
_cell_formula_units_Z 40
_cell_length_a 18.767254
_cell_length_b 18.767254
_cell_length_c 5.283359
_cell_angle_alpha 90.000000
_cell_angle_beta 90.000000
_cell_angle_gamma 90.000000
_cell_volume 1860.850937
_symmetry_space_group_name_H-M "I 4"
_symmetry_group_IT_number 79
_symmetry_cell_setting 'tetragonal'
loop_
_space_group_symop_operation_xyz
x,y,z
-y,x,z
-x,-y,z
y,-x,z
1/2+x,1/2+y,1/2+z
1/2-y,1/2+x,1/2+z
1/2-x,1/2-y,1/2+z
1/2+y,1/2-x,1/2+z
loop_
_atom_site_type_symbol
_atom_site_label
_atom_site_fract_x
_atom_site_fract_y
_atom_site_fract_z
Si Si1 0.856783 0.629583 0.421980
Si Si2 0.766013 0.092419 0.721092
Si Si3 0.525554 0.304785 0.895446
Si Si4 0.611111 0.312977 0.394346
Si Si5 0.826530 0.487559 0.616201
O O1 0.869349 0.697841 0.600041
O O2 0.771871 0.626805 0.383288
O O3 0.876304 0.551556 0.530131
O O4 0.912115 0.641286 0.194329
O O5 0.815366 0.143569 0.886709
O O6 0.812744 0.055381 0.497603
O O7 0.731638 0.032172 0.901530
O O8 0.562407 0.332345 0.638168
O O9 0.522189 0.219095 0.845530
O O10 0.571866 0.328829 0.131668
#
# Coordination Sequence:
#
# PCOD9541925 Si02
#       5
#     8   8   8   8   8
#     4  10  24  40  67  95 147 179 242 284 352 411
#     4  11  24  42  72 106 138 186 234 289 355 419
#     4  10  22  45  64 101 140 181 217 290 356 407
#     4  11  25  40  74 102 140 177 237 291 348 416
#     4  10  23  43  66  95 142 185 231 285 348 422
#
# _framework density 21.495540999999999
#
# number of rings (size 3 to 8) (size 9 to 14) (size 15 to 20)
#    0.000    1.600    4.000    0.000   14.000    0.000 
#    0.000    3.000    0.000    0.600    5.200    0.000 
#    0.000    0.000    0.000    0.000    0.000    0.000 
#
# Total GULP energy -111382.840412 kJ/mol
# GULP energy per Si atom -5569.142021 kJ/mol
# Density = 2.144662 g / cm^3
# Si number density = 21.495541 Si / 1000 Ang^3
#
#
#
# Elastic Constant Matrix: (Units=GPa)
#
#
# Indices 1 2 3 4 5 6 
#
# 1 78.3169 47.5427 41.4816 0.0000 0.0000 12.1552
# 2 47.5427 78.3169 41.4816 0.0000 0.0000 -12.1552
# 3 41.4816 41.4816 132.7824 0.0000 0.0000 0.0000
# 4 0.0000 0.0000 0.0000 34.3691 0.0000 0.0000
# 5 0.0000 0.0000 0.0000 0.0000 34.3691 0.0000
# 6 12.1552 -12.1552 0.0000 0.0000 0.0000 -119.3329
#
#
#
# Elastic Compliance Matrix: (Units=1/GPa)
#
#
# Indices 1 2 3 4 5 6 
#
# 1 0.020040 -0.010034 -0.003126 0.000000 0.000000 0.003063
# 2 -0.010034 0.020040 -0.003126 0.000000 0.000000 -0.003063
# 3 -0.003126 -0.003126 0.009484 0.000000 0.000000 0.000000
# 4 0.000000 0.000000 0.000000 0.029096 0.000000 0.000000
# 5 0.000000 0.000000 0.000000 0.000000 0.029096 0.000000
# 6 0.003063 -0.003063 0.000000 0.000000 0.000000 -0.007756
#
#
# Mechanical properties :
#
#
# Convention : Reuss Voigt Hill
#
# Bulk Modulus (GPa) = 58.84973 61.15868 60.00421
# Shear Modulus (GPa) = 36.16967 0.47506 18.32236
#
# Velocity S-wave (km/s) = 4.10647 0.47062 2.92272
# Velocity P-wave (km/s) = 7.06550 5.36739 6.27416
#
# Compressibility (1/GPa) = 0.01699243
#
# Stress axis : x y z
#
# Youngs Moduli (GPa) = 49.89936 49.89936 105.43881
#
# Poissons Ratio (x) = 0.50072 0.32959
# Poissons Ratio (y) = 0.50072 0.32959
# Poissons Ratio (z) = 0.15598 0.15598
#
# Static dielectric constant tensor:
#      x y z
#    x 1.806480 0.000000 0.000000 
#    y 0.000000 1.806480 0.000000 
#    z 0.000000 0.000000 1.883950 
# 
# From -- ./inp_files/119.got.cif
#   From: 2010.05.17/outbox.cif.g08.bks.cpg/sg79_cif.got.tgz:119.got - 2010.06.03 18:47:27.
