data_PCOD9541630
_publ_section_title
;
Structure prediction by ZEFSAII (Michael W. Deem and Ramdas Pophale) SiO2 
 PCOD9541630
Probable space group: P 43
;
_chemical_formula_sum "Si O2"
_cell_formula_units_Z 24
_cell_length_a 11.728282
_cell_length_b 11.728282
_cell_length_c 7.400786
_cell_angle_alpha 90.000000
_cell_angle_beta 90.000000
_cell_angle_gamma 90.000000
_cell_volume 1017.997347
_symmetry_space_group_name_H-M "P 43"
_symmetry_group_IT_number 78
_symmetry_cell_setting 'tetragonal'
loop_
_space_group_symop_operation_xyz
x,y,z
-y,x,3/4+z
-x,-y,1/2+z
y,-x,1/4+z
loop_
_atom_site_type_symbol
_atom_site_label
_atom_site_fract_x
_atom_site_fract_y
_atom_site_fract_z
Si Si1 0.129754 0.019530 0.907780
Si Si2 0.841873 0.295156 0.114255
Si Si3 0.387360 0.017636 0.018493
Si Si4 0.380598 0.402956 0.261974
Si Si5 0.783295 0.068697 0.944621
Si Si6 0.163771 0.441083 0.026443
O O1 0.262972 0.002543 0.932639
O O2 0.093956 0.064658 0.714368
O O3 0.075387 0.112220 0.050331
O O4 0.902442 0.356007 0.941384
O O5 0.715530 0.347184 0.114210
O O6 0.816624 0.159740 0.094094
O O7 0.952436 0.284118 0.243171
O O8 0.469865 0.089703 0.891626
O O9 0.443570 0.896024 0.077711
O O10 0.384861 0.500364 0.411892
O O11 0.292872 0.445910 0.102097
O O12 0.687374 0.135015 0.830546
#
# Coordination Sequence:
#
# PCOD9541630 Si02
#       6
#     4   4   4   4   4   4
#     4  11  20  37  61  89 126 161 192 242 306 370
#     4   9  17  34  60  85 114 156 200 238 301 362
#     4  10  20  38  64  89 119 162 202 248 303 356
#     4  11  23  41  64  86 120 167 206 250 303 355
#     4   9  16  31  61  84 114 157 189 237 304 350
#     4  10  20  39  64  87 121 159 205 249 301 355
#
# _framework density 23.575700000000001
#
# number of rings (size 3 to 8) (size 9 to 14) (size 15 to 20)
#    0.000    2.000    6.667    0.000    0.000    0.000 
#    9.000    0.000    0.000    0.000    0.000    0.000 
#    0.000    0.000    0.000    0.000    0.000    0.000 
#
# Total GULP energy -133637.570523 kJ/mol
# GULP energy per Si atom -5568.232105 kJ/mol
# Density = 2.352204 g / cm^3
# Si number density = 23.575700 Si / 1000 Ang^3
#
#
#
# Elastic Constant Matrix: (Units=GPa)
#
#
# Indices 1 2 3 4 5 6 
#
# 1 127.2380 -0.9755 22.2075 0.0000 0.0000 19.2159
# 2 -0.9755 127.2380 22.2075 0.0000 0.0000 -19.2159
# 3 22.2075 22.2075 47.6154 0.0000 0.0000 0.0000
# 4 0.0000 0.0000 0.0000 31.8477 0.0000 0.0000
# 5 0.0000 0.0000 0.0000 0.0000 31.8477 0.0000
# 6 19.2159 -19.2159 0.0000 0.0000 0.0000 39.6721
#
#
#
# Elastic Compliance Matrix: (Units=1/GPa)
#
#
# Indices 1 2 3 4 5 6 
#
# 1 0.009299 0.000175 -0.004419 0.000000 0.000000 -0.004419
# 2 0.000175 0.009299 -0.004419 0.000000 0.000000 0.004419
# 3 -0.004419 -0.004419 0.025123 0.000000 0.000000 0.000000
# 4 0.000000 0.000000 0.000000 0.031399 0.000000 0.000000
# 5 0.000000 0.000000 0.000000 0.000000 0.031399 0.000000
# 6 -0.004419 0.004419 0.000000 0.000000 0.000000 0.029488
#
#
# Mechanical properties :
#
#
# Convention : Reuss Voigt Hill
#
# Bulk Modulus (GPa) = 37.88306 43.21891 40.55099
# Shear Modulus (GPa) = 30.83891 37.91696 34.37794
#
# Velocity S-wave (km/s) = 3.62066 4.01472 3.82277
# Velocity P-wave (km/s) = 5.79504 6.31367 6.05991
#
# Compressibility (1/GPa) = 0.02639702
#
# Stress axis : x y z
#
# Youngs Moduli (GPa) = 107.53490 107.53490 39.80354
#
# Poissons Ratio (x) = -0.01883 0.17588
# Poissons Ratio (y) = -0.01883 0.17588
# Poissons Ratio (z) = 0.47517 0.47517
#
# Static dielectric constant tensor:
#      x y z
#    x 1.931210 0.000000 0.000000 
#    y 0.000000 1.931210 0.000000 
#    z 0.000000 0.000000 2.016620 
# 
# From -- ./inp_files/532.got.cif
#   From: 2010.05.17/outbox.cif.g08.bks.cpg/sg78_cif.got.tgz:532.got - 2010.06.03 18:45:56.
