data_PCOD9541150
_publ_section_title
;
Structure prediction by ZEFSAII (Michael W. Deem and Ramdas Pophale) SiO2 
 PCOD9541150
Probable space group: P 41
;
_chemical_formula_sum "Si O2"
_cell_formula_units_Z 28
_cell_length_a 11.289817
_cell_length_b 11.289817
_cell_length_c 9.988204
_cell_angle_alpha 90.000000
_cell_angle_beta 90.000000
_cell_angle_gamma 90.000000
_cell_volume 1273.096161
_symmetry_space_group_name_H-M "P 41"
_symmetry_group_IT_number 76
_symmetry_cell_setting 'tetragonal'
loop_
_space_group_symop_operation_xyz
x,y,z
-y,x,1/4+z
-x,-y,1/2+z
y,-x,3/4+z
loop_
_atom_site_type_symbol
_atom_site_label
_atom_site_fract_x
_atom_site_fract_y
_atom_site_fract_z
Si Si1 0.130861 0.266206 0.652870
Si Si2 0.012306 0.903268 0.506765
Si Si3 0.438732 0.990373 0.189824
Si Si4 0.518408 0.405937 0.031684
Si Si5 0.668902 0.124699 0.209415
Si Si6 0.612313 0.784537 0.188811
Si Si7 0.642759 0.810477 0.495721
O O1 0.062244 0.348170 0.548833
O O2 0.138189 0.328834 0.797811
O O3 0.265487 0.234117 0.608424
O O4 0.073544 0.140084 0.689372
O O5 0.972101 0.769582 0.485640
O O6 0.018837 0.926774 0.664151
O O7 0.539660 0.078950 0.249445
O O8 0.515410 0.877303 0.135044
O O9 0.369920 0.070459 0.081001
O O10 0.436652 0.483538 0.936472
O O11 0.650257 0.427469 0.973139
O O12 0.469771 0.274089 0.017807
O O13 0.725588 0.243687 0.271939
O O14 0.644346 0.832892 0.337258
#
# Coordination Sequence:
#
# PCOD9541150 Si02
#       7
#     4   4   4   4   4   4   4
#     4  10  21  39  64  96 132 175 228 287 351 408
#     4  10  22  41  67  93 137 182 234 282 349 420
#     4  12  21  37  70 103 131 172 239 293 332 412
#     4  10  20  40  69  94 134 184 234 285 352 426
#     4  10  22  43  65  95 137 183 229 288 353 421
#     4  10  20  40  63  94 133 187 224 274 356 431
#     4  10  22  40  70  97 128 187 240 283 351 432
#
# _framework density 21.993625999999999
#
# number of rings (size 3 to 8) (size 9 to 14) (size 15 to 20)
#    0.000    1.714    1.429    5.143    2.000    0.000 
#    0.000    5.714    6.286    0.000    0.000    0.000 
#    0.000    0.000    0.000    0.000    0.000    0.000 
#
# Total GULP energy -156221.339908 kJ/mol
# GULP energy per Si atom -5579.333568 kJ/mol
# Density = 2.194357 g / cm^3
# Si number density = 21.993626 Si / 1000 Ang^3
#
#
#
# Elastic Constant Matrix: (Units=GPa)
#
#
# Indices 1 2 3 4 5 6 
#
# 1 115.1089 51.2755 33.0917 0.0000 0.0000 -5.8158
# 2 51.2755 115.1089 33.0917 0.0000 0.0000 5.8158
# 3 33.0917 33.0917 54.6772 0.0000 0.0000 0.0000
# 4 0.0000 0.0000 0.0000 34.8396 0.0000 0.0000
# 5 0.0000 0.0000 0.0000 0.0000 34.8396 0.0000
# 6 -5.8158 5.8158 0.0000 0.0000 0.0000 42.1107
#
#
#
# Elastic Compliance Matrix: (Units=1/GPa)
#
#
# Indices 1 2 3 4 5 6 
#
# 1 0.011993 -0.004077 -0.004791 0.000000 0.000000 0.002219
# 2 -0.004077 0.011993 -0.004791 0.000000 0.000000 -0.002219
# 3 -0.004791 -0.004791 0.024088 0.000000 0.000000 0.000000
# 4 0.000000 0.000000 0.000000 0.028703 0.000000 0.000000
# 5 0.000000 0.000000 0.000000 0.000000 0.028703 0.000000
# 6 0.002219 -0.002219 0.000000 0.000000 0.000000 0.024360
#
#
# Mechanical properties :
#
#
# Convention : Reuss Voigt Hill
#
# Bulk Modulus (GPa) = 48.17757 57.75699 52.96728
# Shear Modulus (GPa) = 30.47355 33.52037 31.99696
#
# Velocity S-wave (km/s) = 3.72635 3.90820 3.81836
# Velocity P-wave (km/s) = 6.36137 6.83251 6.60115
#
# Compressibility (1/GPa) = 0.02075655
#
# Stress axis : x y z
#
# Youngs Moduli (GPa) = 83.38172 83.38172 41.51417
#
# Poissons Ratio (x) = 0.33996 0.19889
# Poissons Ratio (y) = 0.33996 0.19889
# Poissons Ratio (z) = 0.39947 0.39947
#
# Static dielectric constant tensor:
#      x y z
#    x 1.890910 0.000000 0.000000 
#    y 0.000000 1.890910 0.000000 
#    z 0.000000 0.000000 1.792900 
# 
# From -- ./inp_files/918.got.cif
#   From: 2010.05.17/outbox.cif.g08.bks.cpg/sg76_cif.got.tgz:918.got - 2010.06.03 18:43:17.
