data_PCOD9541861
_publ_section_title
;
Structure prediction by ZEFSAII (Michael W. Deem and Ramdas Pophale) SiO2 
 PCOD9541861
Probable space group: I 4
;
_chemical_formula_sum "Si O2"
_cell_formula_units_Z 52
_cell_length_a 16.220783
_cell_length_b 16.220783
_cell_length_c 9.058421
_cell_angle_alpha 90.000000
_cell_angle_beta 90.000000
_cell_angle_gamma 90.000000
_cell_volume 2383.395582
_symmetry_space_group_name_H-M "I 4"
_symmetry_group_IT_number 79
_symmetry_cell_setting 'tetragonal'
loop_
_space_group_symop_operation_xyz
x,y,z
-y,x,z
-x,-y,z
y,-x,z
1/2+x,1/2+y,1/2+z
1/2-y,1/2+x,1/2+z
1/2-x,1/2-y,1/2+z
1/2+y,1/2-x,1/2+z
loop_
_atom_site_type_symbol
_atom_site_label
_atom_site_fract_x
_atom_site_fract_y
_atom_site_fract_z
Si Si1 0.930790 0.328071 0.462660
Si Si2 0.494182 0.752776 0.688965
Si Si3 0.000000 0.500000 0.895882
Si Si4 0.391102 0.879199 0.247820
Si Si5 0.854158 0.742942 0.815566
Si Si6 0.866853 0.035218 0.951672
Si Si7 0.177499 0.714792 0.020755
O O1 0.906895 0.307900 0.629294
O O2 0.850666 0.355259 0.371184
O O3 0.972932 0.258129 0.362899
O O4 0.982814 0.413257 0.474933
O O5 0.552210 0.832965 0.670039
O O6 0.538120 0.674414 0.615513
O O7 0.409026 0.763179 0.599651
O O8 0.024689 0.578273 0.797868
O O9 0.343392 0.849086 0.391548
O O10 0.820886 0.736901 0.648370
O O11 0.937929 0.793839 0.840998
O O12 0.791299 0.784980 0.931910
O O13 0.943833 0.096597 0.932685
#
# Coordination Sequence:
#
# PCOD9541861 Si02
#       7
#     8   8   4   8   8   8   8
#     4  10  21  36  61  91 138 173 218 275 334 417
#     4  10  22  40  60  98 133 178 230 273 338 414
#     4  10  22  36  58  94 140 180 218 258 342 414
#     4  11  21  38  63  97 137 181 218 280 341 413
#     4  11  23  42  66  98 129 172 232 285 347 410
#     4  11  23  43  70  94 129 181 238 290 338 410
#     4  11  24  42  66  99 133 177 226 287 348 412
#
# _framework density 21.817610999999999
#
# number of rings (size 3 to 8) (size 9 to 14) (size 15 to 20)
#    0.000    1.385    3.077    2.308    0.000    6.154 
#    0.000    1.538    0.000    0.000    0.000    2.154 
#    0.000    0.000    0.000    0.000    0.000    0.000 
#
# Total GULP energy -145110.808522 kJ/mol
# GULP energy per Si atom -5581.184943 kJ/mol
# Density = 2.176795 g / cm^3
# Si number density = 21.817611 Si / 1000 Ang^3
#
#
#
# Elastic Constant Matrix: (Units=GPa)
#
#
# Indices 1 2 3 4 5 6 
#
# 1 71.8904 16.8126 30.9741 0.0000 0.0000 3.2294
# 2 16.8126 71.8904 30.9741 0.0000 0.0000 -3.2294
# 3 30.9741 30.9741 151.0551 0.0000 0.0000 0.0000
# 4 0.0000 0.0000 0.0000 27.4879 0.0000 0.0000
# 5 0.0000 0.0000 0.0000 0.0000 27.4879 0.0000
# 6 3.2294 -3.2294 0.0000 0.0000 0.0000 40.7746
#
#
#
# Elastic Compliance Matrix: (Units=1/GPa)
#
#
# Indices 1 2 3 4 5 6 
#
# 1 0.015742 -0.002584 -0.002698 0.000000 0.000000 -0.001451
# 2 -0.002584 0.015742 -0.002698 0.000000 0.000000 0.001451
# 3 -0.002698 -0.002698 0.007727 0.000000 0.000000 0.000000
# 4 0.000000 0.000000 0.000000 0.036380 0.000000 0.000000
# 5 0.000000 0.000000 0.000000 0.000000 0.036380 0.000000
# 6 -0.001451 0.001451 0.000000 0.000000 0.000000 0.024755
#
#
# Mechanical properties :
#
#
# Convention : Reuss Voigt Hill
#
# Bulk Modulus (GPa) = 43.01057 50.26192 46.63624
# Shear Modulus (GPa) = 31.16515 33.55510 32.36012
#
# Velocity S-wave (km/s) = 3.78357 3.92597 3.85543
# Velocity P-wave (km/s) = 6.23247 6.60593 6.42191
#
# Compressibility (1/GPa) = 0.02325010
#
# Stress axis : x y z
#
# Youngs Moduli (GPa) = 63.52400 63.52400 129.42353
#
# Poissons Ratio (x) = 0.16416 0.34919
# Poissons Ratio (y) = 0.16416 0.34919
# Poissons Ratio (z) = 0.17139 0.17139
#
# Static dielectric constant tensor:
#      x y z
#    x 1.835050 0.000000 0.000000 
#    y 0.000000 1.835050 0.000000 
#    z 0.000000 0.000000 1.851730 
# 
# From -- ./inp_files/686.got.cif
#   From: 2010.05.17/outbox.cif.g08.bks.cpg/sg79_cif.got.tgz:686.got - 2010.06.03 18:47:27.
