data_PCOD9541426
_publ_section_title
;
Structure prediction by ZEFSAII (Michael W. Deem and Ramdas Pophale) SiO2 
 PCOD9541426
Probable space group: P 41
;
_chemical_formula_sum "Si O2"
_cell_formula_units_Z 16
_cell_length_a 10.713185
_cell_length_b 10.713185
_cell_length_c 4.975409
_cell_angle_alpha 90.000000
_cell_angle_beta 90.000000
_cell_angle_gamma 90.000000
_cell_volume 571.039298
_symmetry_space_group_name_H-M "P 41"
_symmetry_group_IT_number 76
_symmetry_cell_setting 'tetragonal'
loop_
_space_group_symop_operation_xyz
x,y,z
-y,x,1/4+z
-x,-y,1/2+z
y,-x,3/4+z
loop_
_atom_site_type_symbol
_atom_site_label
_atom_site_fract_x
_atom_site_fract_y
_atom_site_fract_z
Si Si1 0.323689 0.428473 0.792590
Si Si2 0.568578 0.030650 0.034934
Si Si3 0.871657 0.138502 0.191682
Si Si4 0.262670 0.203997 0.457970
O O1 0.368081 0.567425 0.722112
O O2 0.323312 0.335111 0.533936
O O3 0.176546 0.427994 0.879742
O O4 0.457314 0.974047 0.217953
O O5 0.665635 0.916689 0.074769
O O6 0.801358 0.140281 0.904593
O O7 0.014968 0.144588 0.115511
O O8 0.819956 0.240605 0.396650
#
# Coordination Sequence:
#
# PCOD9541426 Si02
#       4
#     4   4   4   4
#     4  12  30  53  87 132 175 232 297 366 438 525
#     4  12  27  54  82 122 168 235 288 360 445 526
#     4  12  24  45  78 118 164 218 285 352 430 507
#     4  12  27  50  79 122 167 225 282 366 427 522
#
# _framework density 28.019086999999999
#
# number of rings (size 3 to 8) (size 9 to 14) (size 15 to 20)
#    0.000    0.000    2.500    7.500    3.500    2.000 
#    0.000    0.000    0.000    0.000    0.000    0.000 
#    0.000    0.000    0.000    0.000    0.000    0.000 
#
# Total GULP energy -89506.186250 kJ/mol
# GULP energy per Si atom -5594.136641 kJ/mol
# Density = 2.795531 g / cm^3
# Si number density = 28.019087 Si / 1000 Ang^3
#
#
#
# Elastic Constant Matrix: (Units=GPa)
#
#
# Indices 1 2 3 4 5 6 
#
# 1 181.9245 49.4242 37.8592 0.0000 0.0000 -9.6751
# 2 49.4242 181.9245 37.8592 0.0000 0.0000 9.6751
# 3 37.8592 37.8592 144.6639 0.0000 0.0000 0.0000
# 4 0.0000 0.0000 0.0000 45.3760 0.0000 0.0000
# 5 0.0000 0.0000 0.0000 0.0000 45.3760 0.0000
# 6 -9.6751 9.6751 0.0000 0.0000 0.0000 31.6886
#
#
#
# Elastic Compliance Matrix: (Units=1/GPa)
#
#
# Indices 1 2 3 4 5 6 
#
# 1 0.006313 -0.001586 -0.001237 0.000000 0.000000 0.002412
# 2 -0.001586 0.006313 -0.001237 0.000000 0.000000 -0.002412
# 3 -0.001237 -0.001237 0.007560 0.000000 0.000000 0.000000
# 4 0.000000 0.000000 0.000000 0.022038 0.000000 0.000000
# 5 0.000000 0.000000 0.000000 0.000000 0.022038 0.000000
# 6 0.002412 -0.002412 0.000000 0.000000 0.000000 0.033030
#
#
# Mechanical properties :
#
#
# Convention : Reuss Voigt Hill
#
# Bulk Modulus (GPa) = 82.87615 84.31090 83.59353
# Shear Modulus (GPa) = 45.68892 50.04612 47.86752
#
# Velocity S-wave (km/s) = 4.04249 4.23086 4.13775
# Velocity P-wave (km/s) = 7.17159 7.35002 7.26135
#
# Compressibility (1/GPa) = 0.01206620
#
# Stress axis : x y z
#
# Youngs Moduli (GPa) = 158.39365 158.39365 132.27295
#
# Poissons Ratio (x) = 0.25121 0.16365
# Poissons Ratio (y) = 0.25121 0.16365
# Poissons Ratio (z) = 0.19596 0.19596
#
# Static dielectric constant tensor:
#      x y z
#    x 2.283370 0.000000 0.000000 
#    y 0.000000 2.283370 0.000000 
#    z 0.000000 0.000000 2.105120 
# 
# From -- ./inp_files/78.got.cif
#   From: 2010.05.17/outbox.cif.g08.bks.cpg/sg76_cif.got.tgz:78.got - 2010.06.03 18:43:17.
