data_PCOD9541449
_publ_section_title
;
Structure prediction by ZEFSAII (Michael W. Deem and Ramdas Pophale) SiO2 
 PCOD9541449
Probable space group: P 41
;
_chemical_formula_sum "Si O2"
_cell_formula_units_Z 28
_cell_length_a 11.053068
_cell_length_b 11.053068
_cell_length_c 8.515708
_cell_angle_alpha 90.000000
_cell_angle_beta 90.000000
_cell_angle_gamma 90.000000
_cell_volume 1040.366705
_symmetry_space_group_name_H-M "P 41"
_symmetry_group_IT_number 76
_symmetry_cell_setting 'tetragonal'
loop_
_space_group_symop_operation_xyz
x,y,z
-y,x,1/4+z
-x,-y,1/2+z
y,-x,3/4+z
loop_
_atom_site_type_symbol
_atom_site_label
_atom_site_fract_x
_atom_site_fract_y
_atom_site_fract_z
Si Si1 0.364982 0.776875 0.293580
Si Si2 0.710901 0.080253 0.225500
Si Si3 0.073255 0.753999 0.763689
Si Si4 0.139246 0.957018 0.312503
Si Si5 0.515990 0.647956 0.539530
Si Si6 0.847894 0.443963 0.465119
Si Si7 0.412360 0.155247 0.565632
O O1 0.256233 0.871283 0.322688
O O2 0.448974 0.753760 0.443483
O O3 0.460440 0.816540 0.156609
O O4 0.383885 0.079201 0.074413
O O5 0.813924 0.178846 0.180374
O O6 0.587249 0.153491 0.227759
O O7 0.754243 0.035793 0.394649
O O8 0.665764 0.949368 0.153537
O O9 0.285475 0.603161 0.914832
O O10 0.048996 0.821364 0.926832
O O11 0.023287 0.894375 0.225654
O O12 0.429571 0.572484 0.651508
O O13 0.285861 0.652775 0.290110
O O14 0.892182 0.412023 0.637172
#
# Coordination Sequence:
#
# PCOD9541449 Si02
#       7
#     4   4   4   4   4   4   4
#     4  12  28  53  83 125 169 233 291 366 445 539
#     4  12  28  54  85 120 178 224 297 369 447 534
#     4  12  27  53  82 127 170 232 295 368 447 527
#     4  12  28  52  84 122 174 226 300 364 445 531
#     4  12  29  52  83 123 171 222 284 356 444 532
#     4  12  28  51  86 125 165 226 288 366 439 533
#     4  12  30  51  85 126 173 227 295 367 449 538
#
# _framework density 26.913587
#
# number of rings (size 3 to 8) (size 9 to 14) (size 15 to 20)
#    0.000    0.000    2.857    5.143   10.000    2.286 
#    0.000    0.000    0.000    0.000    0.000    0.000 
#    0.000    0.000    0.000    0.000    0.000    0.000 
#
# Total GULP energy -156436.139716 kJ/mol
# GULP energy per Si atom -5587.004990 kJ/mol
# Density = 2.685233 g / cm^3
# Si number density = 26.913587 Si / 1000 Ang^3
#
#
#
# Elastic Constant Matrix: (Units=GPa)
#
#
# Indices 1 2 3 4 5 6 
#
# 1 93.7379 70.7861 51.6942 0.0000 0.0000 -6.2895
# 2 70.7861 93.7379 51.6942 0.0000 0.0000 6.2895
# 3 51.6942 51.6942 129.7924 0.0000 0.0000 0.0000
# 4 0.0000 0.0000 0.0000 42.5929 0.0000 0.0000
# 5 0.0000 0.0000 0.0000 0.0000 42.5929 0.0000
# 6 -6.2895 6.2895 0.0000 0.0000 0.0000 54.4262
#
#
#
# Elastic Compliance Matrix: (Units=1/GPa)
#
#
# Indices 1 2 3 4 5 6 
#
# 1 0.027311 -0.019204 -0.003229 0.000000 0.000000 0.005375
# 2 -0.019204 0.027311 -0.003229 0.000000 0.000000 -0.005375
# 3 -0.003229 -0.003229 0.010277 0.000000 0.000000 0.000000
# 4 0.000000 0.000000 0.000000 0.023478 0.000000 0.000000
# 5 0.000000 0.000000 0.000000 0.000000 0.023478 0.000000
# 6 0.005375 -0.005375 0.000000 0.000000 0.000000 0.019616
#
#
# Mechanical properties :
#
#
# Convention : Reuss Voigt Hill
#
# Bulk Modulus (GPa) = 73.66324 73.95744 73.81034
# Shear Modulus (GPa) = 26.69215 37.46200 32.07707
#
# Velocity S-wave (km/s) = 3.15266 3.73491 3.45607
# Velocity P-wave (km/s) = 6.37825 6.79255 6.58865
#
# Compressibility (1/GPa) = 0.01357529
#
# Stress axis : x y z
#
# Youngs Moduli (GPa) = 36.61470 36.61470 97.30731
#
# Poissons Ratio (x) = 0.70315 0.31420
# Poissons Ratio (y) = 0.70315 0.31420
# Poissons Ratio (z) = 0.11823 0.11823
#
# Static dielectric constant tensor:
#      x y z
#    x 2.243490 0.000000 0.000000 
#    y 0.000000 2.243490 0.000000 
#    z 0.000000 0.000000 2.108340 
# 
# From -- ./inp_files/600.got.cif
#   From: 2010.05.17/outbox.cif.g08.bks.cpg/sg76_cif.got.tgz:600.got - 2010.06.03 18:43:17.
