data_PCOD9541556
_publ_section_title
;
Structure prediction by ZEFSAII (Michael W. Deem and Ramdas Pophale) SiO2 
 PCOD9541556
Probable space group: P 42
;
_chemical_formula_sum "Si O2"
_cell_formula_units_Z 24
_cell_length_a 10.686512
_cell_length_b 10.686512
_cell_length_c 8.544416
_cell_angle_alpha 90.000000
_cell_angle_beta 90.000000
_cell_angle_gamma 90.000000
_cell_volume 975.785455
_symmetry_space_group_name_H-M "P 42"
_symmetry_group_IT_number 77
_symmetry_cell_setting 'tetragonal'
loop_
_space_group_symop_operation_xyz
x,y,z
-y,x,1/2+z
-x,-y,z
y,-x,1/2+z
loop_
_atom_site_type_symbol
_atom_site_label
_atom_site_fract_x
_atom_site_fract_y
_atom_site_fract_z
Si Si1 0.560084 0.636694 0.411670
Si Si2 0.808592 0.611837 0.071807
Si Si3 0.723112 0.002100 0.364546
Si Si4 0.140019 0.375583 0.416775
Si Si5 0.878914 0.089402 0.084407
Si Si6 0.596585 0.804276 0.137126
O O1 0.500000 0.500000 0.418767
O O2 0.506847 0.720414 0.551539
O O3 0.708995 0.641215 0.417912
O O4 0.526166 0.701760 0.245696
O O5 0.884408 0.611285 0.232842
O O6 0.713444 0.729760 0.062561
O O7 0.899949 0.624014 0.926812
O O8 0.830379 0.070999 0.261483
O O9 0.658439 0.902992 0.253039
O O10 0.782307 0.933477 0.514734
O O11 0.074084 0.251229 0.485411
O O12 0.131609 0.502286 0.516934
O O13 0.000000 0.000000 0.065393
#
# Coordination Sequence:
#
# PCOD9541556 Si02
#       6
#     4   4   4   4   4   4
#     4  11  23  43  78 114 161 205 255 328 409 490
#     4  11  25  45  77 118 155 213 264 327 411 480
#     4  12  27  52  78 113 159 213 276 337 407 482
#     4  11  26  47  77 116 156 206 271 326 409 487
#     4  12  27  49  79 108 157 213 270 333 396 479
#     4  11  25  50  76 116 163 206 265 335 405 487
#
# _framework density 24.595569000000001
#
# number of rings (size 3 to 8) (size 9 to 14) (size 15 to 20)
#    0.000    0.667    5.000    2.500    7.000    4.000 
#    0.000    1.667    0.000    0.000    0.000    0.000 
#    0.000    0.000    0.000    0.000    0.000    0.000 
#
# Total GULP energy -134349.939139 kJ/mol
# GULP energy per Si atom -5597.914131 kJ/mol
# Density = 2.453959 g / cm^3
# Si number density = 24.595569 Si / 1000 Ang^3
#
#
#
# Elastic Constant Matrix: (Units=GPa)
#
#
# Indices 1 2 3 4 5 6 
#
# 1 86.8776 20.8941 24.7748 0.0000 0.0000 -7.1769
# 2 20.8941 86.8776 24.7748 0.0000 0.0000 7.1769
# 3 24.7748 24.7748 73.5563 0.0000 0.0000 0.0000
# 4 0.0000 0.0000 0.0000 32.0393 0.0000 0.0000
# 5 0.0000 0.0000 0.0000 0.0000 32.0393 0.0000
# 6 -7.1769 7.1769 0.0000 0.0000 0.0000 45.4578
#
#
#
# Elastic Compliance Matrix: (Units=1/GPa)
#
#
# Indices 1 2 3 4 5 6 
#
# 1 0.013337 -0.002358 -0.003698 0.000000 0.000000 0.002478
# 2 -0.002358 0.013337 -0.003698 0.000000 0.000000 -0.002478
# 3 -0.003698 -0.003698 0.016086 0.000000 0.000000 0.000000
# 4 0.000000 0.000000 0.000000 0.031212 0.000000 0.000000
# 5 0.000000 0.000000 0.000000 0.000000 0.031212 0.000000
# 6 0.002478 -0.002478 0.000000 0.000000 0.000000 0.022781
#
#
# Mechanical properties :
#
#
# Convention : Reuss Voigt Hill
#
# Bulk Modulus (GPa) = 43.00607 43.13320 43.06963
# Shear Modulus (GPa) = 32.21207 33.69845 32.95526
#
# Velocity S-wave (km/s) = 3.62286 3.70551 3.66442
# Velocity P-wave (km/s) = 5.91806 5.99022 5.95425
#
# Compressibility (1/GPa) = 0.02325253
#
# Stress axis : x y z
#
# Youngs Moduli (GPa) = 74.98115 74.98115 62.16574
#
# Poissons Ratio (x) = 0.17678 0.22988
# Poissons Ratio (y) = 0.17678 0.22988
# Poissons Ratio (z) = 0.27727 0.27727
#
# Static dielectric constant tensor:
#      x y z
#    x 1.986990 0.000000 0.000000 
#    y 0.000000 1.986990 0.000000 
#    z 0.000000 0.000000 1.955220 
# 
# From -- ./inp_files/432.got.cif
#   From: 2010.05.17/outbox.cif.g08.bks.cpg/sg77_cif.got.tgz:432.got - 2010.06.03 18:44:51.
