data_PCOD9541167
_publ_section_title
;
Structure prediction by ZEFSAII (Michael W. Deem and Ramdas Pophale) SiO2 
 PCOD9541167
Probable space group: P 41
;
_chemical_formula_sum "Si O2"
_cell_formula_units_Z 24
_cell_length_a 13.066026
_cell_length_b 13.066026
_cell_length_c 6.543067
_cell_angle_alpha 90.000000
_cell_angle_beta 90.000000
_cell_angle_gamma 90.000000
_cell_volume 1117.039173
_symmetry_space_group_name_H-M "P 41"
_symmetry_group_IT_number 76
_symmetry_cell_setting 'tetragonal'
loop_
_space_group_symop_operation_xyz
x,y,z
-y,x,1/4+z
-x,-y,1/2+z
y,-x,3/4+z
loop_
_atom_site_type_symbol
_atom_site_label
_atom_site_fract_x
_atom_site_fract_y
_atom_site_fract_z
Si Si1 0.722361 0.342431 0.223900
Si Si2 0.480030 0.772487 0.759155
Si Si3 0.088808 0.755665 0.945184
Si Si4 0.120986 0.952526 0.716559
Si Si5 0.831927 0.353308 0.829171
Si Si6 0.649714 0.024648 0.336447
O O1 0.607706 0.312012 0.279903
O O2 0.751527 0.456380 0.301131
O O3 0.802489 0.271432 0.342525
O O4 0.746252 0.317315 0.988118
O O5 0.425198 0.882296 0.789324
O O6 0.564367 0.777146 0.936422
O O7 0.073975 0.873844 0.886716
O O8 0.007591 0.684148 0.819186
O O9 0.110037 0.725425 0.177732
O O10 0.241847 0.948077 0.733571
O O11 0.067990 0.912165 0.513841
O O12 0.922767 0.393084 0.976981
#
# Coordination Sequence:
#
# PCOD9541167 Si02
#       6
#     4   4   4   4   4   4
#     4  10  23  45  64  98 126 168 219 282 339 391
#     4  11  24  44  69  95 135 168 227 278 339 403
#     4   9  20  42  60  97 133 170 221 261 325 391
#     4  10  21  37  60  92 137 178 218 257 312 395
#     4  10  24  40  70  93 131 174 220 272 335 394
#     4  10  22  40  65  95 136 174 219 276 316 394
#
# _framework density 21.48537
#
# number of rings (size 3 to 8) (size 9 to 14) (size 15 to 20)
#    0.000    2.000    1.667    0.000    9.333    2.667 
#    9.000    0.000    0.000    0.000    0.000    0.000 
#    0.000    0.000    0.000    0.000    0.000    0.000 
#
# Total GULP energy -133779.958624 kJ/mol
# GULP energy per Si atom -5574.164943 kJ/mol
# Density = 2.143647 g / cm^3
# Si number density = 21.485370 Si / 1000 Ang^3
#
#
#
# Elastic Constant Matrix: (Units=GPa)
#
#
# Indices 1 2 3 4 5 6 
#
# 1 55.8526 29.6507 25.6527 0.0000 0.0000 2.0884
# 2 29.6507 55.8526 25.6527 0.0000 0.0000 -2.0884
# 3 25.6527 25.6527 97.2156 0.0000 0.0000 0.0000
# 4 0.0000 0.0000 0.0000 15.1350 0.0000 0.0000
# 5 0.0000 0.0000 0.0000 0.0000 15.1350 0.0000
# 6 2.0884 -2.0884 0.0000 0.0000 0.0000 41.0976
#
#
#
# Elastic Compliance Matrix: (Units=1/GPa)
#
#
# Indices 1 2 3 4 5 6 
#
# 1 0.026186 -0.012291 -0.003667 0.000000 0.000000 -0.001955
# 2 -0.012291 0.026186 -0.003667 0.000000 0.000000 0.001955
# 3 -0.003667 -0.003667 0.012222 0.000000 0.000000 0.000000
# 4 0.000000 0.000000 0.000000 0.066072 0.000000 0.000000
# 5 0.000000 0.000000 0.000000 0.000000 0.066072 0.000000
# 6 -0.001955 0.001955 0.000000 0.000000 0.000000 0.024531
#
#
# Mechanical properties :
#
#
# Convention : Reuss Voigt Hill
#
# Bulk Modulus (GPa) = 39.45403 41.20368 40.32885
# Shear Modulus (GPa) = 18.58974 22.80450 20.69712
#
# Velocity S-wave (km/s) = 2.94467 3.26144 3.10709
# Velocity P-wave (km/s) = 5.47398 5.77943 5.62878
#
# Compressibility (1/GPa) = 0.02534595
#
# Stress axis : x y z
#
# Youngs Moduli (GPa) = 38.18795 38.18795 81.82290
#
# Poissons Ratio (x) = 0.46935 0.30002
# Poissons Ratio (y) = 0.46935 0.30002
# Poissons Ratio (z) = 0.14002 0.14002
#
# Static dielectric constant tensor:
#      x y z
#    x 1.792850 0.000000 0.000000 
#    y 0.000000 1.792850 0.000000 
#    z 0.000000 0.000000 1.850800 
# 
# From -- ./inp_files/188.got.cif
#   From: 2010.05.17/outbox.cif.g08.bks.cpg/sg76_cif.got.tgz:188.got - 2010.06.03 18:43:17.
