data_PCOD9541175
_publ_section_title
;
Structure prediction by ZEFSAII (Michael W. Deem and Ramdas Pophale) SiO2 
 PCOD9541175
Probable space group: P 41
;
_chemical_formula_sum "Si O2"
_cell_formula_units_Z 32
_cell_length_a 11.774798
_cell_length_b 11.774798
_cell_length_c 12.125274
_cell_angle_alpha 90.000000
_cell_angle_beta 90.000000
_cell_angle_gamma 90.000000
_cell_volume 1681.119138
_symmetry_space_group_name_H-M "P 41"
_symmetry_group_IT_number 76
_symmetry_cell_setting 'tetragonal'
loop_
_space_group_symop_operation_xyz
x,y,z
-y,x,1/4+z
-x,-y,1/2+z
y,-x,3/4+z
loop_
_atom_site_type_symbol
_atom_site_label
_atom_site_fract_x
_atom_site_fract_y
_atom_site_fract_z
Si Si1 0.191428 0.775613 0.515740
Si Si2 0.307363 0.466588 0.253392
Si Si3 0.844692 0.421885 0.174459
Si Si4 0.504178 0.159290 0.167563
Si Si5 0.591263 0.345684 0.908637
Si Si6 0.515618 0.390547 0.271723
Si Si7 0.917282 0.454198 0.653810
Si Si8 0.292590 0.003511 0.587003
O O1 0.161210 0.701448 0.622739
O O2 0.312529 0.725981 0.472552
O O3 0.205952 0.906430 0.548122
O O4 0.096308 0.753090 0.422672
O O5 0.342950 0.580814 0.317371
O O6 0.383831 0.377077 0.320667
O O7 0.178212 0.472640 0.219357
O O8 0.376162 0.429350 0.142945
O O9 0.827958 0.431838 0.306053
O O10 0.748270 0.500975 0.117888
O O11 0.965731 0.477591 0.150852
O O12 0.553451 0.282408 0.201038
O O13 0.438351 0.120492 0.277593
O O14 0.602711 0.067753 0.141782
O O15 0.510072 0.431668 0.978576
O O16 0.937001 0.343537 0.727906
#
# Coordination Sequence:
#
# PCOD9541175 Si02
#       8
#     4   4   4   4   4   4   4   4
#     4  12  24  42  71  92 124 167 226 270 322 377
#     4  11  22  33  53  86 130 165 198 243 309 386
#     4  11  23  38  62  93 125 161 212 268 310 386
#     4  10  21  40  59  93 134 171 203 253 324 392
#     4  12  22  35  60  95 127 165 207 255 317 386
#     4  11  22  34  53  91 137 167 191 248 316 397
#     4  10  21  39  60  87 129 168 208 253 319 380
#     4  11  23  43  68  95 120 174 223 278 317 376
#
# _framework density 19.034938
#
# number of rings (size 3 to 8) (size 9 to 14) (size 15 to 20)
#    0.000    1.000    6.250    2.250    0.000    1.000 
#    0.000    0.000    2.750    0.000    0.000    0.000 
#    0.000    0.000    0.000    0.000    0.000    0.000 
#
# Total GULP energy -178173.596221 kJ/mol
# GULP energy per Si atom -5567.924882 kJ/mol
# Density = 1.899161 g / cm^3
# Si number density = 19.034938 Si / 1000 Ang^3
#
#
#
# Elastic Constant Matrix: (Units=GPa)
#
#
# Indices 1 2 3 4 5 6 
#
# 1 95.0906 11.8645 21.9324 0.0000 0.0000 -11.1365
# 2 11.8645 95.0906 21.9324 0.0000 0.0000 11.1365
# 3 21.9324 21.9324 71.9645 0.0000 0.0000 0.0000
# 4 0.0000 0.0000 0.0000 38.0249 0.0000 0.0000
# 5 0.0000 0.0000 0.0000 0.0000 38.0249 0.0000
# 6 -11.1365 11.1365 0.0000 0.0000 0.0000 21.5415
#
#
#
# Elastic Compliance Matrix: (Units=1/GPa)
#
#
# Indices 1 2 3 4 5 6 
#
# 1 0.012315 -0.001630 -0.003257 0.000000 0.000000 0.007209
# 2 -0.001630 0.012315 -0.003257 0.000000 0.000000 -0.007209
# 3 -0.003257 -0.003257 0.015881 0.000000 0.000000 0.000000
# 4 0.000000 0.000000 0.000000 0.026299 0.000000 0.000000
# 5 0.000000 0.000000 0.000000 0.000000 0.026299 0.000000
# 6 0.007209 -0.007209 0.000000 0.000000 0.000000 0.053876
#
#
# Mechanical properties :
#
#
# Convention : Reuss Voigt Hill
#
# Bulk Modulus (GPa) = 41.27932 41.51157 41.39545
# Shear Modulus (GPa) = 29.18101 33.27938 31.23020
#
# Velocity S-wave (km/s) = 3.91963 4.18584 4.05492
# Velocity P-wave (km/s) = 6.49753 6.72437 6.61192
#
# Compressibility (1/GPa) = 0.02422520
#
# Stress axis : x y z
#
# Youngs Moduli (GPa) = 81.20159 81.20159 62.96952
#
# Poissons Ratio (x) = 0.13234 0.20506
# Poissons Ratio (y) = 0.13234 0.20506
# Poissons Ratio (z) = 0.26443 0.26443
#
# Static dielectric constant tensor:
#      x y z
#    x 1.365510 0.000000 0.000000 
#    y 0.000000 1.365510 0.000000 
#    z 0.000000 0.000000 2.047230 
# 
# From -- ./inp_files/955.got.cif
#   From: 2010.05.17/outbox.cif.g08.bks.cpg/sg76_cif.got.tgz:955.got - 2010.06.03 18:43:17.
