data_PCOD9541055
_publ_section_title
;
Structure prediction by ZEFSAII (Michael W. Deem and Ramdas Pophale) SiO2 
 PCOD9541055
Probable space group: P 4
;
_chemical_formula_sum "Si O2"
_cell_formula_units_Z 28
_cell_length_a 10.931554
_cell_length_b 10.931554
_cell_length_c 13.265644
_cell_angle_alpha 90.000000
_cell_angle_beta 90.000000
_cell_angle_gamma 90.000000
_cell_volume 1585.229506
_symmetry_space_group_name_H-M "P 4"
_symmetry_group_IT_number 75
_symmetry_cell_setting 'tetragonal'
loop_
_space_group_symop_operation_xyz
x,y,z
-y,x,z
-x,-y,z
y,-x,z
loop_
_atom_site_type_symbol
_atom_site_label
_atom_site_fract_x
_atom_site_fract_y
_atom_site_fract_z
Si Si1 0.706078 0.508434 0.872840
Si Si2 0.705127 0.489599 0.258748
Si Si3 0.863424 0.549762 0.067207
Si Si4 0.508434 0.293922 0.644655
Si Si5 0.183604 0.914842 0.137943
Si Si6 0.863424 0.549762 0.450288
Si Si7 0.085158 0.183604 0.379553
O O1 0.612194 0.622068 0.883086
O O2 0.756323 0.510455 0.758748
O O3 0.803412 0.516118 0.961099
O O4 0.623204 0.612203 0.258747
O O5 0.786284 0.491676 0.158654
O O6 0.786281 0.491676 0.358843
O O7 0.866679 0.696213 0.083384
O O8 0.000000 0.500000 0.073990
O O9 0.622067 0.387806 0.634409
O O10 0.516117 0.196586 0.556397
O O11 0.203567 0.906140 0.258748
O O12 0.058021 0.842808 0.115003
O O13 0.866679 0.696212 0.434111
O O14 0.000000 0.500000 0.443503
O O15 0.941979 0.157193 0.402493
#
# Coordination Sequence:
#
# PCOD9541055 Si02
#       7
#     4   4   4   4   4   4   4
#     4   9  20  41  64  83 109 149 192 236 290 343
#     4  11  25  40  56  83 124 158 186 233 293 340
#     4  12  24  33  59  89 117 147 187 239 284 337
#     4   9  20  41  64  83 109 149 192 236 290 343
#     4   9  20  37  55  76 113 163 197 222 266 333
#     4  12  24  33  59  89 117 147 187 239 284 337
#     4   9  20  37  55  76 113 163 197 222 266 333
#
# _framework density 17.663059000000001
#
# number of rings (size 3 to 8) (size 9 to 14) (size 15 to 20)
#    0.000    1.857    1.429    3.857    8.000    2.857 
#    0.000    0.000    0.000    0.000    0.000    2.000 
#    0.000    0.000    0.000    0.000    0.000    0.000 
#
# Total GULP energy -156478.363660 kJ/mol
# GULP energy per Si atom -5588.512988 kJ/mol
# Density = 1.762286 g / cm^3
# Si number density = 17.663059 Si / 1000 Ang^3
#
#
#
# Elastic Constant Matrix: (Units=GPa)
#
#
# Indices 1 2 3 4 5 6 
#
# 1 66.4281 15.3757 57.7800 0.0000 0.0000 -1.7285
# 2 15.3757 66.4281 57.7800 0.0000 0.0000 1.7285
# 3 57.7800 57.7800 137.9205 0.0000 0.0000 0.0000
# 4 0.0000 0.0000 0.0000 -11.0670 0.0000 0.0000
# 5 0.0000 0.0000 0.0000 0.0000 -11.0670 0.0000
# 6 -1.7285 1.7285 0.0000 0.0000 0.0000 13.2356
#
#
#
# Elastic Compliance Matrix: (Units=1/GPa)
#
#
# Indices 1 2 3 4 5 6 
#
# 1 0.024855 0.005093 -0.012546 0.000000 0.000000 0.002581
# 2 0.005093 0.024855 -0.012546 0.000000 0.000000 -0.002581
# 3 -0.012546 -0.012546 0.017763 0.000000 0.000000 0.000000
# 4 0.000000 0.000000 0.000000 -0.090359 0.000000 0.000000
# 5 0.000000 0.000000 0.000000 0.000000 -0.090359 0.000000
# 6 0.002581 -0.002581 0.000000 0.000000 0.000000 0.076228
#
#
# Mechanical properties :
#
#
# Convention : Reuss Voigt Hill
#
# Bulk Modulus (GPa) = 36.39887 59.18313 47.79100
# Shear Modulus (GPa) = 411.80207 7.54302 209.67255
#
# Velocity S-wave (km/s) = 15.28559 2.06876 10.90709
# Velocity P-wave (km/s) = 18.22593 6.26784 13.62847
#
# Compressibility (1/GPa) = 0.02747338
#
# Stress axis : x y z
#
# Youngs Moduli (GPa) = 40.23305 40.23305 56.29754
#
# Poissons Ratio (x) = -0.20489 0.70632
# Poissons Ratio (y) = -0.20489 0.70632
# Poissons Ratio (z) = 0.50478 0.50478
#
# Static dielectric constant tensor:
#      x y z
#    x 1.601840 0.000000 0.000000 
#    y 0.000000 1.601840 0.000000 
#    z 0.000000 0.000000 1.567500 
# 
# From -- ./inp_files/571.got.cif
#   From: 2010.05.17/outbox.cif.g08.bks.cpg/sg75_cif.got.tgz:571.got - 2010.06.03 18:42:43.
