data_PCOD9541330
_publ_section_title
;
Structure prediction by ZEFSAII (Michael W. Deem and Ramdas Pophale) SiO2 
 PCOD9541330
Probable space group: P 41
;
_chemical_formula_sum "Si O2"
_cell_formula_units_Z 24
_cell_length_a 14.239887
_cell_length_b 14.239887
_cell_length_c 6.202476
_cell_angle_alpha 90.000000
_cell_angle_beta 90.000000
_cell_angle_gamma 90.000000
_cell_volume 1257.703236
_symmetry_space_group_name_H-M "P 41"
_symmetry_group_IT_number 76
_symmetry_cell_setting 'tetragonal'
loop_
_space_group_symop_operation_xyz
x,y,z
-y,x,1/4+z
-x,-y,1/2+z
y,-x,3/4+z
loop_
_atom_site_type_symbol
_atom_site_label
_atom_site_fract_x
_atom_site_fract_y
_atom_site_fract_z
Si Si1 0.267199 0.030094 0.300320
Si Si2 0.476241 0.122207 0.799903
Si Si3 0.338223 0.851247 0.549567
Si Si4 0.944608 0.122951 0.194385
Si Si5 0.064503 0.397465 0.200702
Si Si6 0.822205 0.273113 0.927861
O O1 0.274549 0.124367 0.445158
O O2 0.288046 0.944385 0.458705
O O3 0.170409 0.022953 0.169924
O O4 0.342733 0.004864 0.113888
O O5 0.533537 0.131507 0.579537
O O6 0.376364 0.171482 0.781165
O O7 0.453994 0.010628 0.809501
O O8 0.551927 0.149143 0.981688
O O9 0.332840 0.869207 0.804851
O O10 0.283290 0.765771 0.440581
O O11 0.897538 0.026962 0.274378
O O12 0.877623 0.198460 0.078458
#
# Coordination Sequence:
#
# PCOD9541330 Si02
#       6
#     4   4   4   4   4   4
#     4  11  21  39  59  85 122 165 206 257 303 365
#     4  11  21  38  62  89 119 158 205 271 318 371
#     4  11  24  38  62  93 123 160 214 264 319 378
#     4  12  27  38  57  86 129 177 216 243 298 370
#     4  11  19  38  63  91 118 158 208 261 319 361
#     4  12  24  41  61  88 125 166 211 260 323 379
#
# _framework density 19.082404
#
# number of rings (size 3 to 8) (size 9 to 14) (size 15 to 20)
#    0.000    0.667    5.000    4.000    4.667    1.333 
#    0.000    0.000    0.000    0.000    4.333    0.000 
#    0.000    0.000    0.000    0.000    0.000    0.000 
#
# Total GULP energy -133883.456468 kJ/mol
# GULP energy per Si atom -5578.477353 kJ/mol
# Density = 1.903897 g / cm^3
# Si number density = 19.082404 Si / 1000 Ang^3
#
#
#
# Elastic Constant Matrix: (Units=GPa)
#
#
# Indices 1 2 3 4 5 6 
#
# 1 89.4318 43.4492 30.8969 0.0000 0.0000 0.2059
# 2 43.4492 89.4318 30.8969 0.0000 0.0000 -0.2059
# 3 30.8969 30.8969 86.5166 0.0000 0.0000 0.0000
# 4 0.0000 0.0000 0.0000 26.9095 0.0000 0.0000
# 5 0.0000 0.0000 0.0000 0.0000 26.9095 0.0000
# 6 0.2059 -0.2059 0.0000 0.0000 0.0000 16.6818
#
#
#
# Elastic Compliance Matrix: (Units=1/GPa)
#
#
# Indices 1 2 3 4 5 6 
#
# 1 0.015387 -0.006363 -0.003223 0.000000 0.000000 -0.000269
# 2 -0.006363 0.015387 -0.003223 0.000000 0.000000 0.000269
# 3 -0.003223 -0.003223 0.013860 0.000000 0.000000 0.000000
# 4 0.000000 0.000000 0.000000 0.037162 0.000000 0.000000
# 5 0.000000 0.000000 0.000000 0.000000 0.037162 0.000000
# 6 -0.000269 0.000269 0.000000 0.000000 0.000000 0.059952
#
#
# Mechanical properties :
#
#
# Convention : Reuss Voigt Hill
#
# Bulk Modulus (GPa) = 52.58241 52.87401 52.72821
# Shear Modulus (GPa) = 23.71183 24.77599 24.24391
#
# Velocity S-wave (km/s) = 3.52888 3.60720 3.56825
# Velocity P-wave (km/s) = 6.64976 6.71696 6.68344
#
# Compressibility (1/GPa) = 0.01901777
#
# Stress axis : x y z
#
# Youngs Moduli (GPa) = 64.99003 64.99003 72.14855
#
# Poissons Ratio (x) = 0.41352 0.23252
# Poissons Ratio (y) = 0.41352 0.23252
# Poissons Ratio (z) = 0.20945 0.20945
#
# Static dielectric constant tensor:
#      x y z
#    x 1.701930 0.000000 0.000000 
#    y 0.000000 1.701930 0.000000 
#    z 0.000000 0.000000 1.769390 
# 
# From -- ./inp_files/182.got.cif
#   From: 2010.05.17/outbox.cif.g08.bks.cpg/sg76_cif.got.tgz:182.got - 2010.06.03 18:43:17.
