data_PCOD9541159
_publ_section_title
;
Structure prediction by ZEFSAII (Michael W. Deem and Ramdas Pophale) SiO2 
 PCOD9541159
Probable space group: P 41
;
_chemical_formula_sum "Si O2"
_cell_formula_units_Z 28
_cell_length_a 7.298468
_cell_length_b 7.298468
_cell_length_c 19.557085
_cell_angle_alpha 90.000000
_cell_angle_beta 90.000000
_cell_angle_gamma 90.000000
_cell_volume 1041.759668
_symmetry_space_group_name_H-M "P 41"
_symmetry_group_IT_number 76
_symmetry_cell_setting 'tetragonal'
loop_
_space_group_symop_operation_xyz
x,y,z
-y,x,1/4+z
-x,-y,1/2+z
y,-x,3/4+z
loop_
_atom_site_type_symbol
_atom_site_label
_atom_site_fract_x
_atom_site_fract_y
_atom_site_fract_z
Si Si1 0.286777 0.875053 0.847140
Si Si2 0.260451 0.075382 0.482043
Si Si3 0.749041 0.691028 0.320133
Si Si4 0.721128 0.291774 0.925115
Si Si5 0.660990 0.657139 0.868250
Si Si6 0.371802 0.865243 0.709651
Si Si7 0.793304 0.870139 0.745066
O O1 0.467016 0.753126 0.858256
O O2 0.236913 0.801611 0.770612
O O3 0.184238 0.855874 0.918735
O O4 0.295156 0.093640 0.833137
O O5 0.288972 0.266390 0.443713
O O6 0.054806 0.098479 0.510027
O O7 0.346446 0.959412 0.544215
O O8 0.307012 0.926744 0.421111
O O9 0.649648 0.638671 0.249585
O O10 0.732790 0.609946 0.395106
O O11 0.660761 0.437057 0.869419
O O12 0.939614 0.301196 0.934006
O O13 0.797448 0.728866 0.808636
O O14 0.575318 0.900414 0.736841
#
# Coordination Sequence:
#
# PCOD9541159 Si02
#       7
#     4   4   4   4   4   4   4
#     4  10  24  43  63 102 142 192 247 302 370 445
#     4  10  23  41  76 107 134 194 245 302 371 449
#     4   9  22  42  71 105 137 196 243 303 371 447
#     4   9  21  42  71 107 144 181 244 306 359 446
#     4  11  24  47  67 109 151 190 243 315 365 453
#     4  10  20  44  68  99 148 181 249 309 359 445
#     4  11  24  41  70 105 142 190 247 301 373 437
#
# _framework density 26.877603000000001
#
# number of rings (size 3 to 8) (size 9 to 14) (size 15 to 20)
#    0.857    1.143    1.429    0.857    4.000    1.143 
#   10.286    0.000    0.000    0.000    0.000    0.000 
#    0.000    0.000    0.000    0.000    0.000    0.000 
#
# Total GULP energy -156072.366261 kJ/mol
# GULP energy per Si atom -5574.013081 kJ/mol
# Density = 2.681643 g / cm^3
# Si number density = 26.877603 Si / 1000 Ang^3
#
#
#
# Elastic Constant Matrix: (Units=GPa)
#
#
# Indices 1 2 3 4 5 6 
#
# 1 58.6020 4.6080 5.2850 0.0000 0.0000 2.1232
# 2 4.6080 58.6020 5.2850 0.0000 0.0000 -2.1232
# 3 5.2850 5.2850 134.7952 0.0000 0.0000 0.0000
# 4 0.0000 0.0000 0.0000 29.3588 0.0000 0.0000
# 5 0.0000 0.0000 0.0000 0.0000 29.3588 0.0000
# 6 2.1232 -2.1232 0.0000 0.0000 0.0000 20.2435
#
#
#
# Elastic Compliance Matrix: (Units=1/GPa)
#
#
# Indices 1 2 3 4 5 6 
#
# 1 0.017300 -0.001375 -0.000624 0.000000 0.000000 -0.001959
# 2 -0.001375 0.017300 -0.000624 0.000000 0.000000 0.001959
# 3 -0.000624 -0.000624 0.007468 0.000000 0.000000 0.000000
# 4 0.000000 0.000000 0.000000 0.034061 0.000000 0.000000
# 5 0.000000 0.000000 0.000000 0.000000 0.034061 0.000000
# 6 -0.001959 0.001959 0.000000 0.000000 0.000000 0.049809
#
#
# Mechanical properties :
#
#
# Convention : Reuss Voigt Hill
#
# Bulk Modulus (GPa) = 27.15949 31.37279 29.26614
# Shear Modulus (GPa) = 28.16593 31.58032 29.87313
#
# Velocity S-wave (km/s) = 3.24069 3.43150 3.33746
# Velocity P-wave (km/s) = 4.91219 5.23431 5.07581
#
# Compressibility (1/GPa) = 0.03681954
#
# Stress axis : x y z
#
# Youngs Moduli (GPa) = 57.80463 57.80463 133.91141
#
# Poissons Ratio (x) = 0.07948 0.08361
# Poissons Ratio (y) = 0.07948 0.08361
# Poissons Ratio (z) = 0.03609 0.03609
#
# Static dielectric constant tensor:
#      x y z
#    x 2.148270 0.000000 0.000000 
#    y 0.000000 2.148270 0.000000 
#    z 0.000000 0.000000 2.266570 
# 
# From -- ./inp_files/1359.got.cif
#   From: 2010.05.17/outbox.cif.g08.bks.cpg/sg76_cif.got.tgz:1359.got - 2010.06.03 18:43:17.
