data_PCOD9541409
_publ_section_title
;
Structure prediction by ZEFSAII (Michael W. Deem and Ramdas Pophale) SiO2 
 PCOD9541409
Probable space group: P 41
;
_chemical_formula_sum "Si O2"
_cell_formula_units_Z 20
_cell_length_a 4.977898
_cell_length_b 4.977898
_cell_length_c 32.057075
_cell_angle_alpha 90.000000
_cell_angle_beta 90.000000
_cell_angle_gamma 90.000000
_cell_volume 794.357280
_symmetry_space_group_name_H-M "P 41"
_symmetry_group_IT_number 76
_symmetry_cell_setting 'tetragonal'
loop_
_space_group_symop_operation_xyz
x,y,z
-y,x,1/4+z
-x,-y,1/2+z
y,-x,3/4+z
loop_
_atom_site_type_symbol
_atom_site_label
_atom_site_fract_x
_atom_site_fract_y
_atom_site_fract_z
Si Si1 0.612276 0.898280 0.415170
Si Si2 0.701231 0.062827 0.554277
Si Si3 0.348549 0.229959 0.478983
Si Si4 0.186313 0.118356 0.609616
Si Si5 0.278157 0.953150 0.740571
O O1 0.495615 0.171922 0.435213
O O2 0.866096 0.929595 0.385132
O O3 0.727302 0.734723 0.454742
O O4 0.367898 0.767476 0.390149
O O5 0.459034 0.034345 0.586711
O O6 0.808452 0.784405 0.534364
O O7 0.152317 0.974776 0.484674
O O8 0.957905 0.194753 0.576170
O O9 0.149333 0.475108 0.484409
O O10 0.573211 0.220512 0.515078
#
# Coordination Sequence:
#
# PCOD9541409 Si02
#       5
#     4   4   4   4   4
#     4  11  28  50  76 115 156 206 262 319 396 462
#     4  11  28  50  76 115 156 206 262 319 396 462
#     4  11  26  50  79 111 151 208 261 319 380 475
#     4  12  28  46  76 112 160 202 256 328 392 458
#     4  11  26  50  79 111 151 208 261 319 380 475
#
# _framework density 25.177589000000001
#
# number of rings (size 3 to 8) (size 9 to 14) (size 15 to 20)
#    0.000    0.800    4.000    0.000    5.600   14.400 
#    0.000    0.000    0.000    0.000    0.000    0.000 
#    0.000    0.000    0.000    0.000    0.000    0.000 
#
# Total GULP energy -112193.415591 kJ/mol
# GULP energy per Si atom -5609.670780 kJ/mol
# Density = 2.512028 g / cm^3
# Si number density = 25.177589 Si / 1000 Ang^3
#
#
#
# Elastic Constant Matrix: (Units=GPa)
#
#
# Indices 1 2 3 4 5 6 
#
# 1 165.3651 42.5737 30.6778 0.0000 0.0000 2.7137
# 2 42.5737 165.3651 30.6778 0.0000 0.0000 -2.7137
# 3 30.6778 30.6778 98.0799 0.0000 0.0000 0.0000
# 4 0.0000 0.0000 0.0000 24.7015 0.0000 0.0000
# 5 0.0000 0.0000 0.0000 0.0000 24.7015 0.0000
# 6 2.7137 -2.7137 0.0000 0.0000 0.0000 48.4450
#
#
#
# Elastic Compliance Matrix: (Units=1/GPa)
#
#
# Indices 1 2 3 4 5 6 
#
# 1 0.006731 -0.001433 -0.001657 0.000000 0.000000 -0.000457
# 2 -0.001433 0.006731 -0.001657 0.000000 0.000000 0.000457
# 3 -0.001657 -0.001657 0.011232 0.000000 0.000000 0.000000
# 4 0.000000 0.000000 0.000000 0.040483 0.000000 0.000000
# 5 0.000000 0.000000 0.000000 0.000000 0.040483 0.000000
# 6 -0.000457 0.000457 0.000000 0.000000 0.000000 0.020693
#
#
# Mechanical properties :
#
#
# Convention : Reuss Voigt Hill
#
# Bulk Modulus (GPa) = 65.78956 70.74094 68.26525
# Shear Modulus (GPa) = 35.48218 41.22832 38.35525
#
# Velocity S-wave (km/s) = 3.75811 4.05099 3.90730
# Velocity P-wave (km/s) = 6.70955 7.07379 6.89408
#
# Compressibility (1/GPa) = 0.01519998
#
# Stress axis : x y z
#
# Youngs Moduli (GPa) = 148.56432 148.56432 89.02795
#
# Poissons Ratio (x) = 0.21290 0.14753
# Poissons Ratio (y) = 0.21290 0.14753
# Poissons Ratio (z) = 0.24619 0.24619
#
# Static dielectric constant tensor:
#      x y z
#    x 1.995530 0.000000 0.000000 
#    y 0.000000 1.995530 0.000000 
#    z 0.000000 0.000000 2.046740 
# 
# From -- ./inp_files/1679.got.cif
#   From: 2010.05.17/outbox.cif.g08.bks.cpg/sg76_cif.got.tgz:1679.got - 2010.06.03 18:43:17.
