data_PCOD9541193
_publ_section_title
;
Structure prediction by ZEFSAII (Michael W. Deem and Ramdas Pophale) SiO2 
 PCOD9541193
Probable space group: P 41
;
_chemical_formula_sum "Si O2"
_cell_formula_units_Z 24
_cell_length_a 14.091624
_cell_length_b 14.091624
_cell_length_c 5.099378
_cell_angle_alpha 90.000000
_cell_angle_beta 90.000000
_cell_angle_gamma 90.000000
_cell_volume 1012.603209
_symmetry_space_group_name_H-M "P 41"
_symmetry_group_IT_number 76
_symmetry_cell_setting 'tetragonal'
loop_
_space_group_symop_operation_xyz
x,y,z
-y,x,1/4+z
-x,-y,1/2+z
y,-x,3/4+z
loop_
_atom_site_type_symbol
_atom_site_label
_atom_site_fract_x
_atom_site_fract_y
_atom_site_fract_z
Si Si1 0.980975 0.852634 0.431820
Si Si2 0.724967 0.051510 0.691033
Si Si3 0.770529 0.442178 0.932616
Si Si4 0.564065 0.373700 0.430878
Si Si5 0.605805 0.879239 0.692265
Si Si6 0.274023 0.734280 0.107796
O O1 0.949813 0.793541 0.686948
O O2 0.071252 0.910296 0.545189
O O3 0.991199 0.777301 0.196792
O O4 0.706065 0.162887 0.717446
O O5 0.631277 0.988195 0.653050
O O6 0.682186 0.513144 0.921508
O O7 0.846154 0.454246 0.694121
O O8 0.726662 0.341019 0.845883
O O9 0.828711 0.440573 0.195679
O O10 0.608479 0.476049 0.491030
O O11 0.650328 0.301738 0.392543
O O12 0.709660 0.827741 0.728857
#
# Coordination Sequence:
#
# PCOD9541193 Si02
#       6
#     4   4   4   4   4   4
#     4  12  24  39  57  96 129 172 240 295 326 379
#     4  12  24  38  67  87 134 194 217 267 345 389
#     4   9  22  42  63  92 133 164 215 279 330 395
#     4  10  22  42  72 109 129 166 211 289 353 411
#     4  10  21  42  59  93 131 177 218 269 316 406
#     4   9  23  41  62  99 130 173 223 271 328 406
#
# _framework density 23.701288999999999
#
# number of rings (size 3 to 8) (size 9 to 14) (size 15 to 20)
#    1.000    0.667    0.000    5.000    7.000    0.000 
#    3.000    1.667    0.000    0.000    0.000    0.000 
#    0.000    0.000    0.000    0.000    0.000    0.000 
#
# Total GULP energy -133851.202944 kJ/mol
# GULP energy per Si atom -5577.133456 kJ/mol
# Density = 2.364734 g / cm^3
# Si number density = 23.701289 Si / 1000 Ang^3
#
#
#
# Elastic Constant Matrix: (Units=GPa)
#
#
# Indices 1 2 3 4 5 6 
#
# 1 71.1635 7.4163 12.4029 0.0000 0.0000 -7.2122
# 2 7.4163 71.1635 12.4029 0.0000 0.0000 7.2122
# 3 12.4029 12.4029 127.7149 0.0000 0.0000 0.0000
# 4 0.0000 0.0000 0.0000 3.8352 0.0000 0.0000
# 5 0.0000 0.0000 0.0000 0.0000 3.8352 0.0000
# 6 -7.2122 7.2122 0.0000 0.0000 0.0000 -24.5487
#
#
#
# Elastic Compliance Matrix: (Units=1/GPa)
#
#
# Indices 1 2 3 4 5 6 
#
# 1 0.013919 -0.000790 -0.001275 0.000000 0.000000 -0.004321
# 2 -0.000790 0.013919 -0.001275 0.000000 0.000000 0.004321
# 3 -0.001275 -0.001275 0.008078 0.000000 0.000000 0.000000
# 4 0.000000 0.000000 0.000000 0.260740 0.000000 0.000000
# 5 0.000000 0.000000 0.000000 0.000000 0.260740 0.000000
# 6 -0.004321 0.004321 0.000000 0.000000 0.000000 -0.038196
#
#
# Mechanical properties :
#
#
# Convention : Reuss Voigt Hill
#
# Bulk Modulus (GPa) = 34.20609 37.16510 35.68559
# Shear Modulus (GPa) = 9.33490 12.47901 10.90695
#
# Velocity S-wave (km/s) = 1.98673 2.29707 2.14752
# Velocity P-wave (km/s) = 4.44143 4.76970 4.60849
#
# Compressibility (1/GPa) = 0.02923456
#
# Stress axis : x y z
#
# Youngs Moduli (GPa) = 71.84540 71.84540 123.79963
#
# Poissons Ratio (x) = 0.05679 0.15784
# Poissons Ratio (y) = 0.05679 0.15784
# Poissons Ratio (z) = 0.09160 0.09160
#
# Static dielectric constant tensor:
#      x y z
#    x 1.942840 0.000000 0.000000 
#    y 0.000000 1.942840 0.000000 
#    z 0.000000 0.000000 1.916380 
# 
# From -- ./inp_files/222.got.cif
#   From: 2010.05.17/outbox.cif.g08.bks.cpg/sg76_cif.got.tgz:222.got - 2010.06.03 18:43:17.
