data_PCOD9541295
_publ_section_title
;
Structure prediction by ZEFSAII (Michael W. Deem and Ramdas Pophale) SiO2 
 PCOD9541295
Probable space group: P 41
;
_chemical_formula_sum "Si O2"
_cell_formula_units_Z 16
_cell_length_a 10.991810
_cell_length_b 10.991810
_cell_length_c 5.430808
_cell_angle_alpha 90.000000
_cell_angle_beta 90.000000
_cell_angle_gamma 90.000000
_cell_volume 656.149609
_symmetry_space_group_name_H-M "P 41"
_symmetry_group_IT_number 76
_symmetry_cell_setting 'tetragonal'
loop_
_space_group_symop_operation_xyz
x,y,z
-y,x,1/4+z
-x,-y,1/2+z
y,-x,3/4+z
loop_
_atom_site_type_symbol
_atom_site_label
_atom_site_fract_x
_atom_site_fract_y
_atom_site_fract_z
Si Si1 0.066845 0.508493 0.972420
Si Si2 0.680531 0.278828 0.144894
Si Si3 0.863312 0.126694 0.912348
Si Si4 0.735488 0.316251 0.650878
O O1 0.006585 0.541522 0.710033
O O2 0.166237 0.409753 0.890447
O O3 0.136905 0.619724 0.101660
O O4 0.818307 0.222400 0.121580
O O5 0.662207 0.339058 0.405604
O O6 0.673663 0.359181 0.901821
O O7 0.857996 0.994563 0.036201
O O8 0.764777 0.172782 0.706710
#
# Coordination Sequence:
#
# PCOD9541295 Si02
#       4
#     4   4   4   4
#     4  12  24  42  72  98 134 188 240 292 346 414
#     4  10  24  40  63  95 135 171 234 280 346 404
#     4  10  24  36  58  94 136 188 210 266 344 434
#     4  10  24  40  63  95 135 171 234 280 346 404
#
# _framework density 24.384685000000001
#
# number of rings (size 3 to 8) (size 9 to 14) (size 15 to 20)
#    1.500    0.000    0.000    4.500   10.500    0.000 
#    0.000    0.000    0.000    3.000    0.000    0.000 
#    0.000    0.000    0.000    0.000    0.000    0.000 
#
# Total GULP energy -89078.180779 kJ/mol
# GULP energy per Si atom -5567.386299 kJ/mol
# Density = 2.432918 g / cm^3
# Si number density = 24.384685 Si / 1000 Ang^3
#
#
#
# Elastic Constant Matrix: (Units=GPa)
#
#
# Indices 1 2 3 4 5 6 
#
# 1 49.0486 10.0387 13.5504 0.0000 0.0000 0.8228
# 2 10.0387 49.0486 13.5504 0.0000 0.0000 -0.8228
# 3 13.5504 13.5504 168.2329 0.0000 0.0000 0.0000
# 4 0.0000 0.0000 0.0000 24.0732 0.0000 0.0000
# 5 0.0000 0.0000 0.0000 0.0000 24.0732 0.0000
# 6 0.8228 -0.8228 0.0000 0.0000 0.0000 29.1988
#
#
#
# Elastic Compliance Matrix: (Units=1/GPa)
#
#
# Indices 1 2 3 4 5 6 
#
# 1 0.021619 -0.004046 -0.001415 0.000000 0.000000 -0.000723
# 2 -0.004046 0.021619 -0.001415 0.000000 0.000000 0.000723
# 3 -0.001415 -0.001415 0.006172 0.000000 0.000000 0.000000
# 4 0.000000 0.000000 0.000000 0.041540 0.000000 0.000000
# 5 0.000000 0.000000 0.000000 0.000000 0.041540 0.000000
# 6 -0.000723 0.000723 0.000000 0.000000 0.000000 0.034289
#
#
# Mechanical properties :
#
#
# Convention : Reuss Voigt Hill
#
# Bulk Modulus (GPa) = 28.04500 37.84547 32.94523
# Shear Modulus (GPa) = 25.98502 30.74839 28.36670
#
# Velocity S-wave (km/s) = 3.26794 3.55487 3.41442
# Velocity P-wave (km/s) = 5.07595 5.69239 5.39299
#
# Compressibility (1/GPa) = 0.03565698
#
# Stress axis : x y z
#
# Youngs Moduli (GPa) = 46.25521 46.25521 162.01787
#
# Poissons Ratio (x) = 0.18714 0.22933
# Poissons Ratio (y) = 0.18714 0.22933
# Poissons Ratio (z) = 0.06547 0.06547
#
# Static dielectric constant tensor:
#      x y z
#    x 1.985410 0.000000 0.000000 
#    y 0.000000 1.985410 0.000000 
#    z 0.000000 0.000000 2.138150 
# 
# From -- ./inp_files/121.got.cif
#   From: 2010.05.17/outbox.cif.g08.bks.cpg/sg76_cif.got.tgz:121.got - 2010.06.03 18:43:17.
