data_PCOD9541170
_publ_section_title
;
Structure prediction by ZEFSAII (Michael W. Deem and Ramdas Pophale) SiO2 
 PCOD9541170
Probable space group: P 41
;
_chemical_formula_sum "Si O2"
_cell_formula_units_Z 32
_cell_length_a 8.396557
_cell_length_b 8.396557
_cell_length_c 19.427550
_cell_angle_alpha 90.000000
_cell_angle_beta 90.000000
_cell_angle_gamma 90.000000
_cell_volume 1369.684422
_symmetry_space_group_name_H-M "P 41"
_symmetry_group_IT_number 76
_symmetry_cell_setting 'tetragonal'
loop_
_space_group_symop_operation_xyz
x,y,z
-y,x,1/4+z
-x,-y,1/2+z
y,-x,3/4+z
loop_
_atom_site_type_symbol
_atom_site_label
_atom_site_fract_x
_atom_site_fract_y
_atom_site_fract_z
Si Si1 0.095659 0.247466 0.761640
Si Si2 0.880494 0.426154 0.074669
Si Si3 0.071278 0.260031 0.189090
Si Si4 0.952012 0.562115 0.818719
Si Si5 0.964462 0.102277 0.890690
Si Si6 0.399502 0.573209 0.301452
Si Si7 0.587165 0.415143 0.415194
Si Si8 0.094744 0.438561 0.949439
O O1 0.272568 0.204699 0.788690
O O2 0.977433 0.140412 0.809897
O O3 0.056307 0.428301 0.779353
O O4 0.077016 0.198010 0.682362
O O5 0.750233 0.563617 0.076096
O O6 0.946091 0.368277 0.147163
O O7 0.028118 0.467693 0.025137
O O8 0.046609 0.282755 0.270842
O O9 0.244168 0.329385 0.171036
O O10 0.038226 0.084418 0.161441
O O11 0.774460 0.490792 0.819779
O O12 0.016379 0.562856 0.895750
O O13 0.039301 0.263787 0.924805
O O14 0.524372 0.460644 0.340823
O O15 0.418425 0.556662 0.219683
O O16 0.718100 0.541577 0.440368
#
# Coordination Sequence:
#
# PCOD9541170 Si02
#       8
#     4   4   4   4   4   4   4   4
#     4   9  19  36  56  81 109 142 186 232 278 335
#     4  10  21  38  61  85 112 149 194 237 286 345
#     4  10  22  37  55  83 114 147 187 233 285 339
#     4  10  22  37  55  83 114 147 187 233 285 339
#     4   9  19  36  56  81 109 142 186 232 278 335
#     4  11  23  39  59  85 118 152 192 240 289 343
#     4  11  23  39  59  85 118 152 192 240 289 343
#     4  10  21  38  61  85 112 149 194 237 286 345
#
# _framework density 23.363046000000001
#
# number of rings (size 3 to 8) (size 9 to 14) (size 15 to 20)
#    0.000    2.000    0.000    3.750    0.000   11.000 
#    0.000    5.000    0.000    0.000    0.000    0.000 
#    0.000    0.000    0.000    0.000    0.000    0.000 
#
# Total GULP energy -178978.990790 kJ/mol
# GULP energy per Si atom -5593.093462 kJ/mol
# Density = 2.330987 g / cm^3
# Si number density = 23.363046 Si / 1000 Ang^3
#
#
#
# Elastic Constant Matrix: (Units=GPa)
#
#
# Indices 1 2 3 4 5 6 
#
# 1 35.8960 -1.7770 -3.8163 0.0000 0.0000 -4.2914
# 2 -1.7770 35.8960 -3.8163 0.0000 0.0000 4.2914
# 3 -3.8163 -3.8163 66.4842 0.0000 0.0000 0.0000
# 4 0.0000 0.0000 0.0000 18.1813 0.0000 0.0000
# 5 0.0000 0.0000 0.0000 0.0000 18.1813 0.0000
# 6 -4.2914 4.2914 0.0000 0.0000 0.0000 16.7368
#
#
#
# Elastic Compliance Matrix: (Units=1/GPa)
#
#
# Indices 1 2 3 4 5 6 
#
# 1 0.028941 0.000750 0.001704 0.000000 0.000000 0.007228
# 2 0.000750 0.028941 0.001704 0.000000 0.000000 -0.007228
# 3 0.001704 0.001704 0.015237 0.000000 0.000000 0.000000
# 4 0.000000 0.000000 0.000000 0.055001 0.000000 0.000000
# 5 0.000000 0.000000 0.000000 0.000000 0.055001 0.000000
# 6 0.007228 -0.007228 0.000000 0.000000 0.000000 0.063455
#
#
# Mechanical properties :
#
#
# Convention : Reuss Voigt Hill
#
# Bulk Modulus (GPa) = 12.27977 13.27300 12.77638
# Shear Modulus (GPa) = 18.83915 20.46562 19.65239
#
# Velocity S-wave (km/s) = 2.84274 2.96291 2.90345
# Velocity P-wave (km/s) = 4.00529 4.17117 4.08907
#
# Compressibility (1/GPa) = 0.08143478
#
# Stress axis : x y z
#
# Youngs Moduli (GPa) = 34.55345 34.55345 65.63048
#
# Poissons Ratio (x) = -0.02591 -0.11185
# Poissons Ratio (y) = -0.02591 -0.11185
# Poissons Ratio (z) = -0.05889 -0.05889
#
# Static dielectric constant tensor:
#      x y z
#    x 1.880740 0.000000 0.000000 
#    y 0.000000 1.880740 0.000000 
#    z 0.000000 0.000000 1.849010 
# 
# From -- ./inp_files/1438.got.cif
#   From: 2010.05.17/outbox.cif.g08.bks.cpg/sg76_cif.got.tgz:1438.got - 2010.06.03 18:43:17.
