data_PCOD9541904
_publ_section_title
;
Structure prediction by ZEFSAII (Michael W. Deem and Ramdas Pophale) SiO2 
 PCOD9541904
Probable space group: I 4
;
_chemical_formula_sum "Si O2"
_cell_formula_units_Z 40
_cell_length_a 8.050609
_cell_length_b 8.050609
_cell_length_c 28.940600
_cell_angle_alpha 90.000000
_cell_angle_beta 90.000000
_cell_angle_gamma 90.000000
_cell_volume 1875.707002
_symmetry_space_group_name_H-M "I 4"
_symmetry_group_IT_number 79
_symmetry_cell_setting 'tetragonal'
loop_
_space_group_symop_operation_xyz
x,y,z
-y,x,z
-x,-y,z
y,-x,z
1/2+x,1/2+y,1/2+z
1/2-y,1/2+x,1/2+z
1/2-x,1/2-y,1/2+z
1/2+y,1/2-x,1/2+z
loop_
_atom_site_type_symbol
_atom_site_label
_atom_site_fract_x
_atom_site_fract_y
_atom_site_fract_z
Si Si1 0.500000 0.000000 0.968971
Si Si2 0.551268 0.771773 0.380792
Si Si3 0.586698 0.768997 0.545691
Si Si4 0.076526 0.731511 0.296653
Si Si5 0.582576 0.766482 0.206830
Si Si6 0.500000 0.000000 0.126965
O O1 0.353866 0.975753 0.930802
O O2 0.589081 0.120771 0.007242
O O3 0.375835 0.683631 0.374687
O O4 0.626216 0.894860 0.342797
O O5 0.394796 0.701418 0.540805
O O6 0.592155 0.866505 0.594194
O O7 0.127411 0.627455 0.251782
O O8 0.891695 0.802950 0.295805
O O9 0.394460 0.699735 0.207586
O O10 0.597129 0.875068 0.160730
#
# Coordination Sequence:
#
# PCOD9541904 Si02
#       6
#     4   8   8   8   8   4
#     4  11  22  37  62  90 120 153 198 253 300 366
#     4  11  23  40  64  92 124 165 210 257 312 371
#     4  10  22  41  64  90 120 157 201 252 316 381
#     4  11  24  41  62  91 127 167 213 262 309 362
#     4  11  23  39  61  90 126 168 211 257 312 371
#     4  11  22  39  64  92 122 157 204 261 310 366
#
# _framework density 21.325292000000001
#
# number of rings (size 3 to 8) (size 9 to 14) (size 15 to 20)
#    0.000    1.200    0.000    6.000    0.000    5.600 
#    0.000    2.000    0.000   22.200    0.000    0.000 
#    0.000    0.000    0.000    0.000    0.000    0.000 
#
# Total GULP energy -111415.513933 kJ/mol
# GULP energy per Si atom -5570.775697 kJ/mol
# Density = 2.127675 g / cm^3
# Si number density = 21.325292 Si / 1000 Ang^3
#
#
#
# Elastic Constant Matrix: (Units=GPa)
#
#
# Indices 1 2 3 4 5 6 
#
# 1 99.2511 37.0831 44.4166 0.0000 0.0000 13.6591
# 2 37.0831 99.2511 44.4166 0.0000 0.0000 -13.6591
# 3 44.4166 44.4166 106.7981 0.0000 0.0000 0.0000
# 4 0.0000 0.0000 0.0000 19.7144 0.0000 0.0000
# 5 0.0000 0.0000 0.0000 0.0000 19.7144 0.0000
# 6 13.6591 -13.6591 0.0000 0.0000 0.0000 38.9542
#
#
#
# Elastic Compliance Matrix: (Units=1/GPa)
#
#
# Indices 1 2 3 4 5 6 
#
# 1 0.014538 -0.004477 -0.004184 0.000000 0.000000 -0.006668
# 2 -0.004477 0.014538 -0.004184 0.000000 0.000000 0.006668
# 3 -0.004184 -0.004184 0.012844 0.000000 0.000000 0.000000
# 4 0.000000 0.000000 0.000000 0.050724 0.000000 0.000000
# 5 0.000000 0.000000 0.000000 0.000000 0.050724 0.000000
# 6 -0.006668 0.006668 0.000000 0.000000 0.000000 0.030347
#
#
# Mechanical properties :
#
#
# Convention : Reuss Voigt Hill
#
# Bulk Modulus (GPa) = 61.61804 61.90368 61.76086
# Shear Modulus (GPa) = 24.41188 27.63553 26.02371
#
# Velocity S-wave (km/s) = 3.38707 3.60377 3.49710
# Velocity P-wave (km/s) = 6.65232 6.81231 6.73279
#
# Compressibility (1/GPa) = 0.01622901
#
# Stress axis : x y z
#
# Youngs Moduli (GPa) = 68.78322 68.78322 77.85692
#
# Poissons Ratio (x) = 0.30794 0.32579
# Poissons Ratio (y) = 0.30794 0.32579
# Poissons Ratio (z) = 0.28782 0.28782
#
# Static dielectric constant tensor:
#      x y z
#    x 1.773660 0.000000 0.000000 
#    y 0.000000 1.773660 0.000000 
#    z 0.000000 0.000000 1.745220 
# 
# From -- ./inp_files/1914.got.cif
#   From: 2010.05.17/outbox.cif.g08.bks.cpg/sg79_cif.got.tgz:1914.got - 2010.06.03 18:47:27.
