data_PCOD9541436
_publ_section_title
;
Structure prediction by ZEFSAII (Michael W. Deem and Ramdas Pophale) SiO2 
 PCOD9541436
Probable space group: P 41
;
_chemical_formula_sum "Si O2"
_cell_formula_units_Z 28
_cell_length_a 14.274488
_cell_length_b 14.274488
_cell_length_c 6.757072
_cell_angle_alpha 90.000000
_cell_angle_beta 90.000000
_cell_angle_gamma 90.000000
_cell_volume 1376.827800
_symmetry_space_group_name_H-M "P 41"
_symmetry_group_IT_number 76
_symmetry_cell_setting 'tetragonal'
loop_
_space_group_symop_operation_xyz
x,y,z
-y,x,1/4+z
-x,-y,1/2+z
y,-x,3/4+z
loop_
_atom_site_type_symbol
_atom_site_label
_atom_site_fract_x
_atom_site_fract_y
_atom_site_fract_z
Si Si1 0.664637 0.283100 0.820000
Si Si2 0.391525 0.903939 0.143379
Si Si3 0.040584 0.588704 0.221108
Si Si4 0.501662 0.368876 0.076000
Si Si5 0.782404 0.363176 0.482169
Si Si6 0.268936 0.998664 0.817839
Si Si7 0.199007 0.200839 0.910742
O O1 0.626954 0.205271 0.667629
O O2 0.579660 0.340240 0.915142
O O3 0.729997 0.348440 0.689353
O O4 0.730000 0.233518 0.985349
O O5 0.405274 0.940787 0.365907
O O6 0.485682 0.928206 0.028756
O O7 0.310783 0.956617 0.021186
O O8 0.035840 0.650948 0.417573
O O9 0.111622 0.619835 0.048621
O O10 0.422678 0.440299 0.995781
O O11 0.449125 0.272614 0.132771
O O12 0.780294 0.272615 0.339651
O O13 0.208071 0.091224 0.855708
O O14 0.221886 0.908107 0.717218
#
# Coordination Sequence:
#
# PCOD9541436 Si02
#       7
#     4   4   4   4   4   4   4
#     4  12  27  45  70 102 144 189 233 290 353 414
#     4  12  26  41  71 107 142 181 236 296 357 420
#     4  12  26  41  71 107 142 181 236 296 357 420
#     4  12  28  46  68 102 146 196 242 280 340 428
#     4  12  27  45  70 102 144 189 233 290 353 414
#     4  12  26  48  72 104 144 182 238 296 360 438
#     4  12  26  50  72 106 138 188 236 296 364 432
#
# _framework density 20.336601000000002
#
# number of rings (size 3 to 8) (size 9 to 14) (size 15 to 20)
#    0.000    0.000    8.571    0.857   10.000    0.000 
#    0.000    2.857    0.000    0.000    0.000    0.000 
#    0.000    0.000    0.000    0.000    0.000    0.000 
#
# Total GULP energy -156517.524250 kJ/mol
# GULP energy per Si atom -5589.911580 kJ/mol
# Density = 2.029031 g / cm^3
# Si number density = 20.336601 Si / 1000 Ang^3
#
#
#
# Elastic Constant Matrix: (Units=GPa)
#
#
# Indices 1 2 3 4 5 6 
#
# 1 57.3417 5.0234 0.6917 0.0000 0.0000 -1.1455
# 2 5.0234 57.3417 0.6917 0.0000 0.0000 1.1455
# 3 0.6917 0.6917 45.1474 0.0000 0.0000 0.0000
# 4 0.0000 0.0000 0.0000 32.4000 0.0000 0.0000
# 5 0.0000 0.0000 0.0000 0.0000 32.4000 0.0000
# 6 -1.1455 1.1455 0.0000 0.0000 0.0000 27.0780
#
#
#
# Elastic Compliance Matrix: (Units=1/GPa)
#
#
# Indices 1 2 3 4 5 6 
#
# 1 0.017595 -0.001555 -0.000246 0.000000 0.000000 0.000810
# 2 -0.001555 0.017595 -0.000246 0.000000 0.000000 -0.000810
# 3 -0.000246 -0.000246 0.022157 0.000000 0.000000 0.000000
# 4 0.000000 0.000000 0.000000 0.030864 0.000000 0.000000
# 5 0.000000 0.000000 0.000000 0.000000 0.030864 0.000000
# 6 0.000810 -0.000810 0.000000 0.000000 0.000000 0.036999
#
#
# Mechanical properties :
#
#
# Convention : Reuss Voigt Hill
#
# Bulk Modulus (GPa) = 18.77781 19.18271 18.98026
# Shear Modulus (GPa) = 28.10293 28.60386 28.35340
#
# Velocity S-wave (km/s) = 3.72141 3.75443 3.73796
# Velocity P-wave (km/s) = 5.26486 5.31483 5.28990
#
# Compressibility (1/GPa) = 0.05325435
#
# Stress axis : x y z
#
# Youngs Moduli (GPa) = 56.83544 56.83544 45.13209
#
# Poissons Ratio (x) = 0.08836 0.01109
# Poissons Ratio (y) = 0.08836 0.01109
# Poissons Ratio (z) = 0.01397 0.01397
#
# Static dielectric constant tensor:
#      x y z
#    x 1.745510 0.000000 0.000000 
#    y 0.000000 1.745510 0.000000 
#    z 0.000000 0.000000 1.749890 
# 
# From -- ./inp_files/252.got.cif
#   From: 2010.05.17/outbox.cif.g08.bks.cpg/sg76_cif.got.tgz:252.got - 2010.06.03 18:43:17.
