data_PCOD9541718
_publ_section_title
;
Structure prediction by ZEFSAII (Michael W. Deem and Ramdas Pophale) SiO2 
 PCOD9541718
Probable space group: P 43
;
_chemical_formula_sum "Si O2"
_cell_formula_units_Z 28
_cell_length_a 14.570946
_cell_length_b 14.570946
_cell_length_c 5.756243
_cell_angle_alpha 90.000000
_cell_angle_beta 90.000000
_cell_angle_gamma 90.000000
_cell_volume 1222.122154
_symmetry_space_group_name_H-M "P 43"
_symmetry_group_IT_number 78
_symmetry_cell_setting 'tetragonal'
loop_
_space_group_symop_operation_xyz
x,y,z
-y,x,3/4+z
-x,-y,1/2+z
y,-x,1/4+z
loop_
_atom_site_type_symbol
_atom_site_label
_atom_site_fract_x
_atom_site_fract_y
_atom_site_fract_z
Si Si1 0.766818 0.154151 0.112610
Si Si2 0.221223 0.420954 0.135877
Si Si3 0.137239 0.011961 0.724208
Si Si4 0.530337 0.955812 0.520581
Si Si5 0.120487 0.725874 0.302952
Si Si6 0.392923 0.415557 0.455659
Si Si7 0.701500 0.268222 0.505929
O O1 0.796413 0.050507 0.066515
O O2 0.740572 0.179234 0.374680
O O3 0.675460 0.179376 0.975393
O O4 0.846251 0.224945 0.037513
O O5 0.145887 0.493381 0.210118
O O6 0.319752 0.436799 0.252050
O O7 0.238795 0.395190 0.869885
O O8 0.066622 0.077520 0.597836
O O9 0.197932 0.068709 0.902432
O O10 0.638206 0.944145 0.569943
O O11 0.487805 0.990908 0.770907
O O12 0.217129 0.700647 0.175828
O O13 0.494100 0.397262 0.362867
O O14 0.350098 0.327079 0.584368
#
# Coordination Sequence:
#
# PCOD9541718 Si02
#       7
#     4   4   4   4   4   4   4
#     4  10  23  46  70 103 140 196 243 320 386 461
#     4  10  26  46  75 103 150 195 259 311 390 464
#     4  12  24  42  70 105 144 187 250 314 388 464
#     4  12  31  48  78 114 151 205 262 325 382 469
#     4  11  26  44  75 103 149 197 250 315 395 459
#     4  11  28  43  73 111 153 194 252 320 388 471
#     4  10  24  47  71 103 143 198 246 315 391 462
#
# _framework density 22.910965999999998
#
# number of rings (size 3 to 8) (size 9 to 14) (size 15 to 20)
#    0.000    1.143    1.429    1.714   18.000    1.143 
#    0.000    0.000    0.000    0.000    0.000    0.000 
#    0.000    0.000    0.000    0.000    0.000    0.000 
#
# Total GULP energy -156457.875519 kJ/mol
# GULP energy per Si atom -5587.781269 kJ/mol
# Density = 2.285882 g / cm^3
# Si number density = 22.910966 Si / 1000 Ang^3
#
#
#
# Elastic Constant Matrix: (Units=GPa)
#
#
# Indices 1 2 3 4 5 6 
#
# 1 77.9627 24.3091 11.2285 0.0000 0.0000 -5.3888
# 2 24.3091 77.9627 11.2285 0.0000 0.0000 5.3888
# 3 11.2285 11.2285 59.5012 0.0000 0.0000 0.0000
# 4 0.0000 0.0000 0.0000 33.1166 0.0000 0.0000
# 5 0.0000 0.0000 0.0000 0.0000 33.1166 0.0000
# 6 -5.3888 5.3888 0.0000 0.0000 0.0000 42.3441
#
#
#
# Elastic Compliance Matrix: (Units=1/GPa)
#
#
# Indices 1 2 3 4 5 6 
#
# 1 0.014664 -0.004463 -0.001925 0.000000 0.000000 0.002434
# 2 -0.004463 0.014664 -0.001925 0.000000 0.000000 -0.002434
# 3 -0.001925 -0.001925 0.017533 0.000000 0.000000 0.000000
# 4 0.000000 0.000000 0.000000 0.030196 0.000000 0.000000
# 5 0.000000 0.000000 0.000000 0.000000 0.030196 0.000000
# 6 0.002434 -0.002434 0.000000 0.000000 0.000000 0.024236
#
#
# Mechanical properties :
#
#
# Convention : Reuss Voigt Hill
#
# Bulk Modulus (GPa) = 33.07514 34.32876 33.70195
# Shear Modulus (GPa) = 31.60694 32.95949 32.28321
#
# Velocity S-wave (km/s) = 3.71827 3.79699 3.75783
# Velocity P-wave (km/s) = 5.73600 5.85140 5.79399
#
# Compressibility (1/GPa) = 0.03023419
#
# Stress axis : x y z
#
# Youngs Moduli (GPa) = 68.19513 68.19513 57.03562
#
# Poissons Ratio (x) = 0.30437 0.10979
# Poissons Ratio (y) = 0.30437 0.10979
# Poissons Ratio (z) = 0.13127 0.13127
#
# Static dielectric constant tensor:
#      x y z
#    x 1.858230 0.000000 0.000000 
#    y 0.000000 1.858230 0.000000 
#    z 0.000000 0.000000 1.951840 
# 
# From -- ./inp_files/233.got.cif
#   From: 2010.05.17/outbox.cif.g08.bks.cpg/sg78_cif.got.tgz:233.got - 2010.06.03 18:45:56.
