data_PCOD9541002
_publ_section_title
;
Structure prediction by ZEFSAII (Michael W. Deem and Ramdas Pophale) SiO2 
 PCOD9541002
Probable space group: P 4
;
_chemical_formula_sum "Si O2"
_cell_formula_units_Z 25
_cell_length_a 11.237301
_cell_length_b 11.237301
_cell_length_c 8.184316
_cell_angle_alpha 90.000000
_cell_angle_beta 90.000000
_cell_angle_gamma 90.000000
_cell_volume 1033.490329
_symmetry_space_group_name_H-M "P 4"
_symmetry_group_IT_number 75
_symmetry_cell_setting 'tetragonal'
loop_
_space_group_symop_operation_xyz
x,y,z
-y,x,z
-x,-y,z
y,-x,z
loop_
_atom_site_type_symbol
_atom_site_label
_atom_site_fract_x
_atom_site_fract_y
_atom_site_fract_z
Si Si1 0.025109 0.202243 0.502800
Si Si2 0.760720 0.877884 0.980228
Si Si3 0.893799 0.680167 0.170908
Si Si4 0.918480 0.399003 0.717854
Si Si5 0.308232 0.470893 0.052199
Si Si6 0.501317 0.692073 0.656755
Si Si7 0.000000 0.000000 0.875928
O O1 0.057033 0.282502 0.346723
O O2 0.901414 0.125688 0.505264
O O3 0.004686 0.299514 0.642781
O O4 0.804455 0.785712 0.114126
O O5 0.695026 0.990878 0.057358
O O6 0.672579 0.833736 0.841479
O O7 0.880931 0.918465 0.892394
O O8 0.816831 0.562258 0.136431
O O9 0.825976 0.468822 0.601263
O O10 0.000000 0.500000 0.794517
O O11 0.405044 0.369747 0.098786
O O12 0.300855 0.473225 0.853545
O O13 0.387350 0.615105 0.603541
#
# Coordination Sequence:
#
# PCOD9541002 Si02
#       7
#     4   4   4   4   4   4   1
#     4  11  27  48  70  96 146 204 246 301 386 463
#     4  10  21  35  67  99 133 172 238 314 364 432
#     4  11  20  41  67  99 137 183 239 304 372 449
#     4  12  27  42  67 108 146 186 246 312 369 456
#     4   9  18  35  64 100 135 177 231 299 375 440
#     4   9  19  39  68 100 142 183 229 301 372 432
#     4   8  20  32  56  94 128 164 216 286 384 432
#
# _framework density 24.189872999999999
#
# number of rings (size 3 to 8) (size 9 to 14) (size 15 to 20)
#    0.000    1.760    1.600    3.840    6.720    0.000 
#    2.880    0.800    0.000    0.000    0.000    0.000 
#    0.000    0.000    0.000    0.000    0.000    0.000 
#
# Total GULP energy -139250.580942 kJ/mol
# GULP energy per Si atom -5570.023238 kJ/mol
# Density = 2.413482 g / cm^3
# Si number density = 24.189873 Si / 1000 Ang^3
#
#
#
# Elastic Constant Matrix: (Units=GPa)
#
#
# Indices 1 2 3 4 5 6 
#
# 1 92.2342 28.3539 10.3188 0.0000 0.0000 1.1505
# 2 28.3539 92.2342 10.3188 0.0000 0.0000 -1.1505
# 3 10.3188 10.3188 53.9318 0.0000 0.0000 0.0000
# 4 0.0000 0.0000 0.0000 4.3285 0.0000 0.0000
# 5 0.0000 0.0000 0.0000 0.0000 4.3285 0.0000
# 6 1.1505 -1.1505 0.0000 0.0000 0.0000 61.8177
#
#
#
# Elastic Compliance Matrix: (Units=1/GPa)
#
#
# Indices 1 2 3 4 5 6 
#
# 1 0.012119 -0.003546 -0.001640 0.000000 0.000000 -0.000292
# 2 -0.003546 0.012119 -0.001640 0.000000 0.000000 0.000292
# 3 -0.001640 -0.001640 0.019170 0.000000 0.000000 0.000000
# 4 0.000000 0.000000 0.000000 0.231025 0.000000 0.000000
# 5 0.000000 0.000000 0.000000 0.000000 0.231025 0.000000
# 6 -0.000292 0.000292 0.000000 0.000000 0.000000 0.016187
#
#
# Mechanical properties :
#
#
# Convention : Reuss Voigt Hill
#
# Bulk Modulus (GPa) = 33.60775 37.37592 35.49183
# Shear Modulus (GPa) = 9.17069 26.72219 17.94644
#
# Velocity S-wave (km/s) = 1.94919 3.32729 2.72674
# Velocity P-wave (km/s) = 4.35767 5.49961 4.96160
#
# Compressibility (1/GPa) = 0.02975504
#
# Stress axis : x y z
#
# Youngs Moduli (GPa) = 82.51438 82.51438 52.16579
#
# Poissons Ratio (x) = 0.29257 0.08557
# Poissons Ratio (y) = 0.29257 0.08557
# Poissons Ratio (z) = 0.13535 0.13535
#
# Static dielectric constant tensor:
#      x y z
#    x 1.970710 0.000000 0.000000 
#    y 0.000000 1.970710 0.000000 
#    z 0.000000 0.000000 2.013220 
# 
# From -- ./inp_files/374.got.cif
#   From: 2010.05.17/outbox.cif.g08.bks.cpg/sg75_cif.got.tgz:374.got - 2010.06.03 18:42:43.
