data_PCOD9541853
_publ_section_title
;
Structure prediction by ZEFSAII (Michael W. Deem and Ramdas Pophale) SiO2 
 PCOD9541853
Probable space group: I 4
;
_chemical_formula_sum "Si O2"
_cell_formula_units_Z 42
_cell_length_a 13.799354
_cell_length_b 13.799354
_cell_length_c 8.728140
_cell_angle_alpha 90.000000
_cell_angle_beta 90.000000
_cell_angle_gamma 90.000000
_cell_volume 1662.031366
_symmetry_space_group_name_H-M "I 4"
_symmetry_group_IT_number 79
_symmetry_cell_setting 'tetragonal'
loop_
_space_group_symop_operation_xyz
x,y,z
-y,x,z
-x,-y,z
y,-x,z
1/2+x,1/2+y,1/2+z
1/2-y,1/2+x,1/2+z
1/2-x,1/2-y,1/2+z
1/2+y,1/2-x,1/2+z
loop_
_atom_site_type_symbol
_atom_site_label
_atom_site_fract_x
_atom_site_fract_y
_atom_site_fract_z
Si Si1 0.330318 0.895450 0.266230
Si Si2 0.698637 0.438015 0.378107
Si Si3 0.374912 0.602850 0.845411
Si Si4 0.000000 0.000000 0.011741
Si Si5 0.116262 0.799355 0.669884
Si Si6 0.612188 0.971796 0.025919
O O1 0.218807 0.866198 0.252099
O O2 0.385543 0.816439 0.162177
O O3 0.368343 0.883482 0.440115
O O4 0.357308 0.001614 0.200101
O O5 0.610769 0.454133 0.495841
O O6 0.690290 0.333056 0.302818
O O7 0.670773 0.512412 0.239922
O O8 0.803984 0.467384 0.437146
O O9 0.371559 0.486696 0.822176
O O10 0.360270 0.646416 0.014778
O O11 0.500000 0.000000 0.009796
#
# Coordination Sequence:
#
# PCOD9541853 Si02
#       6
#     8   8   8   2   8   8
#     4  11  28  45  74 107 147 207 259 320 384 465
#     4   9  19  38  70 106 138 187 250 301 381 466
#     4  11  25  45  71 105 150 190 249 325 390 460
#     4   8  16  36  68 100 142 176 240 316 376 450
#     4  10  20  40  71 105 139 192 240 312 379 458
#     4  11  26  48  69 103 149 201 260 317 374 453
#
# _framework density 25.270284
#
# number of rings (size 3 to 8) (size 9 to 14) (size 15 to 20)
#    0.000    1.714    1.905    0.571    5.333    3.048 
#    6.857    0.000    0.000    0.000    0.000    0.000 
#    0.000    0.000    0.000    0.000    0.000    0.000 
#
# Total GULP energy -116933.648817 kJ/mol
# GULP energy per Si atom -5568.268991 kJ/mol
# Density = 2.521277 g / cm^3
# Si number density = 25.270284 Si / 1000 Ang^3
#
#
#
# Elastic Constant Matrix: (Units=GPa)
#
#
# Indices 1 2 3 4 5 6 
#
# 1 56.4587 65.1190 24.5860 0.0000 0.0000 -25.7530
# 2 65.1190 56.4587 24.5860 0.0000 0.0000 25.7530
# 3 24.5860 24.5860 81.9409 0.0000 0.0000 0.0000
# 4 0.0000 0.0000 0.0000 32.0044 0.0000 0.0000
# 5 0.0000 0.0000 0.0000 0.0000 32.0044 0.0000
# 6 -25.7530 25.7530 0.0000 0.0000 0.0000 0.2233
#
#
#
# Elastic Compliance Matrix: (Units=1/GPa)
#
#
# Indices 1 2 3 4 5 6 
#
# 1 0.004597 0.004765 -0.002809 0.000000 0.000000 -0.019387
# 2 0.004765 0.004597 -0.002809 0.000000 0.000000 0.019387
# 3 -0.002809 -0.002809 0.013889 0.000000 0.000000 0.000000
# 4 0.000000 0.000000 0.000000 0.031246 0.000000 0.000000
# 5 0.000000 0.000000 0.000000 0.000000 0.031246 0.000000
# 6 -0.019387 0.019387 0.000000 0.000000 0.000000 0.006519
#
#
# Mechanical properties :
#
#
# Convention : Reuss Voigt Hill
#
# Bulk Modulus (GPa) = 46.77989 47.04892 46.91441
# Shear Modulus (GPa) = 49.54183 18.21758 33.87971
#
# Velocity S-wave (km/s) = 4.43253 2.68789 3.66552
# Velocity P-wave (km/s) = 6.68943 5.31899 6.04318
#
# Compressibility (1/GPa) = 0.02137671
#
# Stress axis : x y z
#
# Youngs Moduli (GPa) = 217.55368 217.55368 71.99711
#
# Poissons Ratio (x) = -1.03656 0.20222
# Poissons Ratio (y) = -1.03656 0.20222
# Poissons Ratio (z) = 0.61106 0.61106
#
# Static dielectric constant tensor:
#      x y z
#    x 1.946920 0.000000 0.000000 
#    y 0.000000 1.946920 0.000000 
#    z 0.000000 0.000000 2.112380 
# 
# From -- ./inp_files/568.got.cif
#   From: 2010.05.17/outbox.cif.g08.bks.cpg/sg79_cif.got.tgz:568.got - 2010.06.03 18:47:27.
