data_PCOD9541521
_publ_section_title
;
Structure prediction by ZEFSAII (Michael W. Deem and Ramdas Pophale) SiO2 
 PCOD9541521
Probable space group: P 42
;
_chemical_formula_sum "Si O2"
_cell_formula_units_Z 14
_cell_length_a 8.028953
_cell_length_b 8.028953
_cell_length_c 8.623790
_cell_angle_alpha 90.000000
_cell_angle_beta 90.000000
_cell_angle_gamma 90.000000
_cell_volume 555.924743
_symmetry_space_group_name_H-M "P 42"
_symmetry_group_IT_number 77
_symmetry_cell_setting 'tetragonal'
loop_
_space_group_symop_operation_xyz
x,y,z
-y,x,1/2+z
-x,-y,z
y,-x,1/2+z
loop_
_atom_site_type_symbol
_atom_site_label
_atom_site_fract_x
_atom_site_fract_y
_atom_site_fract_z
Si Si1 0.274175 0.613412 0.810480
Si Si2 0.192005 0.555415 0.145378
Si Si3 0.889709 0.840447 0.502543
Si Si4 0.500000 0.000000 0.084616
O O1 0.451429 0.690788 0.761146
O O2 0.169533 0.516057 0.683431
O O3 0.271632 0.518970 0.974541
O O4 0.155775 0.772460 0.851173
O O5 0.178331 0.755744 0.142287
O O6 0.000000 0.500000 0.148686
O O7 0.990798 0.669881 0.490565
O O8 0.000000 0.000000 0.519643
#
# Coordination Sequence:
#
# PCOD9541521 Si02
#       4
#     4   4   4   2
#     4  10  24  46  71 114 160 209 272 341 415 492
#     4  10  22  47  74 114 157 212 272 346 412 495
#     4  10  25  48  76 112 154 217 271 347 410 494
#     4  12  24  48  70 116 156 208 280 336 418 496
#
# _framework density 25.183264999999999
#
# number of rings (size 3 to 8) (size 9 to 14) (size 15 to 20)
#    1.714    0.000    1.429    1.714    2.000    4.571 
#   10.286    0.000    0.000    0.000    0.000    0.000 
#    0.000    0.000    0.000    0.000    0.000    0.000 
#
# Total GULP energy -78215.268532 kJ/mol
# GULP energy per Si atom -5586.804895 kJ/mol
# Density = 2.512595 g / cm^3
# Si number density = 25.183265 Si / 1000 Ang^3
#
#
#
# Elastic Constant Matrix: (Units=GPa)
#
#
# Indices 1 2 3 4 5 6 
#
# 1 146.3215 69.0309 25.2330 0.0000 0.0000 12.5876
# 2 69.0309 146.3215 25.2330 0.0000 0.0000 -12.5876
# 3 25.2330 25.2330 70.1030 0.0000 0.0000 0.0000
# 4 0.0000 0.0000 0.0000 33.1444 0.0000 0.0000
# 5 0.0000 0.0000 0.0000 0.0000 33.1444 0.0000
# 6 12.5876 -12.5876 0.0000 0.0000 0.0000 43.8191
#
#
#
# Elastic Compliance Matrix: (Units=1/GPa)
#
#
# Indices 1 2 3 4 5 6 
#
# 1 0.009673 -0.004601 -0.001825 0.000000 0.000000 -0.004100
# 2 -0.004601 0.009673 -0.001825 0.000000 0.000000 0.004100
# 3 -0.001825 -0.001825 0.015579 0.000000 0.000000 0.000000
# 4 0.000000 0.000000 0.000000 0.030171 0.000000 0.000000
# 5 0.000000 0.000000 0.000000 0.000000 0.030171 0.000000
# 6 -0.004100 0.004100 0.000000 0.000000 0.000000 0.025177
#
#
# Mechanical properties :
#
#
# Convention : Reuss Voigt Hill
#
# Bulk Modulus (GPa) = 54.28908 66.85997 60.57452
# Shear Modulus (GPa) = 34.94388 38.23820 36.59104
#
# Velocity S-wave (km/s) = 3.72907 3.90089 3.81595
# Velocity P-wave (km/s) = 6.33606 6.84808 6.59704
#
# Compressibility (1/GPa) = 0.01841991
#
# Stress axis : x y z
#
# Youngs Moduli (GPa) = 103.38556 103.38556 64.18983
#
# Poissons Ratio (x) = 0.47570 0.11717
# Poissons Ratio (y) = 0.47570 0.11717
# Poissons Ratio (z) = 0.18872 0.18872
#
# Static dielectric constant tensor:
#      x y z
#    x 1.976720 0.000000 0.000000 
#    y 0.000000 1.976720 0.000000 
#    z 0.000000 0.000000 2.028660 
# 
# From -- ./inp_files/236.got.cif
#   From: 2010.05.17/outbox.cif.g08.bks.cpg/sg77_cif.got.tgz:236.got - 2010.06.03 18:44:51.
