data_PCOD9541151
_publ_section_title
;
Structure prediction by ZEFSAII (Michael W. Deem and Ramdas Pophale) SiO2 
 PCOD9541151
Probable space group: P 41
;
_chemical_formula_sum "Si O2"
_cell_formula_units_Z 32
_cell_length_a 12.095601
_cell_length_b 12.095601
_cell_length_c 11.328037
_cell_angle_alpha 90.000000
_cell_angle_beta 90.000000
_cell_angle_gamma 90.000000
_cell_volume 1657.332181
_symmetry_space_group_name_H-M "P 41"
_symmetry_group_IT_number 76
_symmetry_cell_setting 'tetragonal'
loop_
_space_group_symop_operation_xyz
x,y,z
-y,x,1/4+z
-x,-y,1/2+z
y,-x,3/4+z
loop_
_atom_site_type_symbol
_atom_site_label
_atom_site_fract_x
_atom_site_fract_y
_atom_site_fract_z
Si Si1 0.297829 0.614776 0.568100
Si Si2 0.702172 0.614775 0.929462
Si Si3 0.934816 0.499999 0.498781
Si Si4 0.098344 0.317780 0.587426
Si Si5 0.682219 0.901656 0.160136
Si Si6 0.937403 0.937404 0.123782
Si Si7 0.476733 0.209079 0.470701
Si Si8 0.476734 0.790921 0.526860
O O1 0.318129 0.500000 0.498781
O O2 0.207248 0.683259 0.493195
O O3 0.407967 0.685846 0.572746
O O4 0.247699 0.574512 0.691110
O O5 0.752301 0.574511 0.806452
O O6 0.592033 0.685845 0.924815
O O7 0.792752 0.683258 0.004367
O O8 0.860880 0.519456 0.612582
O O9 0.860880 0.480544 0.384979
O O10 0.010691 0.394412 0.521791
O O11 0.010692 0.605586 0.475771
O O12 0.051644 0.195968 0.609325
O O13 0.135735 0.388735 0.701721
O O14 0.804031 0.948358 0.138238
O O15 0.611265 0.864264 0.045841
O O16 0.999999 0.968638 0.248782
#
# Coordination Sequence:
#
# PCOD9541151 Si02
#       8
#     4   4   4   4   4   4   4   4
#     4  10  20  40  66  92 126 171 218 255 330 408
#     4  10  20  40  66  92 126 171 218 255 330 408
#     4  12  24  38  66  98 130 166 222 280 330 396
#     4  11  21  42  70  92 126 172 220 278 328 398
#     4  11  21  42  70  92 126 172 220 278 328 398
#     4  12  26  48  70  98 136 188 234 280 346 406
#     4  11  22  41  62  99 127 173 212 267 339 402
#     4  11  22  41  62  99 127 173 212 267 339 402
#
# _framework density 19.308139000000001
#
# number of rings (size 3 to 8) (size 9 to 14) (size 15 to 20)
#    0.000    1.000    6.250    4.500    0.000    1.000 
#   11.250    0.000    0.000    0.000    0.000    0.000 
#    0.000    0.000    0.000    0.000    0.000    0.000 
#
# Total GULP energy -178758.982708 kJ/mol
# GULP energy per Si atom -5586.218210 kJ/mol
# Density = 1.926419 g / cm^3
# Si number density = 19.308139 Si / 1000 Ang^3
#
#
#
# Elastic Constant Matrix: (Units=GPa)
#
#
# Indices 1 2 3 4 5 6 
#
# 1 63.2748 24.5796 52.5035 0.0000 0.0000 0.0001
# 2 24.5796 63.2748 52.5035 0.0000 0.0000 -0.0001
# 3 52.5035 52.5035 132.8727 0.0000 0.0000 0.0000
# 4 0.0000 0.0000 0.0000 16.5562 0.0000 0.0000
# 5 0.0000 0.0000 0.0000 0.0000 16.5562 0.0000
# 6 0.0001 -0.0001 0.0000 0.0000 0.0000 30.9293
#
#
#
# Elastic Compliance Matrix: (Units=1/GPa)
#
#
# Indices 1 2 3 4 5 6 
#
# 1 0.023706 -0.002137 -0.008523 0.000000 0.000000 0.000000
# 2 -0.002137 0.023706 -0.008523 0.000000 0.000000 0.000000
# 3 -0.008523 -0.008523 0.014262 0.000000 0.000000 0.000000
# 4 0.000000 0.000000 0.000000 0.060400 0.000000 0.000000
# 5 0.000000 0.000000 0.000000 0.000000 0.060400 0.000000
# 6 0.000000 0.000000 0.000000 0.000000 0.000000 0.032332
#
#
# Mechanical properties :
#
#
# Convention : Reuss Voigt Hill
#
# Bulk Modulus (GPa) = 42.90271 57.62171 50.26221
# Shear Modulus (GPa) = 19.16138 21.46406 20.31272
#
# Velocity S-wave (km/s) = 3.15365 3.33777 3.24702
# Velocity P-wave (km/s) = 5.96062 6.69046 6.33606
#
# Compressibility (1/GPa) = 0.02330855
#
# Stress axis : x y z
#
# Youngs Moduli (GPa) = 42.18299 42.18299 70.11853
#
# Poissons Ratio (x) = 0.09014 0.59762
# Poissons Ratio (y) = 0.09014 0.59762
# Poissons Ratio (z) = 0.35952 0.35952
#
# Static dielectric constant tensor:
#      x y z
#    x 1.677100 0.000000 0.000000 
#    y 0.000000 1.677100 0.000000 
#    z 0.000000 0.000000 1.718250 
# 
# From -- ./inp_files/984.got.cif
#   From: 2010.05.17/outbox.cif.g08.bks.cpg/sg76_cif.got.tgz:984.got - 2010.06.03 18:43:17.
