data_PCOD9541797
_publ_section_title
;
Structure prediction by ZEFSAII (Michael W. Deem and Ramdas Pophale) SiO2 
 PCOD9541797
Probable space group: P 43
;
_chemical_formula_sum "Si O2"
_cell_formula_units_Z 28
_cell_length_a 9.000000
_cell_length_b 9.000000
_cell_length_c 15.000000
_cell_angle_alpha 90.000000
_cell_angle_beta 90.000000
_cell_angle_gamma 90.000000
_cell_volume 1215.000000
_symmetry_space_group_name_H-M "P 43"
_symmetry_group_IT_number 78
_symmetry_cell_setting 'tetragonal'
loop_
_space_group_symop_operation_xyz
x,y,z
-y,x,3/4+z
-x,-y,1/2+z
y,-x,1/4+z
loop_
_atom_site_type_symbol
_atom_site_label
_atom_site_fract_x
_atom_site_fract_y
_atom_site_fract_z
Si Si1 0.209802 0.640739 0.960570
Si Si2 0.734285 0.486341 0.274701
Si Si3 0.863666 0.183079 0.701009
Si Si4 0.909863 0.524693 0.743969
Si Si5 0.746560 0.745307 0.882692
Si Si6 0.964280 0.606001 0.547220
Si Si7 0.985956 0.132917 0.502861
O O1 0.281905 0.576508 0.872535
O O2 0.136981 0.797120 0.935987
O O3 0.349278 0.667518 0.023896
O O4 0.069403 0.554321 0.003427
O O5 0.673508 0.379538 0.196441
O O6 0.912381 0.485161 0.258521
O O7 0.865062 0.350738 0.739167
O O8 0.702874 0.117960 0.722052
O O9 0.926690 0.184250 0.600324
O O10 0.961124 0.057821 0.752463
O O11 0.831770 0.625928 0.819891
O O12 0.888294 0.597610 0.645516
O O13 0.859476 0.825623 0.954476
O O14 0.665772 0.870654 0.820362
#
# Coordination Sequence:
#
# PCOD9541797 Si02
#       7
#     4   4   4   4   4   4   4
#     4  12  24  49  74 105 150 197 252 307 370 463
#     4  11  26  47  77 109 147 200 252 306 383 453
#     4  12  26  44  73 110 143 198 249 305 379 444
#     4  11  25  48  70 111 152 192 253 310 380 454
#     4  11  27  48  74 112 154 195 249 321 380 449
#     4  11  28  45  71 109 152 193 249 313 380 443
#     4  12  24  45  77 106 144 197 252 308 366 454
#
# _framework density 23.045266999999999
#
# number of rings (size 3 to 8) (size 9 to 14) (size 15 to 20)
#    0.000    0.571    4.286    2.571    8.000    1.143 
#    2.571    0.000    0.000    0.000    0.000    0.000 
#    0.000    0.000    0.000    0.000    0.000    0.000 
#
# Total GULP energy -156272.421330 kJ/mol
# GULP energy per Si atom -5581.157905 kJ/mol
# Density = 2.299282 g / cm^3
# Si number density = 23.045267 Si / 1000 Ang^3
#
#
#
# Elastic Constant Matrix: (Units=GPa)
#
#
# Indices 1 2 3 4 5 6 
#
# 1 65.0861 -2.9854 25.3318 0.0000 0.0000 6.3686
# 2 -2.9854 65.0861 25.3318 0.0000 0.0000 -6.3686
# 3 25.3318 25.3318 90.7383 0.0000 0.0000 0.0000
# 4 0.0000 0.0000 0.0000 37.3312 0.0000 0.0000
# 5 0.0000 0.0000 0.0000 0.0000 37.3312 0.0000
# 6 6.3686 -6.3686 0.0000 0.0000 0.0000 16.4926
#
#
#
# Elastic Compliance Matrix: (Units=1/GPa)
#
#
# Indices 1 2 3 4 5 6 
#
# 1 0.018343 0.002509 -0.005821 0.000000 0.000000 -0.006114
# 2 0.002509 0.018343 -0.005821 0.000000 0.000000 0.006114
# 3 -0.005821 -0.005821 0.014271 0.000000 0.000000 0.000000
# 4 0.000000 0.000000 0.000000 0.026787 0.000000 0.000000
# 5 0.000000 0.000000 0.000000 0.000000 0.026787 0.000000
# 6 -0.006114 0.006114 0.000000 0.000000 0.000000 0.065356
#
#
# Mechanical properties :
#
#
# Convention : Reuss Voigt Hill
#
# Bulk Modulus (GPa) = 30.59057 35.14077 32.86567
# Shear Modulus (GPa) = 25.11902 29.77981 27.44941
#
# Velocity S-wave (km/s) = 3.30508 3.59866 3.45499
# Velocity P-wave (km/s) = 5.27898 5.70516 5.49620
#
# Compressibility (1/GPa) = 0.03268981
#
# Stress axis : x y z
#
# Youngs Moduli (GPa) = 54.51571 54.51571 70.07189
#
# Poissons Ratio (x) = -0.13677 0.40791
# Poissons Ratio (y) = -0.13677 0.40791
# Poissons Ratio (z) = 0.31736 0.31736
#
# Static dielectric constant tensor:
#      x y z
#    x 1.863260 0.000000 0.000000 
#    y 0.000000 1.863260 0.000000 
#    z 0.000000 0.000000 1.903220 
# 
# From -- ./inp_files/1122.got.cif
#   From: 2010.05.17/outbox.ucp.g08.bks.cvg/sg78_cif.got.tgz:1122.got - 2010.06.11 16:42:09.
