data_PCOD9541591
_publ_section_title
;
Structure prediction by ZEFSAII (Michael W. Deem and Ramdas Pophale) SiO2 
 PCOD9541591
Probable space group: P 43
;
_chemical_formula_sum "Si O2"
_cell_formula_units_Z 32
_cell_length_a 12.097217
_cell_length_b 12.097217
_cell_length_c 9.324001
_cell_angle_alpha 90.000000
_cell_angle_beta 90.000000
_cell_angle_gamma 90.000000
_cell_volume 1364.499100
_symmetry_space_group_name_H-M "P 43"
_symmetry_group_IT_number 78
_symmetry_cell_setting 'tetragonal'
loop_
_space_group_symop_operation_xyz
x,y,z
-y,x,3/4+z
-x,-y,1/2+z
y,-x,1/4+z
loop_
_atom_site_type_symbol
_atom_site_label
_atom_site_fract_x
_atom_site_fract_y
_atom_site_fract_z
Si Si1 0.141754 0.382655 0.684560
Si Si2 0.905725 0.468698 0.637248
Si Si3 0.266301 0.167481 0.705645
Si Si4 0.244147 0.601642 0.672483
Si Si5 0.371714 0.790579 0.609093
Si Si6 0.005856 0.889444 0.359055
Si Si7 0.344903 0.032766 0.261528
Si Si8 0.037071 0.210397 0.283814
O O1 0.176659 0.261926 0.739946
O O2 0.233115 0.475236 0.721948
O O3 0.149666 0.381145 0.511683
O O4 0.018781 0.427228 0.713119
O O5 0.849055 0.360344 0.573265
O O6 0.830516 0.536469 0.748012
O O7 0.946884 0.552065 0.510911
O O8 0.327381 0.209968 0.561810
O O9 0.212249 0.050179 0.662227
O O10 0.357879 0.659369 0.625051
O O11 0.158018 0.614203 0.538743
O O12 0.251230 0.839696 0.565776
O O13 0.050153 0.902126 0.193507
O O14 0.017801 0.761107 0.409613
O O15 0.098312 0.957083 0.449122
O O16 0.299292 0.005035 0.420364
#
# Coordination Sequence:
#
# PCOD9541591 Si02
#       8
#     4   4   4   4   4   4   4   4
#     4  10  21  35  62  91 124 165 212 254 319 396
#     4  10  20  34  61  94 122 159 213 264 319 376
#     4  10  20  36  61  89 121 162 208 266 316 373
#     4   9  18  35  59  87 112 159 212 254 299 381
#     4  10  18  35  63  88 115 161 213 264 311 380
#     4  10  19  31  53  80 122 164 205 256 319 394
#     4   8  16  30  52  81 112 156 207 249 300 380
#     4   9  16  30  55  84 112 156 210 247 311 378
#
# _framework density 23.451829
#
# number of rings (size 3 to 8) (size 9 to 14) (size 15 to 20)
#    0.000    2.500    2.500    0.750    1.750    0.000 
#    0.000    2.500   16.500    0.000    0.000    0.000 
#    0.000    0.000    0.000    0.000    0.000    0.000 
#
# Total GULP energy -178469.768981 kJ/mol
# GULP energy per Si atom -5577.180281 kJ/mol
# Density = 2.339845 g / cm^3
# Si number density = 23.451829 Si / 1000 Ang^3
#
#
#
# Elastic Constant Matrix: (Units=GPa)
#
#
# Indices 1 2 3 4 5 6 
#
# 1 96.6976 32.5605 25.1268 0.0000 0.0000 0.7370
# 2 32.5605 96.6976 25.1268 0.0000 0.0000 -0.7370
# 3 25.1268 25.1268 95.3733 0.0000 0.0000 0.0000
# 4 0.0000 0.0000 0.0000 25.8078 0.0000 0.0000
# 5 0.0000 0.0000 0.0000 0.0000 25.8078 0.0000
# 6 0.7370 -0.7370 0.0000 0.0000 0.0000 32.8822
#
#
#
# Elastic Compliance Matrix: (Units=1/GPa)
#
#
# Indices 1 2 3 4 5 6 
#
# 1 0.012109 -0.003490 -0.002271 0.000000 0.000000 -0.000350
# 2 -0.003490 0.012109 -0.002271 0.000000 0.000000 0.000350
# 3 -0.002271 -0.002271 0.011682 0.000000 0.000000 0.000000
# 4 0.000000 0.000000 0.000000 0.038748 0.000000 0.000000
# 5 0.000000 0.000000 0.000000 0.000000 0.038748 0.000000
# 6 -0.000350 0.000350 0.000000 0.000000 0.000000 0.030427
#
#
# Mechanical properties :
#
#
# Convention : Reuss Voigt Hill
#
# Bulk Modulus (GPa) = 50.41085 50.48851 50.44968
# Shear Modulus (GPa) = 30.03008 30.62986 30.32997
#
# Velocity S-wave (km/s) = 3.58229 3.61789 3.60013
# Velocity P-wave (km/s) = 6.21712 6.24720 6.23218
#
# Compressibility (1/GPa) = 0.01983700
#
# Stress axis : x y z
#
# Youngs Moduli (GPa) = 82.57996 82.57996 85.60438
#
# Poissons Ratio (x) = 0.28822 0.19439
# Poissons Ratio (y) = 0.28822 0.19439
# Poissons Ratio (z) = 0.18752 0.18752
#
# Static dielectric constant tensor:
#      x y z
#    x 1.960220 0.000000 0.000000 
#    y 0.000000 1.960220 0.000000 
#    z 0.000000 0.000000 1.947730 
# 
# From -- ./inp_files/996.got.cif
#   From: 2010.05.17/outbox.cif.g08.bks.cpg/sg78_cif.got.tgz:996.got - 2010.06.03 18:45:56.
