data_PCOD9541247
_publ_section_title
;
Structure prediction by ZEFSAII (Michael W. Deem and Ramdas Pophale) SiO2 
 PCOD9541247
Probable space group: P 41
;
_chemical_formula_sum "Si O2"
_cell_formula_units_Z 16
_cell_length_a 5.051015
_cell_length_b 5.051015
_cell_length_c 23.934682
_cell_angle_alpha 90.000000
_cell_angle_beta 90.000000
_cell_angle_gamma 90.000000
_cell_volume 610.639619
_symmetry_space_group_name_H-M "P 41"
_symmetry_group_IT_number 76
_symmetry_cell_setting 'tetragonal'
loop_
_space_group_symop_operation_xyz
x,y,z
-y,x,1/4+z
-x,-y,1/2+z
y,-x,3/4+z
loop_
_atom_site_type_symbol
_atom_site_label
_atom_site_fract_x
_atom_site_fract_y
_atom_site_fract_z
Si Si1 0.748920 0.846548 0.194500
Si Si2 0.670306 0.756470 0.988623
Si Si3 0.168868 0.246938 0.139577
Si Si4 0.568960 0.675173 0.345212
O O1 0.451163 0.896783 0.216267
O O2 0.696319 0.614220 0.150484
O O3 0.939202 0.756792 0.245917
O O4 0.957076 0.037438 0.163733
O O5 0.450993 0.784205 0.940429
O O6 0.576867 0.612205 0.044396
O O7 0.456899 0.208564 0.111462
O O8 0.984547 0.362040 0.089893
#
# Coordination Sequence:
#
# PCOD9541247 Si02
#       4
#     4   4   4   4
#     4  10  22  43  65  95 138 178 230 293 348 419
#     4  10  23  41  65  99 134 180 237 281 356 420
#     4  10  22  43  66  94 140 174 233 292 350 419
#     4  10  23  41  64 102 130 184 232 288 348 428
#
# _framework density 26.202034000000001
#
# number of rings (size 3 to 8) (size 9 to 14) (size 15 to 20)
#    0.000    2.000    0.000    1.500    7.000    0.000 
#    0.000    0.000    0.000    0.000    0.000    0.000 
#    0.000    0.000    0.000    0.000    0.000    0.000 
#
# Total GULP energy -89113.721882 kJ/mol
# GULP energy per Si atom -5569.607618 kJ/mol
# Density = 2.614240 g / cm^3
# Si number density = 26.202034 Si / 1000 Ang^3
#
#
#
# Elastic Constant Matrix: (Units=GPa)
#
#
# Indices 1 2 3 4 5 6 
#
# 1 61.8807 121.9937 11.0033 0.0000 0.0000 -6.9483
# 2 121.9937 61.8807 11.0033 0.0000 0.0000 6.9483
# 3 11.0033 11.0033 62.7771 0.0000 0.0000 0.0000
# 4 0.0000 0.0000 0.0000 25.5232 0.0000 0.0000
# 5 0.0000 0.0000 0.0000 0.0000 25.5232 0.0000
# 6 -6.9483 6.9483 0.0000 0.0000 0.0000 38.5198
#
#
#
# Elastic Compliance Matrix: (Units=1/GPa)
#
#
# Indices 1 2 3 4 5 6 
#
# 1 -0.005207 0.010762 -0.000974 0.000000 0.000000 -0.002881
# 2 0.010762 -0.005207 -0.000974 0.000000 0.000000 0.002881
# 3 -0.000974 -0.000974 0.016271 0.000000 0.000000 0.000000
# 4 0.000000 0.000000 0.000000 0.039180 0.000000 0.000000
# 5 0.000000 0.000000 0.000000 0.000000 0.039180 0.000000
# 6 -0.002881 0.002881 0.000000 0.000000 0.000000 0.024921
#
#
# Mechanical properties :
#
#
# Convention : Reuss Voigt Hill
#
# Bulk Modulus (GPa) = 42.57840 52.72661 47.65250
# Shear Modulus (GPa) = 50.33384 20.74911 35.54148
#
# Velocity S-wave (km/s) = 4.38766 2.81711 3.68698
# Velocity P-wave (km/s) = 6.47720 5.54511 6.02919
#
# Compressibility (1/GPa) = 0.02348609
#
# Stress axis : x y z
#
# Youngs Moduli (GPa) = -192.04203 -192.04203 61.46016
#
# Poissons Ratio (x) = 2.06680 0.05984
# Poissons Ratio (y) = 2.06680 0.05984
# Poissons Ratio (z) = -0.18698 -0.18698
#
# Static dielectric constant tensor:
#      x y z
#    x 2.148160 0.000000 0.000000 
#    y 0.000000 2.148160 0.000000 
#    z 0.000000 0.000000 2.187910 
# 
# From -- ./inp_files/1493.got.cif
#   From: 2010.05.17/outbox.cif.g08.bks.cpg/sg76_cif.got.tgz:1493.got - 2010.06.03 18:43:17.
