data_PCOD9541429
_publ_section_title
;
Structure prediction by ZEFSAII (Michael W. Deem and Ramdas Pophale) SiO2 
 PCOD9541429
Probable space group: P 41
;
_chemical_formula_sum "Si O2"
_cell_formula_units_Z 24
_cell_length_a 11.657595
_cell_length_b 11.657595
_cell_length_c 7.617906
_cell_angle_alpha 90.000000
_cell_angle_beta 90.000000
_cell_angle_gamma 90.000000
_cell_volume 1035.269778
_symmetry_space_group_name_H-M "P 41"
_symmetry_group_IT_number 76
_symmetry_cell_setting 'tetragonal'
loop_
_space_group_symop_operation_xyz
x,y,z
-y,x,1/4+z
-x,-y,1/2+z
y,-x,3/4+z
loop_
_atom_site_type_symbol
_atom_site_label
_atom_site_fract_x
_atom_site_fract_y
_atom_site_fract_z
Si Si1 0.361963 0.448400 0.992970
Si Si2 0.286080 0.856560 0.701798
Si Si3 0.730263 0.898343 0.640018
Si Si4 0.689350 0.119063 0.813160
Si Si5 0.363759 0.239040 0.470470
Si Si6 0.081851 0.576960 0.554393
O O1 0.389732 0.524732 0.822650
O O2 0.261526 0.358159 0.955773
O O3 0.314008 0.532853 0.144858
O O4 0.176485 0.837172 0.824486
O O5 0.251047 0.882530 0.502421
O O6 0.369327 0.958251 0.761090
O O7 0.676372 0.846210 0.816284
O O8 0.637548 0.884079 0.485112
O O9 0.750150 0.031734 0.680751
O O10 0.686739 0.250195 0.753138
O O11 0.558580 0.077821 0.829515
O O12 0.395685 0.168438 0.644797
#
# Coordination Sequence:
#
# PCOD9541429 Si02
#       6
#     4   4   4   4   4   4
#     4  12  28  44  68 111 164 206 252 322 392 465
#     4  12  27  48  76 112 153 200 261 322 382 465
#     4  12  26  48  74 110 149 191 256 318 375 455
#     4  12  26  46  81 109 150 205 256 312 389 462
#     4  12  25  48  73 112 151 201 259 314 384 458
#     4  12  26  46  80 110 149 201 260 318 382 465
#
# _framework density 23.182364
#
# number of rings (size 3 to 8) (size 9 to 14) (size 15 to 20)
#    0.000    0.000    5.000    5.000    4.667    0.000 
#    0.000    0.000   14.667    0.000    0.000    0.000 
#    0.000    0.000    0.000    0.000    0.000    0.000 
#
# Total GULP energy -134584.351281 kJ/mol
# GULP energy per Si atom -5607.681303 kJ/mol
# Density = 2.312960 g / cm^3
# Si number density = 23.182364 Si / 1000 Ang^3
#
#
#
# Elastic Constant Matrix: (Units=GPa)
#
#
# Indices 1 2 3 4 5 6 
#
# 1 80.1960 37.6362 19.2481 0.0000 0.0000 -3.8301
# 2 37.6362 80.1960 19.2481 0.0000 0.0000 3.8301
# 3 19.2481 19.2481 116.5934 0.0000 0.0000 0.0000
# 4 0.0000 0.0000 0.0000 19.8632 0.0000 0.0000
# 5 0.0000 0.0000 0.0000 0.0000 19.8632 0.0000
# 6 -3.8301 3.8301 0.0000 0.0000 0.0000 39.0167
#
#
#
# Elastic Compliance Matrix: (Units=1/GPa)
#
#
# Indices 1 2 3 4 5 6 
#
# 1 0.016445 -0.007474 -0.001481 0.000000 0.000000 0.002348
# 2 -0.007474 0.016445 -0.001481 0.000000 0.000000 -0.002348
# 3 -0.001481 -0.001481 0.009066 0.000000 0.000000 0.000000
# 4 0.000000 0.000000 0.000000 0.050344 0.000000 0.000000
# 5 0.000000 0.000000 0.000000 0.000000 0.050344 0.000000
# 6 0.002348 -0.002348 0.000000 0.000000 0.000000 0.026091
#
#
# Mechanical properties :
#
#
# Convention : Reuss Voigt Hill
#
# Bulk Modulus (GPa) = 47.43146 47.69448 47.56297
# Shear Modulus (GPa) = 25.42789 29.13884 27.28337
#
# Velocity S-wave (km/s) = 3.31549 3.54918 3.43432
# Velocity P-wave (km/s) = 5.92968 6.11669 6.02391
#
# Compressibility (1/GPa) = 0.02108305
#
# Stress axis : x y z
#
# Youngs Moduli (GPa) = 60.80988 60.80988 110.30499
#
# Poissons Ratio (x) = 0.45451 0.16335
# Poissons Ratio (y) = 0.45451 0.16335
# Poissons Ratio (z) = 0.09005 0.09005
#
# Static dielectric constant tensor:
#      x y z
#    x 1.953660 0.000000 0.000000 
#    y 0.000000 1.953660 0.000000 
#    z 0.000000 0.000000 1.877330 
# 
# From -- ./inp_files/568.got.cif
#   From: 2010.05.17/outbox.cif.g08.bks.cpg/sg76_cif.got.tgz:568.got - 2010.06.03 18:43:17.
