data_PCOD9541598
_publ_section_title
;
Structure prediction by ZEFSAII (Michael W. Deem and Ramdas Pophale) SiO2 
 PCOD9541598
Probable space group: P 43
;
_chemical_formula_sum "Si O2"
_cell_formula_units_Z 32
_cell_length_a 15.475319
_cell_length_b 15.475319
_cell_length_c 7.817289
_cell_angle_alpha 90.000000
_cell_angle_beta 90.000000
_cell_angle_gamma 90.000000
_cell_volume 1872.127350
_symmetry_space_group_name_H-M "P 43"
_symmetry_group_IT_number 78
_symmetry_cell_setting 'tetragonal'
loop_
_space_group_symop_operation_xyz
x,y,z
-y,x,3/4+z
-x,-y,1/2+z
y,-x,1/4+z
loop_
_atom_site_type_symbol
_atom_site_label
_atom_site_fract_x
_atom_site_fract_y
_atom_site_fract_z
Si Si1 0.427440 0.721411 0.757670
Si Si2 0.734685 0.737662 0.778062
Si Si3 0.255902 0.586941 0.248894
Si Si4 0.464695 0.903349 0.768344
Si Si5 0.353270 0.096829 0.409969
Si Si6 0.636670 0.098587 0.910122
Si Si7 0.097547 0.543606 0.021203
Si Si8 0.420394 0.576072 0.030390
O O1 0.335803 0.709440 0.665808
O O2 0.500544 0.725604 0.610293
O O3 0.428292 0.815370 0.848602
O O4 0.447402 0.646874 0.890984
O O5 0.667179 0.734878 0.623977
O O6 0.826796 0.706723 0.698602
O O7 0.718371 0.830695 0.869014
O O8 0.165137 0.581333 0.153818
O O9 0.325766 0.594025 0.099304
O O10 0.421980 0.904230 0.581751
O O11 0.446185 0.998836 0.837878
O O12 0.567759 0.892966 0.775976
O O13 0.404190 0.106726 0.592281
O O14 0.323673 0.997252 0.393117
O O15 0.561266 0.113253 0.766978
O O16 0.484192 0.577278 0.189471
#
# Coordination Sequence:
#
# PCOD9541598 Si02
#       8
#     4   4   4   4   4   4   4   4
#     4  11  21  37  55  76 102 140 181 222 263 317
#     4  11  20  36  54  79 110 142 175 222 272 322
#     4  12  22  36  53  75 106 143 177 222 265 318
#     4   9  18  34  55  76 104 134 172 223 278 314
#     4  10  19  32  57  82 104 141 180 222 274 326
#     4   9  19  35  54  80 108 140 177 227 270 325
#     4  10  19  33  54  80 106 133 175 222 275 319
#     4  12  26  39  50  68 100 149 193 220 247 303
#
# _framework density 17.092855
#
# number of rings (size 3 to 8) (size 9 to 14) (size 15 to 20)
#    0.000    1.500    3.750    3.000    1.750    0.000 
#    0.000    0.000    0.000    0.000    0.000    5.250 
#    0.000    0.000    0.000    0.000    0.000    0.000 
#
# Total GULP energy -178382.455214 kJ/mol
# GULP energy per Si atom -5574.451725 kJ/mol
# Density = 1.705395 g / cm^3
# Si number density = 17.092855 Si / 1000 Ang^3
#
#
#
# Elastic Constant Matrix: (Units=GPa)
#
#
# Indices 1 2 3 4 5 6 
#
# 1 65.8428 65.4893 19.5772 0.0000 0.0000 6.8606
# 2 65.4893 65.8428 19.5772 0.0000 0.0000 -6.8606
# 3 19.5772 19.5772 39.5556 0.0000 0.0000 0.0000
# 4 0.0000 0.0000 0.0000 21.7049 0.0000 0.0000
# 5 0.0000 0.0000 0.0000 0.0000 21.7049 0.0000
# 6 6.8606 -6.8606 0.0000 0.0000 0.0000 27.0433
#
#
#
# Elastic Compliance Matrix: (Units=1/GPa)
#
#
# Indices 1 2 3 4 5 6 
#
# 1 -0.155412 0.164344 -0.004421 0.000000 0.000000 0.081119
# 2 0.164344 -0.155412 -0.004421 0.000000 0.000000 -0.081119
# 3 -0.004421 -0.004421 0.029657 0.000000 0.000000 0.000000
# 4 0.000000 0.000000 0.000000 0.046072 0.000000 0.000000
# 5 0.000000 0.000000 0.000000 0.000000 0.046072 0.000000
# 6 0.081119 -0.081119 0.000000 0.000000 0.000000 -0.004180
#
#
# Mechanical properties :
#
#
# Convention : Reuss Voigt Hill
#
# Bulk Modulus (GPa) = 33.51427 42.28097 37.89762
# Shear Modulus (GPa) = -10.11612 18.53047 4.20718
#
# Velocity S-wave (km/s) = -2.43540 3.29615 1.57058
# Velocity P-wave (km/s) = 3.42659 6.26705 5.05061
#
# Compressibility (1/GPa) = 0.02983804
#
# Stress axis : x y z
#
# Youngs Moduli (GPa) = -6.43452 -6.43452 33.71902
#
# Poissons Ratio (x) = 1.05748 0.14907
# Poissons Ratio (y) = 1.05748 0.14907
# Poissons Ratio (z) = -0.02845 -0.02845
#
# Static dielectric constant tensor:
#      x y z
#    x 1.605020 0.000000 0.000000 
#    y 0.000000 1.605020 0.000000 
#    z 0.000000 0.000000 1.640680 
# 
# From -- ./inp_files/706.got.cif
#   From: 2010.05.17/outbox.cif.g08.bks.cpg/sg78_cif.got.tgz:706.got - 2010.06.03 18:45:56.
