data_PCOD9541979
_publ_section_title
;
Structure prediction by ZEFSAII (Michael W. Deem and Ramdas Pophale) SiO2 
 PCOD9541979
Probable space group: I 4
;
_chemical_formula_sum "Si O2"
_cell_formula_units_Z 60
_cell_length_a 11.728511
_cell_length_b 11.728511
_cell_length_c 21.663648
_cell_angle_alpha 90.000000
_cell_angle_beta 90.000000
_cell_angle_gamma 90.000000
_cell_volume 2980.007448
_symmetry_space_group_name_H-M "I 4"
_symmetry_group_IT_number 79
_symmetry_cell_setting 'tetragonal'
loop_
_space_group_symop_operation_xyz
x,y,z
-y,x,z
-x,-y,z
y,-x,z
1/2+x,1/2+y,1/2+z
1/2-y,1/2+x,1/2+z
1/2-x,1/2-y,1/2+z
1/2+y,1/2-x,1/2+z
loop_
_atom_site_type_symbol
_atom_site_label
_atom_site_fract_x
_atom_site_fract_y
_atom_site_fract_z
Si Si1 0.324360 0.557311 0.459130
Si Si2 0.324361 0.442689 0.127709
Si Si3 0.819894 0.238478 0.422241
Si Si4 0.180106 0.238479 0.164598
Si Si5 0.500000 0.000000 0.543419
Si Si6 0.637237 0.637238 0.793419
Si Si7 0.471179 0.755059 0.592938
Si Si8 0.971180 0.744942 0.493900
O O1 0.361891 0.430634 0.439604
O O2 0.218923 0.631052 0.433997
O O3 0.304439 0.526114 0.532049
O O4 0.430634 0.361891 0.147235
O O5 0.218923 0.368948 0.152842
O O6 0.304440 0.473885 0.054790
O O7 0.803997 0.193219 0.353600
O O8 0.952564 0.216622 0.436930
O O9 0.760137 0.159829 0.474834
O O10 0.196002 0.193220 0.233239
O O11 0.047436 0.216624 0.149909
O O12 0.239862 0.159829 0.112005
O O13 0.506040 0.112765 0.583236
O O14 0.387234 0.993963 0.503602
O O15 0.500000 0.655532 0.793419
#
# Coordination Sequence:
#
# PCOD9541979 Si02
#       8
#     8   8   8   8   4   8   8   8
#     4  11  23  41  65  96 133 175 215 266 342 413
#     4  11  23  41  65  96 133 175 215 266 342 413
#     4  12  24  42  64  97 133 172 217 280 327 402
#     4  12  24  42  64  97 133 172 217 280 327 402
#     4  12  24  36  60 102 140 168 212 268 354 396
#     4  11  24  44  68  95 128 178 230 273 330 394
#     4  12  23  37  63  96 136 171 212 272 340 397
#     4  12  23  37  63  96 136 171 212 272 340 397
#
# _framework density 20.134179
#
# number of rings (size 3 to 8) (size 9 to 14) (size 15 to 20)
#    0.000    0.400    8.000    1.600    0.000    0.533 
#    0.000    1.333    0.000    4.800    0.000    0.000 
#    0.000    0.000    0.000    0.000    0.000    0.000 
#
# Total GULP energy -167037.048064 kJ/mol
# GULP energy per Si atom -5567.901602 kJ/mol
# Density = 2.008835 g / cm^3
# Si number density = 20.134179 Si / 1000 Ang^3
#
#
#
# Elastic Constant Matrix: (Units=GPa)
#
#
# Indices 1 2 3 4 5 6 
#
# 1 -4.7041 72.4885 10.1039 0.0000 0.0000 0.0023
# 2 72.4885 -4.7041 10.1039 0.0000 0.0000 -0.0023
# 3 10.1039 10.1039 90.5753 0.0000 0.0000 0.0000
# 4 0.0000 0.0000 0.0000 14.2926 0.0000 0.0000
# 5 0.0000 0.0000 0.0000 0.0000 14.2926 0.0000
# 6 0.0023 -0.0023 0.0000 0.0000 0.0000 35.3648
#
#
#
# Elastic Compliance Matrix: (Units=1/GPa)
#
#
# Indices 1 2 3 4 5 6 
#
# 1 0.001153 0.014107 -0.001702 0.000000 0.000000 0.000001
# 2 0.014107 0.001153 -0.001702 0.000000 0.000000 -0.000001
# 3 -0.001702 -0.001702 0.011420 0.000000 0.000000 0.000000
# 4 0.000000 0.000000 0.000000 0.069966 0.000000 0.000000
# 5 0.000000 0.000000 0.000000 0.000000 0.069966 0.000000
# 6 0.000001 -0.000001 0.000000 0.000000 0.000000 0.028277
#
#
# Mechanical properties :
#
#
# Convention : Reuss Voigt Hill
#
# Bulk Modulus (GPa) = 28.46457 29.61774 29.04115
# Shear Modulus (GPa) = 29.02932 12.02140 20.52536
#
# Velocity S-wave (km/s) = 3.80121 2.44614 3.19631
# Velocity P-wave (km/s) = 5.78219 4.76658 5.29877
#
# Compressibility (1/GPa) = 0.03513139
#
# Stress axis : x y z
#
# Youngs Moduli (GPa) = 867.48433 867.48433 87.56312
#
# Poissons Ratio (x) = -12.23792 0.14906
# Poissons Ratio (y) = -12.23792 0.14906
# Poissons Ratio (z) = 1.47672 1.47672
#
# Static dielectric constant tensor:
#      x y z
#    x 1.705970 0.000000 0.000000 
#    y 0.000000 1.705970 0.000000 
#    z 0.000000 0.000000 1.714970 
# 
# From -- ./inp_files/1866.got.cif
#   From: 2010.05.17/outbox.cif.g08.bks.cpg/sg79_cif.got.tgz:1866.got - 2010.06.03 18:47:27.
