data_PCOD9541588
_publ_section_title
;
Structure prediction by ZEFSAII (Michael W. Deem and Ramdas Pophale) SiO2 
 PCOD9541588
Probable space group: P 43
;
_chemical_formula_sum "Si O2"
_cell_formula_units_Z 24
_cell_length_a 9.176524
_cell_length_b 9.176524
_cell_length_c 12.445560
_cell_angle_alpha 90.000000
_cell_angle_beta 90.000000
_cell_angle_gamma 90.000000
_cell_volume 1048.023093
_symmetry_space_group_name_H-M "P 43"
_symmetry_group_IT_number 78
_symmetry_cell_setting 'tetragonal'
loop_
_space_group_symop_operation_xyz
x,y,z
-y,x,3/4+z
-x,-y,1/2+z
y,-x,1/4+z
loop_
_atom_site_type_symbol
_atom_site_label
_atom_site_fract_x
_atom_site_fract_y
_atom_site_fract_z
Si Si1 0.811168 0.426072 0.366010
Si Si2 0.631591 0.157210 0.430548
Si Si3 0.155479 0.907773 0.107072
Si Si4 0.658102 0.113948 0.021592
Si Si5 0.559468 0.863816 0.351491
Si Si6 0.831207 0.957508 0.830345
O O1 0.724269 0.274648 0.366505
O O2 0.765073 0.527562 0.267523
O O3 0.983051 0.400093 0.344751
O O4 0.799632 0.488550 0.486904
O O5 0.739649 0.061045 0.506254
O O6 0.545446 0.040430 0.359239
O O7 0.216610 0.973808 0.217020
O O8 0.156806 0.733539 0.105215
O O9 0.004624 0.996639 0.088817
O O10 0.752237 0.039080 0.926302
O O11 0.529059 0.191823 0.955663
O O12 0.785438 0.196998 0.084238
#
# Coordination Sequence:
#
# PCOD9541588 Si02
#       6
#     4   4   4   4   4   4
#     4  10  22  36  62  79 115 152 193 237 288 355
#     4  10  20  36  59  83 111 155 193 232 289 350
#     4  10  18  33  59  85 117 149 188 235 287 342
#     4  10  22  34  56  87 119 146 185 238 294 339
#     4  10  20  36  55  85 115 150 187 230 291 347
#     4  10  20  33  57  91 117 142 190 242 283 337
#
# _framework density 22.900258999999998
#
# number of rings (size 3 to 8) (size 9 to 14) (size 15 to 20)
#    0.000    2.000    1.667    2.000    9.333    0.000 
#    0.000    0.000   14.667    0.000    0.000    0.000 
#    0.000    0.000    0.000    0.000    0.000    0.000 
#
# Total GULP energy -133903.559263 kJ/mol
# GULP energy per Si atom -5579.314969 kJ/mol
# Density = 2.284814 g / cm^3
# Si number density = 22.900259 Si / 1000 Ang^3
#
#
#
# Elastic Constant Matrix: (Units=GPa)
#
#
# Indices 1 2 3 4 5 6 
#
# 1 57.4409 -6.0310 1.5227 0.0000 0.0000 -6.2051
# 2 -6.0310 57.4409 1.5227 0.0000 0.0000 6.2051
# 3 1.5227 1.5227 68.6620 0.0000 0.0000 0.0000
# 4 0.0000 0.0000 0.0000 31.1520 0.0000 0.0000
# 5 0.0000 0.0000 0.0000 0.0000 31.1520 0.0000
# 6 -6.2051 6.2051 0.0000 0.0000 0.0000 18.6308
#
#
#
# Elastic Compliance Matrix: (Units=1/GPa)
#
#
# Indices 1 2 3 4 5 6 
#
# 1 0.018165 0.001312 -0.000432 0.000000 0.000000 0.005613
# 2 0.001312 0.018165 -0.000432 0.000000 0.000000 -0.005613
# 3 -0.000432 -0.000432 0.014583 0.000000 0.000000 0.000000
# 4 0.000000 0.000000 0.000000 0.032101 0.000000 0.000000
# 5 0.000000 0.000000 0.000000 0.000000 0.032101 0.000000
# 6 0.005613 -0.005613 0.000000 0.000000 0.000000 0.057413
#
#
# Mechanical properties :
#
#
# Convention : Reuss Voigt Hill
#
# Bulk Modulus (GPa) = 19.30140 19.73029 19.51585
# Shear Modulus (GPa) = 26.46897 28.62224 27.54561
#
# Velocity S-wave (km/s) = 3.40345 3.53918 3.47198
# Velocity P-wave (km/s) = 4.88788 5.03344 4.96119
#
# Compressibility (1/GPa) = 0.05180971
#
# Stress axis : x y z
#
# Youngs Moduli (GPa) = 55.05161 55.05161 68.57185
#
# Poissons Ratio (x) = -0.07225 0.02962
# Poissons Ratio (y) = -0.07225 0.02962
# Poissons Ratio (z) = 0.02378 0.02378
#
# Static dielectric constant tensor:
#      x y z
#    x 1.922700 0.000000 0.000000 
#    y 0.000000 1.922700 0.000000 
#    z 0.000000 0.000000 1.948870 
# 
# From -- ./inp_files/1105.got.cif
#   From: 2010.05.17/outbox.cif.g08.bks.cpg/sg78_cif.got.tgz:1105.got - 2010.06.03 18:45:56.
