data_PCOD9541285
_publ_section_title
;
Structure prediction by ZEFSAII (Michael W. Deem and Ramdas Pophale) SiO2 
 PCOD9541285
Probable space group: P 41
;
_chemical_formula_sum "Si O2"
_cell_formula_units_Z 28
_cell_length_a 8.244438
_cell_length_b 8.244438
_cell_length_c 18.397355
_cell_angle_alpha 90.000000
_cell_angle_beta 90.000000
_cell_angle_gamma 90.000000
_cell_volume 1250.482163
_symmetry_space_group_name_H-M "P 41"
_symmetry_group_IT_number 76
_symmetry_cell_setting 'tetragonal'
loop_
_space_group_symop_operation_xyz
x,y,z
-y,x,1/4+z
-x,-y,1/2+z
y,-x,3/4+z
loop_
_atom_site_type_symbol
_atom_site_label
_atom_site_fract_x
_atom_site_fract_y
_atom_site_fract_z
Si Si1 0.734961 0.968203 0.491540
Si Si2 0.742075 0.759292 0.270374
Si Si3 0.340047 0.410145 0.495808
Si Si4 0.414846 0.346806 0.039228
Si Si5 0.876882 0.710304 0.116375
Si Si6 0.507624 0.829938 0.899379
Si Si7 0.014299 0.056697 0.105447
O O1 0.662096 0.786793 0.485962
O O2 0.886435 0.003305 0.438446
O O3 0.807391 0.969989 0.572588
O O4 0.599504 0.093262 0.464454
O O5 0.563779 0.777500 0.234796
O O6 0.725937 0.590113 0.315601
O O7 0.855552 0.718802 0.202737
O O8 0.803048 0.914134 0.313426
O O9 0.518430 0.491529 0.499873
O O10 0.282830 0.343156 0.573423
O O11 0.348156 0.274613 0.435088
O O12 0.286814 0.398917 0.099613
O O13 0.023394 0.585259 0.103894
O O14 0.921723 0.889959 0.092498
#
# Coordination Sequence:
#
# PCOD9541285 Si02
#       7
#     4   4   4   4   4   4   4
#     4  12  25  45  69 101 146 186 238 299 364 447
#     4  10  23  45  67 100 136 186 234 289 358 429
#     4  10  25  42  71 100 136 186 238 289 368 429
#     4  10  25  42  71  98 137 189 235 302 362 427
#     4  12  24  44  69  99 146 182 234 296 360 438
#     4  12  24  46  70 106 147 183 248 308 360 443
#     4  12  26  44  71 104 140 190 237 287 374 441
#
# _framework density 22.391363999999999
#
# number of rings (size 3 to 8) (size 9 to 14) (size 15 to 20)
#    0.857    0.000    4.286    2.571    4.000    0.000 
#    0.000    1.429    0.000    0.000    0.000    0.000 
#    0.000    0.000    0.000    0.000    0.000    0.000 
#
# Total GULP energy -156221.540124 kJ/mol
# GULP energy per Si atom -5579.340719 kJ/mol
# Density = 2.234040 g / cm^3
# Si number density = 22.391364 Si / 1000 Ang^3
#
#
#
# Elastic Constant Matrix: (Units=GPa)
#
#
# Indices 1 2 3 4 5 6 
#
# 1 77.9417 14.7951 11.4552 0.0000 0.0000 -8.0940
# 2 14.7951 77.9417 11.4552 0.0000 0.0000 8.0940
# 3 11.4552 11.4552 36.8478 0.0000 0.0000 0.0000
# 4 0.0000 0.0000 0.0000 35.6903 0.0000 0.0000
# 5 0.0000 0.0000 0.0000 0.0000 35.6903 0.0000
# 6 -8.0940 8.0940 0.0000 0.0000 0.0000 16.0845
#
#
#
# Elastic Compliance Matrix: (Units=1/GPa)
#
#
# Indices 1 2 3 4 5 6 
#
# 1 0.014931 -0.003251 -0.003631 0.000000 0.000000 0.009149
# 2 -0.003251 0.014931 -0.003631 0.000000 0.000000 -0.009149
# 3 -0.003631 -0.003631 0.029396 0.000000 0.000000 0.000000
# 4 0.000000 0.000000 0.000000 0.028019 0.000000 0.000000
# 5 0.000000 0.000000 0.000000 0.000000 0.028019 0.000000
# 6 0.009149 -0.009149 0.000000 0.000000 0.000000 0.071380
#
#
# Mechanical properties :
#
#
# Convention : Reuss Voigt Hill
#
# Bulk Modulus (GPa) = 26.15586 29.79357 27.97471
# Shear Modulus (GPa) = 22.68130 27.82807 25.25469
#
# Velocity S-wave (km/s) = 3.18614 3.52917 3.36203
# Velocity P-wave (km/s) = 5.02413 5.47187 5.25278
#
# Compressibility (1/GPa) = 0.03823235
#
# Stress axis : x y z
#
# Youngs Moduli (GPa) = 66.97494 66.97494 34.01779
#
# Poissons Ratio (x) = 0.21772 0.12352
# Poissons Ratio (y) = 0.21772 0.12352
# Poissons Ratio (z) = 0.24320 0.24320
#
# Static dielectric constant tensor:
#      x y z
#    x 1.844700 0.000000 0.000000 
#    y 0.000000 1.844700 0.000000 
#    z 0.000000 0.000000 1.809430 
# 
# From -- ./inp_files/1309.got.cif
#   From: 2010.05.17/outbox.cif.g08.bks.cpg/sg76_cif.got.tgz:1309.got - 2010.06.03 18:43:17.
