data_PCOD9541729
_publ_section_title
;
Structure prediction by ZEFSAII (Michael W. Deem and Ramdas Pophale) SiO2 
 PCOD9541729
Probable space group: P 43
;
_chemical_formula_sum "Si O2"
_cell_formula_units_Z 28
_cell_length_a 13.867604
_cell_length_b 13.867604
_cell_length_c 5.660515
_cell_angle_alpha 90.000000
_cell_angle_beta 90.000000
_cell_angle_gamma 90.000000
_cell_volume 1088.576134
_symmetry_space_group_name_H-M "P 43"
_symmetry_group_IT_number 78
_symmetry_cell_setting 'tetragonal'
loop_
_space_group_symop_operation_xyz
x,y,z
-y,x,3/4+z
-x,-y,1/2+z
y,-x,1/4+z
loop_
_atom_site_type_symbol
_atom_site_label
_atom_site_fract_x
_atom_site_fract_y
_atom_site_fract_z
Si Si1 0.280618 0.971503 0.643310
Si Si2 0.139086 0.705730 0.525309
Si Si3 0.440109 0.627268 0.579803
Si Si4 0.689244 0.710736 0.163347
Si Si5 0.180335 0.377979 0.066274
Si Si6 0.422581 0.106714 0.886122
Si Si7 0.037140 0.865604 0.250347
O O1 0.308404 0.882007 0.482816
O O2 0.183384 0.971230 0.795948
O O3 0.270163 0.060133 0.467689
O O4 0.368819 0.008448 0.808093
O O5 0.238808 0.713208 0.661762
O O6 0.120969 0.600040 0.414306
O O7 0.112549 0.783202 0.325171
O O8 0.397187 0.548431 0.402271
O O9 0.380802 0.628183 0.826922
O O10 0.425670 0.730328 0.457595
O O11 0.630105 0.796183 0.287399
O O12 0.775621 0.673335 0.332604
O O13 0.110713 0.470398 0.034064
O O14 0.958770 0.901554 0.435130
#
# Coordination Sequence:
#
# PCOD9541729 Si02
#       7
#     4   4   4   4   4   4   4
#     4  10  27  48  76 109 154 204 258 327 399 475
#     4  10  24  48  76 109 155 203 257 326 381 485
#     4  12  29  47  78 113 160 209 274 331 398 471
#     4  11  24  47  73 114 154 212 255 326 393 474
#     4  12  26  46  79 116 155 209 261 328 400 473
#     4  10  24  47  75 108 158 204 261 318 388 476
#     4  11  28  51  77 111 150 201 264 332 401 478
#
# _framework density 25.721672000000002
#
# number of rings (size 3 to 8) (size 9 to 14) (size 15 to 20)
#    0.000    1.143    0.000    3.429    8.000   12.571 
#    0.000    0.000    0.000    0.000    0.000    0.000 
#    0.000    0.000    0.000    0.000    0.000    0.000 
#
# Total GULP energy -156776.782171 kJ/mol
# GULP energy per Si atom -5599.170792 kJ/mol
# Density = 2.566313 g / cm^3
# Si number density = 25.721672 Si / 1000 Ang^3
#
#
#
# Elastic Constant Matrix: (Units=GPa)
#
#
# Indices 1 2 3 4 5 6 
#
# 1 86.9474 18.0500 15.6035 0.0000 0.0000 6.3193
# 2 18.0500 86.9474 15.6035 0.0000 0.0000 -6.3193
# 3 15.6035 15.6035 78.2749 0.0000 0.0000 0.0000
# 4 0.0000 0.0000 0.0000 39.4737 0.0000 0.0000
# 5 0.0000 0.0000 0.0000 0.0000 39.4737 0.0000
# 6 6.3193 -6.3193 0.0000 0.0000 0.0000 35.5757
#
#
#
# Elastic Compliance Matrix: (Units=1/GPa)
#
#
# Indices 1 2 3 4 5 6 
#
# 1 0.012564 -0.002440 -0.002018 0.000000 0.000000 -0.002665
# 2 -0.002440 0.012564 -0.002018 0.000000 0.000000 0.002665
# 3 -0.002018 -0.002018 0.013580 0.000000 0.000000 0.000000
# 4 0.000000 0.000000 0.000000 0.025333 0.000000 0.000000
# 5 0.000000 0.000000 0.000000 0.000000 0.025333 0.000000
# 6 -0.002665 0.002665 0.000000 0.000000 0.000000 0.029056
#
#
# Mechanical properties :
#
#
# Convention : Reuss Voigt Hill
#
# Bulk Modulus (GPa) = 38.82689 38.96485 38.89587
# Shear Modulus (GPa) = 35.72281 36.43212 36.07746
#
# Velocity S-wave (km/s) = 3.73073 3.76759 3.74921
# Velocity P-wave (km/s) = 5.80393 5.84019 5.82209
#
# Compressibility (1/GPa) = 0.02575535
#
# Stress axis : x y z
#
# Youngs Moduli (GPa) = 79.59538 79.59538 73.63729
#
# Poissons Ratio (x) = 0.19419 0.14861
# Poissons Ratio (y) = 0.19419 0.14861
# Poissons Ratio (z) = 0.16063 0.16063
#
# Static dielectric constant tensor:
#      x y z
#    x 2.024010 0.000000 0.000000 
#    y 0.000000 2.024010 0.000000 
#    z 0.000000 0.000000 2.099430 
# 
# From -- ./inp_files/263.got.cif
#   From: 2010.05.17/outbox.cif.g08.bks.cpg/sg78_cif.got.tgz:263.got - 2010.06.03 18:45:56.
