data_PCOD9541417
_publ_section_title
;
Structure prediction by ZEFSAII (Michael W. Deem and Ramdas Pophale) SiO2 
 PCOD9541417
Probable space group: P 41
;
_chemical_formula_sum "Si O2"
_cell_formula_units_Z 24
_cell_length_a 15.503487
_cell_length_b 15.503487
_cell_length_c 5.007877
_cell_angle_alpha 90.000000
_cell_angle_beta 90.000000
_cell_angle_gamma 90.000000
_cell_volume 1203.683847
_symmetry_space_group_name_H-M "P 41"
_symmetry_group_IT_number 76
_symmetry_cell_setting 'tetragonal'
loop_
_space_group_symop_operation_xyz
x,y,z
-y,x,1/4+z
-x,-y,1/2+z
y,-x,3/4+z
loop_
_atom_site_type_symbol
_atom_site_label
_atom_site_fract_x
_atom_site_fract_y
_atom_site_fract_z
Si Si1 0.868378 0.500458 0.969070
Si Si2 0.248520 0.509115 0.967543
Si Si3 0.049246 0.312303 0.464910
Si Si4 0.772701 0.748379 0.194560
Si Si5 0.314493 0.064568 0.731308
Si Si6 0.664085 0.310021 0.437108
O O1 0.823201 0.473658 0.693050
O O2 0.918779 0.414888 0.057400
O O3 0.799357 0.520995 0.200257
O O4 0.919601 0.588704 0.926506
O O5 0.298486 0.595367 0.891636
O O6 0.306087 0.435896 0.107896
O O7 0.131229 0.259732 0.577500
O O8 0.977179 0.312210 0.691756
O O9 0.004589 0.279805 0.194913
O O10 0.735777 0.844964 0.220941
O O11 0.759444 0.707071 0.486377
O O12 0.715581 0.692773 0.984781
#
# Coordination Sequence:
#
# PCOD9541417 Si02
#       6
#     4   4   4   4   4   4
#     4  12  22  41  63 100 134 166 214 278 337 389
#     4  12  22  39  65  92 130 182 228 266 315 387
#     4  12  24  41  66 100 132 169 216 269 334 403
#     4  12  24  44  67  90 135 174 212 270 334 408
#     4  12  24  41  66 100 132 169 216 269 334 403
#     4  12  22  42  63  92 129 182 230 260 322 384
#
# _framework density 19.938790999999998
#
# number of rings (size 3 to 8) (size 9 to 14) (size 15 to 20)
#    0.000    0.000    6.667    5.000    0.000    0.000 
#    0.000    3.333    0.000    2.000    0.000    0.000 
#    0.000    0.000    0.000    0.000    0.000    0.000 
#
# Total GULP energy -134221.547500 kJ/mol
# GULP energy per Si atom -5592.564479 kJ/mol
# Density = 1.989341 g / cm^3
# Si number density = 19.938791 Si / 1000 Ang^3
#
#
#
# Elastic Constant Matrix: (Units=GPa)
#
#
# Indices 1 2 3 4 5 6 
#
# 1 56.5079 19.8911 2.3847 0.0000 0.0000 -12.5007
# 2 19.8911 56.5079 2.3847 0.0000 0.0000 12.5007
# 3 2.3847 2.3847 79.7792 0.0000 0.0000 0.0000
# 4 0.0000 0.0000 0.0000 28.6940 0.0000 0.0000
# 5 0.0000 0.0000 0.0000 0.0000 28.6940 0.0000
# 6 -12.5007 12.5007 0.0000 0.0000 0.0000 -19.7758
#
#
#
# Elastic Compliance Matrix: (Units=1/GPa)
#
#
# Indices 1 2 3 4 5 6 
#
# 1 0.016095 -0.002981 -0.000392 0.000000 0.000000 -0.012059
# 2 -0.002981 0.016095 -0.000392 0.000000 0.000000 0.012059
# 3 -0.000392 -0.000392 0.012558 0.000000 0.000000 0.000000
# 4 0.000000 0.000000 0.000000 0.034851 0.000000 0.000000
# 5 0.000000 0.000000 0.000000 0.000000 0.034851 0.000000
# 6 -0.012059 0.012059 0.000000 0.000000 0.000000 -0.035322
#
#
# Mechanical properties :
#
#
# Convention : Reuss Voigt Hill
#
# Bulk Modulus (GPa) = 26.86917 26.90179 26.88548
# Shear Modulus (GPa) = 50.47247 18.73139 34.60193
#
# Velocity S-wave (km/s) = 5.03673 3.06836 4.17034
# Velocity P-wave (km/s) = 6.87968 5.10633 6.05824
#
# Compressibility (1/GPa) = 0.03721738
#
# Stress axis : x y z
#
# Youngs Moduli (GPa) = 62.13084 62.13084 79.63035
#
# Poissons Ratio (x) = 0.18524 0.03121
# Poissons Ratio (y) = 0.18524 0.03121
# Poissons Ratio (z) = 0.02435 0.02435
#
# Static dielectric constant tensor:
#      x y z
#    x 1.729430 0.000000 0.000000 
#    y 0.000000 1.729430 0.000000 
#    z 0.000000 0.000000 1.705090 
# 
# From -- ./inp_files/201.got.cif
#   From: 2010.05.17/outbox.cif.g08.bks.cpg/sg76_cif.got.tgz:201.got - 2010.06.03 18:43:17.
