data_PCOD9541986
_publ_section_title
;
Structure prediction by ZEFSAII (Michael W. Deem and Ramdas Pophale) SiO2 
 PCOD9541986
Probable space group: I 4
;
_chemical_formula_sum "Si O2"
_cell_formula_units_Z 48
_cell_length_a 8.492181
_cell_length_b 8.492181
_cell_length_c 31.404769
_cell_angle_alpha 90.000000
_cell_angle_beta 90.000000
_cell_angle_gamma 90.000000
_cell_volume 2264.822064
_symmetry_space_group_name_H-M "I 4"
_symmetry_group_IT_number 79
_symmetry_cell_setting 'tetragonal'
loop_
_space_group_symop_operation_xyz
x,y,z
-y,x,z
-x,-y,z
y,-x,z
1/2+x,1/2+y,1/2+z
1/2-y,1/2+x,1/2+z
1/2-x,1/2-y,1/2+z
1/2+y,1/2-x,1/2+z
loop_
_atom_site_type_symbol
_atom_site_label
_atom_site_fract_x
_atom_site_fract_y
_atom_site_fract_z
Si Si1 0.043535 0.262853 0.432960
Si Si2 0.422221 0.753225 0.364609
Si Si3 0.425309 0.244154 0.691076
Si Si4 0.553942 0.237606 0.119230
Si Si5 0.087991 0.749809 0.765861
Si Si6 0.735237 0.995838 0.525925
O O1 0.109251 0.376228 0.396687
O O2 0.878245 0.172104 0.429509
O O3 0.025115 0.339482 0.479844
O O4 0.311099 0.599310 0.370969
O O5 0.401277 0.799280 0.315208
O O6 0.601629 0.311853 0.689090
O O7 0.383008 0.125034 0.653035
O O8 0.381854 0.152023 0.734265
O O9 0.676961 0.384691 0.124117
O O10 0.535677 0.162621 0.072107
O O11 0.908299 0.807212 0.758733
O O12 0.852697 0.847914 0.526015
#
# Coordination Sequence:
#
# PCOD9541986 Si02
#       6
#     8   8   8   8   8   8
#     4   9  17  30  52  79 108 140 178 228 280 328
#     4   9  19  35  54  79 114 152 188 229 278 331
#     4  11  24  37  50  77 118 153 181 225 287 343
#     4   9  17  32  58  82 101 134 183 232 275 326
#     4   9  19  37  58  79 106 146 196 239 273 324
#     4   7  12  26  50  75  99 125 164 219 269 311
#
# _framework density 21.193719999999999
#
# number of rings (size 3 to 8) (size 9 to 14) (size 15 to 20)
#    0.000    3.000    0.000    4.000    0.000    6.000 
#    0.000    5.000    0.000   42.000    0.000   21.000 
#    0.000    0.000    0.000    0.000    0.000    0.000 
#
# Total GULP energy -133678.664107 kJ/mol
# GULP energy per Si atom -5569.944338 kJ/mol
# Density = 2.114548 g / cm^3
# Si number density = 21.193720 Si / 1000 Ang^3
#
#
#
# Elastic Constant Matrix: (Units=GPa)
#
#
# Indices 1 2 3 4 5 6 
#
# 1 87.1092 72.6484 82.3513 0.0000 0.0000 6.2822
# 2 72.6484 87.1092 82.3513 0.0000 0.0000 -6.2822
# 3 82.3513 82.3513 186.8687 0.0000 0.0000 0.0000
# 4 0.0000 0.0000 0.0000 -67.5723 0.0000 0.0000
# 5 0.0000 0.0000 0.0000 0.0000 -67.5723 0.0000
# 6 6.2822 -6.2822 0.0000 0.0000 0.0000 41.9403
#
#
#
# Elastic Compliance Matrix: (Units=1/GPa)
#
#
# Indices 1 2 3 4 5 6 
#
# 1 0.045485 -0.034014 -0.005055 0.000000 0.000000 -0.011908
# 2 -0.034014 0.045485 -0.005055 0.000000 0.000000 0.011908
# 3 -0.005055 -0.005055 0.009807 0.000000 0.000000 0.000000
# 4 0.000000 0.000000 0.000000 -0.014799 0.000000 0.000000
# 5 0.000000 0.000000 0.000000 0.000000 -0.014799 0.000000
# 6 -0.011908 0.011908 0.000000 0.000000 0.000000 0.027411
#
#
# Mechanical properties :
#
#
# Convention : Reuss Voigt Hill
#
# Bulk Modulus (GPa) = 79.81889 92.86546 86.34217
# Shear Modulus (GPa) = 26.17587 -10.39179 7.89204
#
# Velocity S-wave (km/s) = 3.51818 -2.21673 1.93180
# Velocity P-wave (km/s) = 7.36524 6.11234 6.76785
#
# Compressibility (1/GPa) = 0.01252836
#
# Stress axis : x y z
#
# Youngs Moduli (GPa) = 21.98516 21.98515 101.96832
#
# Poissons Ratio (x) = 0.74780 0.51548
# Poissons Ratio (y) = 0.74780 0.51548
# Poissons Ratio (z) = 0.11114 0.11114
#
# Static dielectric constant tensor:
#      x y z
#    x 1.818340 0.000000 0.000000 
#    y 0.000000 1.818340 0.000000 
#    z 0.000000 0.000000 1.805830 
# 
# From -- ./inp_files/2135.got.cif
#   From: 2010.05.17/outbox.cif.g08.bks.cpg/sg79_cif.got.tgz:2135.got - 2010.06.03 18:47:27.
