data_PCOD9541803
_publ_section_title
;
Structure prediction by ZEFSAII (Michael W. Deem and Ramdas Pophale) SiO2 
 PCOD9541803
Probable space group: I 4
;
_chemical_formula_sum "Si O2"
_cell_formula_units_Z 64
_cell_length_a 17.240841
_cell_length_b 17.240841
_cell_length_c 11.763744
_cell_angle_alpha 90.000000
_cell_angle_beta 90.000000
_cell_angle_gamma 90.000000
_cell_volume 3496.732888
_symmetry_space_group_name_H-M "I 4"
_symmetry_group_IT_number 79
_symmetry_cell_setting 'tetragonal'
loop_
_space_group_symop_operation_xyz
x,y,z
-y,x,z
-x,-y,z
y,-x,z
1/2+x,1/2+y,1/2+z
1/2-y,1/2+x,1/2+z
1/2-x,1/2-y,1/2+z
1/2+y,1/2-x,1/2+z
loop_
_atom_site_type_symbol
_atom_site_label
_atom_site_fract_x
_atom_site_fract_y
_atom_site_fract_z
Si Si1 0.490730 0.623999 0.337040
Si Si2 0.666251 0.386191 0.729567
Si Si3 0.094733 0.270199 0.611781
Si Si4 0.029654 0.814708 0.084398
Si Si5 0.943783 0.285249 0.728319
Si Si6 0.195949 0.370418 0.446411
Si Si7 0.553724 0.617979 0.976774
Si Si8 0.719555 0.259926 0.250089
O O1 0.419761 0.568673 0.303557
O O2 0.490085 0.635192 0.472730
O O3 0.478843 0.706449 0.281494
O O4 0.586409 0.361140 0.668408
O O5 0.705095 0.451263 0.650275
O O6 0.647913 0.424416 0.850890
O O7 0.719922 0.310415 0.740457
O O8 0.134399 0.319438 0.511887
O O9 0.075977 0.185446 0.562889
O O10 0.160261 0.257308 0.708853
O O11 0.014519 0.310978 0.650438
O O12 0.076181 0.741353 0.034985
O O13 0.920546 0.335601 0.839453
O O14 0.859141 0.261861 0.678746
O O15 0.257501 0.314463 0.379116
O O16 0.462925 0.598893 0.991452
#
# Coordination Sequence:
#
# PCOD9541803 Si02
#       8
#     8   8   8   8   8   8   8   8
#     4  10  18  29  50  84 124 156 187 232 296 373
#     4  12  21  35  59  87 124 159 202 252 301 368
#     4  12  20  39  65  81 125 169 200 258 314 350
#     4  11  21  33  57  88 119 163 192 247 308 349
#     4   9  21  36  56  86 117 157 204 252 298 362
#     4   9  22  38  56  92 118 152 211 250 295 369
#     4  11  23  35  52  86 128 165 207 241 298 385
#     4  10  22  39  59  92 120 155 211 255 298 369
#
# _framework density 18.302799
#
# number of rings (size 3 to 8) (size 9 to 14) (size 15 to 20)
#    0.750    0.750    5.000    1.500    0.000    0.250 
#    0.000    1.250    0.000    0.750    3.250    0.000 
#    0.000    0.000    0.000    0.000    0.000    0.000 
#
# Total GULP energy -178394.468850 kJ/mol
# GULP energy per Si atom -5574.827152 kJ/mol
# Density = 1.826114 g / cm^3
# Si number density = 18.302799 Si / 1000 Ang^3
#
#
#
# Elastic Constant Matrix: (Units=GPa)
#
#
# Indices 1 2 3 4 5 6 
#
# 1 57.3899 26.1049 15.1932 0.0000 0.0000 1.7765
# 2 26.1049 57.3899 15.1932 0.0000 0.0000 -1.7765
# 3 15.1932 15.1932 47.4470 0.0000 0.0000 0.0000
# 4 0.0000 0.0000 0.0000 26.7756 0.0000 0.0000
# 5 0.0000 0.0000 0.0000 0.0000 26.7756 0.0000
# 6 1.7765 -1.7765 0.0000 0.0000 0.0000 23.0348
#
#
#
# Elastic Compliance Matrix: (Units=1/GPa)
#
#
# Indices 1 2 3 4 5 6 
#
# 1 0.022902 -0.009345 -0.004341 0.000000 0.000000 -0.002487
# 2 -0.009345 0.022902 -0.004341 0.000000 0.000000 0.002487
# 3 -0.004341 -0.004341 0.023856 0.000000 0.000000 0.000000
# 4 0.000000 0.000000 0.000000 0.037347 0.000000 0.000000
# 5 0.000000 0.000000 0.000000 0.000000 0.037347 0.000000
# 6 -0.002487 0.002487 0.000000 0.000000 0.000000 0.043796
#
#
# Mechanical properties :
#
#
# Convention : Reuss Voigt Hill
#
# Bulk Modulus (GPa) = 29.75712 30.57883 30.16798
# Shear Modulus (GPa) = 21.23985 22.36622 21.80303
#
# Velocity S-wave (km/s) = 3.41026 3.49952 3.45518
# Velocity P-wave (km/s) = 5.63915 5.75085 5.69528
#
# Compressibility (1/GPa) = 0.03360540
#
# Stress axis : x y z
#
# Youngs Moduli (GPa) = 43.66501 43.66501 41.91771
#
# Poissons Ratio (x) = 0.40805 0.18197
# Poissons Ratio (y) = 0.40805 0.18197
# Poissons Ratio (z) = 0.18955 0.18955
#
# Static dielectric constant tensor:
#      x y z
#    x 1.629970 0.000000 0.000000 
#    y 0.000000 1.629970 0.000000 
#    z 0.000000 0.000000 1.666340 
# 
# From -- ./inp_files/1199.got.cif
#   From: 2010.05.17/outbox.cif.g08.bks.cpg/sg79_cif.got.tgz:1199.got - 2010.06.03 18:47:27.
