data_PCOD9541510
_publ_section_title
;
Structure prediction by ZEFSAII (Michael W. Deem and Ramdas Pophale) SiO2 
 PCOD9541510
Probable space group: P 42
;
_chemical_formula_sum "Si O2"
_cell_formula_units_Z 14
_cell_length_a 5.332476
_cell_length_b 5.332476
_cell_length_c 19.462022
_cell_angle_alpha 90.000000
_cell_angle_beta 90.000000
_cell_angle_gamma 90.000000
_cell_volume 553.408440
_symmetry_space_group_name_H-M "P 42"
_symmetry_group_IT_number 77
_symmetry_cell_setting 'tetragonal'
loop_
_space_group_symop_operation_xyz
x,y,z
-y,x,1/2+z
-x,-y,z
y,-x,1/2+z
loop_
_atom_site_type_symbol
_atom_site_label
_atom_site_fract_x
_atom_site_fract_y
_atom_site_fract_z
Si Si1 0.643050 0.244455 0.113100
Si Si2 0.747668 0.828425 0.310159
Si Si3 0.749990 0.833139 0.462911
Si Si4 0.500000 0.000000 0.703949
O O1 0.500000 0.500000 0.127787
O O2 0.901462 0.283445 0.153342
O O3 0.500000 0.000000 0.137093
O O4 0.669082 0.234106 0.030908
O O5 0.736981 0.713601 0.387291
O O6 0.790822 0.613580 0.254466
O O7 0.500000 0.000000 0.301151
O O8 0.000000 0.000000 0.306714
O O9 0.500000 0.000000 0.470081
O O10 0.000000 0.000000 0.463657
#
# Coordination Sequence:
#
# PCOD9541510 Si02
#       4
#     4   4   4   2
#     4  12  29  47  78 113 156 210 270 333 415 486
#     4  10  26  48  78 110 159 208 270 334 413 486
#     4  10  21  48  76 111 150 205 267 337 399 489
#     4  12  30  48  72 114 160 210 266 344 402 502
#
# _framework density 25.297768000000001
#
# number of rings (size 3 to 8) (size 9 to 14) (size 15 to 20)
#    0.000    1.143    1.429    1.714   10.000    0.000 
#    0.000    0.000    0.000    0.000    0.000    0.000 
#    0.000    0.000    0.000    0.000    0.000    0.000 
#
# Total GULP energy -78507.070936 kJ/mol
# GULP energy per Si atom -5607.647924 kJ/mol
# Density = 2.524019 g / cm^3
# Si number density = 25.297768 Si / 1000 Ang^3
#
#
#
# Elastic Constant Matrix: (Units=GPa)
#
#
# Indices 1 2 3 4 5 6 
#
# 1 141.1696 52.8326 48.7227 0.0000 0.0000 -4.5710
# 2 52.8326 141.1696 48.7227 0.0000 0.0000 4.5710
# 3 48.7227 48.7227 204.5509 0.0000 0.0000 0.0000
# 4 0.0000 0.0000 0.0000 24.4795 0.0000 0.0000
# 5 0.0000 0.0000 0.0000 0.0000 24.4795 0.0000
# 6 -4.5710 4.5710 0.0000 0.0000 0.0000 52.9532
#
#
#
# Elastic Compliance Matrix: (Units=1/GPa)
#
#
# Indices 1 2 3 4 5 6 
#
# 1 0.008639 -0.002784 -0.001395 0.000000 0.000000 0.000986
# 2 -0.002784 0.008639 -0.001395 0.000000 0.000000 -0.000986
# 3 -0.001395 -0.001395 0.005553 0.000000 0.000000 0.000000
# 4 0.000000 0.000000 0.000000 0.040850 0.000000 0.000000
# 5 0.000000 0.000000 0.000000 0.000000 0.040850 0.000000
# 6 0.000986 -0.000986 0.000000 0.000000 0.000000 0.019055
#
#
# Mechanical properties :
#
#
# Convention : Reuss Voigt Hill
#
# Bulk Modulus (GPa) = 85.58153 87.49398 86.53775
# Shear Modulus (GPa) = 36.06798 42.82325 39.44562
#
# Velocity S-wave (km/s) = 3.77999 4.11879 3.95302
# Velocity P-wave (km/s) = 7.27697 7.56835 7.42409
#
# Compressibility (1/GPa) = 0.01168476
#
# Stress axis : x y z
#
# Youngs Moduli (GPa) = 115.75798 115.75798 180.07797
#
# Poissons Ratio (x) = 0.32223 0.25114
# Poissons Ratio (y) = 0.32223 0.25114
# Poissons Ratio (z) = 0.16144 0.16144
#
# Static dielectric constant tensor:
#      x y z
#    x 1.990870 0.000000 0.000000 
#    y 0.000000 1.990870 0.000000 
#    z 0.000000 0.000000 1.972060 
# 
# From -- ./inp_files/1420.got.cif
#   From: 2010.05.17/outbox.cif.g08.bks.cpg/sg77_cif.got.tgz:1420.got - 2010.06.03 18:44:51.
