data_PCOD9541824
_publ_section_title
;
Structure prediction by ZEFSAII (Michael W. Deem and Ramdas Pophale) SiO2 
 PCOD9541824
Probable space group: I 4
;
_chemical_formula_sum "Si O2"
_cell_formula_units_Z 60
_cell_length_a 10.839065
_cell_length_b 10.839065
_cell_length_c 22.977975
_cell_angle_alpha 90.000000
_cell_angle_beta 90.000000
_cell_angle_gamma 90.000000
_cell_volume 2699.574977
_symmetry_space_group_name_H-M "I 4"
_symmetry_group_IT_number 79
_symmetry_cell_setting 'tetragonal'
loop_
_space_group_symop_operation_xyz
x,y,z
-y,x,z
-x,-y,z
y,-x,z
1/2+x,1/2+y,1/2+z
1/2-y,1/2+x,1/2+z
1/2-x,1/2-y,1/2+z
1/2+y,1/2-x,1/2+z
loop_
_atom_site_type_symbol
_atom_site_label
_atom_site_fract_x
_atom_site_fract_y
_atom_site_fract_z
Si Si1 0.000000 0.500000 0.647020
Si Si2 0.700210 0.524553 0.480834
Si Si3 0.975447 0.799790 0.313207
Si Si4 0.725473 0.145245 0.200134
Si Si5 0.363548 0.345127 0.004411
Si Si6 0.173916 0.673916 0.897020
Si Si7 0.225473 0.354755 0.593907
Si Si8 0.345128 0.363548 0.289629
O O1 0.905497 0.409391 0.680034
O O2 0.905497 0.590609 0.614007
O O3 0.601662 0.632741 0.467872
O O4 0.814521 0.555478 0.439373
O O5 0.725138 0.541435 0.549200
O O6 0.958565 0.774863 0.244840
O O7 0.944522 0.685479 0.354667
O O8 0.101662 0.867259 0.326169
O O9 0.813784 0.186216 0.147020
O O10 0.701605 0.265898 0.239549
O O11 0.511408 0.332174 0.009113
O O12 0.328171 0.286589 0.942516
O O13 0.298395 0.265898 0.054492
O O14 0.171829 0.786590 0.851524
O O15 0.488592 0.332174 0.284928
#
# Coordination Sequence:
#
# PCOD9541824 Si02
#       8
#     4   8   8   8   8   8   8   8
#     4  12  24  40  64  94 128 164 212 260 312 378
#     4  10  21  38  60  85 117 160 205 249 306 373
#     4  10  21  38  60  85 117 160 205 249 306 373
#     4  11  23  40  61  88 124 161 202 257 312 365
#     4  10  21  38  60  85 117 160 205 249 306 373
#     4  10  20  34  58  86 114 148 196 256 308 363
#     4  11  23  40  61  88 124 161 202 257 312 365
#     4  10  21  38  60  85 117 160 205 249 306 373
#
# _framework density 22.225719999999999
#
# number of rings (size 3 to 8) (size 9 to 14) (size 15 to 20)
#    0.000    1.600    0.000    4.800    0.000    4.267 
#    0.000    2.667    0.000   12.800    0.000    0.000 
#    0.000    0.000    0.000    0.000    0.000    0.000 
#
# Total GULP energy -167617.678771 kJ/mol
# GULP energy per Si atom -5587.255959 kJ/mol
# Density = 2.217513 g / cm^3
# Si number density = 22.225720 Si / 1000 Ang^3
#
#
#
# Elastic Constant Matrix: (Units=GPa)
#
#
# Indices 1 2 3 4 5 6 
#
# 1 42.2999 25.1951 24.1092 0.0000 0.0000 0.0000
# 2 25.1951 42.2999 24.1092 0.0000 0.0000 0.0000
# 3 24.1092 24.1092 135.1610 0.0000 0.0000 0.0000
# 4 0.0000 0.0000 0.0000 29.8357 0.0000 0.0000
# 5 0.0000 0.0000 0.0000 0.0000 29.8357 0.0000
# 6 0.0000 0.0000 0.0000 0.0000 0.0000 31.5708
#
#
#
# Elastic Compliance Matrix: (Units=1/GPa)
#
#
# Indices 1 2 3 4 5 6 
#
# 1 0.037721 -0.020742 -0.003029 0.000000 0.000000 0.000000
# 2 -0.020742 0.037721 -0.003029 0.000000 0.000000 0.000000
# 3 -0.003029 -0.003029 0.008479 0.000000 0.000000 0.000000
# 4 0.000000 0.000000 0.000000 0.033517 0.000000 0.000000
# 5 0.000000 0.000000 0.000000 0.000000 0.033517 0.000000
# 6 0.000000 0.000000 0.000000 0.000000 0.000000 0.031675
#
#
# Mechanical properties :
#
#
# Convention : Reuss Voigt Hill
#
# Bulk Modulus (GPa) = 32.97781 40.73200 36.85491
# Shear Modulus (GPa) = 20.29745 28.00494 24.15119
#
# Velocity S-wave (km/s) = 3.02527 3.55353 3.29999
# Velocity P-wave (km/s) = 5.20316 5.93322 5.58014
#
# Compressibility (1/GPa) = 0.03032342
#
# Stress axis : x y z
#
# Youngs Moduli (GPa) = 26.51020 26.51020 117.93736
#
# Poissons Ratio (x) = 0.54987 0.35720
# Poissons Ratio (y) = 0.54987 0.35720
# Poissons Ratio (z) = 0.08029 0.08029
#
# Static dielectric constant tensor:
#      x y z
#    x 1.800290 0.000000 0.000000 
#    y 0.000000 1.800290 0.000000 
#    z 0.000000 0.000000 1.848730 
# 
# From -- ./inp_files/1876.got.cif
#   From: 2010.05.17/outbox.cif.g08.bks.cpg/sg79_cif.got.tgz:1876.got - 2010.06.03 18:47:27.
