data_PCOD9541183
_publ_section_title
;
Structure prediction by ZEFSAII (Michael W. Deem and Ramdas Pophale) SiO2 
 PCOD9541183
Probable space group: P 41
;
_chemical_formula_sum "Si O2"
_cell_formula_units_Z 28
_cell_length_a 14.299658
_cell_length_b 14.299658
_cell_length_c 6.508641
_cell_angle_alpha 90.000000
_cell_angle_beta 90.000000
_cell_angle_gamma 90.000000
_cell_volume 1330.888337
_symmetry_space_group_name_H-M "P 41"
_symmetry_group_IT_number 76
_symmetry_cell_setting 'tetragonal'
loop_
_space_group_symop_operation_xyz
x,y,z
-y,x,1/4+z
-x,-y,1/2+z
y,-x,3/4+z
loop_
_atom_site_type_symbol
_atom_site_label
_atom_site_fract_x
_atom_site_fract_y
_atom_site_fract_z
Si Si1 0.312118 0.017617 0.197150
Si Si2 0.121879 0.383664 0.131042
Si Si3 0.616414 0.426463 0.878655
Si Si4 0.763195 0.030890 0.092747
Si Si5 0.695702 0.310415 0.230676
Si Si6 0.202484 0.585526 0.081768
Si Si7 0.129652 0.795907 0.603449
O O1 0.350207 0.108212 0.322792
O O2 0.251934 0.957076 0.353336
O O3 0.250173 0.062124 0.019293
O O4 0.380513 0.943913 0.082599
O O5 0.152966 0.486083 0.073463
O O6 0.061324 0.332620 0.954813
O O7 0.223639 0.332774 0.129047
O O8 0.530641 0.400725 0.724565
O O9 0.716980 0.417835 0.759554
O O10 0.621251 0.355941 0.075398
O O11 0.840495 0.102046 0.171600
O O12 0.794087 0.927451 0.145648
O O13 0.740649 0.388350 0.376202
O O14 0.777422 0.265761 0.092420
#
# Coordination Sequence:
#
# PCOD9541183 Si02
#       7
#     4   4   4   4   4   4   4
#     4  10  23  41  66  92 130 169 221 276 338 407
#     4  10  23  39  65  97 131 167 227 277 330 405
#     4  12  28  42  69 100 142 187 241 284 347 420
#     4  10  21  40  63  91 129 167 214 270 336 399
#     4  10  22  44  67  93 135 180 224 278 348 412
#     4  11  24  42  67  98 137 177 228 282 347 406
#     4   9  21  40  61  95 124 167 217 271 332 415
#
# _framework density 21.038578000000001
#
# number of rings (size 3 to 8) (size 9 to 14) (size 15 to 20)
#    0.000    1.714    0.000    2.571    6.000   10.286 
#    2.571    0.000    0.000    0.000    0.000    0.000 
#    0.000    0.000    0.000    0.000    0.000    0.000 
#
# Total GULP energy -155993.677284 kJ/mol
# GULP energy per Si atom -5571.202760 kJ/mol
# Density = 2.099069 g / cm^3
# Si number density = 21.038578 Si / 1000 Ang^3
#
#
#
# Elastic Constant Matrix: (Units=GPa)
#
#
# Indices 1 2 3 4 5 6 
#
# 1 74.1549 56.1793 41.1564 0.0000 0.0000 2.9939
# 2 56.1793 74.1549 41.1564 0.0000 0.0000 -2.9939
# 3 41.1564 41.1564 19.1134 0.0000 0.0000 0.0000
# 4 0.0000 0.0000 0.0000 26.4231 0.0000 0.0000
# 5 0.0000 0.0000 0.0000 0.0000 26.4231 0.0000
# 6 2.9939 -2.9939 0.0000 0.0000 0.0000 1.5612
#
#
#
# Elastic Compliance Matrix: (Units=1/GPa)
#
#
# Indices 1 2 3 4 5 6 
#
# 1 0.066350 -0.087669 0.045905 0.000000 0.000000 -0.295365
# 2 -0.087669 0.066350 0.045905 0.000000 0.000000 0.295365
# 3 0.045905 0.045905 -0.145371 0.000000 0.000000 0.000000
# 4 0.000000 0.000000 0.000000 0.037846 0.000000 0.000000
# 5 0.000000 0.000000 0.000000 0.000000 0.037846 0.000000
# 6 -0.295365 0.295365 0.000000 0.000000 0.000000 1.773387
#
#
# Mechanical properties :
#
#
# Convention : Reuss Voigt Hill
#
# Bulk Modulus (GPa) = -227.81004 49.37860 -89.21572
# Shear Modulus (GPa) = 2.73723 12.81022 7.77373
#
# Velocity S-wave (km/s) = 1.14187 2.47025 1.92432
# Velocity P-wave (km/s) = 10.33337 5.62651 6.12866
#
# Compressibility (1/GPa) = -0.00438962
#
# Stress axis : x y z
#
# Youngs Moduli (GPa) = 15.07152 15.07152 -6.87894
#
# Poissons Ratio (x) = 1.32130 0.31578
# Poissons Ratio (y) = 1.32130 0.31578
# Poissons Ratio (z) = -0.69185 -0.69185
#
# Static dielectric constant tensor:
#      x y z
#    x 1.799280 0.000000 0.000000 
#    y 0.000000 1.799280 0.000000 
#    z 0.000000 0.000000 1.759620 
# 
# From -- ./inp_files/253.got.cif
#   From: 2010.05.17/outbox.cif.g08.bks.cpg/sg76_cif.got.tgz:253.got - 2010.06.03 18:43:17.
