data_PCOD9541617
_publ_section_title
;
Structure prediction by ZEFSAII (Michael W. Deem and Ramdas Pophale) SiO2 
 PCOD9541617
Probable space group: P 43
;
_chemical_formula_sum "Si O2"
_cell_formula_units_Z 24
_cell_length_a 12.488680
_cell_length_b 12.488680
_cell_length_c 7.269833
_cell_angle_alpha 90.000000
_cell_angle_beta 90.000000
_cell_angle_gamma 90.000000
_cell_volume 1133.854975
_symmetry_space_group_name_H-M "P 43"
_symmetry_group_IT_number 78
_symmetry_cell_setting 'tetragonal'
loop_
_space_group_symop_operation_xyz
x,y,z
-y,x,3/4+z
-x,-y,1/2+z
y,-x,1/4+z
loop_
_atom_site_type_symbol
_atom_site_label
_atom_site_fract_x
_atom_site_fract_y
_atom_site_fract_z
Si Si1 0.030896 0.123293 0.575140
Si Si2 0.587299 0.204418 0.480399
Si Si3 0.908147 0.695566 0.564271
Si Si4 0.225245 0.642019 0.829549
Si Si5 0.791913 0.877051 0.776526
Si Si6 0.015096 0.366709 0.465905
O O1 0.115984 0.084928 0.419696
O O2 0.027528 0.248146 0.548366
O O3 0.919289 0.072327 0.516778
O O4 0.474016 0.261679 0.510618
O O5 0.681912 0.285446 0.419563
O O6 0.570049 0.101967 0.340979
O O7 0.624221 0.157033 0.675106
O O8 0.841964 0.800766 0.624554
O O9 0.018562 0.728824 0.466602
O O10 0.940579 0.638321 0.756407
O O11 0.189526 0.711856 0.654522
O O12 0.114304 0.620311 0.946705
#
# Coordination Sequence:
#
# PCOD9541617 Si02
#       6
#     4   4   4   4   4   4
#     4  11  18  33  56  90 140 175 209 266 342 422
#     4  12  26  46  73  98 142 186 239 296 346 416
#     4  10  22  40  64 102 135 185 223 280 355 420
#     4  11  25  47  70 103 140 186 244 290 349 412
#     4  10  19  41  60  96 143 169 234 273 341 432
#     4  10  22  45  65  99 140 177 231 295 347 418
#
# _framework density 21.166730000000001
#
# number of rings (size 3 to 8) (size 9 to 14) (size 15 to 20)
#    0.000    1.333    8.333    0.000    7.000    2.667 
#    3.000    1.667    0.000    0.000    0.000    0.000 
#    0.000    0.000    0.000    0.000    0.000    0.000 
#
# Total GULP energy -134082.108517 kJ/mol
# GULP energy per Si atom -5586.754522 kJ/mol
# Density = 2.111855 g / cm^3
# Si number density = 21.166730 Si / 1000 Ang^3
#
#
#
# Elastic Constant Matrix: (Units=GPa)
#
#
# Indices 1 2 3 4 5 6 
#
# 1 102.8042 43.1709 32.3104 0.0000 0.0000 1.0415
# 2 43.1709 102.8042 32.3104 0.0000 0.0000 -1.0415
# 3 32.3104 32.3104 88.0032 0.0000 0.0000 0.0000
# 4 0.0000 0.0000 0.0000 10.9041 0.0000 0.0000
# 5 0.0000 0.0000 0.0000 0.0000 10.9041 0.0000
# 6 1.0415 -1.0415 0.0000 0.0000 0.0000 8.7088
#
#
#
# Elastic Compliance Matrix: (Units=1/GPa)
#
#
# Indices 1 2 3 4 5 6 
#
# 1 0.012510 -0.004330 -0.003003 0.000000 0.000000 -0.002014
# 2 -0.004330 0.012510 -0.003003 0.000000 0.000000 0.002014
# 3 -0.003003 -0.003003 0.013569 0.000000 0.000000 0.000000
# 4 0.000000 0.000000 0.000000 0.091709 0.000000 0.000000
# 5 0.000000 0.000000 0.000000 0.000000 0.091709 0.000000
# 6 -0.002014 0.002014 0.000000 0.000000 0.000000 0.115308
#
#
# Mechanical properties :
#
#
# Convention : Reuss Voigt Hill
#
# Bulk Modulus (GPa) = 55.81801 56.57724 56.19762
# Shear Modulus (GPa) = 13.73785 18.49138 16.11462
#
# Velocity S-wave (km/s) = 2.55037 2.95889 2.76219
# Velocity P-wave (km/s) = 5.92456 6.20167 6.06470
#
# Compressibility (1/GPa) = 0.01791537
#
# Stress axis : x y z
#
# Youngs Moduli (GPa) = 79.93765 79.93765 73.69988
#
# Poissons Ratio (x) = 0.34611 0.22134
# Poissons Ratio (y) = 0.34611 0.22134
# Poissons Ratio (z) = 0.24008 0.24008
#
# Static dielectric constant tensor:
#      x y z
#    x 1.790760 0.000000 0.000000 
#    y 0.000000 1.790760 0.000000 
#    z 0.000000 0.000000 1.775090 
# 
# From -- ./inp_files/597.got.cif
#   From: 2010.05.17/outbox.cif.g08.bks.cpg/sg78_cif.got.tgz:597.got - 2010.06.03 18:45:56.
