data_PCOD9541108
_publ_section_title
;
Structure prediction by ZEFSAII (Michael W. Deem and Ramdas Pophale) SiO2 
 PCOD9541108
Probable space group: P 41
;
_chemical_formula_sum "Si O2"
_cell_formula_units_Z 28
_cell_length_a 12.113111
_cell_length_b 12.113111
_cell_length_c 7.909127
_cell_angle_alpha 90.000000
_cell_angle_beta 90.000000
_cell_angle_gamma 90.000000
_cell_volume 1160.486100
_symmetry_space_group_name_H-M "P 41"
_symmetry_group_IT_number 76
_symmetry_cell_setting 'tetragonal'
loop_
_space_group_symop_operation_xyz
x,y,z
-y,x,1/4+z
-x,-y,1/2+z
y,-x,3/4+z
loop_
_atom_site_type_symbol
_atom_site_label
_atom_site_fract_x
_atom_site_fract_y
_atom_site_fract_z
Si Si1 0.090670 0.286833 0.810370
Si Si2 0.601173 0.432558 0.347492
Si Si3 0.850863 0.287464 0.942470
Si Si4 0.473787 0.154668 0.164531
Si Si5 0.231725 0.815953 0.091326
Si Si6 0.489728 0.775237 0.040952
Si Si7 0.028304 0.718683 0.941859
O O1 0.193232 0.200605 0.815411
O O2 0.984451 0.281048 0.935834
O O3 0.031820 0.284922 0.625309
O O4 0.145791 0.405120 0.840976
O O5 0.583054 0.555579 0.412578
O O6 0.730919 0.417658 0.359557
O O7 0.528422 0.350889 0.468743
O O8 0.806264 0.241448 0.763357
O O9 0.805696 0.415647 0.929440
O O10 0.478933 0.160047 0.368692
O O11 0.402586 0.048433 0.117296
O O12 0.363266 0.802876 0.085281
O O13 0.150127 0.764967 0.957016
O O14 0.208910 0.945582 0.086342
#
# Coordination Sequence:
#
# PCOD9541108 Si02
#       7
#     4   4   4   4   4   4   4
#     4  10  22  40  66  92 130 171 223 272 330 392
#     4  10  22  37  59  88 138 171 202 259 324 392
#     4  10  21  41  67  96 125 173 222 272 325 394
#     4  11  21  39  58  98 131 161 212 274 318 392
#     4  10  19  37  64  88 119 170 212 260 327 386
#     4  11  19  38  62  94 131 165 210 263 334 395
#     4  10  20  38  64  90 122 169 219 266 326 391
#
# _framework density 24.127821999999998
#
# number of rings (size 3 to 8) (size 9 to 14) (size 15 to 20)
#    0.000    1.714    4.286    1.714    2.000    0.000 
#    0.000    4.286   25.143    0.000    0.000    0.000 
#    0.000    0.000    0.000    0.000    0.000    0.000 
#
# Total GULP energy -156194.786542 kJ/mol
# GULP energy per Si atom -5578.385234 kJ/mol
# Density = 2.407291 g / cm^3
# Si number density = 24.127822 Si / 1000 Ang^3
#
#
#
# Elastic Constant Matrix: (Units=GPa)
#
#
# Indices 1 2 3 4 5 6 
#
# 1 -222.9272 425.7005 12.8170 0.0000 0.0000 -64.5238
# 2 425.7005 -222.9272 12.8170 0.0000 0.0000 64.5238
# 3 12.8170 12.8170 38.9058 0.0000 0.0000 0.0000
# 4 0.0000 0.0000 0.0000 16.7938 0.0000 0.0000
# 5 0.0000 0.0000 0.0000 0.0000 16.7938 0.0000
# 6 -64.5238 64.5238 0.0000 0.0000 0.0000 15.5062
#
#
#
# Elastic Compliance Matrix: (Units=1/GPa)
#
#
# Indices 1 2 3 4 5 6 
#
# 1 0.002151 0.002995 -0.001695 0.000000 0.000000 -0.003510
# 2 0.002995 0.002151 -0.001695 0.000000 0.000000 0.003510
# 3 -0.001695 -0.001695 0.026820 0.000000 0.000000 0.000000
# 4 0.000000 0.000000 0.000000 0.059546 0.000000 0.000000
# 5 0.000000 0.000000 0.000000 0.000000 0.059546 0.000000
# 6 -0.003510 0.003510 0.000000 0.000000 0.000000 0.035281
#
#
# Mechanical properties :
#
#
# Convention : Reuss Voigt Hill
#
# Bulk Modulus (GPa) = 32.96966 55.08002 44.02484
# Shear Modulus (GPa) = 25.45859 -47.40010 -10.97075
#
# Velocity S-wave (km/s) = 3.25184 -4.43712 -2.13467
# Velocity P-wave (km/s) = 5.27196 1.83651 3.49434
#
# Compressibility (1/GPa) = 0.03033092
#
# Stress axis : x y z
#
# Youngs Moduli (GPa) = 464.84800 464.84800 37.28549
#
# Poissons Ratio (x) = -1.39207 0.06321
# Poissons Ratio (y) = -1.39207 0.06321
# Poissons Ratio (z) = 0.78804 0.78804
#
# Static dielectric constant tensor:
#      x y z
#    x 1.958270 0.000000 0.000000 
#    y 0.000000 1.958270 0.000000 
#    z 0.000000 0.000000 1.973860 
# 
# From -- ./inp_files/880.got.cif
#   From: 2010.05.17/outbox.cif.g08.bks.cpg/sg76_cif.got.tgz:880.got - 2010.06.03 18:43:17.
