data_PCOD9541412
_publ_section_title
;
Structure prediction by ZEFSAII (Michael W. Deem and Ramdas Pophale) SiO2 
 PCOD9541412
Probable space group: P 41
;
_chemical_formula_sum "Si O2"
_cell_formula_units_Z 24
_cell_length_a 8.172855
_cell_length_b 8.172855
_cell_length_c 13.577467
_cell_angle_alpha 90.000000
_cell_angle_beta 90.000000
_cell_angle_gamma 90.000000
_cell_volume 906.914496
_symmetry_space_group_name_H-M "P 41"
_symmetry_group_IT_number 76
_symmetry_cell_setting 'tetragonal'
loop_
_space_group_symop_operation_xyz
x,y,z
-y,x,1/4+z
-x,-y,1/2+z
y,-x,3/4+z
loop_
_atom_site_type_symbol
_atom_site_label
_atom_site_fract_x
_atom_site_fract_y
_atom_site_fract_z
Si Si1 0.823248 0.029491 0.555090
Si Si2 0.660176 0.462407 0.394599
Si Si3 0.504248 0.775109 0.037931
Si Si4 0.786111 0.442659 0.025313
Si Si5 0.682869 0.136822 0.261239
Si Si6 0.204585 0.866292 0.265963
O O1 0.846299 0.873205 0.486946
O O2 0.664064 0.127649 0.517323
O O3 0.772126 0.021801 0.669347
O O4 0.006915 0.097109 0.574558
O O5 0.394286 0.460075 0.231238
O O6 0.615544 0.628300 0.335362
O O7 0.671486 0.300289 0.328903
O O8 0.829480 0.529280 0.440362
O O9 0.532711 0.761847 0.156263
O O10 0.676685 0.847879 0.997030
O O11 0.948696 0.336533 0.041564
O O12 0.834526 0.621280 0.065308
#
# Coordination Sequence:
#
# PCOD9541412 Si02
#       6
#     4   4   4   4   4   4
#     4  11  27  50  78 118 165 225 280 357 431 513
#     4  12  29  50  90 122 169 231 285 360 440 528
#     4  11  27  55  83 120 175 223 292 360 440 523
#     4  11  29  52  82 130 161 222 297 354 432 533
#     4  12  29  52  84 124 173 222 294 358 436 523
#     4  11  27  47  79 116 163 217 284 349 431 516
#
# _framework density 26.463356000000001
#
# number of rings (size 3 to 8) (size 9 to 14) (size 15 to 20)
#    0.000    0.667    0.000    5.000   23.333    1.333 
#    0.000    0.000    0.000    0.000    0.000    0.000 
#    0.000    0.000    0.000    0.000    0.000    0.000 
#
# Total GULP energy -133740.508504 kJ/mol
# GULP energy per Si atom -5572.521188 kJ/mol
# Density = 2.640312 g / cm^3
# Si number density = 26.463356 Si / 1000 Ang^3
#
#
#
# Elastic Constant Matrix: (Units=GPa)
#
#
# Indices 1 2 3 4 5 6 
#
# 1 152.3803 144.3797 72.1065 0.0000 0.0000 -18.7381
# 2 144.3797 152.3803 72.1065 0.0000 0.0000 18.7381
# 3 72.1065 72.1065 76.5529 0.0000 0.0000 0.0000
# 4 0.0000 0.0000 0.0000 22.9022 0.0000 0.0000
# 5 0.0000 0.0000 0.0000 0.0000 22.9022 0.0000
# 6 -18.7381 18.7381 0.0000 0.0000 0.0000 31.6945
#
#
#
# Elastic Compliance Matrix: (Units=1/GPa)
#
#
# Indices 1 2 3 4 5 6 
#
# 1 -0.032215 0.038429 -0.005853 0.000000 0.000000 -0.041765
# 2 0.038429 -0.032215 -0.005853 0.000000 0.000000 0.041765
# 3 -0.005853 -0.005853 0.024089 0.000000 0.000000 0.000000
# 4 0.000000 0.000000 0.000000 0.043664 0.000000 0.000000
# 5 0.000000 0.000000 0.000000 0.000000 0.043664 0.000000
# 6 -0.041765 0.041765 0.000000 0.000000 0.000000 -0.017832
#
#
# Mechanical properties :
#
#
# Convention : Reuss Voigt Hill
#
# Bulk Modulus (GPa) = 76.30793 106.49988 91.40390
# Shear Modulus (GPa) = -250.99889 21.68115 -114.65887
#
# Velocity S-wave (km/s) = -9.74954 2.86543 -6.58950
# Velocity P-wave (km/s) = 9.89142 7.16095 4.82499
#
# Compressibility (1/GPa) = 0.01310480
#
# Stress axis : x y z
#
# Youngs Moduli (GPa) = -31.04187 -31.04187 41.51213
#
# Poissons Ratio (x) = 1.19290 0.24298
# Poissons Ratio (y) = 1.19290 0.24298
# Poissons Ratio (z) = -0.18169 -0.18169
#
# Static dielectric constant tensor:
#      x y z
#    x 2.213100 0.000000 0.000000 
#    y 0.000000 2.213100 0.000000 
#    z 0.000000 0.000000 2.256570 
# 
# From -- ./inp_files/1076.got.cif
#   From: 2010.05.17/outbox.cif.g08.bks.cpg/sg76_cif.got.tgz:1076.got - 2010.06.03 18:43:17.
