data_PCOD9541000
_publ_section_title
;
Structure prediction by ZEFSAII (Michael W. Deem and Ramdas Pophale) SiO2 
 PCOD9541000
Probable space group: P 4
;
_chemical_formula_sum "Si O2"
_cell_formula_units_Z 14
_cell_length_a 9.585168
_cell_length_b 9.585168
_cell_length_c 8.161365
_cell_angle_alpha 90.000000
_cell_angle_beta 90.000000
_cell_angle_gamma 90.000000
_cell_volume 749.829046
_symmetry_space_group_name_H-M "P 4"
_symmetry_group_IT_number 75
_symmetry_cell_setting 'tetragonal'
loop_
_space_group_symop_operation_xyz
x,y,z
-y,x,z
-x,-y,z
y,-x,z
loop_
_atom_site_type_symbol
_atom_site_label
_atom_site_fract_x
_atom_site_fract_y
_atom_site_fract_z
Si Si1 0.851894 0.374088 0.479990
Si Si2 0.500000 0.000000 0.185500
Si Si3 0.865844 0.669442 0.614791
Si Si4 0.942724 0.772766 0.978295
O O1 0.874976 0.443782 0.303344
O O2 0.848162 0.502480 0.608203
O O3 0.732333 0.268247 0.525776
O O4 0.998149 0.295591 0.507831
O O5 0.630591 0.058532 0.082963
O O6 0.902970 0.727249 0.793065
O O7 0.097656 0.837343 0.007102
#
# Coordination Sequence:
#
# PCOD9541000 Si02
#       4
#     4   2   4   4
#     4  10  23  38  66  87 127 169 213 271 310 396
#     4  10  24  40  60  96 134 168 206 274 336 374
#     4  10  20  41  60  94 119 167 214 259 323 379
#     4  11  23  39  66  96 127 166 214 276 329 384
#
# _framework density 18.670922000000001
#
# number of rings (size 3 to 8) (size 9 to 14) (size 15 to 20)
#    0.000    2.000    2.857    1.714    8.000    1.143 
#    0.000    0.000    0.000    0.857    0.000    0.000 
#    0.000    0.000    0.000    0.000    0.000    0.000 
#
# Total GULP energy -77934.360829 kJ/mol
# GULP energy per Si atom -5566.740059 kJ/mol
# Density = 1.862843 g / cm^3
# Si number density = 18.670922 Si / 1000 Ang^3
#
#
#
# Elastic Constant Matrix: (Units=GPa)
#
#
# Indices 1 2 3 4 5 6 
#
# 1 109.1785 54.0144 48.9134 0.0000 0.0000 -2.6941
# 2 54.0144 109.1785 48.9134 0.0000 0.0000 2.6941
# 3 48.9134 48.9134 99.2387 0.0000 0.0000 0.0000
# 4 0.0000 0.0000 0.0000 25.2039 0.0000 0.0000
# 5 0.0000 0.0000 0.0000 0.0000 25.2039 0.0000
# 6 -2.6941 2.6941 0.0000 0.0000 0.0000 26.9741
#
#
#
# Elastic Compliance Matrix: (Units=1/GPa)
#
#
# Indices 1 2 3 4 5 6 
#
# 1 0.013502 -0.004804 -0.004287 0.000000 0.000000 0.001828
# 2 -0.004804 0.013502 -0.004287 0.000000 0.000000 -0.001828
# 3 -0.004287 -0.004287 0.014303 0.000000 0.000000 0.000000
# 4 0.000000 0.000000 0.000000 0.039676 0.000000 0.000000
# 5 0.000000 0.000000 0.000000 0.000000 0.039676 0.000000
# 6 0.001828 -0.001828 0.000000 0.000000 0.000000 0.037438
#
#
# Mechanical properties :
#
#
# Convention : Reuss Voigt Hill
#
# Bulk Modulus (GPa) = 68.72808 69.03089 68.87949
# Shear Modulus (GPa) = 26.35694 26.52669 26.44181
#
# Velocity S-wave (km/s) = 3.76128 3.77337 3.76733
# Velocity P-wave (km/s) = 7.46680 7.48579 7.47630
#
# Compressibility (1/GPa) = 0.01455009
#
# Stress axis : x y z
#
# Youngs Moduli (GPa) = 74.06353 74.06353 69.91738
#
# Poissons Ratio (x) = 0.35583 0.29973
# Poissons Ratio (y) = 0.35583 0.29973
# Poissons Ratio (z) = 0.31750 0.31750
#
# Static dielectric constant tensor:
#      x y z
#    x 1.668100 0.000000 0.000000 
#    y 0.000000 1.668100 0.000000 
#    z 0.000000 0.000000 1.686480 
# 
# From -- ./inp_files/248.got.cif
#   From: 2010.05.17/outbox.cif.g08.bks.cpg/sg75_cif.got.tgz:248.got - 2010.06.03 18:42:43.
