data_PCOD9541555
_publ_section_title
;
Structure prediction by ZEFSAII (Michael W. Deem and Ramdas Pophale) SiO2 
 PCOD9541555
Probable space group: P 42
;
_chemical_formula_sum "Si O2"
_cell_formula_units_Z 26
_cell_length_a 14.986084
_cell_length_b 14.986084
_cell_length_c 6.438721
_cell_angle_alpha 90.000000
_cell_angle_beta 90.000000
_cell_angle_gamma 90.000000
_cell_volume 1446.025435
_symmetry_space_group_name_H-M "P 42"
_symmetry_group_IT_number 77
_symmetry_cell_setting 'tetragonal'
loop_
_space_group_symop_operation_xyz
x,y,z
-y,x,1/2+z
-x,-y,z
y,-x,1/2+z
loop_
_atom_site_type_symbol
_atom_site_label
_atom_site_fract_x
_atom_site_fract_y
_atom_site_fract_z
Si Si1 0.874888 0.486550 0.391640
Si Si2 0.956086 0.344648 0.696548
Si Si3 0.302849 0.371765 0.942367
Si Si4 0.328252 0.850650 0.121212
Si Si5 0.764836 0.289324 0.822744
Si Si6 0.563888 0.708976 0.651077
Si Si7 0.500000 0.000000 0.519129
O O1 0.930470 0.407663 0.500053
O O2 0.866720 0.571955 0.535822
O O3 0.778063 0.451678 0.336968
O O4 0.918255 0.516034 0.174755
O O5 0.867967 0.288222 0.751630
O O6 0.049179 0.293398 0.662255
O O7 0.976758 0.415261 0.879680
O O8 0.212151 0.344199 0.820752
O O9 0.379669 0.367754 0.765194
O O10 0.307645 0.300299 0.128956
O O11 0.307621 0.469016 0.045746
O O12 0.270316 0.796281 0.952256
O O13 0.753043 0.372093 0.980030
#
# Coordination Sequence:
#
# PCOD9541555 Si02
#       7
#     4   4   4   4   4   4   2
#     4  12  20  35  63  92 120 154 197 257 318 369
#     4  12  22  36  60  95 124 154 205 252 317 380
#     4  11  24  40  62  84 121 171 206 258 292 362
#     4  11  23  38  59  92 124 159 202 252 322 370
#     4  11  24  40  60  89 124 164 200 254 313 367
#     4  11  23  39  60  83 125 162 214 249 302 358
#     4  12  20  32  62  96 118 154 188 262 324 366
#
# _framework density 17.980322000000001
#
# number of rings (size 3 to 8) (size 9 to 14) (size 15 to 20)
#    0.000    0.615    7.692    1.846    0.000    0.000 
#    0.000    2.308    0.000    0.000    0.000    3.231 
#    0.000    0.000    0.000    0.000    0.000    0.000 
#
# Total GULP energy -145114.722803 kJ/mol
# GULP energy per Si atom -5581.335492 kJ/mol
# Density = 1.793940 g / cm^3
# Si number density = 17.980322 Si / 1000 Ang^3
#
#
#
# Elastic Constant Matrix: (Units=GPa)
#
#
# Indices 1 2 3 4 5 6 
#
# 1 107.4822 36.8713 29.4745 0.0000 0.0000 2.4026
# 2 36.8713 107.4822 29.4745 0.0000 0.0000 -2.4026
# 3 29.4745 29.4745 67.9479 0.0000 0.0000 0.0000
# 4 0.0000 0.0000 0.0000 26.7421 0.0000 0.0000
# 5 0.0000 0.0000 0.0000 0.0000 26.7421 0.0000
# 6 2.4026 -2.4026 0.0000 0.0000 0.0000 8.6810
#
#
#
# Elastic Compliance Matrix: (Units=1/GPa)
#
#
# Indices 1 2 3 4 5 6 
#
# 1 0.011426 -0.003008 -0.003652 0.000000 0.000000 -0.003995
# 2 -0.003008 0.011426 -0.003652 0.000000 0.000000 0.003995
# 3 -0.003652 -0.003652 0.017885 0.000000 0.000000 0.000000
# 4 0.000000 0.000000 0.000000 0.037394 0.000000 0.000000
# 5 0.000000 0.000000 0.000000 0.000000 0.037394 0.000000
# 6 -0.003995 0.003995 0.000000 0.000000 0.000000 0.117405
#
#
# Mechanical properties :
#
#
# Convention : Reuss Voigt Hill
#
# Bulk Modulus (GPa) = 49.71331 52.72807 51.22069
# Shear Modulus (GPa) = 19.21160 24.90586 22.05873
#
# Velocity S-wave (km/s) = 3.27231 3.72583 3.50641
# Velocity P-wave (km/s) = 6.47967 6.92085 6.70389
#
# Compressibility (1/GPa) = 0.02011534
#
# Stress axis : x y z
#
# Youngs Moduli (GPa) = 87.51698 87.51698 55.91159
#
# Poissons Ratio (x) = 0.26322 0.20418
# Poissons Ratio (y) = 0.26322 0.20418
# Poissons Ratio (z) = 0.31960 0.31960
#
# Static dielectric constant tensor:
#      x y z
#    x 1.643290 0.000000 0.000000 
#    y 0.000000 1.643290 0.000000 
#    z 0.000000 0.000000 1.624420 
# 
# From -- ./inp_files/141.got.cif
#   From: 2010.05.17/outbox.cif.g08.bks.cpg/sg77_cif.got.tgz:141.got - 2010.06.03 18:44:51.
