data_PCOD9541383
_publ_section_title
;
Structure prediction by ZEFSAII (Michael W. Deem and Ramdas Pophale) SiO2 
 PCOD9541383
Probable space group: P 41
;
_chemical_formula_sum "Si O2"
_cell_formula_units_Z 24
_cell_length_a 5.462504
_cell_length_b 5.462504
_cell_length_c 29.241856
_cell_angle_alpha 90.000000
_cell_angle_beta 90.000000
_cell_angle_gamma 90.000000
_cell_volume 872.546278
_symmetry_space_group_name_H-M "P 41"
_symmetry_group_IT_number 76
_symmetry_cell_setting 'tetragonal'
loop_
_space_group_symop_operation_xyz
x,y,z
-y,x,1/4+z
-x,-y,1/2+z
y,-x,3/4+z
loop_
_atom_site_type_symbol
_atom_site_label
_atom_site_fract_x
_atom_site_fract_y
_atom_site_fract_z
Si Si1 0.137689 0.912441 0.445530
Si Si2 0.333834 0.370241 0.143265
Si Si3 0.876801 0.830348 0.361678
Si Si4 0.129759 0.166166 0.029436
Si Si5 0.376801 0.669652 0.061023
Si Si6 0.587559 0.362311 0.727171
O O1 0.197702 0.190818 0.458137
O O2 0.119472 0.875793 0.391408
O O3 0.302298 0.690818 0.464563
O O4 0.895572 0.856768 0.475306
O O5 0.061804 0.281733 0.130605
O O6 0.380581 0.621589 0.114902
O O7 0.356768 0.395572 0.197395
O O8 0.560868 0.211372 0.124741
O O9 0.880581 0.878412 0.307799
O O10 0.218267 0.438196 0.042096
O O11 0.288629 0.939132 0.047960
O O12 0.619472 0.624206 0.031293
#
# Coordination Sequence:
#
# PCOD9541383 Si02
#       6
#     4   4   4   4   4   4
#     4  12  24  40  66 100 138 184 236 292 354 420
#     4  11  24  44  68  98 138 185 235 290 353 420
#     4  11  24  44  68  98 138 185 235 290 353 420
#     4  11  24  44  68  98 138 185 235 290 353 420
#     4  11  24  44  68  98 138 185 235 290 353 420
#     4  12  24  40  66 100 138 184 236 292 354 420
#
# _framework density 27.505700000000001
#
# number of rings (size 3 to 8) (size 9 to 14) (size 15 to 20)
#    0.000    0.667    0.000    8.000    0.000    6.667 
#    0.000    0.000    0.000    0.000    0.000    0.000 
#    0.000    0.000    0.000    0.000    0.000    0.000 
#
# Total GULP energy -134264.129851 kJ/mol
# GULP energy per Si atom -5594.338744 kJ/mol
# Density = 2.744310 g / cm^3
# Si number density = 27.505700 Si / 1000 Ang^3
#
#
#
# Elastic Constant Matrix: (Units=GPa)
#
#
# Indices 1 2 3 4 5 6 
#
# 1 87.2549 62.1810 29.0855 0.0000 0.0000 0.0000
# 2 62.1810 87.2549 29.0855 0.0000 0.0000 0.0000
# 3 29.0855 29.0855 90.4805 0.0000 0.0000 0.0000
# 4 0.0000 0.0000 0.0000 46.5742 0.0000 0.0000
# 5 0.0000 0.0000 0.0000 0.0000 46.5742 0.0000
# 6 0.0000 0.0000 0.0000 0.0000 0.0000 67.7924
#
#
#
# Elastic Compliance Matrix: (Units=1/GPa)
#
#
# Indices 1 2 3 4 5 6 
#
# 1 0.023766 -0.016117 -0.002459 0.000000 0.000000 0.000000
# 2 -0.016117 0.023766 -0.002459 0.000000 0.000000 0.000000
# 3 -0.002459 -0.002459 0.012633 0.000000 0.000000 0.000000
# 4 0.000000 0.000000 0.000000 0.021471 0.000000 0.000000
# 5 0.000000 0.000000 0.000000 0.000000 0.021471 0.000000
# 6 0.000000 0.000000 0.000000 0.000000 0.000000 0.014751
#
#
# Mechanical properties :
#
#
# Convention : Reuss Voigt Hill
#
# Bulk Modulus (GPa) = 55.26196 56.18821 55.72509
# Shear Modulus (GPa) = 30.12821 41.83071 35.97946
#
# Velocity S-wave (km/s) = 3.31319 3.90398 3.62065
# Velocity P-wave (km/s) = 5.89669 6.38698 6.14673
#
# Compressibility (1/GPa) = 0.01809563
#
# Stress axis : x y z
#
# Youngs Moduli (GPa) = 42.07772 42.07772 79.15835
#
# Poissons Ratio (x) = 0.67815 0.19464
# Poissons Ratio (y) = 0.67815 0.19464
# Poissons Ratio (z) = 0.10346 0.10346
#
# Static dielectric constant tensor:
#      x y z
#    x 2.205810 0.000000 0.000000 
#    y 0.000000 2.205810 0.000000 
#    z 0.000000 0.000000 2.135500 
# 
# From -- ./inp_files/1703.got.cif
#   From: 2010.05.17/outbox.cif.g08.bks.cpg/sg76_cif.got.tgz:1703.got - 2010.06.03 18:43:17.
