data_PCOD9541908
_publ_section_title
;
Structure prediction by ZEFSAII (Michael W. Deem and Ramdas Pophale) SiO2 
 PCOD9541908
Probable space group: I 4
;
_chemical_formula_sum "Si O2"
_cell_formula_units_Z 48
_cell_length_a 8.050312
_cell_length_b 8.050312
_cell_length_c 33.593673
_cell_angle_alpha 90.000000
_cell_angle_beta 90.000000
_cell_angle_gamma 90.000000
_cell_volume 2177.122746
_symmetry_space_group_name_H-M "I 4"
_symmetry_group_IT_number 79
_symmetry_cell_setting 'tetragonal'
loop_
_space_group_symop_operation_xyz
x,y,z
-y,x,z
-x,-y,z
y,-x,z
1/2+x,1/2+y,1/2+z
1/2-y,1/2+x,1/2+z
1/2-x,1/2-y,1/2+z
1/2+y,1/2-x,1/2+z
loop_
_atom_site_type_symbol
_atom_site_label
_atom_site_fract_x
_atom_site_fract_y
_atom_site_fract_z
Si Si1 0.610876 0.251308 0.576500
Si Si2 0.109790 0.248433 0.827429
Si Si3 0.500000 0.000000 0.270669
Si Si4 0.267562 0.917143 0.203541
Si Si5 0.824813 0.779144 0.495375
Si Si6 0.825744 0.221623 0.408472
Si Si7 0.500000 0.000000 0.633054
O O1 0.709187 0.418724 0.585042
O O2 0.655512 0.224721 0.530374
O O3 0.633563 0.093017 0.604613
O O4 0.154293 0.276474 0.873521
O O5 0.917590 0.210175 0.819076
O O6 0.132500 0.405513 0.799002
O O7 0.607628 0.111175 0.240164
O O8 0.371779 0.909862 0.162945
O O9 0.107206 0.800293 0.205105
O O10 0.745657 0.746525 0.451902
O O11 0.025698 0.778006 0.498692
O O12 0.026642 0.221791 0.404981
#
# Coordination Sequence:
#
# PCOD9541908 Si02
#       7
#     8   8   4   8   8   8   4
#     4  11  23  38  59  88 122 163 213 269 325 388
#     4  11  23  37  56  86 124 164 211 270 328 387
#     4  11  22  40  64  91 126 168 214 267 334 403
#     4  10  22  41  66  94 124 163 210 265 332 408
#     4   9  19  37  60  87 121 162 208 262 328 398
#     4   9  19  37  60  85 118 164 214 262 322 397
#     4  11  22  38  62  89 124 162 206 265 332 399
#
# _framework density 22.047450000000001
#
# number of rings (size 3 to 8) (size 9 to 14) (size 15 to 20)
#    0.000    1.833    0.000    5.000    0.000    2.667 
#    0.000    6.667    0.000   18.500    0.000    0.000 
#    0.000    0.000    0.000    0.000    0.000    0.000 
#
# Total GULP energy -133773.105697 kJ/mol
# GULP energy per Si atom -5573.879404 kJ/mol
# Density = 2.199727 g / cm^3
# Si number density = 22.047450 Si / 1000 Ang^3
#
#
#
# Elastic Constant Matrix: (Units=GPa)
#
#
# Indices 1 2 3 4 5 6 
#
# 1 64.9464 10.3072 49.1547 0.0000 0.0000 13.8253
# 2 10.3072 64.9464 49.1547 0.0000 0.0000 -13.8253
# 3 49.1547 49.1547 195.8684 0.0000 0.0000 0.0000
# 4 0.0000 0.0000 0.0000 31.2034 0.0000 0.0000
# 5 0.0000 0.0000 0.0000 0.0000 31.2034 0.0000
# 6 13.8253 -13.8253 0.0000 0.0000 0.0000 -588.1936
#
#
#
# Elastic Compliance Matrix: (Units=1/GPa)
#
#
# Indices 1 2 3 4 5 6 
#
# 1 0.018928 0.000842 -0.004961 0.000000 0.000000 0.000425
# 2 0.000842 0.018928 -0.004961 0.000000 0.000000 -0.000425
# 3 -0.004961 -0.004961 0.007596 0.000000 0.000000 0.000000
# 4 0.000000 0.000000 0.000000 0.032048 0.000000 0.000000
# 5 0.000000 0.000000 0.000000 0.000000 0.032048 0.000000
# 6 0.000425 -0.000425 0.000000 0.000000 0.000000 -0.001680
#
#
# Mechanical properties :
#
#
# Convention : Reuss Voigt Hill
#
# Bulk Modulus (GPa) = 36.64378 60.33274 48.48826
# Shear Modulus (GPa) = 37.00230 -90.68105 -26.83938
#
# Velocity S-wave (km/s) = 4.10115 -6.42022 -3.49283
# Velocity P-wave (km/s) = 6.25160 5.24734 2.40290
#
# Compressibility (1/GPa) = 0.02728976
#
# Stress axis : x y z
#
# Youngs Moduli (GPa) = 52.83096 52.83097 131.65387
#
# Poissons Ratio (x) = -0.04446 0.65319
# Poissons Ratio (y) = -0.04446 0.65319
# Poissons Ratio (z) = 0.26212 0.26212
#
# Static dielectric constant tensor:
#      x y z
#    x 1.851570 0.000000 0.000000 
#    y 0.000000 1.851570 0.000000 
#    z 0.000000 0.000000 1.843720 
# 
# From -- ./inp_files/2159.got.cif
#   From: 2010.05.17/outbox.cif.g08.bks.cpg/sg79_cif.got.tgz:2159.got - 2010.06.03 18:47:27.
