data_PCOD9541192
_publ_section_title
;
Structure prediction by ZEFSAII (Michael W. Deem and Ramdas Pophale) SiO2 
 PCOD9541192
Probable space group: P 41
;
_chemical_formula_sum "Si O2"
_cell_formula_units_Z 24
_cell_length_a 11.904146
_cell_length_b 11.904146
_cell_length_c 7.270756
_cell_angle_alpha 90.000000
_cell_angle_beta 90.000000
_cell_angle_gamma 90.000000
_cell_volume 1030.329323
_symmetry_space_group_name_H-M "P 41"
_symmetry_group_IT_number 76
_symmetry_cell_setting 'tetragonal'
loop_
_space_group_symop_operation_xyz
x,y,z
-y,x,1/4+z
-x,-y,1/2+z
y,-x,3/4+z
loop_
_atom_site_type_symbol
_atom_site_label
_atom_site_fract_x
_atom_site_fract_y
_atom_site_fract_z
Si Si1 0.085027 0.415433 0.952670
Si Si2 0.759807 0.147996 0.901317
Si Si3 0.353969 0.177674 0.200440
Si Si4 0.139384 0.033971 0.137667
Si Si5 0.231579 0.388279 0.309978
Si Si6 0.613719 0.842690 0.125298
O O1 0.100671 0.309094 0.821542
O O2 0.953299 0.438975 0.963018
O O3 0.148764 0.524559 0.871463
O O4 0.137517 0.392982 0.151493
O O5 0.838775 0.056477 0.802836
O O6 0.676726 0.184946 0.736043
O O7 0.814329 0.266357 0.959542
O O8 0.328120 0.309903 0.222654
O O9 0.360167 0.133122 0.410894
O O10 0.249336 0.110756 0.117834
O O11 0.109717 0.963756 0.957061
O O12 0.252587 0.517268 0.367453
#
# Coordination Sequence:
#
# PCOD9541192 Si02
#       6
#     4   4   4   4   4   4
#     4  11  23  40  71  99 122 182 235 266 336 424
#     4  11  22  45  63  97 139 169 225 284 335 397
#     4  10  22  43  65  93 139 171 225 288 333 400
#     4  12  23  41  61  95 143 183 212 284 352 408
#     4  10  23  42  65  97 130 172 219 282 332 392
#     4  10  21  41  69  93 133 179 216 280 338 399
#
# _framework density 23.293523
#
# number of rings (size 3 to 8) (size 9 to 14) (size 15 to 20)
#    0.000    1.333    5.000    1.000    2.333    4.000 
#    3.000    0.000   33.000    0.000    0.000    0.000 
#    0.000    0.000    0.000    0.000    0.000    0.000 
#
# Total GULP energy -134275.478519 kJ/mol
# GULP energy per Si atom -5594.811605 kJ/mol
# Density = 2.324051 g / cm^3
# Si number density = 23.293523 Si / 1000 Ang^3
#
#
#
# Elastic Constant Matrix: (Units=GPa)
#
#
# Indices 1 2 3 4 5 6 
#
# 1 85.2887 25.0146 2.8852 0.0000 0.0000 2.8852
# 2 25.0146 85.2887 2.8852 0.0000 0.0000 -2.8852
# 3 2.8852 2.8852 70.7409 0.0000 0.0000 0.0000
# 4 0.0000 0.0000 0.0000 18.4503 0.0000 0.0000
# 5 0.0000 0.0000 0.0000 0.0000 18.4503 0.0000
# 6 2.8852 -2.8852 0.0000 0.0000 0.0000 39.1320
#
#
#
# Elastic Compliance Matrix: (Units=1/GPa)
#
#
# Indices 1 2 3 4 5 6 
#
# 1 0.012897 -0.003812 -0.000371 0.000000 0.000000 -0.001232
# 2 -0.003812 0.012897 -0.000371 0.000000 0.000000 0.001232
# 3 -0.000371 -0.000371 0.014166 0.000000 0.000000 0.000000
# 4 0.000000 0.000000 0.000000 0.054200 0.000000 0.000000
# 5 0.000000 0.000000 0.000000 0.000000 0.054200 0.000000
# 6 -0.001232 0.001232 0.000000 0.000000 0.000000 0.025736
#
#
# Mechanical properties :
#
#
# Convention : Reuss Voigt Hill
#
# Bulk Modulus (GPa) = 32.40994 33.65424 33.03209
# Shear Modulus (GPa) = 25.84158 29.24206 27.54182
#
# Velocity S-wave (km/s) = 3.33436 3.54697 3.44231
# Velocity P-wave (km/s) = 5.36357 5.59052 5.47822
#
# Compressibility (1/GPa) = 0.03085473
#
# Stress axis : x y z
#
# Youngs Moduli (GPa) = 77.53705 77.53705 70.58997
#
# Poissons Ratio (x) = 0.29555 0.02616
# Poissons Ratio (y) = 0.29555 0.02616
# Poissons Ratio (z) = 0.02873 0.02873
#
# Static dielectric constant tensor:
#      x y z
#    x 1.917900 0.000000 0.000000 
#    y 0.000000 1.917900 0.000000 
#    z 0.000000 0.000000 1.873430 
# 
# From -- ./inp_files/556.got.cif
#   From: 2010.05.17/outbox.cif.g08.bks.cpg/sg76_cif.got.tgz:556.got - 2010.06.03 18:43:17.
