data_PCOD9541641
_publ_section_title
;
Structure prediction by ZEFSAII (Michael W. Deem and Ramdas Pophale) SiO2 
 PCOD9541641
Probable space group: P 43
;
_chemical_formula_sum "Si O2"
_cell_formula_units_Z 20
_cell_length_a 9.098408
_cell_length_b 9.098408
_cell_length_c 8.952351
_cell_angle_alpha 90.000000
_cell_angle_beta 90.000000
_cell_angle_gamma 90.000000
_cell_volume 741.084820
_symmetry_space_group_name_H-M "P 43"
_symmetry_group_IT_number 78
_symmetry_cell_setting 'tetragonal'
loop_
_space_group_symop_operation_xyz
x,y,z
-y,x,3/4+z
-x,-y,1/2+z
y,-x,1/4+z
loop_
_atom_site_type_symbol
_atom_site_label
_atom_site_fract_x
_atom_site_fract_y
_atom_site_fract_z
Si Si1 0.855000 0.012888 0.187250
Si Si2 0.325752 0.710585 0.386145
Si Si3 0.407698 0.594437 0.934246
Si Si4 0.135687 0.276698 0.847252
Si Si5 0.528504 0.099878 0.143958
O O1 0.918076 0.871596 0.274465
O O2 0.960458 0.136052 0.263284
O O3 0.681576 0.048566 0.220831
O O4 0.449291 0.635969 0.280177
O O5 0.243505 0.807683 0.263495
O O6 0.411227 0.812757 0.500555
O O7 0.214626 0.593144 0.460485
O O8 0.566058 0.618219 0.010786
O O9 0.312059 0.726209 0.991989
O O10 0.036768 0.422964 0.854513
#
# Coordination Sequence:
#
# PCOD9541641 Si02
#       5
#     4   4   4   4   4
#     4  12  31  54  78 125 165 223 275 346 430 518
#     4  11  24  49  78 117 160 213 274 353 407 493
#     4  10  20  41  72 108 149 197 259 327 402 468
#     4  11  25  48  83 106 167 208 271 346 423 484
#     4  12  28  48  85 118 161 221 283 334 438 495
#
# _framework density 26.987468
#
# number of rings (size 3 to 8) (size 9 to 14) (size 15 to 20)
#    0.000    0.800    4.000    3.600    8.400    3.200 
#    0.000    0.000    0.000    0.000    0.000    0.000 
#    0.000    0.000    0.000    0.000    0.000    0.000 
#
# Total GULP energy -111804.031801 kJ/mol
# GULP energy per Si atom -5590.201590 kJ/mol
# Density = 2.692604 g / cm^3
# Si number density = 26.987468 Si / 1000 Ang^3
#
#
#
# Elastic Constant Matrix: (Units=GPa)
#
#
# Indices 1 2 3 4 5 6 
#
# 1 135.7194 49.6088 37.8785 0.0000 0.0000 -4.8179
# 2 49.6088 135.7194 37.8785 0.0000 0.0000 4.8179
# 3 37.8785 37.8785 106.7085 0.0000 0.0000 0.0000
# 4 0.0000 0.0000 0.0000 49.5993 0.0000 0.0000
# 5 0.0000 0.0000 0.0000 0.0000 49.5993 0.0000
# 6 -4.8179 4.8179 0.0000 0.0000 0.0000 36.3612
#
#
#
# Elastic Compliance Matrix: (Units=1/GPa)
#
#
# Indices 1 2 3 4 5 6 
#
# 1 0.009050 -0.002738 -0.002240 0.000000 0.000000 0.001562
# 2 -0.002738 0.009050 -0.002240 0.000000 0.000000 -0.001562
# 3 -0.002240 -0.002240 0.010962 0.000000 0.000000 0.000000
# 4 0.000000 0.000000 0.000000 0.020162 0.000000 0.000000
# 5 0.000000 0.000000 0.000000 0.000000 0.020162 0.000000
# 6 0.001562 -0.001562 0.000000 0.000000 0.000000 0.027916
#
#
# Mechanical properties :
#
#
# Convention : Reuss Voigt Hill
#
# Bulk Modulus (GPa) = 68.38348 69.87542 69.12945
# Shear Modulus (GPa) = 42.87697 43.96404 43.42051
#
# Velocity S-wave (km/s) = 3.99027 4.04053 4.01548
# Velocity P-wave (km/s) = 6.82815 6.90767 6.86802
#
# Compressibility (1/GPa) = 0.01462342
#
# Stress axis : x y z
#
# Youngs Moduli (GPa) = 110.50076 110.50076 91.22477
#
# Poissons Ratio (x) = 0.30255 0.20439
# Poissons Ratio (y) = 0.30255 0.20439
# Poissons Ratio (z) = 0.24757 0.24757
#
# Static dielectric constant tensor:
#      x y z
#    x 2.229850 0.000000 0.000000 
#    y 0.000000 2.229850 0.000000 
#    z 0.000000 0.000000 2.208130 
# 
# From -- ./inp_files/831.got.cif
#   From: 2010.05.17/outbox.cif.g08.bks.cpg/sg78_cif.got.tgz:831.got - 2010.06.03 18:45:56.
