data_PCOD9541814
_publ_section_title
;
Structure prediction by ZEFSAII (Michael W. Deem and Ramdas Pophale) SiO2 
 PCOD9541814
Probable space group: I 4
;
_chemical_formula_sum "Si O2"
_cell_formula_units_Z 40
_cell_length_a 15.895085
_cell_length_b 15.895085
_cell_length_c 6.815224
_cell_angle_alpha 90.000000
_cell_angle_beta 90.000000
_cell_angle_gamma 90.000000
_cell_volume 1721.891745
_symmetry_space_group_name_H-M "I 4"
_symmetry_group_IT_number 79
_symmetry_cell_setting 'tetragonal'
loop_
_space_group_symop_operation_xyz
x,y,z
-y,x,z
-x,-y,z
y,-x,z
1/2+x,1/2+y,1/2+z
1/2-y,1/2+x,1/2+z
1/2-x,1/2-y,1/2+z
1/2+y,1/2-x,1/2+z
loop_
_atom_site_type_symbol
_atom_site_label
_atom_site_fract_x
_atom_site_fract_y
_atom_site_fract_z
Si Si1 0.414908 0.181291 0.879990
Si Si2 0.181642 0.412803 0.064020
Si Si3 0.679821 0.359873 0.636789
Si Si4 0.625791 0.558844 0.974503
Si Si5 0.737387 0.176595 0.767195
O O1 0.359984 0.110776 0.770984
O O2 0.430081 0.256390 0.722143
O O3 0.500993 0.149347 0.971256
O O4 0.369015 0.225061 0.062970
O O5 0.283902 0.417269 0.067293
O O6 0.157551 0.341034 0.908654
O O7 0.726836 0.274741 0.714719
O O8 0.684533 0.350957 0.403319
O O9 0.590777 0.365507 0.745770
O O10 0.538279 0.606488 0.022862
#
# Coordination Sequence:
#
# PCOD9541814 Si02
#       5
#     8   8   8   8   8
#     4  11  22  42  65 100 132 184 245 305 362 448
#     4  10  24  41  68  98 137 188 244 301 374 445
#     4  10  19  36  64  97 131 185 236 285 361 443
#     4  10  20  39  69 106 152 190 233 307 379 451
#     4  10  21  38  64  94 132 177 237 299 350 440
#
# _framework density 23.230263999999998
#
# number of rings (size 3 to 8) (size 9 to 14) (size 15 to 20)
#    0.000    1.800    4.000    0.000    0.000    3.200 
#    0.000    3.000    0.000    0.000    0.000    0.000 
#    0.000    0.000    0.000    0.000    0.000    0.000 
#
# Total GULP energy -111609.026648 kJ/mol
# GULP energy per Si atom -5580.451332 kJ/mol
# Density = 2.317739 g / cm^3
# Si number density = 23.230264 Si / 1000 Ang^3
#
#
#
# Elastic Constant Matrix: (Units=GPa)
#
#
# Indices 1 2 3 4 5 6 
#
# 1 115.8517 34.2174 52.6207 0.0000 0.0000 -0.9553
# 2 34.2174 115.8517 52.6207 0.0000 0.0000 0.9553
# 3 52.6207 52.6207 158.0319 0.0000 0.0000 0.0000
# 4 0.0000 0.0000 0.0000 32.4319 0.0000 0.0000
# 5 0.0000 0.0000 0.0000 0.0000 32.4319 0.0000
# 6 -0.9553 0.9553 0.0000 0.0000 0.0000 35.6200
#
#
#
# Elastic Compliance Matrix: (Units=1/GPa)
#
#
# Indices 1 2 3 4 5 6 
#
# 1 0.010476 -0.001782 -0.002895 0.000000 0.000000 0.000329
# 2 -0.001782 0.010476 -0.002895 0.000000 0.000000 -0.000329
# 3 -0.002895 -0.002895 0.008256 0.000000 0.000000 0.000000
# 4 0.000000 0.000000 0.000000 0.030834 0.000000 0.000000
# 5 0.000000 0.000000 0.000000 0.000000 0.030834 0.000000
# 6 0.000329 -0.000329 0.000000 0.000000 0.000000 0.028092
#
#
# Mechanical properties :
#
#
# Convention : Reuss Voigt Hill
#
# Bulk Modulus (GPa) = 71.10433 74.29476 72.69954
# Shear Modulus (GPa) = 36.02384 36.78186 36.40285
#
# Velocity S-wave (km/s) = 3.94220 3.98346 3.96289
# Velocity P-wave (km/s) = 7.16912 7.29442 7.23204
#
# Compressibility (1/GPa) = 0.01406384
#
# Stress axis : x y z
#
# Youngs Moduli (GPa) = 95.46040 95.46040 121.12976
#
# Poissons Ratio (x) = 0.17010 0.35064
# Poissons Ratio (y) = 0.17010 0.35064
# Poissons Ratio (z) = 0.27634 0.27634
#
# Static dielectric constant tensor:
#      x y z
#    x 1.952220 0.000000 0.000000 
#    y 0.000000 1.952220 0.000000 
#    z 0.000000 0.000000 1.888470 
# 
# From -- ./inp_files/131.got.cif
#   From: 2010.05.17/outbox.cif.g08.bks.cpg/sg79_cif.got.tgz:131.got - 2010.06.03 18:47:27.
