data_PCOD9541735
_publ_section_title
;
Structure prediction by ZEFSAII (Michael W. Deem and Ramdas Pophale) SiO2 
 PCOD9541735
Probable space group: P 43
;
_chemical_formula_sum "Si O2"
_cell_formula_units_Z 32
_cell_length_a 11.053909
_cell_length_b 11.053909
_cell_length_c 10.221959
_cell_angle_alpha 90.000000
_cell_angle_beta 90.000000
_cell_angle_gamma 90.000000
_cell_volume 1249.009969
_symmetry_space_group_name_H-M "P 43"
_symmetry_group_IT_number 78
_symmetry_cell_setting 'tetragonal'
loop_
_space_group_symop_operation_xyz
x,y,z
-y,x,3/4+z
-x,-y,1/2+z
y,-x,1/4+z
loop_
_atom_site_type_symbol
_atom_site_label
_atom_site_fract_x
_atom_site_fract_y
_atom_site_fract_z
Si Si1 0.057473 0.305419 0.096320
Si Si2 0.812724 0.558431 0.264323
Si Si3 0.071629 0.570200 0.007748
Si Si4 0.333354 0.222016 0.357505
Si Si5 0.005826 0.093000 0.239530
Si Si6 0.135340 0.265009 0.560735
Si Si7 0.266332 0.698196 0.179222
Si Si8 0.473644 0.608603 0.532840
O O1 0.068718 0.450825 0.099135
O O2 0.295791 0.088324 0.305371
O O3 0.059858 0.228145 0.231176
O O4 0.172626 0.263685 0.006020
O O5 0.887363 0.481835 0.368511
O O6 0.784209 0.474918 0.142395
O O7 0.701862 0.610517 0.344377
O O8 0.869723 0.681855 0.206890
O O9 0.157832 0.666810 0.080505
O O10 0.946684 0.638013 0.987939
O O11 0.265835 0.250192 0.494893
O O12 0.319869 0.345989 0.280290
O O13 0.067635 0.999632 0.335409
O O14 0.869680 0.087485 0.292676
O O15 0.292218 0.579741 0.264444
O O16 0.456572 0.509487 0.418242
#
# Coordination Sequence:
#
# PCOD9541735 Si02
#       8
#     4   4   4   4   4   4   4   4
#     4  10  25  50  70 116 161 214 264 349 411 508
#     4  11  23  46  79 109 159 206 268 335 431 489
#     4  11  25  46  80 113 157 210 278 340 416 507
#     4  11  24  47  73 111 155 209 270 331 419 497
#     4  11  29  50  81 113 165 217 284 345 422 511
#     4  11  26  44  77 113 154 207 272 336 413 497
#     4  11  26  47  76 116 161 212 276 344 416 500
#     4  12  26  46  78 117 164 209 274 342 420 491
#
# _framework density 25.620291999999999
#
# number of rings (size 3 to 8) (size 9 to 14) (size 15 to 20)
#    0.000    1.000    1.250    3.750    7.000    6.000 
#    2.250    0.000    0.000    0.000    0.000    0.000 
#    0.000    0.000    0.000    0.000    0.000    0.000 
#
# Total GULP energy -178622.794562 kJ/mol
# GULP energy per Si atom -5581.962330 kJ/mol
# Density = 2.556198 g / cm^3
# Si number density = 25.620292 Si / 1000 Ang^3
#
#
#
# Elastic Constant Matrix: (Units=GPa)
#
#
# Indices 1 2 3 4 5 6 
#
# 1 103.0949 80.0995 44.1932 0.0000 0.0000 -10.6428
# 2 80.0995 103.0949 44.1932 0.0000 0.0000 10.6428
# 3 44.1932 44.1932 102.1312 0.0000 0.0000 0.0000
# 4 0.0000 0.0000 0.0000 27.2141 0.0000 0.0000
# 5 0.0000 0.0000 0.0000 0.0000 27.2141 0.0000
# 6 -10.6428 10.6428 0.0000 0.0000 0.0000 29.6762
#
#
#
# Elastic Compliance Matrix: (Units=1/GPa)
#
#
# Indices 1 2 3 4 5 6 
#
# 1 0.035998 -0.029099 -0.002985 0.000000 0.000000 0.023346
# 2 -0.029099 0.035998 -0.002985 0.000000 0.000000 -0.023346
# 3 -0.002985 -0.002985 0.012375 0.000000 0.000000 0.000000
# 4 0.000000 0.000000 0.000000 0.036746 0.000000 0.000000
# 5 0.000000 0.000000 0.000000 0.000000 0.036746 0.000000
# 6 0.023346 -0.023346 0.000000 0.000000 0.000000 0.050442
#
#
# Mechanical properties :
#
#
# Convention : Reuss Voigt Hill
#
# Bulk Modulus (GPa) = 70.26536 71.69921 70.98228
# Shear Modulus (GPa) = 17.65623 26.14325 21.89974
#
# Velocity S-wave (km/s) = 2.62801 3.19785 2.92684
# Velocity P-wave (km/s) = 6.05754 6.45609 6.25999
#
# Compressibility (1/GPa) = 0.01423176
#
# Stress axis : x y z
#
# Youngs Moduli (GPa) = 27.77944 27.77944 80.80916
#
# Poissons Ratio (x) = 0.80835 0.24124
# Poissons Ratio (y) = 0.80835 0.24124
# Poissons Ratio (z) = 0.08293 0.08293
#
# Static dielectric constant tensor:
#      x y z
#    x 2.059600 0.000000 0.000000 
#    y 0.000000 2.059600 0.000000 
#    z 0.000000 0.000000 2.154900 
# 
# From -- ./inp_files/1005.got.cif
#   From: 2010.05.17/outbox.cif.g08.bks.cpg/sg78_cif.got.tgz:1005.got - 2010.06.03 18:45:56.
