data_PCOD9541971
_publ_section_title
;
Structure prediction by ZEFSAII (Michael W. Deem and Ramdas Pophale) SiO2 
 PCOD9541971
Probable space group: I 4
;
_chemical_formula_sum "Si O2"
_cell_formula_units_Z 58
_cell_length_a 18.065605
_cell_length_b 18.065605
_cell_length_c 8.168147
_cell_angle_alpha 90.000000
_cell_angle_beta 90.000000
_cell_angle_gamma 90.000000
_cell_volume 2665.806150
_symmetry_space_group_name_H-M "I 4"
_symmetry_group_IT_number 79
_symmetry_cell_setting 'tetragonal'
loop_
_space_group_symop_operation_xyz
x,y,z
-y,x,z
-x,-y,z
y,-x,z
1/2+x,1/2+y,1/2+z
1/2-y,1/2+x,1/2+z
1/2-x,1/2-y,1/2+z
1/2+y,1/2-x,1/2+z
loop_
_atom_site_type_symbol
_atom_site_label
_atom_site_fract_x
_atom_site_fract_y
_atom_site_fract_z
Si Si1 0.708280 0.955623 0.468790
Si Si2 0.254754 0.696048 0.977875
Si Si3 0.026540 0.283106 0.046530
Si Si4 0.198229 0.402859 0.327883
Si Si5 0.062845 0.170024 0.320458
Si Si6 0.500000 0.500000 0.811738
Si Si7 0.163455 0.308163 0.831605
Si Si8 0.469258 0.081773 0.807520
O O1 0.723408 0.920280 0.645022
O O2 0.693278 0.891949 0.334009
O O3 0.776338 0.008165 0.424955
O O4 0.629158 0.998121 0.460700
O O5 0.182998 0.689481 0.863547
O O6 0.318186 0.643483 0.903177
O O7 0.272338 0.782246 0.965233
O O8 0.231269 0.672156 0.158624
O O9 0.059210 0.213702 0.147565
O O10 0.025231 0.356420 0.162329
O O11 0.081048 0.302653 0.897501
O O12 0.948098 0.259672 0.968145
O O13 0.115653 0.432568 0.342861
O O14 0.036303 0.085627 0.313106
O O15 0.500000 0.000000 0.776548
#
# Coordination Sequence:
#
# PCOD9541971 Si02
#       8
#     8   8   8   8   8   2   8   8
#     4  11  22  43  65  99 145 179 237 283 342 412
#     4  12  24  43  70  95 138 176 239 285 363 415
#     4  11  24  41  64  99 145 179 238 278 344 416
#     4  12  24  40  66 101 138 194 226 283 344 418
#     4  11  24  47  68 104 128 180 230 300 350 424
#     4  12  28  48  84  94 128 168 232 298 372 404
#     4  12  24  42  67 100 133 189 225 295 346 429
#     4  11  24  37  60  96 146 192 232 275 332 411
#
# _framework density 21.757020000000001
#
# number of rings (size 3 to 8) (size 9 to 14) (size 15 to 20)
#    0.000    0.552    4.138    5.793    1.931    1.103 
#    0.000    0.000    0.000    4.966    0.000    0.000 
#    0.000    0.000    0.000    0.000    0.000    0.000 
#
# Total GULP energy -161786.602594 kJ/mol
# GULP energy per Si atom -5578.848365 kJ/mol
# Density = 2.170750 g / cm^3
# Si number density = 21.757020 Si / 1000 Ang^3
#
#
#
# Elastic Constant Matrix: (Units=GPa)
#
#
# Indices 1 2 3 4 5 6 
#
# 1 103.7744 20.0323 8.5337 0.0000 0.0000 -10.8976
# 2 20.0323 103.7744 8.5337 0.0000 0.0000 10.8976
# 3 8.5337 8.5337 97.0986 0.0000 0.0000 0.0000
# 4 0.0000 0.0000 0.0000 24.8599 0.0000 0.0000
# 5 0.0000 0.0000 0.0000 0.0000 24.8599 0.0000
# 6 -10.8976 10.8976 0.0000 0.0000 0.0000 36.5578
#
#
#
# Elastic Compliance Matrix: (Units=1/GPa)
#
#
# Indices 1 2 3 4 5 6 
#
# 1 0.010561 -0.002385 -0.000719 0.000000 0.000000 0.003859
# 2 -0.002385 0.010561 -0.000719 0.000000 0.000000 -0.003859
# 3 -0.000719 -0.000719 0.010425 0.000000 0.000000 0.000000
# 4 0.000000 0.000000 0.000000 0.040226 0.000000 0.000000
# 5 0.000000 0.000000 0.000000 0.000000 0.040226 0.000000
# 6 0.003859 -0.003859 0.000000 0.000000 0.000000 0.029655
#
#
# Mechanical properties :
#
#
# Convention : Reuss Voigt Hill
#
# Bulk Modulus (GPa) = 41.83551 42.09409 41.96480
# Shear Modulus (GPa) = 31.79360 35.09202 33.44281
#
# Velocity S-wave (km/s) = 3.82685 4.02046 3.92485
# Velocity P-wave (km/s) = 6.22869 6.39855 6.31419
#
# Compressibility (1/GPa) = 0.02390314
#
# Stress axis : x y z
#
# Youngs Moduli (GPa) = 94.68821 94.68821 95.92217
#
# Poissons Ratio (x) = 0.22581 0.06893
# Poissons Ratio (y) = 0.22581 0.06893
# Poissons Ratio (z) = 0.06804 0.06804
#
# Static dielectric constant tensor:
#      x y z
#    x 1.857690 0.000000 0.000000 
#    y 0.000000 1.857690 0.000000 
#    z 0.000000 0.000000 1.854000 
# 
# From -- ./inp_files/742.got.cif
#   From: 2010.05.17/outbox.cif.g08.bks.cpg/sg79_cif.got.tgz:742.got - 2010.06.03 18:47:27.
