data_PCOD9541391
_publ_section_title
;
Structure prediction by ZEFSAII (Michael W. Deem and Ramdas Pophale) SiO2 
 PCOD9541391
Probable space group: P 41
;
_chemical_formula_sum "Si O2"
_cell_formula_units_Z 24
_cell_length_a 7.953604
_cell_length_b 7.953604
_cell_length_c 16.757877
_cell_angle_alpha 90.000000
_cell_angle_beta 90.000000
_cell_angle_gamma 90.000000
_cell_volume 1060.100225
_symmetry_space_group_name_H-M "P 41"
_symmetry_group_IT_number 76
_symmetry_cell_setting 'tetragonal'
loop_
_space_group_symop_operation_xyz
x,y,z
-y,x,1/4+z
-x,-y,1/2+z
y,-x,3/4+z
loop_
_atom_site_type_symbol
_atom_site_label
_atom_site_fract_x
_atom_site_fract_y
_atom_site_fract_z
Si Si1 0.698469 0.194690 0.501560
Si Si2 0.736300 0.592358 0.333214
Si Si3 0.633926 0.983200 0.959220
Si Si4 0.893838 0.490905 0.047976
Si Si5 0.589069 0.252902 0.271206
Si Si6 0.223250 0.958499 0.168763
O O1 0.514682 0.155478 0.466596
O O2 0.713922 0.388144 0.530381
O O3 0.731687 0.074680 0.577189
O O4 0.854070 0.167568 0.441516
O O5 0.605740 0.720135 0.292987
O O6 0.683609 0.400671 0.316833
O O7 0.735455 0.626147 0.427082
O O8 0.911784 0.627210 0.290301
O O9 0.587224 0.096610 0.882535
O O10 0.816784 0.909557 0.943757
O O11 0.919668 0.615626 0.974188
O O12 0.061311 0.376135 0.046279
#
# Coordination Sequence:
#
# PCOD9541391 Si02
#       6
#     4   4   4   4   4   4
#     4  11  25  45  74 102 144 186 239 299 358 433
#     4  12  26  44  73 105 144 188 237 299 361 430
#     4  12  24  45  71 103 143 187 235 296 365 422
#     4  11  25  46  69 106 142 184 246 290 359 438
#     4  11  24  46  71 104 142 189 239 294 363 426
#     4  11  24  48  72 104 141 190 240 296 362 423
#
# _framework density 22.639367
#
# number of rings (size 3 to 8) (size 9 to 14) (size 15 to 20)
#    0.000    0.667    5.000    4.000    2.333    5.333 
#    0.000    0.000    0.000    0.000    0.000    0.000 
#    0.000    0.000    0.000    0.000    0.000    0.000 
#
# Total GULP energy -134413.864671 kJ/mol
# GULP energy per Si atom -5600.577695 kJ/mol
# Density = 2.258784 g / cm^3
# Si number density = 22.639367 Si / 1000 Ang^3
#
#
#
# Elastic Constant Matrix: (Units=GPa)
#
#
# Indices 1 2 3 4 5 6 
#
# 1 69.4215 41.0872 4.4769 0.0000 0.0000 -1.0360
# 2 41.0872 69.4215 4.4769 0.0000 0.0000 1.0360
# 3 4.4769 4.4769 92.4242 0.0000 0.0000 0.0000
# 4 0.0000 0.0000 0.0000 34.8322 0.0000 0.0000
# 5 0.0000 0.0000 0.0000 0.0000 34.8322 0.0000
# 6 -1.0360 1.0360 0.0000 0.0000 0.0000 37.4238
#
#
#
# Elastic Compliance Matrix: (Units=1/GPa)
#
#
# Indices 1 2 3 4 5 6 
#
# 1 0.022225 -0.013140 -0.000440 0.000000 0.000000 0.000979
# 2 -0.013140 0.022225 -0.000440 0.000000 0.000000 -0.000979
# 3 -0.000440 -0.000440 0.010862 0.000000 0.000000 0.000000
# 4 0.000000 0.000000 0.000000 0.028709 0.000000 0.000000
# 5 0.000000 0.000000 0.000000 0.000000 0.028709 0.000000
# 6 0.000979 -0.000979 0.000000 0.000000 0.000000 0.026775
#
#
# Mechanical properties :
#
#
# Convention : Reuss Voigt Hill
#
# Bulk Modulus (GPa) = 36.66826 36.81657 36.74241
# Shear Modulus (GPa) = 28.30689 33.49939 30.90314
#
# Velocity S-wave (km/s) = 3.53985 3.85086 3.69862
# Velocity P-wave (km/s) = 5.73927 6.00580 5.87405
#
# Compressibility (1/GPa) = 0.02727154
#
# Stress axis : x y z
#
# Youngs Moduli (GPa) = 44.99510 44.99510 92.06145
#
# Poissons Ratio (x) = 0.59123 0.04051
# Poissons Ratio (y) = 0.59123 0.04051
# Poissons Ratio (z) = 0.01980 0.01980
#
# Static dielectric constant tensor:
#      x y z
#    x 1.841750 0.000000 0.000000 
#    y 0.000000 1.841750 0.000000 
#    z 0.000000 0.000000 1.842620 
# 
# From -- ./inp_files/1085.got.cif
#   From: 2010.05.17/outbox.cif.g08.bks.cpg/sg76_cif.got.tgz:1085.got - 2010.06.03 18:43:17.
