data_PCOD9541059
_publ_section_title
;
Structure prediction by ZEFSAII (Michael W. Deem and Ramdas Pophale) SiO2 
 PCOD9541059
Probable space group: P 4
;
_chemical_formula_sum "Si O2"
_cell_formula_units_Z 17
_cell_length_a 8.766632
_cell_length_b 8.766632
_cell_length_c 10.686250
_cell_angle_alpha 90.000000
_cell_angle_beta 90.000000
_cell_angle_gamma 90.000000
_cell_volume 821.279312
_symmetry_space_group_name_H-M "P 4"
_symmetry_group_IT_number 75
_symmetry_cell_setting 'tetragonal'
loop_
_space_group_symop_operation_xyz
x,y,z
-y,x,z
-x,-y,z
y,-x,z
loop_
_atom_site_type_symbol
_atom_site_label
_atom_site_fract_x
_atom_site_fract_y
_atom_site_fract_z
Si Si1 0.610089 0.265023 0.596910
Si Si2 0.228631 0.897231 0.083813
Si Si3 0.599038 0.153143 0.332444
Si Si4 0.738499 0.596417 0.872956
Si Si5 0.500000 0.500000 0.299817
O O1 0.693224 0.429523 0.588817
O O2 0.654232 0.169331 0.475931
O O3 0.632095 0.195968 0.734770
O O4 0.275291 0.865978 0.225961
O O5 0.073473 0.805713 0.060085
O O6 0.356758 0.840973 0.988406
O O7 0.507947 0.310592 0.304145
O O8 0.500000 0.000000 0.324101
O O9 0.579708 0.689783 0.880116
#
# Coordination Sequence:
#
# PCOD9541059 Si02
#       5
#     4   4   4   4   1
#     4   9  17  39  65  98 135 165 211 284 340 408
#     4  11  27  46  59  90 139 180 229 291 342 412
#     4  12  24  40  70 103 131 184 230 282 359 417
#     4   9  21  39  69  98 127 168 222 276 342 419
#     4  12  24  44  68  94 148 176 228 298 344 412
#
# _framework density 20.699414000000001
#
# number of rings (size 3 to 8) (size 9 to 14) (size 15 to 20)
#    0.000    1.647    2.353    2.824    6.588    0.000 
#    8.471    0.000    0.000    2.824    0.000    0.000 
#    0.000    0.000    0.000    0.000    0.000    0.000 
#
# Total GULP energy -94715.311555 kJ/mol
# GULP energy per Si atom -5571.488915 kJ/mol
# Density = 2.065230 g / cm^3
# Si number density = 20.699414 Si / 1000 Ang^3
#
#
#
# Elastic Constant Matrix: (Units=GPa)
#
#
# Indices 1 2 3 4 5 6 
#
# 1 53.9493 32.9610 20.1871 0.0000 0.0000 -11.4146
# 2 32.9610 53.9493 20.1871 0.0000 0.0000 11.4146
# 3 20.1871 20.1871 71.8417 0.0000 0.0000 0.0000
# 4 0.0000 0.0000 0.0000 -45.1386 0.0000 0.0000
# 5 0.0000 0.0000 0.0000 0.0000 -45.1386 0.0000
# 6 -11.4146 11.4146 0.0000 0.0000 0.0000 16.7403
#
#
#
# Elastic Compliance Matrix: (Units=1/GPa)
#
#
# Indices 1 2 3 4 5 6 
#
# 1 0.098838 -0.085604 -0.003719 0.000000 0.000000 0.125765
# 2 -0.085604 0.098838 -0.003719 0.000000 0.000000 -0.125765
# 3 -0.003719 -0.003719 0.016009 0.000000 0.000000 0.000000
# 4 0.000000 0.000000 0.000000 -0.022154 0.000000 0.000000
# 5 0.000000 0.000000 0.000000 0.000000 -0.022154 0.000000
# 6 0.125765 -0.125765 0.000000 0.000000 0.000000 0.231245
#
#
# Mechanical properties :
#
#
# Convention : Reuss Voigt Hill
#
# Bulk Modulus (GPa) = 36.22900 36.26785 36.24842
# Shear Modulus (GPa) = 8.39058 -7.61371 0.38844
#
# Velocity S-wave (km/s) = 2.01552 -1.91995 0.43366
# Velocity P-wave (km/s) = 4.79133 3.55588 4.21907
#
# Compressibility (1/GPa) = 0.02760220
#
# Stress axis : x y z
#
# Youngs Moduli (GPa) = 10.11757 10.11757 62.46375
#
# Poissons Ratio (x) = 0.86611 0.23228
# Poissons Ratio (y) = 0.86611 0.23228
# Poissons Ratio (z) = 0.03762 0.03762
#
# Static dielectric constant tensor:
#      x y z
#    x 1.725020 0.000000 0.000000 
#    y 0.000000 1.725020 0.000000 
#    z 0.000000 0.000000 1.782000 
# 
# From -- ./inp_files/479.got.cif
#   From: 2010.05.17/outbox.cif.g08.bks.cpg/sg75_cif.got.tgz:479.got - 2010.06.03 18:42:43.
