data_PCOD9541355
_publ_section_title
;
Structure prediction by ZEFSAII (Michael W. Deem and Ramdas Pophale) SiO2 
 PCOD9541355
Probable space group: P 41
;
_chemical_formula_sum "Si O2"
_cell_formula_units_Z 32
_cell_length_a 11.786457
_cell_length_b 11.786457
_cell_length_c 11.579669
_cell_angle_alpha 90.000000
_cell_angle_beta 90.000000
_cell_angle_gamma 90.000000
_cell_volume 1608.654202
_symmetry_space_group_name_H-M "P 41"
_symmetry_group_IT_number 76
_symmetry_cell_setting 'tetragonal'
loop_
_space_group_symop_operation_xyz
x,y,z
-y,x,1/4+z
-x,-y,1/2+z
y,-x,3/4+z
loop_
_atom_site_type_symbol
_atom_site_label
_atom_site_fract_x
_atom_site_fract_y
_atom_site_fract_z
Si Si1 0.587215 0.971715 0.197270
Si Si2 0.729821 0.326755 0.638068
Si Si3 0.861165 0.209382 0.233942
Si Si4 0.807495 0.098873 0.770535
Si Si5 0.289685 0.930939 0.910776
Si Si6 0.471956 0.787980 0.057846
Si Si7 0.646645 0.897761 0.677214
Si Si8 0.951525 0.792044 0.283502
O O1 0.642747 0.985911 0.322906
O O2 0.480318 0.056315 0.190927
O O3 0.682418 0.998445 0.100261
O O4 0.532743 0.852642 0.162498
O O5 0.765469 0.212967 0.706927
O O6 0.598646 0.316331 0.606300
O O7 0.757604 0.434519 0.714732
O O8 0.799422 0.333878 0.519599
O O9 0.781358 0.146358 0.324531
O O10 0.859361 0.333490 0.294527
O O11 0.826330 0.157025 0.111066
O O12 0.997105 0.195491 0.229031
O O13 0.945522 0.115137 0.775097
O O14 0.741160 0.993217 0.711903
O O15 0.770224 0.089407 0.904129
O O16 0.378324 0.868464 0.993837
#
# Coordination Sequence:
#
# PCOD9541355 Si02
#       8
#     4   4   4   4   4   4   4   4
#     4  11  22  40  66  96 122 177 222 268 325 380
#     4  12  25  45  71  96 126 174 228 280 331 391
#     4  11  24  39  59  97 137 173 212 256 336 393
#     4  12  23  41  62  99 135 178 216 261 328 404
#     4  11  23  40  65  97 132 174 212 270 322 399
#     4  12  23  43  71  93 128 170 225 281 326 394
#     4  12  23  40  68  99 129 171 231 270 322 406
#     4  11  25  40  60  97 143 177 208 270 330 401
#
# _framework density 19.892405
#
# number of rings (size 3 to 8) (size 9 to 14) (size 15 to 20)
#    0.000    0.500    7.500    1.500    0.000    3.000 
#    0.000    0.000    5.500    0.000    0.000    0.000 
#    0.000    0.000    0.000    0.000    0.000    0.000 
#
# Total GULP energy -178387.144922 kJ/mol
# GULP energy per Si atom -5574.598279 kJ/mol
# Density = 1.984713 g / cm^3
# Si number density = 19.892405 Si / 1000 Ang^3
#
#
#
# Elastic Constant Matrix: (Units=GPa)
#
#
# Indices 1 2 3 4 5 6 
#
# 1 60.1287 45.0755 17.8007 0.0000 0.0000 8.9687
# 2 45.0755 60.1287 17.8007 0.0000 0.0000 -8.9687
# 3 17.8007 17.8007 95.9527 0.0000 0.0000 0.0000
# 4 0.0000 0.0000 0.0000 25.5653 0.0000 0.0000
# 5 0.0000 0.0000 0.0000 0.0000 25.5653 0.0000
# 6 8.9687 -8.9687 0.0000 0.0000 0.0000 32.0259
#
#
#
# Elastic Compliance Matrix: (Units=1/GPa)
#
#
# Indices 1 2 3 4 5 6 
#
# 1 0.054922 -0.044780 -0.001881 0.000000 0.000000 -0.027921
# 2 -0.044780 0.054922 -0.001881 0.000000 0.000000 0.027921
# 3 -0.001881 -0.001881 0.011120 0.000000 0.000000 0.000000
# 4 0.000000 0.000000 0.000000 0.039116 0.000000 0.000000
# 5 0.000000 0.000000 0.000000 0.000000 0.039116 0.000000
# 6 -0.027921 0.027921 0.000000 0.000000 0.000000 0.046863
#
#
# Mechanical properties :
#
#
# Convention : Reuss Voigt Hill
#
# Bulk Modulus (GPa) = 41.87962 41.95152 41.91557
# Shear Modulus (GPa) = 14.24088 25.66684 19.95386
#
# Velocity S-wave (km/s) = 2.67852 3.59595 3.17059
# Velocity P-wave (km/s) = 5.53758 6.19485 5.87541
#
# Compressibility (1/GPa) = 0.02387796
#
# Stress axis : x y z
#
# Youngs Moduli (GPa) = 18.20773 18.20773 89.92894
#
# Poissons Ratio (x) = 0.81534 0.16920
# Poissons Ratio (y) = 0.81534 0.16920
# Poissons Ratio (z) = 0.03426 0.03426
#
# Static dielectric constant tensor:
#      x y z
#    x 1.730890 0.000000 0.000000 
#    y 0.000000 1.730890 0.000000 
#    z 0.000000 0.000000 1.750370 
# 
# From -- ./inp_files/930.got.cif
#   From: 2010.05.17/outbox.cif.g08.bks.cpg/sg76_cif.got.tgz:930.got - 2010.06.03 18:43:17.
