data_PCOD9541911
_publ_section_title
;
Structure prediction by ZEFSAII (Michael W. Deem and Ramdas Pophale) SiO2 
 PCOD9541911
Probable space group: I 4
;
_chemical_formula_sum "Si O2"
_cell_formula_units_Z 40
_cell_length_a 8.011051
_cell_length_b 8.011051
_cell_length_c 27.730385
_cell_angle_alpha 90.000000
_cell_angle_beta 90.000000
_cell_angle_gamma 90.000000
_cell_volume 1779.651202
_symmetry_space_group_name_H-M "I 4"
_symmetry_group_IT_number 79
_symmetry_cell_setting 'tetragonal'
loop_
_space_group_symop_operation_xyz
x,y,z
-y,x,z
-x,-y,z
y,-x,z
1/2+x,1/2+y,1/2+z
1/2-y,1/2+x,1/2+z
1/2-x,1/2-y,1/2+z
1/2+y,1/2-x,1/2+z
loop_
_atom_site_type_symbol
_atom_site_label
_atom_site_fract_x
_atom_site_fract_y
_atom_site_fract_z
Si Si1 0.500000 0.000000 0.968971
Si Si2 0.742396 0.625344 0.404578
Si Si3 0.082500 0.730955 0.550937
Si Si4 0.200136 0.800909 0.303708
Si Si5 0.627352 0.743161 0.202113
Si Si6 0.500000 0.000000 0.137291
O O1 0.590185 0.858100 0.935789
O O2 0.387583 0.894795 0.006778
O O3 0.569490 0.713806 0.415869
O O4 0.757161 0.683022 0.349163
O O5 0.089421 0.628345 0.600444
O O6 0.891837 0.799673 0.548830
O O7 0.240302 0.687734 0.257243
O O8 0.000631 0.776198 0.304419
O O9 0.432107 0.712651 0.191267
O O10 0.642258 0.910148 0.170498
#
# Coordination Sequence:
#
# PCOD9541911 Si02
#       6
#     4   8   8   8   8   4
#     4  11  22  40  67  98 134 180 235 297 358 434
#     4  11  23  39  61  91 130 178 231 286 355 431
#     4  10  22  41  66  98 136 177 228 293 364 437
#     4  11  24  41  62  92 131 174 227 296 362 431
#     4  11  23  40  64  93 128 175 231 288 355 431
#     4  11  22  38  65  96 132 176 229 291 358 438
#
# _framework density 22.476315
#
# number of rings (size 3 to 8) (size 9 to 14) (size 15 to 20)
#    0.000    1.200    0.000    6.000    0.000    4.800 
#    0.000    2.000    0.000   22.200    0.000    0.000 
#    0.000    0.000    0.000    0.000    0.000    0.000 
#
# Total GULP energy -111339.882879 kJ/mol
# GULP energy per Si atom -5566.994144 kJ/mol
# Density = 2.242516 g / cm^3
# Si number density = 22.476315 Si / 1000 Ang^3
#
#
#
# Elastic Constant Matrix: (Units=GPa)
#
#
# Indices 1 2 3 4 5 6 
#
# 1 78.9692 20.1798 52.4926 0.0000 0.0000 1.1217
# 2 20.1798 78.9692 52.4926 0.0000 0.0000 -1.1217
# 3 52.4926 52.4926 200.0103 0.0000 0.0000 0.0000
# 4 0.0000 0.0000 0.0000 -159.4245 0.0000 0.0000
# 5 0.0000 0.0000 0.0000 0.0000 -159.4245 0.0000
# 6 1.1217 -1.1217 0.0000 0.0000 0.0000 42.8253
#
#
#
# Elastic Compliance Matrix: (Units=1/GPa)
#
#
# Indices 1 2 3 4 5 6 
#
# 1 0.015497 -0.001530 -0.003666 0.000000 0.000000 -0.000446
# 2 -0.001530 0.015497 -0.003666 0.000000 0.000000 0.000446
# 3 -0.003666 -0.003666 0.006924 0.000000 0.000000 0.000000
# 4 0.000000 0.000000 0.000000 -0.006273 0.000000 0.000000
# 5 0.000000 0.000000 0.000000 0.000000 -0.006273 0.000000
# 6 -0.000446 0.000446 0.000000 0.000000 0.000000 0.023374
#
#
# Mechanical properties :
#
#
# Convention : Reuss Voigt Hill
#
# Bulk Modulus (GPa) = 49.51560 67.58651 58.55106
# Shear Modulus (GPa) = 68.30474 -39.68583 14.30946
#
# Velocity S-wave (km/s) = 5.51866 -4.20655 2.52592
# Velocity P-wave (km/s) = 7.91741 2.55773 5.88334
#
# Compressibility (1/GPa) = 0.02019566
#
# Stress axis : x y z
#
# Youngs Moduli (GPa) = 64.52814 64.52814 144.42780
#
# Poissons Ratio (x) = 0.09871 0.52943
# Poissons Ratio (y) = 0.09871 0.52943
# Poissons Ratio (z) = 0.23654 0.23654
#
# Static dielectric constant tensor:
#      x y z
#    x 2.638500 0.000000 0.000000 
#    y 0.000000 2.638500 0.000000 
#    z 0.000000 0.000000 1.878390 
# 
# From -- ./inp_files/1915.got.cif
#   From: 2010.05.17/outbox.cif.g08.bks.cpg/sg79_cif.got.tgz:1915.got - 2010.06.03 18:47:27.
