data_PCOD9541679
_publ_section_title
;
Structure prediction by ZEFSAII (Michael W. Deem and Ramdas Pophale) SiO2 
 PCOD9541679
Probable space group: P 43
;
_chemical_formula_sum "Si O2"
_cell_formula_units_Z 28
_cell_length_a 11.764289
_cell_length_b 11.764289
_cell_length_c 9.562113
_cell_angle_alpha 90.000000
_cell_angle_beta 90.000000
_cell_angle_gamma 90.000000
_cell_volume 1323.382055
_symmetry_space_group_name_H-M "P 43"
_symmetry_group_IT_number 78
_symmetry_cell_setting 'tetragonal'
loop_
_space_group_symop_operation_xyz
x,y,z
-y,x,3/4+z
-x,-y,1/2+z
y,-x,1/4+z
loop_
_atom_site_type_symbol
_atom_site_label
_atom_site_fract_x
_atom_site_fract_y
_atom_site_fract_z
Si Si1 0.223189 0.288122 0.315900
Si Si2 0.157915 0.330935 0.805617
Si Si3 0.906901 0.335380 0.907532
Si Si4 0.821245 0.345890 0.593589
Si Si5 0.576156 0.293375 0.811045
Si Si6 0.930093 0.590427 0.012134
Si Si7 0.586634 0.546741 0.931477
O O1 0.100814 0.531602 0.447918
O O2 0.212954 0.358300 0.171629
O O3 0.115009 0.309568 0.411928
O O4 0.322141 0.357772 0.396976
O O5 0.229875 0.218265 0.771455
O O6 0.125435 0.396919 0.665132
O O7 0.039345 0.307098 0.885105
O O8 0.244012 0.395337 0.909434
O O9 0.836910 0.263235 0.021472
O O10 0.847262 0.320414 0.756529
O O11 0.727093 0.443397 0.582602
O O12 0.935547 0.397516 0.529688
O O13 0.609932 0.421733 0.860159
O O14 0.473784 0.579248 0.845924
#
# Coordination Sequence:
#
# PCOD9541679 Si02
#       7
#     4   4   4   4   4   4   4
#     4  11  22  40  65  93 132 178 223 273 334 414
#     4  11  24  42  66 101 131 180 226 281 339 401
#     4  11  23  43  70  96 137 186 224 281 346 421
#     4  11  23  43  69  95 139 180 226 284 347 415
#     4  11  20  38  66  93 131 180 215 259 358 413
#     4  11  24  42  67 102 133 169 236 292 331 401
#     4  10  22  34  55  90 133 171 208 266 335 407
#
# _framework density 21.157913000000001
#
# number of rings (size 3 to 8) (size 9 to 14) (size 15 to 20)
#    0.000    1.143    4.286    3.429    2.000    5.714 
#    2.571    0.000   12.571    0.000    0.000    0.000 
#    0.000    0.000    0.000    0.000    0.000    0.000 
#
# Total GULP energy -156452.410797 kJ/mol
# GULP energy per Si atom -5587.586100 kJ/mol
# Density = 2.110976 g / cm^3
# Si number density = 21.157913 Si / 1000 Ang^3
#
#
#
# Elastic Constant Matrix: (Units=GPa)
#
#
# Indices 1 2 3 4 5 6 
#
# 1 67.8126 22.1109 5.5081 0.0000 0.0000 -7.6294
# 2 22.1109 67.8126 5.5081 0.0000 0.0000 7.6294
# 3 5.5081 5.5081 35.1226 0.0000 0.0000 0.0000
# 4 0.0000 0.0000 0.0000 35.1910 0.0000 0.0000
# 5 0.0000 0.0000 0.0000 0.0000 35.1910 0.0000
# 6 -7.6294 7.6294 0.0000 0.0000 0.0000 20.7267
#
#
#
# Elastic Compliance Matrix: (Units=1/GPa)
#
#
# Indices 1 2 3 4 5 6 
#
# 1 0.018143 -0.006804 -0.001778 0.000000 0.000000 0.009183
# 2 -0.006804 0.018143 -0.001778 0.000000 0.000000 -0.009183
# 3 -0.001778 -0.001778 0.029029 0.000000 0.000000 0.000000
# 4 0.000000 0.000000 0.000000 0.028416 0.000000 0.000000
# 5 0.000000 0.000000 0.000000 0.000000 0.028416 0.000000
# 6 0.009183 -0.009183 0.000000 0.000000 0.000000 0.055007
#
#
# Mechanical properties :
#
#
# Convention : Reuss Voigt Hill
#
# Bulk Modulus (GPa) = 22.42475 26.33357 24.37916
# Shear Modulus (GPa) = 23.50282 27.39645 25.44963
#
# Velocity S-wave (km/s) = 3.33653 3.60231 3.47196
# Velocity P-wave (km/s) = 5.04628 5.45669 5.25549
#
# Compressibility (1/GPa) = 0.04459359
#
# Stress axis : x y z
#
# Youngs Moduli (GPa) = 55.11870 55.11870 34.44783
#
# Poissons Ratio (x) = 0.37504 0.06125
# Poissons Ratio (y) = 0.37504 0.06125
# Poissons Ratio (z) = 0.09801 0.09801
#
# Static dielectric constant tensor:
#      x y z
#    x 1.799300 0.000000 0.000000 
#    y 0.000000 1.799300 0.000000 
#    z 0.000000 0.000000 1.799160 
# 
# From -- ./inp_files/888.got.cif
#   From: 2010.05.17/outbox.cif.g08.bks.cpg/sg78_cif.got.tgz:888.got - 2010.06.03 18:45:56.
