data_PCOD9541516
_publ_section_title
;
Structure prediction by ZEFSAII (Michael W. Deem and Ramdas Pophale) SiO2 
 PCOD9541516
Probable space group: P 42
;
_chemical_formula_sum "Si O2"
_cell_formula_units_Z 14
_cell_length_a 7.950398
_cell_length_b 7.950398
_cell_length_c 8.678389
_cell_angle_alpha 90.000000
_cell_angle_beta 90.000000
_cell_angle_gamma 90.000000
_cell_volume 548.550801
_symmetry_space_group_name_H-M "P 42"
_symmetry_group_IT_number 77
_symmetry_cell_setting 'tetragonal'
loop_
_space_group_symop_operation_xyz
x,y,z
-y,x,1/2+z
-x,-y,z
y,-x,1/2+z
loop_
_atom_site_type_symbol
_atom_site_label
_atom_site_fract_x
_atom_site_fract_y
_atom_site_fract_z
Si Si1 0.513052 0.187724 0.137590
Si Si2 0.574001 0.314081 0.806278
Si Si3 0.140934 0.756221 0.251500
Si Si4 0.000000 0.000000 0.000028
O O1 0.339201 0.253507 0.213000
O O2 0.664474 0.182462 0.260043
O O3 0.500000 0.000000 0.079157
O O4 0.575920 0.293551 0.989939
O O5 0.500000 0.500000 0.774380
O O6 0.443668 0.173847 0.748214
O O7 0.045678 0.839314 0.394822
O O8 0.054776 0.842379 0.104847
#
# Coordination Sequence:
#
# PCOD9541516 Si02
#       4
#     4   4   4   2
#     4  11  24  43  75 106 146 194 246 305 363 436
#     4  10  22  45  72 104 147 190 245 299 363 439
#     4  10  22  42  71 106 149 195 239 303 360 440
#     4  10  22  42  74 110 154 192 244 298 374 424
#
# _framework density 25.521795999999998
#
# number of rings (size 3 to 8) (size 9 to 14) (size 15 to 20)
#    0.000    1.714    0.000    4.286    4.000    0.000 
#    5.143    0.000   12.571    0.000    0.000    0.000 
#    0.000    0.000    0.000    0.000    0.000    0.000 
#
# Total GULP energy -78268.807241 kJ/mol
# GULP energy per Si atom -5590.629089 kJ/mol
# Density = 2.546371 g / cm^3
# Si number density = 25.521796 Si / 1000 Ang^3
#
#
#
# Elastic Constant Matrix: (Units=GPa)
#
#
# Indices 1 2 3 4 5 6 
#
# 1 122.0702 53.7892 60.9191 0.0000 0.0000 13.6925
# 2 53.7892 122.0702 60.9191 0.0000 0.0000 -13.6925
# 3 60.9191 60.9191 160.0370 0.0000 0.0000 0.0000
# 4 0.0000 0.0000 0.0000 24.4467 0.0000 0.0000
# 5 0.0000 0.0000 0.0000 0.0000 24.4467 0.0000
# 6 13.6925 -13.6925 0.0000 0.0000 0.0000 48.5259
#
#
#
# Elastic Compliance Matrix: (Units=1/GPa)
#
#
# Indices 1 2 3 4 5 6 
#
# 1 0.012119 -0.004396 -0.002940 0.000000 0.000000 -0.004660
# 2 -0.004396 0.012119 -0.002940 0.000000 0.000000 0.004660
# 3 -0.002940 -0.002940 0.008487 0.000000 0.000000 0.000000
# 4 0.000000 0.000000 0.000000 0.040905 0.000000 0.000000
# 5 0.000000 0.000000 0.000000 0.000000 0.040905 0.000000
# 6 -0.004660 0.004660 0.000000 0.000000 0.000000 0.023237
#
#
# Mechanical properties :
#
#
# Convention : Reuss Voigt Hill
#
# Bulk Modulus (GPa) = 82.14533 83.93690 83.04112
# Shear Modulus (GPa) = 30.79187 34.72050 32.75619
#
# Velocity S-wave (km/s) = 3.47723 3.69240 3.58643
# Velocity P-wave (km/s) = 6.95541 7.15109 7.05393
#
# Compressibility (1/GPa) = 0.01217355
#
# Stress axis : x y z
#
# Youngs Moduli (GPa) = 82.51715 82.51715 117.83132
#
# Poissons Ratio (x) = 0.36271 0.34641
# Poissons Ratio (y) = 0.36271 0.34641
# Poissons Ratio (z) = 0.24259 0.24259
#
# Static dielectric constant tensor:
#      x y z
#    x 2.137520 0.000000 0.000000 
#    y 0.000000 2.137520 0.000000 
#    z 0.000000 0.000000 1.941000 
# 
# From -- ./inp_files/237.got.cif
#   From: 2010.05.17/outbox.cif.g08.bks.cpg/sg77_cif.got.tgz:237.got - 2010.06.03 18:44:51.
