data_PCOD9541504
_publ_section_title
;
Structure prediction by ZEFSAII (Michael W. Deem and Ramdas Pophale) SiO2 
 PCOD9541504
Probable space group: P 42
;
_chemical_formula_sum "Si O2"
_cell_formula_units_Z 20
_cell_length_a 8.110503
_cell_length_b 8.110503
_cell_length_c 12.664745
_cell_angle_alpha 90.000000
_cell_angle_beta 90.000000
_cell_angle_gamma 90.000000
_cell_volume 833.090205
_symmetry_space_group_name_H-M "P 42"
_symmetry_group_IT_number 77
_symmetry_cell_setting 'tetragonal'
loop_
_space_group_symop_operation_xyz
x,y,z
-y,x,1/2+z
-x,-y,z
y,-x,1/2+z
loop_
_atom_site_type_symbol
_atom_site_label
_atom_site_fract_x
_atom_site_fract_y
_atom_site_fract_z
Si Si1 0.232615 0.419488 0.092120
Si Si2 0.184515 0.458964 0.639869
Si Si3 0.690948 0.542871 0.872648
Si Si4 0.123392 0.626141 0.303307
Si Si5 0.935888 0.179089 0.121623
O O1 0.405631 0.318497 0.100701
O O2 0.200634 0.518316 0.203055
O O3 0.068790 0.308812 0.076294
O O4 0.249150 0.523732 0.984095
O O5 0.205733 0.484995 0.766992
O O6 0.194634 0.263252 0.611309
O O7 0.000000 0.500000 0.608843
O O8 0.500000 0.500000 0.854401
O O9 0.688197 0.740112 0.881155
O O10 0.040229 0.781022 0.246955
O O11 0.000000 0.500000 0.355544
O O12 0.000000 0.000000 0.092776
#
# Coordination Sequence:
#
# PCOD9541504 Si02
#       5
#     4   4   4   4   4
#     4  11  23  43  64  98 136 177 225 278 347 407
#     4  11  23  43  72  95 137 183 223 282 354 413
#     4  11  24  39  66 100 125 166 231 275 330 413
#     4   9  21  42  65  89 131 168 209 276 340 395
#     4  10  21  40  66  92 127 176 218 272 336 405
#
# _framework density 24.007003000000001
#
# number of rings (size 3 to 8) (size 9 to 14) (size 15 to 20)
#    0.000    1.600    4.000    0.000    5.600    3.200 
#    0.000    4.000    0.000    0.000    0.000    0.000 
#    0.000    0.000    0.000    0.000    0.000    0.000 
#
# Total GULP energy -111420.711411 kJ/mol
# GULP energy per Si atom -5571.035571 kJ/mol
# Density = 2.395236 g / cm^3
# Si number density = 24.007003 Si / 1000 Ang^3
#
#
#
# Elastic Constant Matrix: (Units=GPa)
#
#
# Indices 1 2 3 4 5 6 
#
# 1 113.3988 24.1721 18.8890 0.0000 0.0000 3.7005
# 2 24.1721 113.3988 18.8890 0.0000 0.0000 -3.7005
# 3 18.8890 18.8890 120.4145 0.0000 0.0000 0.0000
# 4 0.0000 0.0000 0.0000 18.2721 0.0000 0.0000
# 5 0.0000 0.0000 0.0000 0.0000 18.2721 0.0000
# 6 3.7005 -3.7005 0.0000 0.0000 0.0000 40.1447
#
#
#
# Elastic Compliance Matrix: (Units=1/GPa)
#
#
# Indices 1 2 3 4 5 6 
#
# 1 0.009445 -0.001849 -0.001192 0.000000 0.000000 -0.001041
# 2 -0.001849 0.009445 -0.001192 0.000000 0.000000 0.001041
# 3 -0.001192 -0.001192 0.008678 0.000000 0.000000 0.000000
# 4 0.000000 0.000000 0.000000 0.054728 0.000000 0.000000
# 5 0.000000 0.000000 0.000000 0.000000 0.054728 0.000000
# 6 -0.001041 0.001041 0.000000 0.000000 0.000000 0.025102
#
#
# Mechanical properties :
#
#
# Convention : Reuss Voigt Hill
#
# Bulk Modulus (GPa) = 52.34361 52.34581 52.34471
# Shear Modulus (GPa) = 28.25513 34.35523 31.30518
#
# Velocity S-wave (km/s) = 3.43440 3.78703 3.61501
# Velocity P-wave (km/s) = 6.13006 6.40108 6.26703
#
# Compressibility (1/GPa) = 0.01910453
#
# Stress axis : x y z
#
# Youngs Moduli (GPa) = 105.87637 105.87637 115.22737
#
# Poissons Ratio (x) = 0.19574 0.13730
# Poissons Ratio (y) = 0.19574 0.13730
# Poissons Ratio (z) = 0.12616 0.12616
#
# Static dielectric constant tensor:
#      x y z
#    x 1.998370 0.000000 0.000000 
#    y 0.000000 1.998370 0.000000 
#    z 0.000000 0.000000 1.905020 
# 
# From -- ./inp_files/753.got.cif
#   From: 2010.05.17/outbox.cif.g08.bks.cpg/sg77_cif.got.tgz:753.got - 2010.06.03 18:44:51.
