data_PCOD9541294
_publ_section_title
;
Structure prediction by ZEFSAII (Michael W. Deem and Ramdas Pophale) SiO2 
 PCOD9541294
Probable space group: P 41
;
_chemical_formula_sum "Si O2"
_cell_formula_units_Z 28
_cell_length_a 11.867929
_cell_length_b 11.867929
_cell_length_c 9.790444
_cell_angle_alpha 90.000000
_cell_angle_beta 90.000000
_cell_angle_gamma 90.000000
_cell_volume 1378.961899
_symmetry_space_group_name_H-M "P 41"
_symmetry_group_IT_number 76
_symmetry_cell_setting 'tetragonal'
loop_
_space_group_symop_operation_xyz
x,y,z
-y,x,1/4+z
-x,-y,1/2+z
y,-x,3/4+z
loop_
_atom_site_type_symbol
_atom_site_label
_atom_site_fract_x
_atom_site_fract_y
_atom_site_fract_z
Si Si1 0.365091 0.764953 0.646600
Si Si2 0.984605 0.364187 0.915321
Si Si3 0.784773 0.371367 0.353452
Si Si4 0.723727 0.749860 0.113107
Si Si5 0.009055 0.439233 0.208068
Si Si6 0.507671 0.607567 0.091470
Si Si7 0.773151 0.693724 0.812268
O O1 0.500883 0.763098 0.656426
O O2 0.308265 0.672657 0.744439
O O3 0.330290 0.754955 0.488638
O O4 0.317675 0.889346 0.682034
O O5 0.879930 0.279420 0.908554
O O6 0.979494 0.439652 0.779219
O O7 0.978808 0.444631 0.048260
O O8 0.793660 0.277572 0.471636
O O9 0.902442 0.379568 0.275921
O O10 0.595251 0.710131 0.089224
O O11 0.787338 0.725208 0.971246
O O12 0.119972 0.367131 0.245198
O O13 0.486003 0.552806 0.238150
O O14 0.392210 0.667291 0.050811
#
# Coordination Sequence:
#
# PCOD9541294 Si02
#       7
#     4   4   4   4   4   4   4
#     4  11  26  42  66  96 131 174 216 264 326 392
#     4  11  24  43  66  91 133 175 226 266 322 393
#     4  11  26  42  66  96 131 174 216 264 326 392
#     4  11  25  41  62  95 130 173 216 267 328 382
#     4  11  24  43  66  91 133 175 226 266 322 393
#     4  10  24  36  56  88 136 168 200 250 320 392
#     4  11  25  41  62  95 130 173 216 267 328 382
#
# _framework density 20.305129999999998
#
# number of rings (size 3 to 8) (size 9 to 14) (size 15 to 20)
#    0.000    1.143    4.286    0.000   18.000    0.000 
#    0.000    0.000    0.000    5.143    0.000    0.000 
#    0.000    0.000    0.000    0.000    0.000    0.000 
#
# Total GULP energy -156319.701030 kJ/mol
# GULP energy per Si atom -5582.846465 kJ/mol
# Density = 2.025891 g / cm^3
# Si number density = 20.305130 Si / 1000 Ang^3
#
#
#
# Elastic Constant Matrix: (Units=GPa)
#
#
# Indices 1 2 3 4 5 6 
#
# 1 53.0851 17.0568 -6.4644 0.0000 0.0000 -2.2290
# 2 17.0568 53.0851 -6.4644 0.0000 0.0000 2.2290
# 3 -6.4644 -6.4644 68.2767 0.0000 0.0000 0.0000
# 4 0.0000 0.0000 0.0000 25.3409 0.0000 0.0000
# 5 0.0000 0.0000 0.0000 0.0000 25.3409 0.0000
# 6 -2.2290 2.2290 0.0000 0.0000 0.0000 9.1685
#
#
#
# Elastic Compliance Matrix: (Units=1/GPa)
#
#
# Indices 1 2 3 4 5 6 
#
# 1 0.021563 -0.007053 0.001374 0.000000 0.000000 0.006957
# 2 -0.007053 0.021563 0.001374 0.000000 0.000000 -0.006957
# 3 0.001374 0.001374 0.014906 0.000000 0.000000 0.000000
# 4 0.000000 0.000000 0.000000 0.039462 0.000000 0.000000
# 5 0.000000 0.000000 0.000000 0.000000 0.039462 0.000000
# 6 0.006957 -0.006957 0.000000 0.000000 0.000000 0.112451
#
#
# Mechanical properties :
#
#
# Convention : Reuss Voigt Hill
#
# Bulk Modulus (GPa) = 20.23402 20.30032 20.26717
# Shear Modulus (GPa) = 18.21535 23.32467 20.77001
#
# Velocity S-wave (km/s) = 2.99838 3.39294 3.20174
# Velocity P-wave (km/s) = 4.68761 5.03673 4.86530
#
# Compressibility (1/GPa) = 0.04942170
#
# Stress axis : x y z
#
# Youngs Moduli (GPa) = 46.37481 46.37481 67.08514
#
# Poissons Ratio (x) = 0.32710 -0.09216
# Poissons Ratio (y) = 0.32710 -0.09216
# Poissons Ratio (z) = -0.06371 -0.06371
#
# Static dielectric constant tensor:
#      x y z
#    x 1.731960 0.000000 0.000000 
#    y 0.000000 1.731960 0.000000 
#    z 0.000000 0.000000 1.809420 
# 
# From -- ./inp_files/608.got.cif
#   From: 2010.05.17/outbox.cif.g08.bks.cpg/sg76_cif.got.tgz:608.got - 2010.06.03 18:43:17.
