data_PCOD9541111
_publ_section_title
;
Structure prediction by ZEFSAII (Michael W. Deem and Ramdas Pophale) SiO2 
 PCOD9541111
Probable space group: P 41
;
_chemical_formula_sum "Si O2"
_cell_formula_units_Z 32
_cell_length_a 12.047231
_cell_length_b 12.047231
_cell_length_c 10.564463
_cell_angle_alpha 90.000000
_cell_angle_beta 90.000000
_cell_angle_gamma 90.000000
_cell_volume 1533.281523
_symmetry_space_group_name_H-M "P 41"
_symmetry_group_IT_number 76
_symmetry_cell_setting 'tetragonal'
loop_
_space_group_symop_operation_xyz
x,y,z
-y,x,1/4+z
-x,-y,1/2+z
y,-x,3/4+z
loop_
_atom_site_type_symbol
_atom_site_label
_atom_site_fract_x
_atom_site_fract_y
_atom_site_fract_z
Si Si1 0.708330 0.082791 0.181360
Si Si2 0.293424 0.714702 0.494741
Si Si3 0.618936 0.749142 0.728433
Si Si4 0.242205 0.543525 0.699571
Si Si5 0.987597 0.519240 0.246802
Si Si6 0.032562 0.720566 0.070706
Si Si7 0.186082 0.128046 0.573383
Si Si8 0.410452 0.800754 0.912785
O O1 0.739883 0.183010 0.087134
O O2 0.676513 0.137872 0.315609
O O3 0.591217 0.039452 0.121473
O O4 0.799031 0.984724 0.159402
O O5 0.292409 0.609058 0.583940
O O6 0.413720 0.737265 0.439919
O O7 0.206896 0.720184 0.382619
O O8 0.576839 0.717095 0.588525
O O9 0.680587 0.870132 0.725784
O O10 0.514115 0.757079 0.824978
O O11 0.710550 0.653668 0.747062
O O12 0.110434 0.563676 0.710232
O O13 0.988017 0.606959 0.131629
O O14 0.104343 0.460214 0.251653
O O15 0.097894 0.778054 0.184094
O O16 0.928712 0.804246 0.055670
#
# Coordination Sequence:
#
# PCOD9541111 Si02
#       8
#     4   4   4   4   4   4   4   4
#     4  10  19  38  63  89 122 169 209 264 316 391
#     4  11  21  38  69  95 126 176 220 262 330 388
#     4  11  22  40  67  93 134 167 220 272 326 390
#     4  11  19  39  67  94 127 172 217 268 318 401
#     4   9  19  37  62  89 116 173 214 256 326 382
#     4  10  23  40  63  90 134 170 210 280 319 387
#     4  11  20  44  62  91 131 168 216 270 331 373
#     4  11  21  40  65  95 128 169 216 270 330 392
#
# _framework density 20.870270999999999
#
# number of rings (size 3 to 8) (size 9 to 14) (size 15 to 20)
#    0.000    1.500    7.500    0.750    0.000    1.000 
#    2.250    2.500   27.500    0.000    0.000    0.000 
#    0.000    0.000    0.000    0.000    0.000    0.000 
#
# Total GULP energy -178340.581115 kJ/mol
# GULP energy per Si atom -5573.143160 kJ/mol
# Density = 2.082277 g / cm^3
# Si number density = 20.870271 Si / 1000 Ang^3
#
#
#
# Elastic Constant Matrix: (Units=GPa)
#
#
# Indices 1 2 3 4 5 6 
#
# 1 63.0864 42.0478 -4.4270 0.0000 0.0000 -7.4939
# 2 42.0478 63.0864 -4.4270 0.0000 0.0000 7.4939
# 3 -4.4270 -4.4270 13.3654 0.0000 0.0000 0.0000
# 4 0.0000 0.0000 0.0000 17.7722 0.0000 0.0000
# 5 0.0000 0.0000 0.0000 0.0000 17.7722 0.0000
# 6 -7.4939 7.4939 0.0000 0.0000 0.0000 52.0270
#
#
#
# Elastic Compliance Matrix: (Units=1/GPa)
#
#
# Indices 1 2 3 4 5 6 
#
# 1 0.031376 -0.021591 0.003241 0.000000 0.000000 0.007629
# 2 -0.021591 0.031376 0.003241 0.000000 0.000000 -0.007629
# 3 0.003241 0.003241 0.076967 0.000000 0.000000 0.000000
# 4 0.000000 0.000000 0.000000 0.056268 0.000000 0.000000
# 5 0.000000 0.000000 0.000000 0.000000 0.056268 0.000000
# 6 0.007629 -0.007629 0.000000 0.000000 0.000000 0.021419
#
#
# Mechanical properties :
#
#
# Convention : Reuss Voigt Hill
#
# Bulk Modulus (GPa) = 9.13244 22.88066 16.00655
# Shear Modulus (GPa) = 14.68900 24.60391 19.64645
#
# Velocity S-wave (km/s) = 2.65585 3.43723 3.07149
# Velocity P-wave (km/s) = 3.71349 5.17106 4.50166
#
# Compressibility (1/GPa) = 0.10949982
#
# Stress axis : x y z
#
# Youngs Moduli (GPa) = 31.87175 31.87175 12.99258
#
# Poissons Ratio (x) = 0.68815 -0.04211
# Poissons Ratio (y) = 0.68815 -0.04211
# Poissons Ratio (z) = -0.10329 -0.10329
#
# Static dielectric constant tensor:
#      x y z
#    x 1.824750 0.000000 0.000000 
#    y 0.000000 1.824750 0.000000 
#    z 0.000000 0.000000 1.769310 
# 
# From -- ./inp_files/939.got.cif
#   From: 2010.05.17/outbox.cif.g08.bks.cpg/sg76_cif.got.tgz:939.got - 2010.06.03 18:43:17.
