data_PCOD9541992
_publ_section_title
;
Structure prediction by ZEFSAII (Michael W. Deem and Ramdas Pophale) SiO2 
 PCOD9541992
Probable space group: I 4
;
_chemical_formula_sum "Si O2"
_cell_formula_units_Z 44
_cell_length_a 8.109174
_cell_length_b 8.109174
_cell_length_c 30.417078
_cell_angle_alpha 90.000000
_cell_angle_beta 90.000000
_cell_angle_gamma 90.000000
_cell_volume 2000.187597
_symmetry_space_group_name_H-M "I 4"
_symmetry_group_IT_number 79
_symmetry_cell_setting 'tetragonal'
loop_
_space_group_symop_operation_xyz
x,y,z
-y,x,z
-x,-y,z
y,-x,z
1/2+x,1/2+y,1/2+z
1/2-y,1/2+x,1/2+z
1/2-x,1/2-y,1/2+z
1/2+y,1/2-x,1/2+z
loop_
_atom_site_type_symbol
_atom_site_label
_atom_site_fract_x
_atom_site_fract_y
_atom_site_fract_z
Si Si1 0.761958 0.405431 0.517920
Si Si2 0.000000 0.500000 0.947447
Si Si3 0.235900 0.586148 0.787109
Si Si4 0.735530 0.915387 0.872994
Si Si5 0.414175 0.763239 0.201779
Si Si6 0.095757 0.261729 0.116437
O O1 0.701465 0.595972 0.514025
O O2 0.829428 0.379241 0.567172
O O3 0.892827 0.384521 0.479541
O O4 0.898551 0.380411 0.915233
O O5 0.299742 0.399617 0.788437
O O6 0.127902 0.637564 0.828902
O O7 0.140284 0.624238 0.742297
O O8 0.897088 0.801078 0.873976
O O9 0.299943 0.600218 0.204640
O O10 0.378943 0.850232 0.155537
O O11 0.906701 0.202489 0.120217
#
# Coordination Sequence:
#
# PCOD9541992 Si02
#       6
#     8   4   8   8   8   8
#     4   9  20  39  62  90 123 160 206 257 311 376
#     4  12  22  36  64  92 118 156 204 256 314 370
#     4  11  24  42  65  94 126 160 205 260 315 374
#     4  11  24  42  64  91 125 165 210 257 310 378
#     4  11  24  39  58  89 128 168 208 251 305 373
#     4   9  19  37  61  89 121 159 207 258 306 364
#
# _framework density 21.997935999999999
#
# number of rings (size 3 to 8) (size 9 to 14) (size 15 to 20)
#    0.000    1.636    0.000    5.455    0.000   11.636 
#    0.000    0.000    0.000    4.909    0.000    0.000 
#    0.000    0.000    0.000    0.000    0.000    0.000 
#
# Total GULP energy -123220.336564 kJ/mol
# GULP energy per Si atom -5600.924389 kJ/mol
# Density = 2.194787 g / cm^3
# Si number density = 21.997936 Si / 1000 Ang^3
#
#
#
# Elastic Constant Matrix: (Units=GPa)
#
#
# Indices 1 2 3 4 5 6 
#
# 1 101.5442 48.9226 73.0657 0.0000 0.0000 0.1100
# 2 48.9226 101.5442 73.0657 0.0000 0.0000 -0.1100
# 3 73.0657 73.0657 208.2038 0.0000 0.0000 0.0000
# 4 0.0000 0.0000 0.0000 -35.3753 0.0000 0.0000
# 5 0.0000 0.0000 0.0000 0.0000 -35.3752 0.0000
# 6 0.1100 -0.1100 0.0000 0.0000 0.0000 33.8764
#
#
#
# Elastic Compliance Matrix: (Units=1/GPa)
#
#
# Indices 1 2 3 4 5 6 
#
# 1 0.014543 -0.004461 -0.003538 0.000000 0.000000 -0.000062
# 2 -0.004461 0.014543 -0.003538 0.000000 0.000000 0.000062
# 3 -0.003538 -0.003538 0.007286 0.000000 0.000000 0.000000
# 4 0.000000 0.000000 0.000000 -0.028268 0.000000 0.000000
# 5 0.000000 0.000000 0.000000 0.000000 -0.028268 0.000000
# 6 -0.000062 0.000062 0.000000 0.000000 0.000000 0.029520
#
#
# Mechanical properties :
#
#
# Convention : Reuss Voigt Hill
#
# Bulk Modulus (GPa) = 75.19916 89.04448 82.12182
# Shear Modulus (GPa) = 135.63983 7.04105 71.34044
#
# Velocity S-wave (km/s) = 7.86092 1.79101 5.70096
# Velocity P-wave (km/s) = 10.80051 6.69652 8.98595
#
# Compressibility (1/GPa) = 0.01329802
#
# Stress axis : x y z
#
# Youngs Moduli (GPa) = 68.76134 68.76135 137.24329
#
# Poissons Ratio (x) = 0.30673 0.48559
# Poissons Ratio (y) = 0.30673 0.48559
# Poissons Ratio (z) = 0.24329 0.24329
#
# Static dielectric constant tensor:
#      x y z
#    x 1.814810 0.000000 0.000000 
#    y 0.000000 1.814810 0.000000 
#    z 0.000000 0.000000 1.772150 
# 
# From -- ./inp_files/2095.got.cif
#   From: 2010.05.17/outbox.cif.g08.bks.cpg/sg79_cif.got.tgz:2095.got - 2010.06.03 18:47:27.
