data_PCOD9541961
_publ_section_title
;
Structure prediction by ZEFSAII (Michael W. Deem and Ramdas Pophale) SiO2 
 PCOD9541961
Probable space group: I 4
;
_chemical_formula_sum "Si O2"
_cell_formula_units_Z 32
_cell_length_a 12.774866
_cell_length_b 12.774866
_cell_length_c 8.377681
_cell_angle_alpha 90.000000
_cell_angle_beta 90.000000
_cell_angle_gamma 90.000000
_cell_volume 1367.214093
_symmetry_space_group_name_H-M "I 4"
_symmetry_group_IT_number 79
_symmetry_cell_setting 'tetragonal'
loop_
_space_group_symop_operation_xyz
x,y,z
-y,x,z
-x,-y,z
y,-x,z
1/2+x,1/2+y,1/2+z
1/2-y,1/2+x,1/2+z
1/2-x,1/2-y,1/2+z
1/2+y,1/2-x,1/2+z
loop_
_atom_site_type_symbol
_atom_site_label
_atom_site_fract_x
_atom_site_fract_y
_atom_site_fract_z
Si Si1 0.129674 0.411374 0.570830
Si Si2 0.918397 0.151229 0.560736
Si Si3 0.581603 0.348771 0.443157
Si Si4 0.088626 0.629674 0.433063
O O1 0.245646 0.375912 0.526868
O O2 0.037302 0.372444 0.456405
O O3 0.102899 0.382564 0.751946
O O4 0.127556 0.537302 0.547488
O O5 0.911350 0.164104 0.751946
O O6 0.041438 0.136000 0.520298
O O7 0.875911 0.254354 0.477024
O O8 0.636000 0.458562 0.483594
#
# Coordination Sequence:
#
# PCOD9541961 Si02
#       4
#     8   8   8   8
#     4  11  22  37  57  80 109 143 181 225 270 320
#     4   9  19  37  59  82 110 143 179 221 268 318
#     4   9  19  37  59  82 110 143 179 221 268 318
#     4  11  22  37  57  80 109 143 181 225 270 320
#
# _framework density 23.405258
#
# number of rings (size 3 to 8) (size 9 to 14) (size 15 to 20)
#    0.000    2.000    0.000    7.500    0.000    4.000 
#    0.000    2.500    0.000    0.000    0.000    0.000 
#    0.000    0.000    0.000    0.000    0.000    0.000 
#
# Total GULP energy -89540.374512 kJ/mol
# GULP energy per Si atom -5596.273407 kJ/mol
# Density = 2.335199 g / cm^3
# Si number density = 23.405258 Si / 1000 Ang^3
#
#
#
# Elastic Constant Matrix: (Units=GPa)
#
#
# Indices 1 2 3 4 5 6 
#
# 1 102.3380 -16.9378 6.4250 0.0000 0.0000 1.4982
# 2 -16.9378 102.3380 6.4250 0.0000 0.0000 -1.4982
# 3 6.4250 6.4250 36.9367 0.0000 0.0000 0.0000
# 4 0.0000 0.0000 0.0000 23.9615 0.0000 0.0000
# 5 0.0000 0.0000 0.0000 0.0000 23.9615 0.0000
# 6 1.4982 -1.4982 0.0000 0.0000 0.0000 -15.4317
#
#
#
# Elastic Compliance Matrix: (Units=1/GPa)
#
#
# Indices 1 2 3 4 5 6 
#
# 1 0.010194 0.001830 -0.002092 0.000000 0.000000 0.000812
# 2 0.001830 0.010194 -0.002092 0.000000 0.000000 -0.000812
# 3 -0.002092 -0.002092 0.027801 0.000000 0.000000 0.000000
# 4 0.000000 0.000000 0.000000 0.041734 0.000000 0.000000
# 5 0.000000 0.000000 0.000000 0.000000 0.041734 0.000000
# 6 0.000812 -0.000812 0.000000 0.000000 0.000000 -0.064644
#
#
# Mechanical properties :
#
#
# Convention : Reuss Voigt Hill
#
# Bulk Modulus (GPa) = 22.99736 25.93745 24.46740
# Shear Modulus (GPa) = 57.99648 22.87828 40.43738
#
# Velocity S-wave (km/s) = 4.98328 3.12987 4.16108
# Velocity P-wave (km/s) = 6.55422 4.91603 5.79332
#
# Compressibility (1/GPa) = 0.04348325
#
# Stress axis : x y z
#
# Youngs Moduli (GPa) = 98.09771 98.09771 35.96995
#
# Poissons Ratio (x) = -0.17956 0.07523
# Poissons Ratio (y) = -0.17956 0.07523
# Poissons Ratio (z) = 0.20518 0.20518
#
# Static dielectric constant tensor:
#      x y z
#    x 1.899310 0.000000 0.000000 
#    y 0.000000 1.899310 0.000000 
#    z 0.000000 0.000000 1.799190 
# 
# From -- ./inp_files/421.got.cif
#   From: 2010.05.17/outbox.cif.g08.bks.cpg/sg79_cif.got.tgz:421.got - 2010.06.03 18:47:27.
