data_PCOD9541958
_publ_section_title
;
Structure prediction by ZEFSAII (Michael W. Deem and Ramdas Pophale) SiO2 
 PCOD9541958
Probable space group: I 4
;
_chemical_formula_sum "Si O2"
_cell_formula_units_Z 56
_cell_length_a 11.327401
_cell_length_b 11.327401
_cell_length_c 26.016594
_cell_angle_alpha 90.000000
_cell_angle_beta 90.000000
_cell_angle_gamma 90.000000
_cell_volume 3338.189525
_symmetry_space_group_name_H-M "I 4"
_symmetry_group_IT_number 79
_symmetry_cell_setting 'tetragonal'
loop_
_space_group_symop_operation_xyz
x,y,z
-y,x,z
-x,-y,z
y,-x,z
1/2+x,1/2+y,1/2+z
1/2-y,1/2+x,1/2+z
1/2-x,1/2-y,1/2+z
1/2+y,1/2-x,1/2+z
loop_
_atom_site_type_symbol
_atom_site_label
_atom_site_fract_x
_atom_site_fract_y
_atom_site_fract_z
Si Si1 0.010439 0.638754 0.990080
Si Si2 0.654125 0.618770 0.908334
Si Si3 0.148539 0.130847 0.607617
Si Si4 0.763726 0.741559 0.007537
Si Si5 0.271502 0.257138 0.326204
Si Si6 0.355264 0.360665 0.223084
Si Si7 0.860716 0.509054 0.366602
O O1 0.005845 0.636299 0.928164
O O2 0.000000 0.500000 0.006924
O O3 0.130446 0.704279 0.005316
O O4 0.903205 0.719704 0.009603
O O5 0.520527 0.660357 0.915323
O O6 0.695476 0.651936 0.851128
O O7 0.727129 0.678582 0.953934
O O8 0.212094 0.182427 0.558531
O O9 0.184639 0.169285 0.665120
O O10 0.010055 0.159672 0.604752
O O11 0.287326 0.286974 0.266355
O O12 0.206561 0.372050 0.349738
O O13 0.401439 0.220186 0.346377
O O14 0.496998 0.339669 0.229004
O O15 0.000000 0.500000 0.349488
#
# Coordination Sequence:
#
# PCOD9541958 Si02
#       7
#     8   8   8   8   8   8   8
#     4  11  22  37  57  85 119 154 184 231 282 335
#     4  11  22  35  55  82 110 148 192 234 281 334
#     4   9  18  34  58  82 107 140 186 243 288 324
#     4  12  22  36  58  83 116 149 187 230 284 343
#     4  12  20  34  57  80 114 149 184 228 280 344
#     4   9  18  33  54  82 109 140 183 232 287 329
#     4  11  22  35  53  83 119 152 184 225 284 335
#
# _framework density 16.775559999999999
#
# number of rings (size 3 to 8) (size 9 to 14) (size 15 to 20)
#    0.000    1.286    4.286    4.286    0.000    1.714 
#    0.000    1.429    6.286    0.000    0.000    0.000 
#    0.000    0.000    0.000    0.000    0.000    0.000 
#
# Total GULP energy -156024.884755 kJ/mol
# GULP energy per Si atom -5572.317313 kJ/mol
# Density = 1.673738 g / cm^3
# Si number density = 16.775560 Si / 1000 Ang^3
#
#
#
# Elastic Constant Matrix: (Units=GPa)
#
#
# Indices 1 2 3 4 5 6 
#
# 1 144.5443 -107.1529 21.6552 0.0000 0.0000 6.6258
# 2 -107.1529 144.5443 21.6552 0.0000 0.0000 -6.6258
# 3 21.6552 21.6552 112.0779 0.0000 0.0000 0.0000
# 4 0.0000 0.0000 0.0000 20.8571 0.0000 0.0000
# 5 0.0000 0.0000 0.0000 0.0000 20.8571 0.0000
# 6 6.6258 -6.6258 0.0000 0.0000 0.0000 28.5113
#
#
#
# Elastic Compliance Matrix: (Units=1/GPa)
#
#
# Indices 1 2 3 4 5 6 
#
# 1 0.019239 0.015216 -0.006657 0.000000 0.000000 -0.000935
# 2 0.015216 0.019239 -0.006657 0.000000 0.000000 0.000935
# 3 -0.006657 -0.006657 0.011495 0.000000 0.000000 0.000000
# 4 0.000000 0.000000 0.000000 0.047945 0.000000 0.000000
# 5 0.000000 0.000000 0.000000 0.000000 0.047945 0.000000
# 6 -0.000935 0.000935 0.000000 0.000000 0.000000 0.035508
#
#
# Mechanical properties :
#
#
# Convention : Reuss Voigt Hill
#
# Bulk Modulus (GPa) = 18.59558 30.38686 24.49122
# Shear Modulus (GPa) = 25.57640 45.04571 35.31106
#
# Velocity S-wave (km/s) = 3.90888 5.18751 4.59291
# Velocity P-wave (km/s) = 5.61083 7.35075 6.53892
#
# Compressibility (1/GPa) = 0.05377621
#
# Stress axis : x y z
#
# Youngs Moduli (GPa) = 51.97851 51.97851 86.99475
#
# Poissons Ratio (x) = -0.79093 0.57915
# Poissons Ratio (y) = -0.79093 0.57915
# Poissons Ratio (z) = 0.34604 0.34604
#
# Static dielectric constant tensor:
#      x y z
#    x 1.594360 0.000000 0.000000 
#    y 0.000000 1.594360 0.000000 
#    z 0.000000 0.000000 1.552670 
# 
# From -- ./inp_files/1968.got.cif
#   From: 2010.05.17/outbox.cif.g08.bks.cpg/sg79_cif.got.tgz:1968.got - 2010.06.03 18:47:27.
