data_PCOD9541101
_publ_section_title
;
Structure prediction by ZEFSAII (Michael W. Deem and Ramdas Pophale) SiO2 
 PCOD9541101
Probable space group: P 41
;
_chemical_formula_sum "Si O2"
_cell_formula_units_Z 24
_cell_length_a 10.479531
_cell_length_b 10.479531
_cell_length_c 9.610205
_cell_angle_alpha 90.000000
_cell_angle_beta 90.000000
_cell_angle_gamma 90.000000
_cell_volume 1055.398191
_symmetry_space_group_name_H-M "P 41"
_symmetry_group_IT_number 76
_symmetry_cell_setting 'tetragonal'
loop_
_space_group_symop_operation_xyz
x,y,z
-y,x,1/4+z
-x,-y,1/2+z
y,-x,3/4+z
loop_
_atom_site_type_symbol
_atom_site_label
_atom_site_fract_x
_atom_site_fract_y
_atom_site_fract_z
Si Si1 0.998544 0.633112 0.797540
Si Si2 0.900118 0.319123 0.569915
Si Si3 0.637538 0.258519 0.697905
Si Si4 0.586032 0.542141 0.584821
Si Si5 0.374952 0.857204 0.485981
Si Si6 0.844042 0.627854 0.550805
O O1 0.870150 0.577264 0.878204
O O2 0.946241 0.689207 0.653800
O O3 0.095475 0.520747 0.756637
O O4 0.065376 0.720098 0.912791
O O5 0.782903 0.254437 0.645700
O O6 0.872871 0.473335 0.556844
O O7 0.024177 0.304275 0.664313
O O8 0.591730 0.397273 0.644957
O O9 0.628672 0.249309 0.865298
O O10 0.467186 0.593787 0.669187
O O11 0.704932 0.631259 0.620502
O O12 0.326500 0.838861 0.642826
#
# Coordination Sequence:
#
# PCOD9541101 Si02
#       6
#     4   4   4   4   4   4
#     4   9  16  34  54  77 110 148 196 239 284 348
#     4   8  17  31  54  79 103 141 195 245 289 335
#     4  10  19  35  54  80 114 150 196 238 296 352
#     4  11  23  35  49  77 123 159 191 229 288 354
#     4   9  18  32  56  79 109 148 197 239 286 350
#     4   9  17  33  51  74 109 154 193 234 271 345
#
# _framework density 22.740231000000001
#
# number of rings (size 3 to 8) (size 9 to 14) (size 15 to 20)
#    0.000    2.667    1.667    1.000    2.333    0.000 
#    0.000    1.667    0.000    0.000    0.000   18.667 
#    0.000    0.000    0.000    0.000    0.000    0.000 
#
# Total GULP energy -133787.145499 kJ/mol
# GULP energy per Si atom -5574.464396 kJ/mol
# Density = 2.268847 g / cm^3
# Si number density = 22.740231 Si / 1000 Ang^3
#
#
#
# Elastic Constant Matrix: (Units=GPa)
#
#
# Indices 1 2 3 4 5 6 
#
# 1 50.4951 7.4699 24.5754 0.0000 0.0000 7.2860
# 2 7.4699 50.4951 24.5754 0.0000 0.0000 -7.2860
# 3 24.5754 24.5754 211.3233 0.0000 0.0000 0.0000
# 4 0.0000 0.0000 0.0000 25.4490 0.0000 0.0000
# 5 0.0000 0.0000 0.0000 0.0000 25.4490 0.0000
# 6 7.2860 -7.2860 0.0000 0.0000 0.0000 12.2526
#
#
#
# Elastic Compliance Matrix: (Units=1/GPa)
#
#
# Indices 1 2 3 4 5 6 
#
# 1 0.024121 -0.004982 -0.002226 0.000000 0.000000 -0.017306
# 2 -0.004982 0.024121 -0.002226 0.000000 0.000000 0.017306
# 3 -0.002226 -0.002226 0.005250 0.000000 0.000000 0.000000
# 4 0.000000 0.000000 0.000000 0.039294 0.000000 0.000000
# 5 0.000000 0.000000 0.000000 0.000000 0.039294 0.000000
# 6 -0.017306 0.017306 0.000000 0.000000 0.000000 0.102198
#
#
# Mechanical properties :
#
#
# Convention : Reuss Voigt Hill
#
# Bulk Modulus (GPa) = 28.88090 47.28388 38.08239
# Shear Modulus (GPa) = 18.89018 29.67631 24.28324
#
# Velocity S-wave (km/s) = 2.88530 3.61642 3.27135
# Velocity P-wave (km/s) = 4.88138 6.18677 5.57243
#
# Compressibility (1/GPa) = 0.03462496
#
# Stress axis : x y z
#
# Youngs Moduli (GPa) = 41.45710 41.45710 190.48491
#
# Poissons Ratio (x) = 0.20655 0.42397
# Poissons Ratio (y) = 0.20655 0.42397
# Poissons Ratio (z) = 0.09227 0.09227
#
# Static dielectric constant tensor:
#      x y z
#    x 1.880600 0.000000 0.000000 
#    y 0.000000 1.880600 0.000000 
#    z 0.000000 0.000000 1.937880 
# 
# From -- ./inp_files/517.got.cif
#   From: 2010.05.17/outbox.cif.g08.bks.cpg/sg76_cif.got.tgz:517.got - 2010.06.03 18:43:17.
