data_PCOD9541427
_publ_section_title
;
Structure prediction by ZEFSAII (Michael W. Deem and Ramdas Pophale) SiO2 
 PCOD9541427
Probable space group: P 41
;
_chemical_formula_sum "Si O2"
_cell_formula_units_Z 28
_cell_length_a 9.307723
_cell_length_b 9.307723
_cell_length_c 14.562466
_cell_angle_alpha 90.000000
_cell_angle_beta 90.000000
_cell_angle_gamma 90.000000
_cell_volume 1261.600419
_symmetry_space_group_name_H-M "P 41"
_symmetry_group_IT_number 76
_symmetry_cell_setting 'tetragonal'
loop_
_space_group_symop_operation_xyz
x,y,z
-y,x,1/4+z
-x,-y,1/2+z
y,-x,3/4+z
loop_
_atom_site_type_symbol
_atom_site_label
_atom_site_fract_x
_atom_site_fract_y
_atom_site_fract_z
Si Si1 0.718550 0.399757 0.911640
Si Si2 0.235418 0.144852 0.955462
Si Si3 0.872529 0.547947 0.199234
Si Si4 0.665519 0.465160 0.702629
Si Si5 0.602164 0.047394 0.156589
Si Si6 0.808176 0.777314 0.665935
Si Si7 0.388377 0.123555 0.305862
O O1 0.720283 0.419704 0.802028
O O2 0.592361 0.502893 0.949704
O O3 0.883892 0.423261 0.939093
O O4 0.673478 0.241674 0.940266
O O5 0.394032 0.200381 0.928423
O O6 0.218524 0.165332 0.064356
O O7 0.107130 0.235487 0.909859
O O8 0.242280 0.977391 0.929923
O O9 0.931478 0.544570 0.303447
O O10 0.996059 0.577974 0.125523
O O11 0.717911 0.628468 0.681686
O O12 0.739187 0.375696 0.620966
O O13 0.516531 0.140064 0.232164
O O14 0.750624 0.888108 0.742281
#
# Coordination Sequence:
#
# PCOD9541427 Si02
#       7
#     4   4   4   4   4   4   4
#     4  12  29  46  75 111 150 196 251 318 378 449
#     4  12  27  49  76 110 153 202 253 312 387 464
#     4  12  28  47  76 114 148 198 252 316 384 450
#     4  12  25  46  76 110 146 193 258 312 376 446
#     4  12  27  50  75 110 155 199 252 316 380 464
#     4  12  27  48  78 110 150 205 252 309 387 459
#     4  12  25  50  76 105 152 197 256 313 370 464
#
# _framework density 22.194030999999999
#
# number of rings (size 3 to 8) (size 9 to 14) (size 15 to 20)
#    0.000    0.000    7.143    0.857   10.000    2.286 
#    0.000    0.000    0.000    0.000    0.000    0.000 
#    0.000    0.000    0.000    0.000    0.000    0.000 
#
# Total GULP energy -156551.542386 kJ/mol
# GULP energy per Si atom -5591.126514 kJ/mol
# Density = 2.214352 g / cm^3
# Si number density = 22.194031 Si / 1000 Ang^3
#
#
#
# Elastic Constant Matrix: (Units=GPa)
#
#
# Indices 1 2 3 4 5 6 
#
# 1 69.0546 34.3951 9.2142 0.0000 0.0000 -2.8613
# 2 34.3951 69.0546 9.2142 0.0000 0.0000 2.8613
# 3 9.2142 9.2142 84.7679 0.0000 0.0000 0.0000
# 4 0.0000 0.0000 0.0000 29.3999 0.0000 0.0000
# 5 0.0000 0.0000 0.0000 0.0000 29.3999 0.0000
# 6 -2.8613 2.8613 0.0000 0.0000 0.0000 24.9607
#
#
#
# Elastic Compliance Matrix: (Units=1/GPa)
#
#
# Indices 1 2 3 4 5 6 
#
# 1 0.019633 -0.009776 -0.001071 0.000000 0.000000 0.003371
# 2 -0.009776 0.019633 -0.001071 0.000000 0.000000 -0.003371
# 3 -0.001071 -0.001071 0.012030 0.000000 0.000000 0.000000
# 4 0.000000 0.000000 0.000000 0.034014 0.000000 0.000000
# 5 0.000000 0.000000 0.000000 0.000000 0.034014 0.000000
# 6 0.003371 -0.003371 0.000000 0.000000 0.000000 0.040836
#
#
# Mechanical properties :
#
#
# Convention : Reuss Voigt Hill
#
# Bulk Modulus (GPa) = 36.41833 36.50269 36.46051
# Shear Modulus (GPa) = 25.88665 28.08899 26.98782
#
# Velocity S-wave (km/s) = 3.41893 3.56140 3.49089
# Velocity P-wave (km/s) = 5.65952 5.77877 5.71946
#
# Compressibility (1/GPa) = 0.02745870
#
# Stress axis : x y z
#
# Youngs Moduli (GPa) = 50.93435 50.93435 83.12647
#
# Poissons Ratio (x) = 0.49792 0.08907
# Poissons Ratio (y) = 0.49792 0.08907
# Poissons Ratio (z) = 0.05458 0.05458
#
# Static dielectric constant tensor:
#      x y z
#    x 1.859930 0.000000 0.000000 
#    y 0.000000 1.859930 0.000000 
#    z 0.000000 0.000000 1.787940 
# 
# From -- ./inp_files/1102.got.cif
#   From: 2010.05.17/outbox.cif.g08.bks.cpg/sg76_cif.got.tgz:1102.got - 2010.06.03 18:43:17.
