data_PCOD9541069
_publ_section_title
;
Structure prediction by ZEFSAII (Michael W. Deem and Ramdas Pophale) SiO2 
 PCOD9541069
Probable space group: P 41
;
_chemical_formula_sum "Si O2"
_cell_formula_units_Z 28
_cell_length_a 19.408153
_cell_length_b 19.408153
_cell_length_c 5.370019
_cell_angle_alpha 90.000000
_cell_angle_beta 90.000000
_cell_angle_gamma 90.000000
_cell_volume 2022.759440
_symmetry_space_group_name_H-M "P 41"
_symmetry_group_IT_number 76
_symmetry_cell_setting 'tetragonal'
loop_
_space_group_symop_operation_xyz
x,y,z
-y,x,1/4+z
-x,-y,1/2+z
y,-x,3/4+z
loop_
_atom_site_type_symbol
_atom_site_label
_atom_site_fract_x
_atom_site_fract_y
_atom_site_fract_z
Si Si1 0.578418 0.855059 0.394110
Si Si2 0.636307 0.561401 0.288443
Si Si3 0.839053 0.584756 0.666932
Si Si4 0.794036 0.574460 0.167721
Si Si5 0.415989 0.375140 0.272776
Si Si6 0.455241 0.995413 0.926078
Si Si7 0.425419 0.214397 0.393169
O O1 0.494628 0.841687 0.399765
O O2 0.589541 0.936439 0.376784
O O3 0.604134 0.824422 0.653107
O O4 0.603306 0.813622 0.153297
O O5 0.715542 0.551662 0.204894
O O6 0.608466 0.490302 0.402615
O O7 0.632922 0.611063 0.532317
O O8 0.599329 0.584622 0.031382
O O9 0.817921 0.616711 0.406214
O O10 0.806064 0.506990 0.650897
O O11 0.921052 0.580003 0.688934
O O12 0.805027 0.614704 0.912832
O O13 0.417159 0.295306 0.353635
O O14 0.492890 0.007600 0.190563
#
# Coordination Sequence:
#
# PCOD9541069 Si02
#       7
#     4   4   4   4   4   4   4
#     4  10  17  27  47  61  86 101 115 137 169 242
#     4  12  25  38  53  61  72  91 130 174 222 271
#     4  10  17  27  47  61  86 101 115 137 169 242
#     4  10  18  31  46  59  74 104 117 142 193 240
#     4  12  25  38  53  61  72  91 130 174 222 271
#     4  12  16  24  38  74  84 100 120 132 156 208
#     4  10  18  31  46  59  74 104 117 142 193 240
#
# _framework density 13.842475
#
# number of rings (size 3 to 8) (size 9 to 14) (size 15 to 20)
#    0.000    1.143    8.571    2.571    4.000    1.143 
#    0.000    0.000    0.000    0.000    0.000    0.000 
#    0.000    0.000    0.000    0.000    0.000    0.000 
#
# Total GULP energy -155926.522271 kJ/mol
# GULP energy per Si atom -5568.804367 kJ/mol
# Density = 1.381097 g / cm^3
# Si number density = 13.842475 Si / 1000 Ang^3
#
#
#
# Elastic Constant Matrix: (Units=GPa)
#
#
# Indices 1 2 3 4 5 6 
#
# 1 41.9672 17.1786 20.3719 0.0000 0.0000 1.0870
# 2 17.1786 41.9672 20.3719 0.0000 0.0000 -1.0870
# 3 20.3719 20.3719 143.4035 0.0000 0.0000 0.0000
# 4 0.0000 0.0000 0.0000 19.9439 0.0000 0.0000
# 5 0.0000 0.0000 0.0000 0.0000 19.9439 0.0000
# 6 1.0870 -1.0870 0.0000 0.0000 0.0000 -0.3373
#
#
#
# Elastic Compliance Matrix: (Units=1/GPa)
#
#
# Indices 1 2 3 4 5 6 
#
# 1 0.025097 -0.006356 -0.002662 0.000000 0.000000 0.101349
# 2 -0.006356 0.025097 -0.002662 0.000000 0.000000 -0.101349
# 3 -0.002662 -0.002662 0.007730 0.000000 0.000000 0.000000
# 4 0.000000 0.000000 0.000000 0.050141 0.000000 0.000000
# 5 0.000000 0.000000 0.000000 0.000000 0.050141 0.000000
# 6 0.101349 -0.101349 0.000000 0.000000 0.000000 -2.311226
#
#
# Mechanical properties :
#
#
# Convention : Reuss Voigt Hill
#
# Bulk Modulus (GPa) = 28.93270 38.13143 33.53207
# Shear Modulus (GPa) = -2.36056 19.20445 8.42194
#
# Velocity S-wave (km/s) = -1.30729 3.72876 2.46928
# Velocity P-wave (km/s) = 4.32066 6.79299 5.69266
#
# Compressibility (1/GPa) = 0.03456297
#
# Stress axis : x y z
#
# Youngs Moduli (GPa) = 39.84532 39.84532 129.36990
#
# Poissons Ratio (x) = 0.25324 0.34444
# Poissons Ratio (y) = 0.25324 0.34444
# Poissons Ratio (z) = 0.10608 0.10608
#
# Static dielectric constant tensor:
#      x y z
#    x 1.461110 0.000000 0.000000 
#    y 0.000000 1.461110 0.000000 
#    z 0.000000 0.000000 1.583650 
# 
# From -- ./inp_files/311.got.cif
#   From: 2010.05.17/outbox.cif.g08.bks.cpg/sg76_cif.got.tgz:311.got - 2010.06.03 18:43:17.
