data_PCOD9541704
_publ_section_title
;
Structure prediction by ZEFSAII (Michael W. Deem and Ramdas Pophale) SiO2 
 PCOD9541704
Probable space group: P 43
;
_chemical_formula_sum "Si O2"
_cell_formula_units_Z 24
_cell_length_a 7.724798
_cell_length_b 7.724798
_cell_length_c 17.511886
_cell_angle_alpha 90.000000
_cell_angle_beta 90.000000
_cell_angle_gamma 90.000000
_cell_volume 1044.978090
_symmetry_space_group_name_H-M "P 43"
_symmetry_group_IT_number 78
_symmetry_cell_setting 'tetragonal'
loop_
_space_group_symop_operation_xyz
x,y,z
-y,x,3/4+z
-x,-y,1/2+z
y,-x,1/4+z
loop_
_atom_site_type_symbol
_atom_site_label
_atom_site_fract_x
_atom_site_fract_y
_atom_site_fract_z
Si Si1 0.186292 0.293128 0.127480
Si Si2 0.591820 0.158940 0.714857
Si Si3 0.469290 0.247989 0.246040
Si Si4 0.803187 0.403863 0.170882
Si Si5 0.894868 0.894252 0.356227
Si Si6 0.780733 0.791099 0.194369
O O1 0.326442 0.336168 0.191877
O O2 0.993294 0.324555 0.159680
O O3 0.173975 0.091532 0.101765
O O4 0.231886 0.395868 0.050367
O O5 0.765016 0.192417 0.667278
O O6 0.419317 0.214205 0.671456
O O7 0.566905 0.954039 0.729129
O O8 0.661428 0.301379 0.220054
O O9 0.432369 0.272782 0.335315
O O10 0.834805 0.593214 0.205065
O O11 0.802448 0.883782 0.275358
O O12 0.882678 0.089561 0.386229
#
# Coordination Sequence:
#
# PCOD9541704 Si02
#       6
#     4   4   4   4   4   4
#     4  10  22  45  74  96 142 184 235 295 353 432
#     4  10  23  44  68 104 134 183 240 286 356 432
#     4  10  24  45  67 100 138 182 236 292 361 420
#     4  11  26  44  66 106 138 184 238 294 361 432
#     4  11  23  46  70 104 138 190 233 301 359 422
#     4  12  26  42  75 100 148 183 240 298 358 438
#
# _framework density 22.966991
#
# number of rings (size 3 to 8) (size 9 to 14) (size 15 to 20)
#    0.000    1.333    1.667    3.000    4.667    4.000 
#    0.000    0.000    0.000    0.000    0.000    0.000 
#    0.000    0.000    0.000    0.000    0.000    0.000 
#
# Total GULP energy -134292.597963 kJ/mol
# GULP energy per Si atom -5595.524915 kJ/mol
# Density = 2.291472 g / cm^3
# Si number density = 22.966991 Si / 1000 Ang^3
#
#
#
# Elastic Constant Matrix: (Units=GPa)
#
#
# Indices 1 2 3 4 5 6 
#
# 1 49.7417 -2.9318 20.7749 0.0000 0.0000 -11.2352
# 2 -2.9318 49.7417 20.7749 0.0000 0.0000 11.2352
# 3 20.7749 20.7749 90.5950 0.0000 0.0000 0.0000
# 4 0.0000 0.0000 0.0000 19.8458 0.0000 0.0000
# 5 0.0000 0.0000 0.0000 0.0000 19.8458 0.0000
# 6 -11.2352 11.2352 0.0000 0.0000 0.0000 24.6663
#
#
#
# Elastic Compliance Matrix: (Units=1/GPa)
#
#
# Indices 1 2 3 4 5 6 
#
# 1 0.025193 0.001630 -0.006151 0.000000 0.000000 0.010733
# 2 0.001630 0.025193 -0.006151 0.000000 0.000000 -0.010733
# 3 -0.006151 -0.006151 0.013859 0.000000 0.000000 0.000000
# 4 0.000000 0.000000 0.000000 0.050389 0.000000 0.000000
# 5 0.000000 0.000000 0.000000 0.000000 0.050389 0.000000
# 6 0.010733 -0.010733 0.000000 0.000000 0.000000 0.050319
#
#
# Mechanical properties :
#
#
# Convention : Reuss Voigt Hill
#
# Bulk Modulus (GPa) = 23.30947 29.70160 26.50553
# Shear Modulus (GPa) = 19.92145 22.96892 21.44518
#
# Velocity S-wave (km/s) = 2.94835 3.16584 3.05903
# Velocity P-wave (km/s) = 4.66492 5.13067 4.90333
#
# Compressibility (1/GPa) = 0.04290103
#
# Stress axis : x y z
#
# Youngs Moduli (GPa) = 39.69339 39.69339 72.15463
#
# Poissons Ratio (x) = -0.06468 0.44381
# Poissons Ratio (y) = -0.06468 0.44381
# Poissons Ratio (z) = 0.24415 0.24415
#
# Static dielectric constant tensor:
#      x y z
#    x 1.884990 0.000000 0.000000 
#    y 0.000000 1.884990 0.000000 
#    z 0.000000 0.000000 1.833290 
# 
# From -- ./inp_files/1233.got.cif
#   From: 2010.05.17/outbox.cif.g08.bks.cpg/sg78_cif.got.tgz:1233.got - 2010.06.03 18:45:56.
