data_PCOD9541719
_publ_section_title
;
Structure prediction by ZEFSAII (Michael W. Deem and Ramdas Pophale) SiO2 
 PCOD9541719
Probable space group: P 43
;
_chemical_formula_sum "Si O2"
_cell_formula_units_Z 16
_cell_length_a 11.112969
_cell_length_b 11.112969
_cell_length_c 4.983752
_cell_angle_alpha 90.000000
_cell_angle_beta 90.000000
_cell_angle_gamma 90.000000
_cell_volume 615.483803
_symmetry_space_group_name_H-M "P 43"
_symmetry_group_IT_number 78
_symmetry_cell_setting 'tetragonal'
loop_
_space_group_symop_operation_xyz
x,y,z
-y,x,3/4+z
-x,-y,1/2+z
y,-x,1/4+z
loop_
_atom_site_type_symbol
_atom_site_label
_atom_site_fract_x
_atom_site_fract_y
_atom_site_fract_z
Si Si1 0.847800 0.887372 0.960370
Si Si2 0.672591 0.535063 0.234211
Si Si3 0.458004 0.938963 0.088710
Si Si4 0.782180 0.742920 0.482877
O O1 0.771061 0.845742 0.701993
O O2 0.982208 0.859136 0.847191
O O3 0.798473 0.802007 0.193307
O O4 0.588521 0.606666 0.035517
O O5 0.812984 0.510929 0.190350
O O6 0.683398 0.636828 0.473024
O O7 0.335598 0.905966 0.247957
O O8 0.545892 0.971607 0.335699
#
# Coordination Sequence:
#
# PCOD9541719 Si02
#       4
#     4   4   4   4
#     4  12  24  45  71 107 150 196 252 313 377 449
#     4  10  26  48  74 112 154 203 258 316 390 455
#     4  10  23  46  73 107 148 200 253 312 379 454
#     4  10  25  43  72 108 144 201 245 313 376 452
#
# _framework density 25.995808
#
# number of rings (size 3 to 8) (size 9 to 14) (size 15 to 20)
#    1.500    0.000    0.000    4.500    0.000   10.000 
#    0.000    0.000    0.000    0.000    0.000    0.000 
#    0.000    0.000    0.000    0.000    0.000    0.000 
#
# Total GULP energy -89209.105959 kJ/mol
# GULP energy per Si atom -5575.569122 kJ/mol
# Density = 2.593664 g / cm^3
# Si number density = 25.995808 Si / 1000 Ang^3
#
#
#
# Elastic Constant Matrix: (Units=GPa)
#
#
# Indices 1 2 3 4 5 6 
#
# 1 16.8899 97.0960 43.6522 0.0000 0.0000 31.2910
# 2 97.0960 16.8899 43.6522 0.0000 0.0000 -31.2910
# 3 43.6522 43.6522 161.9464 0.0000 0.0000 0.0000
# 4 0.0000 0.0000 0.0000 -14.4976 0.0000 0.0000
# 5 0.0000 0.0000 0.0000 0.0000 -14.4976 0.0000
# 6 31.2910 -31.2910 0.0000 0.0000 0.0000 9.2688
#
#
#
# Elastic Compliance Matrix: (Units=1/GPa)
#
#
# Indices 1 2 3 4 5 6 
#
# 1 0.003812 0.007243 -0.002980 0.000000 0.000000 0.011582
# 2 0.007243 0.003812 -0.002980 0.000000 0.000000 -0.011582
# 3 -0.002980 -0.002980 0.007781 0.000000 0.000000 0.000000
# 4 0.000000 0.000000 0.000000 -0.068977 0.000000 0.000000
# 5 0.000000 0.000000 0.000000 0.000000 -0.068977 0.000000
# 6 0.011582 -0.011582 0.000000 0.000000 0.000000 0.029688
#
#
# Mechanical properties :
#
#
# Convention : Reuss Voigt Hill
#
# Bulk Modulus (GPa) = 55.64094 62.72524 59.18309
# Shear Modulus (GPa) = -55.90609 -3.19023 -29.54816
#
# Velocity S-wave (km/s) = -4.64247 -1.10900 -3.37508
# Velocity P-wave (km/s) = 2.69933 4.74779 2.76181
#
# Compressibility (1/GPa) = 0.01797238
#
# Stress axis : x y z
#
# Youngs Moduli (GPa) = 262.30683 262.30683 128.51225
#
# Poissons Ratio (x) = -1.89991 0.38296
# Poissons Ratio (y) = -1.89991 0.38296
# Poissons Ratio (z) = 0.78166 0.78166
#
# Static dielectric constant tensor:
#      x y z
#    x 2.201170 0.000000 0.000000 
#    y 0.000000 2.201170 0.000000 
#    z 0.000000 0.000000 1.991780 
# 
# From -- ./inp_files/127.got.cif
#   From: 2010.05.17/outbox.cif.g08.bks.cpg/sg78_cif.got.tgz:127.got - 2010.06.03 18:45:56.
