data_PCOD9541498
_publ_section_title
;
Structure prediction by ZEFSAII (Michael W. Deem and Ramdas Pophale) SiO2 
 PCOD9541498
Probable space group: P 42
;
_chemical_formula_sum "Si O2"
_cell_formula_units_Z 18
_cell_length_a 5.366226
_cell_length_b 5.366226
_cell_length_c 25.304677
_cell_angle_alpha 90.000000
_cell_angle_beta 90.000000
_cell_angle_gamma 90.000000
_cell_volume 728.683132
_symmetry_space_group_name_H-M "P 42"
_symmetry_group_IT_number 77
_symmetry_cell_setting 'tetragonal'
loop_
_space_group_symop_operation_xyz
x,y,z
-y,x,1/2+z
-x,-y,z
y,-x,1/2+z
loop_
_atom_site_type_symbol
_atom_site_label
_atom_site_fract_x
_atom_site_fract_y
_atom_site_fract_z
Si Si1 0.752423 0.361593 0.720370
Si Si2 0.834452 0.751012 0.449361
Si Si3 0.742238 0.658887 0.566764
Si Si4 0.500000 0.000000 0.648692
Si Si5 0.831314 0.750344 0.335378
O O1 0.500000 0.500000 0.704766
O O2 0.701485 0.108160 0.690578
O O3 0.756233 0.335743 0.783538
O O4 0.000000 0.500000 0.702890
O O5 0.704158 0.744341 0.505909
O O6 0.696646 0.750137 0.392684
O O7 0.000000 0.500000 0.448466
O O8 0.000000 0.000000 0.449687
O O9 0.500000 0.500000 0.580213
O O10 0.000000 0.500000 0.570484
O O11 0.699007 0.878754 0.607639
O O12 0.000000 0.500000 0.332173
O O13 0.000000 0.000000 0.333233
#
# Coordination Sequence:
#
# PCOD9541498 Si02
#       5
#     4   4   4   2   4
#     4  12  28  48  73 112 147 200 261 317 395 471
#     4   9  21  43  75 111 151 193 252 320 394 475
#     4  11  28  51  76 113 148 203 262 316 393 477
#     4  12  30  52  76 104 166 206 266 330 398 470
#     4  10  20  44  75 106 149 195 244 318 392 467
#
# _framework density 24.702090999999999
#
# number of rings (size 3 to 8) (size 9 to 14) (size 15 to 20)
#    0.000    1.333    1.111    2.000    6.222    6.222 
#    2.000    0.000    0.000    0.000    0.000    0.000 
#    0.000    0.000    0.000    0.000    0.000    0.000 
#
# Total GULP energy -100554.188468 kJ/mol
# GULP energy per Si atom -5586.343804 kJ/mol
# Density = 2.464587 g / cm^3
# Si number density = 24.702091 Si / 1000 Ang^3
#
#
#
# Elastic Constant Matrix: (Units=GPa)
#
#
# Indices 1 2 3 4 5 6 
#
# 1 107.2340 24.5320 11.0732 0.0000 0.0000 -2.0879
# 2 24.5320 107.2340 11.0732 0.0000 0.0000 2.0879
# 3 11.0732 11.0732 193.1364 0.0000 0.0000 0.0000
# 4 0.0000 0.0000 0.0000 97.1345 0.0000 0.0000
# 5 0.0000 0.0000 0.0000 0.0000 97.1345 0.0000
# 6 -2.0879 2.0879 0.0000 0.0000 0.0000 31.5697
#
#
#
# Elastic Compliance Matrix: (Units=1/GPa)
#
#
# Indices 1 2 3 4 5 6 
#
# 1 0.009898 -0.002235 -0.000439 0.000000 0.000000 0.000802
# 2 -0.002235 0.009898 -0.000439 0.000000 0.000000 -0.000802
# 3 -0.000439 -0.000439 0.005228 0.000000 0.000000 0.000000
# 4 0.000000 0.000000 0.000000 0.010295 0.000000 0.000000
# 5 0.000000 0.000000 0.000000 0.000000 0.010295 0.000000
# 6 0.000802 -0.000802 0.000000 0.000000 0.000000 0.031782
#
#
# Mechanical properties :
#
#
# Convention : Reuss Voigt Hill
#
# Bulk Modulus (GPa) = 53.20062 55.66235 54.43149
# Shear Modulus (GPa) = 55.62518 69.22948 62.42733
#
# Velocity S-wave (km/s) = 4.75050 5.29968 5.03259
# Velocity P-wave (km/s) = 7.18842 7.74798 7.47344
#
# Compressibility (1/GPa) = 0.01879677
#
# Stress axis : x y z
#
# Youngs Moduli (GPa) = 101.03471 101.03471 191.27530
#
# Poissons Ratio (x) = 0.22577 0.08404
# Poissons Ratio (y) = 0.22577 0.08404
# Poissons Ratio (z) = 0.04439 0.04439
#
# Static dielectric constant tensor:
#      x y z
#    x 1.899590 0.000000 0.000000 
#    y 0.000000 1.899590 0.000000 
#    z 0.000000 0.000000 1.961960 
# 
# From -- ./inp_files/1640.got.cif
#   From: 2010.05.17/outbox.cif.g08.bks.cpg/sg77_cif.got.tgz:1640.got - 2010.06.03 18:44:51.
