data_PCOD9541684
_publ_section_title
;
Structure prediction by ZEFSAII (Michael W. Deem and Ramdas Pophale) SiO2 
 PCOD9541684
Probable space group: P 43
;
_chemical_formula_sum "Si O2"
_cell_formula_units_Z 32
_cell_length_a 11.136500
_cell_length_b 11.136500
_cell_length_c 11.399295
_cell_angle_alpha 90.000000
_cell_angle_beta 90.000000
_cell_angle_gamma 90.000000
_cell_volume 1413.759172
_symmetry_space_group_name_H-M "P 43"
_symmetry_group_IT_number 78
_symmetry_cell_setting 'tetragonal'
loop_
_space_group_symop_operation_xyz
x,y,z
-y,x,3/4+z
-x,-y,1/2+z
y,-x,1/4+z
loop_
_atom_site_type_symbol
_atom_site_label
_atom_site_fract_x
_atom_site_fract_y
_atom_site_fract_z
Si Si1 0.789026 0.389300 0.196200
Si Si2 0.790203 0.132067 0.711640
Si Si3 0.521015 0.087113 0.658881
Si Si4 0.584521 0.508219 0.892997
Si Si5 0.922469 0.290485 0.558050
Si Si6 0.869397 0.155463 0.321779
Si Si7 0.892752 0.116175 0.949057
Si Si8 0.835487 0.396470 0.944088
O O1 0.834327 0.467199 0.304887
O O2 0.646738 0.386352 0.174471
O O3 0.834632 0.256522 0.227538
O O4 0.841649 0.444608 0.077311
O O5 0.651115 0.137331 0.688310
O O6 0.852168 0.255734 0.676265
O O7 0.808073 0.080591 0.841371
O O8 0.863920 0.026445 0.645910
O O9 0.426944 0.085689 0.766114
O O10 0.546772 0.947837 0.626164
O O11 0.533196 0.508305 0.759107
O O12 0.706959 0.431440 0.893543
O O13 0.864938 0.216922 0.448998
O O14 0.052996 0.230792 0.567927
O O15 0.008015 0.116509 0.292430
O O16 0.849321 0.253618 0.966046
#
# Coordination Sequence:
#
# PCOD9541684 Si02
#       8
#     4   4   4   4   4   4   4   4
#     4  10  22  39  61  88 127 168 213 275 325 378
#     4  11  23  40  60  92 130 162 205 264 323 380
#     4  10  24  40  60  91 125 167 213 265 322 383
#     4  10  23  44  68  94 130 178 230 277 324 388
#     4  11  22  36  61  90 122 167 209 255 318 386
#     4  11  20  36  62  93 122 160 211 256 323 400
#     4  11  22  39  64  95 129 160 201 264 329 390
#     4  10  22  42  64  91 127 170 214 268 334 393
#
# _framework density 22.634689999999999
#
# number of rings (size 3 to 8) (size 9 to 14) (size 15 to 20)
#    0.000    1.500    0.000    6.000    0.000   11.000 
#    0.000    3.750    0.000    0.000    0.000    0.000 
#    0.000    0.000    0.000    0.000    0.000    0.000 
#
# Total GULP energy -178631.532415 kJ/mol
# GULP energy per Si atom -5582.235388 kJ/mol
# Density = 2.258317 g / cm^3
# Si number density = 22.634690 Si / 1000 Ang^3
#
#
#
# Elastic Constant Matrix: (Units=GPa)
#
#
# Indices 1 2 3 4 5 6 
#
# 1 67.6692 27.9361 -0.4645 0.0000 0.0000 0.7100
# 2 27.9361 67.6692 -0.4645 0.0000 0.0000 -0.7100
# 3 -0.4645 -0.4645 32.2788 0.0000 0.0000 0.0000
# 4 0.0000 0.0000 0.0000 29.5961 0.0000 0.0000
# 5 0.0000 0.0000 0.0000 0.0000 29.5961 0.0000
# 6 0.7100 -0.7100 0.0000 0.0000 0.0000 21.6371
#
#
#
# Elastic Compliance Matrix: (Units=1/GPa)
#
#
# Indices 1 2 3 4 5 6 
#
# 1 0.017829 -0.007368 0.000151 0.000000 0.000000 -0.000827
# 2 -0.007368 0.017829 0.000151 0.000000 0.000000 0.000827
# 3 0.000151 0.000151 0.030984 0.000000 0.000000 0.000000
# 4 0.000000 0.000000 0.000000 0.033788 0.000000 0.000000
# 5 0.000000 0.000000 0.000000 0.000000 0.033788 0.000000
# 6 -0.000827 0.000827 0.000000 0.000000 0.000000 0.046271
#
#
# Mechanical properties :
#
#
# Convention : Reuss Voigt Hill
#
# Bulk Modulus (GPa) = 19.04442 24.62570 21.83506
# Shear Modulus (GPa) = 23.57068 25.53985 24.55527
#
# Velocity S-wave (km/s) = 3.23050 3.36274 3.29728
# Velocity P-wave (km/s) = 4.72725 5.09711 4.91566
#
# Compressibility (1/GPa) = 0.05250882
#
# Stress axis : x y z
#
# Youngs Moduli (GPa) = 56.08740 56.08740 32.27432
#
# Poissons Ratio (x) = 0.41326 -0.00486
# Poissons Ratio (y) = 0.41326 -0.00486
# Poissons Ratio (z) = -0.00844 -0.00844
#
# Static dielectric constant tensor:
#      x y z
#    x 1.859010 0.000000 0.000000 
#    y 0.000000 1.859010 0.000000 
#    z 0.000000 0.000000 1.927280 
# 
# From -- ./inp_files/979.got.cif
#   From: 2010.05.17/outbox.cif.g08.bks.cpg/sg78_cif.got.tgz:979.got - 2010.06.03 18:45:56.
