data_PCOD9541386
_publ_section_title
;
Structure prediction by ZEFSAII (Michael W. Deem and Ramdas Pophale) SiO2 
 PCOD9541386
Probable space group: P 41
;
_chemical_formula_sum "Si O2"
_cell_formula_units_Z 24
_cell_length_a 8.424867
_cell_length_b 8.424867
_cell_length_c 14.663809
_cell_angle_alpha 90.000000
_cell_angle_beta 90.000000
_cell_angle_gamma 90.000000
_cell_volume 1040.813466
_symmetry_space_group_name_H-M "P 41"
_symmetry_group_IT_number 76
_symmetry_cell_setting 'tetragonal'
loop_
_space_group_symop_operation_xyz
x,y,z
-y,x,1/4+z
-x,-y,1/2+z
y,-x,3/4+z
loop_
_atom_site_type_symbol
_atom_site_label
_atom_site_fract_x
_atom_site_fract_y
_atom_site_fract_z
Si Si1 0.805538 0.246772 0.906630
Si Si2 0.903132 0.273275 0.602363
Si Si3 0.464826 0.243429 0.507732
Si Si4 0.226243 0.824739 0.614454
Si Si5 0.974250 0.274779 0.283514
Si Si6 0.425533 0.245131 0.181113
O O1 0.719576 0.391810 0.856227
O O2 0.984094 0.240988 0.866262
O O3 0.719399 0.084868 0.879253
O O4 0.812005 0.245410 0.015463
O O5 0.795367 0.324844 0.687374
O O6 0.864548 0.390328 0.519024
O O7 0.856104 0.094670 0.573591
O O8 0.582322 0.370139 0.463475
O O9 0.571597 0.085293 0.520051
O O10 0.093642 0.779047 0.687383
O O11 0.395057 0.759990 0.648606
O O12 0.830630 0.317103 0.351323
#
# Coordination Sequence:
#
# PCOD9541386 Si02
#       6
#     4   4   4   4   4   4
#     4  12  24  48  79 119 147 199 269 329 381 458
#     4  11  24  44  78 108 150 197 262 317 386 456
#     4  11  25  47  72 110 154 202 258 321 395 466
#     4  12  27  46  82 114 155 201 264 327 391 461
#     4  11  25  45  73 111 142 207 256 317 386 467
#     4  11  25  48  74 108 158 202 255 311 409 462
#
# _framework density 23.058889000000001
#
# number of rings (size 3 to 8) (size 9 to 14) (size 15 to 20)
#    0.000    0.667    3.333    3.000   11.667    0.000 
#    0.000   18.333    0.000    0.000    0.000    0.000 
#    0.000    0.000    0.000    0.000    0.000    0.000 
#
# Total GULP energy -134526.768497 kJ/mol
# GULP energy per Si atom -5605.282021 kJ/mol
# Density = 2.300641 g / cm^3
# Si number density = 23.058889 Si / 1000 Ang^3
#
#
#
# Elastic Constant Matrix: (Units=GPa)
#
#
# Indices 1 2 3 4 5 6 
#
# 1 61.0316 26.4719 20.1684 0.0000 0.0000 -10.1194
# 2 26.4719 61.0316 20.1684 0.0000 0.0000 10.1194
# 3 20.1684 20.1684 126.2318 0.0000 0.0000 0.0000
# 4 0.0000 0.0000 0.0000 38.4181 0.0000 0.0000
# 5 0.0000 0.0000 0.0000 0.0000 38.4181 0.0000
# 6 -10.1194 10.1194 0.0000 0.0000 0.0000 24.7275
#
#
#
# Elastic Compliance Matrix: (Units=1/GPa)
#
#
# Indices 1 2 3 4 5 6 
#
# 1 0.025196 -0.012859 -0.001971 0.000000 0.000000 0.015574
# 2 -0.012859 0.025196 -0.001971 0.000000 0.000000 -0.015574
# 3 -0.001971 -0.001971 0.008552 0.000000 0.000000 0.000000
# 4 0.000000 0.000000 0.000000 0.026029 0.000000 0.000000
# 5 0.000000 0.000000 0.000000 0.000000 0.026029 0.000000
# 6 0.015574 -0.015574 0.000000 0.000000 0.000000 0.053187
#
#
# Mechanical properties :
#
#
# Convention : Reuss Voigt Hill
#
# Bulk Modulus (GPa) = 39.46181 42.43469 40.94825
# Shear Modulus (GPa) = 24.24354 32.41185 28.32769
#
# Velocity S-wave (km/s) = 3.24601 3.75322 3.50879
# Velocity P-wave (km/s) = 5.58564 6.10122 5.84911
#
# Compressibility (1/GPa) = 0.02534096
#
# Stress axis : x y z
#
# Youngs Moduli (GPa) = 39.68855 39.68855 116.93474
#
# Poissons Ratio (x) = 0.51037 0.23049
# Poissons Ratio (y) = 0.51037 0.23049
# Poissons Ratio (z) = 0.07823 0.07823
#
# Static dielectric constant tensor:
#      x y z
#    x 1.864100 0.000000 0.000000 
#    y 0.000000 1.864100 0.000000 
#    z 0.000000 0.000000 1.854720 
# 
# From -- ./inp_files/1094.got.cif
#   From: 2010.05.17/outbox.cif.g08.bks.cpg/sg76_cif.got.tgz:1094.got - 2010.06.03 18:43:17.
