data_PCOD9541168
_publ_section_title
;
Structure prediction by ZEFSAII (Michael W. Deem and Ramdas Pophale) SiO2 
 PCOD9541168
Probable space group: P 41
;
_chemical_formula_sum "Si O2"
_cell_formula_units_Z 28
_cell_length_a 7.920964
_cell_length_b 7.920964
_cell_length_c 19.851677
_cell_angle_alpha 90.000000
_cell_angle_beta 90.000000
_cell_angle_gamma 90.000000
_cell_volume 1245.527381
_symmetry_space_group_name_H-M "P 41"
_symmetry_group_IT_number 76
_symmetry_cell_setting 'tetragonal'
loop_
_space_group_symop_operation_xyz
x,y,z
-y,x,1/4+z
-x,-y,1/2+z
y,-x,3/4+z
loop_
_atom_site_type_symbol
_atom_site_label
_atom_site_fract_x
_atom_site_fract_y
_atom_site_fract_z
Si Si1 0.724457 0.239597 0.324320
Si Si2 0.506841 0.541547 0.732284
Si Si3 0.871214 0.865372 0.315662
Si Si4 0.603349 0.949489 0.846261
Si Si5 0.478488 0.306740 0.850494
Si Si6 0.093259 0.999933 0.425374
Si Si7 0.144369 0.704885 0.957252
O O1 0.652830 0.354193 0.264676
O O2 0.836768 0.341894 0.378362
O O3 0.815493 0.063527 0.306095
O O4 0.554885 0.168831 0.360901
O O5 0.536879 0.383095 0.779606
O O6 0.449442 0.503264 0.656899
O O7 0.664363 0.669339 0.735194
O O8 0.713258 0.756693 0.340046
O O9 0.933418 0.815199 0.241881
O O10 0.013991 0.866366 0.373182
O O11 0.576201 0.138847 0.871489
O O12 0.776708 0.890844 0.880296
O O13 0.612074 0.963251 0.764651
O O14 0.935211 0.110403 0.452091
#
# Coordination Sequence:
#
# PCOD9541168 Si02
#       7
#     4   4   4   4   4   4   4
#     4   9  20  39  63  86 122 165 210 255 313 385
#     4  11  21  41  64  91 125 167 217 257 326 387
#     4  10  21  37  63  88 123 164 211 259 316 378
#     4  10  22  39  62  92 132 156 212 268 318 379
#     4  11  23  40  64  92 128 168 207 269 323 380
#     4  11  20  40  62  92 127 165 211 264 321 379
#     4  10  21  40  62  91 121 169 206 266 311 386
#
# _framework density 22.480436000000001
#
# number of rings (size 3 to 8) (size 9 to 14) (size 15 to 20)
#    0.000    1.714    2.857    1.714    0.000    1.143 
#    0.000    0.000    0.000    0.000    0.000    0.000 
#    0.000    0.000    0.000    0.000    0.000    0.000 
#
# Total GULP energy -156102.946020 kJ/mol
# GULP energy per Si atom -5575.105215 kJ/mol
# Density = 2.242927 g / cm^3
# Si number density = 22.480436 Si / 1000 Ang^3
#
#
#
# Elastic Constant Matrix: (Units=GPa)
#
#
# Indices 1 2 3 4 5 6 
#
# 1 47.8387 8.5716 24.1878 0.0000 0.0000 8.8107
# 2 8.5716 47.8387 24.1878 0.0000 0.0000 -8.8107
# 3 24.1878 24.1878 105.8978 0.0000 0.0000 0.0000
# 4 0.0000 0.0000 0.0000 31.5303 0.0000 0.0000
# 5 0.0000 0.0000 0.0000 0.0000 31.5303 0.0000
# 6 8.8107 -8.8107 0.0000 0.0000 0.0000 21.7707
#
#
#
# Elastic Compliance Matrix: (Units=1/GPa)
#
#
# Indices 1 2 3 4 5 6 
#
# 1 0.026582 -0.004536 -0.005035 0.000000 0.000000 -0.012594
# 2 -0.004536 0.026582 -0.005035 0.000000 0.000000 0.012594
# 3 -0.005035 -0.005035 0.011743 0.000000 0.000000 0.000000
# 4 0.000000 0.000000 0.000000 0.031716 0.000000 0.000000
# 5 0.000000 0.000000 0.000000 0.000000 0.031716 0.000000
# 6 -0.012594 0.012594 0.000000 0.000000 0.000000 0.056127
#
#
# Mechanical properties :
#
#
# Convention : Reuss Voigt Hill
#
# Bulk Modulus (GPa) = 28.01690 35.05218 31.53454
# Shear Modulus (GPa) = 22.16550 26.60814 24.38682
#
# Velocity S-wave (km/s) = 3.14346 3.44410 3.29721
# Velocity P-wave (km/s) = 5.06606 5.60731 5.34354
#
# Compressibility (1/GPa) = 0.03569274
#
# Stress axis : x y z
#
# Youngs Moduli (GPa) = 37.61987 37.61987 85.15524
#
# Poissons Ratio (x) = 0.17066 0.42878
# Poissons Ratio (y) = 0.17066 0.42878
# Poissons Ratio (z) = 0.18943 0.18943
#
# Static dielectric constant tensor:
#      x y z
#    x 1.838970 0.000000 0.000000 
#    y 0.000000 1.838970 0.000000 
#    z 0.000000 0.000000 1.860370 
# 
# From -- ./inp_files/1381.got.cif
#   From: 2010.05.17/outbox.cif.g08.bks.cpg/sg76_cif.got.tgz:1381.got - 2010.06.03 18:43:17.
