data_PCOD9541121
_publ_section_title
;
Structure prediction by ZEFSAII (Michael W. Deem and Ramdas Pophale) SiO2 
 PCOD9541121
Probable space group: P 41
;
_chemical_formula_sum "Si O2"
_cell_formula_units_Z 16
_cell_length_a 6.920120
_cell_length_b 6.920120
_cell_length_c 11.456499
_cell_angle_alpha 90.000000
_cell_angle_beta 90.000000
_cell_angle_gamma 90.000000
_cell_volume 548.629521
_symmetry_space_group_name_H-M "P 41"
_symmetry_group_IT_number 76
_symmetry_cell_setting 'tetragonal'
loop_
_space_group_symop_operation_xyz
x,y,z
-y,x,1/4+z
-x,-y,1/2+z
y,-x,3/4+z
loop_
_atom_site_type_symbol
_atom_site_label
_atom_site_fract_x
_atom_site_fract_y
_atom_site_fract_z
Si Si1 0.397697 0.770024 0.311890
Si Si2 0.096657 0.269351 0.067304
Si Si3 0.403342 0.769352 0.056455
Si Si4 0.729976 0.102303 0.061869
O O1 0.302464 0.794003 0.181839
O O2 0.422600 0.536617 0.309799
O O3 0.296760 0.796760 0.436880
O O4 0.559606 0.935803 0.316412
O O5 0.213722 0.286277 0.186880
O O6 0.963382 0.077399 0.063961
O O7 0.197535 0.294004 0.941920
O O8 0.564196 0.940394 0.057348
#
# Coordination Sequence:
#
# PCOD9541121 Si02
#       4
#     4   4   4   4
#     4  10  19  43  63  89 126 169 201 260 312 367
#     4  10  22  42  64  93 130 163 214 254 319 374
#     4  10  22  42  64  93 130 163 214 254 319 374
#     4  10  19  43  63  89 126 169 201 260 312 367
#
# _framework density 29.163578000000001
#
# number of rings (size 3 to 8) (size 9 to 14) (size 15 to 20)
#    0.000    2.000    5.000    0.000    0.000    0.000 
#   27.000    0.000    0.000    0.000    0.000    0.000 
#    0.000    0.000    0.000    0.000    0.000    0.000 
#
# Total GULP energy -89089.078599 kJ/mol
# GULP energy per Si atom -5568.067412 kJ/mol
# Density = 2.909720 g / cm^3
# Si number density = 29.163578 Si / 1000 Ang^3
#
#
#
# Elastic Constant Matrix: (Units=GPa)
#
#
# Indices 1 2 3 4 5 6 
#
# 1 44.2069 17.9801 53.0963 0.0000 0.0000 0.0001
# 2 17.9801 44.2069 53.0963 0.0000 0.0000 -0.0001
# 3 53.0963 53.0963 375.0135 0.0000 0.0000 0.0000
# 4 0.0000 0.0000 0.0000 54.2052 0.0000 0.0000
# 5 0.0000 0.0000 0.0000 0.0000 54.2052 0.0000
# 6 0.0001 -0.0001 0.0000 0.0000 0.0000 75.8999
#
#
#
# Elastic Compliance Matrix: (Units=1/GPa)
#
#
# Indices 1 2 3 4 5 6 
#
# 1 0.029669 -0.008460 -0.003003 0.000000 0.000000 0.000000
# 2 -0.008460 0.029669 -0.003003 0.000000 0.000000 0.000000
# 3 -0.003003 -0.003003 0.003517 0.000000 0.000000 0.000000
# 4 0.000000 0.000000 0.000000 0.018448 0.000000 0.000000
# 5 0.000000 0.000000 0.000000 0.000000 0.018448 0.000000
# 6 0.000000 0.000000 0.000000 0.000000 0.000000 0.013175
#
#
# Mechanical properties :
#
#
# Convention : Reuss Voigt Hill
#
# Bulk Modulus (GPa) = 29.47929 79.08587 54.28258
# Shear Modulus (GPa) = 32.64451 59.47904 46.06178
#
# Velocity S-wave (km/s) = 3.34931 4.52098 3.97851
# Velocity P-wave (km/s) = 5.00873 7.37762 6.30542
#
# Compressibility (1/GPa) = 0.03392212
#
# Stress axis : x y z
#
# Youngs Moduli (GPa) = 33.70576 33.70576 284.34440
#
# Poissons Ratio (x) = 0.28516 0.85382
# Poissons Ratio (y) = 0.28516 0.85382
# Poissons Ratio (z) = 0.10121 0.10121
#
# Static dielectric constant tensor:
#      x y z
#    x 2.423320 0.000000 0.000000 
#    y 0.000000 2.423320 0.000000 
#    z 0.000000 0.000000 2.160150 
# 
# From -- ./inp_files/428.got.cif
#   From: 2010.05.17/outbox.cif.g08.bks.cpg/sg76_cif.got.tgz:428.got - 2010.06.03 18:43:17.
