data_PCOD9541377
_publ_section_title
;
Structure prediction by ZEFSAII (Michael W. Deem and Ramdas Pophale) SiO2 
 PCOD9541377
Probable space group: P 41
;
_chemical_formula_sum "Si O2"
_cell_formula_units_Z 20
_cell_length_a 5.131261
_cell_length_b 5.131261
_cell_length_c 27.060920
_cell_angle_alpha 90.000000
_cell_angle_beta 90.000000
_cell_angle_gamma 90.000000
_cell_volume 712.509679
_symmetry_space_group_name_H-M "P 41"
_symmetry_group_IT_number 76
_symmetry_cell_setting 'tetragonal'
loop_
_space_group_symop_operation_xyz
x,y,z
-y,x,1/4+z
-x,-y,1/2+z
y,-x,3/4+z
loop_
_atom_site_type_symbol
_atom_site_label
_atom_site_fract_x
_atom_site_fract_y
_atom_site_fract_z
Si Si1 0.222543 0.043771 0.340190
Si Si2 0.577626 0.094126 0.502223
Si Si3 0.385514 0.437957 0.424841
Si Si4 0.735283 0.102054 0.197506
Si Si5 0.712848 0.826121 0.300656
O O1 0.214263 0.244293 0.294043
O O2 0.308900 0.222060 0.385363
O O3 0.438065 0.824246 0.328124
O O4 0.930727 0.929961 0.339247
O O5 0.371863 0.292181 0.478161
O O6 0.758208 0.011605 0.455495
O O7 0.424999 0.848198 0.525718
O O8 0.674913 0.555114 0.424263
O O9 0.172805 0.669277 0.422825
O O10 0.689692 0.029968 0.255456
#
# Coordination Sequence:
#
# PCOD9541377 Si02
#       5
#     4   4   4   4   4
#     4  11  26  44  75 115 153 205 265 334 396 482
#     4  11  26  45  77 103 157 207 263 324 404 479
#     4  12  25  46  75 113 158 202 269 327 404 475
#     4  11  24  44  74 108 149 202 257 314 392 471
#     4  11  23  47  73 111 151 206 258 319 398 473
#
# _framework density 28.069789
#
# number of rings (size 3 to 8) (size 9 to 14) (size 15 to 20)
#    0.000    0.800    4.000    2.400    2.800    3.200 
#    0.000    0.000    4.400    0.000    0.000    0.000 
#    0.000    0.000    0.000    0.000    0.000    0.000 
#
# Total GULP energy -112191.012449 kJ/mol
# GULP energy per Si atom -5609.550622 kJ/mol
# Density = 2.800590 g / cm^3
# Si number density = 28.069789 Si / 1000 Ang^3
#
#
#
# Elastic Constant Matrix: (Units=GPa)
#
#
# Indices 1 2 3 4 5 6 
#
# 1 149.9037 51.5747 38.0354 0.0000 0.0000 5.8068
# 2 51.5747 149.9037 38.0354 0.0000 0.0000 -5.8068
# 3 38.0354 38.0354 99.5053 0.0000 0.0000 0.0000
# 4 0.0000 0.0000 0.0000 50.1822 0.0000 0.0000
# 5 0.0000 0.0000 0.0000 0.0000 50.1822 0.0000
# 6 5.8068 -5.8068 0.0000 0.0000 0.0000 52.7954
#
#
#
# Elastic Compliance Matrix: (Units=1/GPa)
#
#
# Indices 1 2 3 4 5 6 
#
# 1 0.008052 -0.002252 -0.002217 0.000000 0.000000 -0.001133
# 2 -0.002252 0.008052 -0.002217 0.000000 0.000000 0.001133
# 3 -0.002217 -0.002217 0.011745 0.000000 0.000000 0.000000
# 4 0.000000 0.000000 0.000000 0.019927 0.000000 0.000000
# 5 0.000000 0.000000 0.000000 0.000000 0.019927 0.000000
# 6 -0.001133 0.001133 0.000000 0.000000 0.000000 0.019190
#
#
# Mechanical properties :
#
#
# Convention : Reuss Voigt Hill
#
# Bulk Modulus (GPa) = 69.07575 72.73375 70.90475
# Shear Modulus (GPa) = 47.57746 48.74311 48.16029
#
# Velocity S-wave (km/s) = 4.12147 4.17165 4.14664
# Velocity P-wave (km/s) = 6.87827 7.01224 6.94558
#
# Compressibility (1/GPa) = 0.01447686
#
# Stress axis : x y z
#
# Youngs Moduli (GPa) = 124.19102 124.19102 85.14454
#
# Poissons Ratio (x) = 0.27964 0.18878
# Poissons Ratio (y) = 0.27964 0.18878
# Poissons Ratio (z) = 0.27535 0.27535
#
# Static dielectric constant tensor:
#      x y z
#    x 2.139070 0.000000 0.000000 
#    y 0.000000 2.139070 0.000000 
#    z 0.000000 0.000000 2.186660 
# 
# From -- ./inp_files/1672.got.cif
#   From: 2010.05.17/outbox.cif.g08.bks.cpg/sg76_cif.got.tgz:1672.got - 2010.06.03 18:43:17.
