data_PCOD9541862
_publ_section_title
;
Structure prediction by ZEFSAII (Michael W. Deem and Ramdas Pophale) SiO2 
 PCOD9541862
Probable space group: I 4
;
_chemical_formula_sum "Si O2"
_cell_formula_units_Z 44
_cell_length_a 15.043900
_cell_length_b 15.043900
_cell_length_c 7.609754
_cell_angle_alpha 90.000000
_cell_angle_beta 90.000000
_cell_angle_gamma 90.000000
_cell_volume 1722.231362
_symmetry_space_group_name_H-M "I 4"
_symmetry_group_IT_number 79
_symmetry_cell_setting 'tetragonal'
loop_
_space_group_symop_operation_xyz
x,y,z
-y,x,z
-x,-y,z
y,-x,z
1/2+x,1/2+y,1/2+z
1/2-y,1/2+x,1/2+z
1/2-x,1/2-y,1/2+z
1/2+y,1/2-x,1/2+z
loop_
_atom_site_type_symbol
_atom_site_label
_atom_site_fract_x
_atom_site_fract_y
_atom_site_fract_z
Si Si1 0.119121 0.236208 0.399990
Si Si2 0.680985 0.931827 0.318532
Si Si3 0.380878 0.263793 0.305691
Si Si4 0.500000 0.000000 0.852833
Si Si5 0.931827 0.319016 0.887146
Si Si6 0.396328 0.394194 0.602840
O O1 0.135163 0.215282 0.602840
O O2 0.173414 0.325870 0.351429
O O3 0.142245 0.155182 0.271949
O O4 0.012419 0.253682 0.373292
O O5 0.673414 0.825870 0.354251
O O6 0.593077 0.964784 0.421615
O O7 0.670813 0.938752 0.102839
O O8 0.487581 0.246318 0.332388
O O9 0.357754 0.344818 0.433733
O O10 0.593078 0.964784 0.784058
O O11 0.501921 0.381525 0.602839
#
# Coordination Sequence:
#
# PCOD9541862 Si02
#       6
#     8   8   8   4   8   8
#     4  10  21  36  63  95 128 160 202 247 306 363
#     4   9  16  29  54  90 130 161 193 239 299 369
#     4  10  21  36  63  95 128 160 202 247 306 363
#     4   8  14  20  44  86 122 172 198 222 284 358
#     4   9  16  29  54  90 130 161 193 239 299 369
#     4  11  26  48  68  83 112 164 218 259 294 354
#
# _framework density 25.548248999999998
#
# number of rings (size 3 to 8) (size 9 to 14) (size 15 to 20)
#    0.000    2.364    1.818    0.545    2.545    5.818 
#    0.000    3.636    0.000    0.000    0.000    0.000 
#    0.000    0.000    0.000    0.000    0.000    0.000 
#
# Total GULP energy -122615.838523 kJ/mol
# GULP energy per Si atom -5573.447206 kJ/mol
# Density = 2.549010 g / cm^3
# Si number density = 25.548249 Si / 1000 Ang^3
#
#
#
# Elastic Constant Matrix: (Units=GPa)
#
#
# Indices 1 2 3 4 5 6 
#
# 1 139.2474 -14.5397 21.7208 0.0000 0.0000 15.4096
# 2 -14.5397 139.2474 21.7208 0.0000 0.0000 -15.4096
# 3 21.7208 21.7208 148.7099 0.0000 0.0000 0.0000
# 4 0.0000 0.0000 0.0000 285.4095 0.0000 0.0000
# 5 0.0000 0.0000 0.0000 0.0000 285.4095 0.0000
# 6 15.4096 -15.4096 0.0000 0.0000 0.0000 14.1153
#
#
#
# Elastic Compliance Matrix: (Units=1/GPa)
#
#
# Indices 1 2 3 4 5 6 
#
# 1 0.008386 0.000063 -0.001234 0.000000 0.000000 -0.009087
# 2 0.000063 0.008386 -0.001234 0.000000 0.000000 0.009087
# 3 -0.001234 -0.001234 0.007085 0.000000 0.000000 0.000000
# 4 0.000000 0.000000 0.000000 0.003504 0.000000 0.000000
# 5 0.000000 0.000000 0.000000 0.000000 0.003504 0.000000
# 6 -0.009087 0.009087 0.000000 0.000000 0.000000 0.090685
#
#
# Mechanical properties :
#
#
# Convention : Reuss Voigt Hill
#
# Bulk Modulus (GPa) = 52.50406 53.88985 53.19696
# Shear Modulus (GPa) = 37.67630 143.54040 90.60835
#
# Velocity S-wave (km/s) = 3.84436 7.50373 5.96176
# Velocity P-wave (km/s) = 6.34831 9.80887 8.26181
#
# Compressibility (1/GPa) = 0.01904615
#
# Stress axis : x y z
#
# Youngs Moduli (GPa) = 119.24556 119.24556 141.14350
#
# Poissons Ratio (x) = -0.00746 0.17417
# Poissons Ratio (y) = -0.00746 0.17417
# Poissons Ratio (z) = 0.14715 0.14715
#
# Static dielectric constant tensor:
#      x y z
#    x 2.022260 0.000000 0.000000 
#    y 0.000000 2.022260 0.000000 
#    z 0.000000 0.000000 2.110990 
# 
# From -- ./inp_files/649.got.cif
#   From: 2010.05.17/outbox.cif.g08.bks.cpg/sg79_cif.got.tgz:649.got - 2010.06.03 18:47:27.
