data_PCOD9541465
_publ_section_title
;
Structure prediction by ZEFSAII (Michael W. Deem and Ramdas Pophale) SiO2 
 PCOD9541465
Probable space group: P 42
;
_chemical_formula_sum "Si O2"
_cell_formula_units_Z 24
_cell_length_a 7.485486
_cell_length_b 7.485486
_cell_length_c 17.878492
_cell_angle_alpha 90.000000
_cell_angle_beta 90.000000
_cell_angle_gamma 90.000000
_cell_volume 1001.776615
_symmetry_space_group_name_H-M "P 42"
_symmetry_group_IT_number 77
_symmetry_cell_setting 'tetragonal'
loop_
_space_group_symop_operation_xyz
x,y,z
-y,x,1/2+z
-x,-y,z
y,-x,1/2+z
loop_
_atom_site_type_symbol
_atom_site_label
_atom_site_fract_x
_atom_site_fract_y
_atom_site_fract_z
Si Si1 0.780485 0.016991 0.172110
Si Si2 0.778858 0.303058 0.051484
Si Si3 0.312898 0.848841 0.331780
Si Si4 0.516986 0.280485 0.766302
Si Si5 0.187101 0.348828 0.106630
Si Si6 0.803050 0.278863 0.886932
O O1 0.721426 0.178381 0.119031
O O2 0.690134 0.047962 0.251840
O O3 0.727625 0.837521 0.129048
O O4 0.000000 0.000000 0.181277
O O5 0.715161 0.507788 0.055341
O O6 0.994662 0.313055 0.068222
O O7 0.735823 0.235829 0.969208
O O8 0.227623 0.662496 0.309355
O O9 0.505333 0.813056 0.370191
O O10 0.215162 0.992220 0.383073
O O11 0.500000 0.500000 0.757134
O O12 0.547988 0.190134 0.686573
O O13 0.678361 0.221429 0.819389
#
# Coordination Sequence:
#
# PCOD9541465 Si02
#       6
#     4   4   4   4   4   4
#     4  10  20  34  60  93 119 160 219 256 308 391
#     4  10  21  38  61  86 127 170 210 265 328 375
#     4  10  18  35  59  87 119 162 207 256 309 384
#     4  10  20  34  60  93 119 160 219 256 308 391
#     4  10  18  35  59  87 119 162 207 256 309 384
#     4  10  21  38  61  86 127 170 210 265 328 375
#
# _framework density 23.957433999999999
#
# number of rings (size 3 to 8) (size 9 to 14) (size 15 to 20)
#    0.000    2.000    3.333    2.000    0.000    0.000 
#    0.000    8.333    0.000    0.000    0.000    0.000 
#    0.000    0.000    0.000    0.000    0.000    0.000 
#
# Total GULP energy -133886.468401 kJ/mol
# GULP energy per Si atom -5578.602850 kJ/mol
# Density = 2.390291 g / cm^3
# Si number density = 23.957434 Si / 1000 Ang^3
#
#
#
# Elastic Constant Matrix: (Units=GPa)
#
#
# Indices 1 2 3 4 5 6 
#
# 1 87.3241 -12.2241 -8.8866 0.0000 0.0000 0.0154
# 2 -12.2241 87.3241 -8.8866 0.0000 0.0000 -0.0154
# 3 -8.8866 -8.8866 97.5232 0.0000 0.0000 0.0000
# 4 0.0000 0.0000 0.0000 29.1563 0.0000 0.0000
# 5 0.0000 0.0000 0.0000 0.0000 29.1563 0.0000
# 6 0.0154 -0.0154 0.0000 0.0000 0.0000 0.7997
#
#
#
# Elastic Compliance Matrix: (Units=1/GPa)
#
#
# Indices 1 2 3 4 5 6 
#
# 1 0.011827 0.001782 0.001240 0.000000 0.000000 -0.000194
# 2 0.001782 0.011827 0.001240 0.000000 0.000000 0.000194
# 3 0.001240 0.001240 0.010480 0.000000 0.000000 0.000000
# 4 0.000000 0.000000 0.000000 0.034298 0.000000 0.000000
# 5 0.000000 0.000000 0.000000 0.000000 0.034298 0.000000
# 6 -0.000194 0.000194 0.000000 0.000000 0.000000 1.250398
#
#
# Mechanical properties :
#
#
# Convention : Reuss Voigt Hill
#
# Bulk Modulus (GPa) = 23.44196 23.57517 23.50857
# Shear Modulus (GPa) = 3.67965 31.96707 17.82336
#
# Velocity S-wave (km/s) = 1.24066 3.65681 2.73052
# Velocity P-wave (km/s) = 3.44360 5.26227 4.44690
#
# Compressibility (1/GPa) = 0.04265854
#
# Stress axis : x y z
#
# Youngs Moduli (GPa) = 84.55045 84.55045 95.42008
#
# Poissons Ratio (x) = -0.15065 -0.11833
# Poissons Ratio (y) = -0.15065 -0.11833
# Poissons Ratio (z) = -0.10485 -0.10485
#
# Static dielectric constant tensor:
#      x y z
#    x 1.950220 0.000000 0.000000 
#    y 0.000000 1.950220 0.000000 
#    z 0.000000 0.000000 1.807610 
# 
# From -- ./inp_files/1306.got.cif
#   From: 2010.05.17/outbox.cif.g08.bks.cpg/sg77_cif.got.tgz:1306.got - 2010.06.03 18:44:51.
