data_PCOD9541935
_publ_section_title
;
Structure prediction by ZEFSAII (Michael W. Deem and Ramdas Pophale) SiO2 
 PCOD9541935
Probable space group: I 4
;
_chemical_formula_sum "Si O2"
_cell_formula_units_Z 40
_cell_length_a 18.139308
_cell_length_b 18.139308
_cell_length_c 5.062977
_cell_angle_alpha 90.000000
_cell_angle_beta 90.000000
_cell_angle_gamma 90.000000
_cell_volume 1665.894079
_symmetry_space_group_name_H-M "I 4"
_symmetry_group_IT_number 79
_symmetry_cell_setting 'tetragonal'
loop_
_space_group_symop_operation_xyz
x,y,z
-y,x,z
-x,-y,z
y,-x,z
1/2+x,1/2+y,1/2+z
1/2-y,1/2+x,1/2+z
1/2-x,1/2-y,1/2+z
1/2+y,1/2-x,1/2+z
loop_
_atom_site_type_symbol
_atom_site_label
_atom_site_fract_x
_atom_site_fract_y
_atom_site_fract_z
Si Si1 0.085507 0.914415 0.197120
Si Si2 0.354694 0.776104 0.956438
Si Si3 0.298412 0.989997 0.667803
Si Si4 0.126727 0.168344 0.706967
Si Si5 0.878097 0.360108 0.942278
O O1 0.107562 0.903940 0.501172
O O2 0.000288 0.899518 0.140334
O O3 0.133893 0.865789 0.997455
O O4 0.443085 0.763466 0.997719
O O5 0.314378 0.705035 0.071201
O O6 0.340067 0.842479 0.162282
O O7 0.346284 0.805862 0.664996
O O8 0.234637 0.931274 0.724149
O O9 0.361583 0.942955 0.524547
O O10 0.336715 0.036768 0.900880
#
# Coordination Sequence:
#
# PCOD9541935 Si02
#       5
#     8   8   8   8   8
#     4  11  23  38  61  98 139 193 242 291 354 433
#     4  10  24  43  66 107 135 186 238 292 368 441
#     4  10  26  45  73 101 144 185 239 305 362 440
#     4  12  24  39  71  97 148 183 234 301 369 445
#     4  10  25  44  72  99 141 183 244 294 367 438
#
# _framework density 24.011127999999999
#
# number of rings (size 3 to 8) (size 9 to 14) (size 15 to 20)
#    1.200    0.200    0.000    4.800    8.400    3.200 
#    0.000    3.000    0.000    0.000    0.000    0.000 
#    0.000    0.000    0.000    0.000    0.000    0.000 
#
# Total GULP energy -111748.841512 kJ/mol
# GULP energy per Si atom -5587.442076 kJ/mol
# Density = 2.395648 g / cm^3
# Si number density = 24.011128 Si / 1000 Ang^3
#
#
#
# Elastic Constant Matrix: (Units=GPa)
#
#
# Indices 1 2 3 4 5 6 
#
# 1 109.3848 51.1990 24.7105 0.0000 0.0000 4.0443
# 2 51.1990 109.3848 24.7105 0.0000 0.0000 -4.0443
# 3 24.7105 24.7105 86.1104 0.0000 0.0000 0.0000
# 4 0.0000 0.0000 0.0000 26.0239 0.0000 0.0000
# 5 0.0000 0.0000 0.0000 0.0000 26.0239 0.0000
# 6 4.0443 -4.0443 0.0000 0.0000 0.0000 45.4648
#
#
#
# Elastic Compliance Matrix: (Units=1/GPa)
#
#
# Indices 1 2 3 4 5 6 
#
# 1 0.012116 -0.005285 -0.001960 0.000000 0.000000 -0.001548
# 2 -0.005285 0.012116 -0.001960 0.000000 0.000000 0.001548
# 3 -0.001960 -0.001960 0.012738 0.000000 0.000000 0.000000
# 4 0.000000 0.000000 0.000000 0.038426 0.000000 0.000000
# 5 0.000000 0.000000 0.000000 0.000000 0.038426 0.000000
# 6 -0.001548 0.001548 0.000000 0.000000 0.000000 0.022270
#
#
# Mechanical properties :
#
#
# Convention : Reuss Voigt Hill
#
# Bulk Modulus (GPa) = 53.88345 56.23553 55.05949
# Shear Modulus (GPa) = 31.11571 33.11984 32.11778
#
# Velocity S-wave (km/s) = 3.60375 3.71799 3.66132
# Velocity P-wave (km/s) = 6.30918 6.47323 6.39173
#
# Compressibility (1/GPa) = 0.01855857
#
# Stress axis : x y z
#
# Youngs Moduli (GPa) = 82.53540 82.53540 78.50551
#
# Poissons Ratio (x) = 0.43624 0.15388
# Poissons Ratio (y) = 0.43624 0.15388
# Poissons Ratio (z) = 0.16178 0.16178
#
# Static dielectric constant tensor:
#      x y z
#    x 1.911630 0.000000 0.000000 
#    y 0.000000 1.911630 0.000000 
#    z 0.000000 0.000000 1.899360 
# 
# From -- ./inp_files/197.got.cif
#   From: 2010.05.17/outbox.cif.g08.bks.cpg/sg79_cif.got.tgz:197.got - 2010.06.03 18:47:27.
