data_PCOD9541478
_publ_section_title
;
Structure prediction by ZEFSAII (Michael W. Deem and Ramdas Pophale) SiO2 
 PCOD9541478
Probable space group: P 42
;
_chemical_formula_sum "Si O2"
_cell_formula_units_Z 24
_cell_length_a 8.383903
_cell_length_b 8.383903
_cell_length_c 16.106826
_cell_angle_alpha 90.000000
_cell_angle_beta 90.000000
_cell_angle_gamma 90.000000
_cell_volume 1132.146054
_symmetry_space_group_name_H-M "P 42"
_symmetry_group_IT_number 77
_symmetry_cell_setting 'tetragonal'
loop_
_space_group_symop_operation_xyz
x,y,z
-y,x,1/2+z
-x,-y,z
y,-x,1/2+z
loop_
_atom_site_type_symbol
_atom_site_label
_atom_site_fract_x
_atom_site_fract_y
_atom_site_fract_z
Si Si1 0.248376 0.763552 0.614300
Si Si2 0.945966 0.330149 0.765456
Si Si3 0.197607 0.793372 0.911876
Si Si4 0.542283 0.810606 0.963072
Si Si5 0.749477 0.884223 0.806264
Si Si6 0.000000 0.500000 0.170929
Si Si7 0.000000 0.000000 0.038835
O O1 0.203184 0.712856 0.707137
O O2 0.253156 0.625511 0.545707
O O3 0.404726 0.871586 0.617148
O O4 0.095647 0.870696 0.590177
O O5 0.885609 0.342990 0.859601
O O6 0.000000 0.500000 0.732329
O O7 0.094714 0.207035 0.772397
O O8 0.369929 0.740188 0.942811
O O9 0.211970 0.942841 0.846765
O O10 0.089780 0.868744 0.983270
O O11 0.660602 0.797705 0.883776
O O12 0.500000 0.000000 0.973600
O O13 0.626613 0.913387 0.731607
#
# Coordination Sequence:
#
# PCOD9541478 Si02
#       7
#     4   4   4   4   4   2   2
#     4  12  24  40  63 104 134 177 220 288 346 389
#     4  12  25  40  68 102 137 170 229 283 335 402
#     4  11  20  42  71  96 123 180 233 275 329 403
#     4  10  19  40  69  91 133 169 219 277 344 393
#     4  11  19  43  70  94 122 178 229 273 323 402
#     4  12  24  42  72  96 140 178 230 282 334 408
#     4  12  22  38  72  96 128 168 246 288 316 392
#
# _framework density 21.19868
#
# number of rings (size 3 to 8) (size 9 to 14) (size 15 to 20)
#    0.000    0.667    9.167    1.500    0.000    0.000 
#    6.000    3.333    0.000    0.000    0.000    0.000 
#    0.000    0.000    0.000    0.000    0.000    0.000 
#
# Total GULP energy -134094.225957 kJ/mol
# GULP energy per Si atom -5587.259415 kJ/mol
# Density = 2.115043 g / cm^3
# Si number density = 21.198680 Si / 1000 Ang^3
#
#
#
# Elastic Constant Matrix: (Units=GPa)
#
#
# Indices 1 2 3 4 5 6 
#
# 1 68.2200 17.4442 18.1950 0.0000 0.0000 1.0233
# 2 17.4442 68.2200 18.1950 0.0000 0.0000 -1.0233
# 3 18.1950 18.1950 46.4068 0.0000 0.0000 0.0000
# 4 0.0000 0.0000 0.0000 36.0019 0.0000 0.0000
# 5 0.0000 0.0000 0.0000 0.0000 36.0019 0.0000
# 6 1.0233 -1.0233 0.0000 0.0000 0.0000 22.8628
#
#
#
# Elastic Compliance Matrix: (Units=1/GPa)
#
#
# Indices 1 2 3 4 5 6 
#
# 1 0.016868 -0.002862 -0.005492 0.000000 0.000000 -0.000883
# 2 -0.002862 0.016868 -0.005492 0.000000 0.000000 0.000883
# 3 -0.005492 -0.005492 0.025855 0.000000 0.000000 0.000000
# 4 0.000000 0.000000 0.000000 0.027776 0.000000 0.000000
# 5 0.000000 0.000000 0.000000 0.000000 0.027776 0.000000
# 6 -0.000883 0.000883 0.000000 0.000000 0.000000 0.043818
#
#
# Mechanical properties :
#
#
# Convention : Reuss Voigt Hill
#
# Bulk Modulus (GPa) = 31.34677 32.27946 31.81312
# Shear Modulus (GPa) = 25.34400 27.57417 26.45908
#
# Velocity S-wave (km/s) = 3.46142 3.61050 3.53675
# Velocity P-wave (km/s) = 5.54928 5.71324 5.63186
#
# Compressibility (1/GPa) = 0.03190121
#
# Stress axis : x y z
#
# Youngs Moduli (GPa) = 59.28339 59.28339 38.67766
#
# Poissons Ratio (x) = 0.16966 0.21240
# Poissons Ratio (y) = 0.16966 0.21240
# Poissons Ratio (z) = 0.32556 0.32556
#
# Static dielectric constant tensor:
#      x y z
#    x 1.716320 0.000000 0.000000 
#    y 0.000000 1.716320 0.000000 
#    z 0.000000 0.000000 1.767720 
# 
# From -- ./inp_files/1132.got.cif
#   From: 2010.05.17/outbox.cif.g08.bks.cpg/sg77_cif.got.tgz:1132.got - 2010.06.03 18:44:51.
