data_PCOD9541283
_publ_section_title
;
Structure prediction by ZEFSAII (Michael W. Deem and Ramdas Pophale) SiO2 
 PCOD9541283
Probable space group: P 41
;
_chemical_formula_sum "Si O2"
_cell_formula_units_Z 28
_cell_length_a 9.083563
_cell_length_b 9.083563
_cell_length_c 17.417404
_cell_angle_alpha 90.000000
_cell_angle_beta 90.000000
_cell_angle_gamma 90.000000
_cell_volume 1437.129455
_symmetry_space_group_name_H-M "P 41"
_symmetry_group_IT_number 76
_symmetry_cell_setting 'tetragonal'
loop_
_space_group_symop_operation_xyz
x,y,z
-y,x,1/4+z
-x,-y,1/2+z
y,-x,3/4+z
loop_
_atom_site_type_symbol
_atom_site_label
_atom_site_fract_x
_atom_site_fract_y
_atom_site_fract_z
Si Si1 0.756999 0.930973 0.029600
Si Si2 0.777217 0.848396 0.650958
Si Si3 0.426391 0.346199 0.256227
Si Si4 0.681584 0.143689 0.247360
Si Si5 0.503391 0.052876 0.649796
Si Si6 0.646029 0.657216 0.931189
Si Si7 0.035166 0.933429 0.422903
O O1 0.614613 0.960987 0.081591
O O2 0.885128 0.898382 0.091582
O O3 0.714856 0.801037 0.971477
O O4 0.829528 0.063964 0.982146
O O5 0.706299 0.744953 0.716344
O O6 0.834527 0.746220 0.581862
O O7 0.909190 0.956366 0.673968
O O8 0.644148 0.956006 0.626843
O O9 0.584063 0.286341 0.226349
O O10 0.403898 0.516042 0.234862
O O11 0.421193 0.314681 0.346879
O O12 0.819708 0.093366 0.196202
O O13 0.565593 0.014134 0.227995
O O14 0.546586 0.220004 0.665342
#
# Coordination Sequence:
#
# PCOD9541283 Si02
#       7
#     4   4   4   4   4   4   4
#     4  11  24  42  66 102 134 176 224 288 341 417
#     4  11  22  43  71  97 132 178 229 286 340 421
#     4  11  25  44  70  96 135 182 236 285 350 411
#     4  10  23  45  63  99 131 173 228 285 342 408
#     4  10  24  43  66  98 139 173 232 282 342 422
#     4  12  23  44  67  97 136 180 230 280 347 418
#     4  11  23  41  69  99 137 178 227 286 354 403
#
# _framework density 19.483284000000001
#
# number of rings (size 3 to 8) (size 9 to 14) (size 15 to 20)
#    0.000    1.143    5.714    0.000    4.000    0.000 
#    7.714    0.000    0.000    0.000    0.000    0.000 
#    0.000    0.000    0.000    0.000    0.000    0.000 
#
# Total GULP energy -156130.735439 kJ/mol
# GULP energy per Si atom -5576.097694 kJ/mol
# Density = 1.943894 g / cm^3
# Si number density = 19.483284 Si / 1000 Ang^3
#
#
#
# Elastic Constant Matrix: (Units=GPa)
#
#
# Indices 1 2 3 4 5 6 
#
# 1 90.9353 39.3916 32.9304 0.0000 0.0000 6.4768
# 2 39.3916 90.9353 32.9304 0.0000 0.0000 -6.4768
# 3 32.9304 32.9304 107.3050 0.0000 0.0000 0.0000
# 4 0.0000 0.0000 0.0000 33.0026 0.0000 0.0000
# 5 0.0000 0.0000 0.0000 0.0000 33.0026 0.0000
# 6 6.4768 -6.4768 0.0000 0.0000 0.0000 12.4136
#
#
#
# Elastic Compliance Matrix: (Units=1/GPa)
#
#
# Indices 1 2 3 4 5 6 
#
# 1 0.015705 -0.006624 -0.002787 0.000000 0.000000 -0.011650
# 2 -0.006624 0.015705 -0.002787 0.000000 0.000000 0.011650
# 3 -0.002787 -0.002787 0.011030 0.000000 0.000000 0.000000
# 4 0.000000 0.000000 0.000000 0.030301 0.000000 0.000000
# 5 0.000000 0.000000 0.000000 0.000000 0.030301 0.000000
# 6 -0.011650 0.011650 0.000000 0.000000 0.000000 0.092713
#
#
# Mechanical properties :
#
#
# Convention : Reuss Voigt Hill
#
# Bulk Modulus (GPa) = 55.41773 55.52005 55.46889
# Shear Modulus (GPa) = 22.10777 27.94530 25.02654
#
# Velocity S-wave (km/s) = 3.37219 3.79135 3.58790
# Velocity P-wave (km/s) = 6.60816 6.90825 6.75987
#
# Compressibility (1/GPa) = 0.01804477
#
# Stress axis : x y z
#
# Youngs Moduli (GPa) = 63.67364 63.67364 90.66364
#
# Poissons Ratio (x) = 0.42175 0.25268
# Poissons Ratio (y) = 0.42175 0.25268
# Poissons Ratio (z) = 0.17746 0.17746
#
# Static dielectric constant tensor:
#      x y z
#    x 1.691110 0.000000 0.000000 
#    y 0.000000 1.691110 0.000000 
#    z 0.000000 0.000000 1.710910 
# 
# From -- ./inp_files/1252.got.cif
#   From: 2010.05.17/outbox.cif.g08.bks.cpg/sg76_cif.got.tgz:1252.got - 2010.06.03 18:43:17.
