data_PCOD9541686
_publ_section_title
;
Structure prediction by ZEFSAII (Michael W. Deem and Ramdas Pophale) SiO2 
 PCOD9541686
Probable space group: P 43
;
_chemical_formula_sum "Si O2"
_cell_formula_units_Z 32
_cell_length_a 11.391230
_cell_length_b 11.391230
_cell_length_c 11.276651
_cell_angle_alpha 90.000000
_cell_angle_beta 90.000000
_cell_angle_gamma 90.000000
_cell_volume 1463.259597
_symmetry_space_group_name_H-M "P 43"
_symmetry_group_IT_number 78
_symmetry_cell_setting 'tetragonal'
loop_
_space_group_symop_operation_xyz
x,y,z
-y,x,3/4+z
-x,-y,1/2+z
y,-x,1/4+z
loop_
_atom_site_type_symbol
_atom_site_label
_atom_site_fract_x
_atom_site_fract_y
_atom_site_fract_z
Si Si1 0.836636 0.693997 0.146330
Si Si2 0.483296 0.825421 0.566114
Si Si3 0.977530 0.425133 0.483242
Si Si4 0.192331 0.389784 0.903001
Si Si5 0.299934 0.157675 0.908980
Si Si6 0.586090 0.651363 0.033417
Si Si7 0.088489 0.982844 0.888997
Si Si8 0.597193 0.659589 0.766572
O O1 0.853812 0.674480 0.285140
O O2 0.708230 0.662390 0.101860
O O3 0.871891 0.826657 0.116089
O O4 0.926229 0.606613 0.081280
O O5 0.582807 0.872602 0.479662
O O6 0.552489 0.757335 0.673516
O O7 0.403268 0.724109 0.504361
O O8 0.414304 0.939301 0.616875
O O9 0.913273 0.550445 0.473490
O O10 0.870602 0.338580 0.522409
O O11 0.270243 0.287133 0.956360
O O12 0.280554 0.489051 0.856243
O O13 0.183252 0.082620 0.924162
O O14 0.566818 0.511776 0.015158
O O15 0.599829 0.705522 0.902293
O O16 0.033792 0.013181 0.759735
#
# Coordination Sequence:
#
# PCOD9541686 Si02
#       8
#     4   4   4   4   4   4   4   4
#     4  11  22  45  66 101 141 187 244 295 359 450
#     4  11  24  43  66 103 141 186 228 297 363 439
#     4  11  23  42  67  94 138 187 229 293 357 424
#     4  12  24  40  71 103 135 188 238 294 371 441
#     4  11  27  44  72 101 145 184 247 305 370 445
#     4  11  21  40  67 102 140 184 222 284 360 444
#     4  11  25  51  76 101 137 191 253 317 362 425
#     4  10  22  39  65  97 147 175 221 283 354 432
#
# _framework density 21.868981999999999
#
# number of rings (size 3 to 8) (size 9 to 14) (size 15 to 20)
#    0.000    1.000    5.000    2.250    7.000    0.000 
#    2.250    1.250    0.000    0.000    0.000    0.000 
#    0.000    0.000    0.000    0.000    0.000    0.000 
#
# Total GULP energy -178335.026254 kJ/mol
# GULP energy per Si atom -5572.969570 kJ/mol
# Density = 2.181921 g / cm^3
# Si number density = 21.868982 Si / 1000 Ang^3
#
#
#
# Elastic Constant Matrix: (Units=GPa)
#
#
# Indices 1 2 3 4 5 6 
#
# 1 77.2096 28.4589 24.8348 0.0000 0.0000 -5.2609
# 2 28.4589 77.2096 24.8348 0.0000 0.0000 5.2609
# 3 24.8348 24.8348 79.5121 0.0000 0.0000 0.0000
# 4 0.0000 0.0000 0.0000 43.1217 0.0000 0.0000
# 5 0.0000 0.0000 0.0000 0.0000 43.1217 0.0000
# 6 -5.2609 5.2609 0.0000 0.0000 0.0000 43.5637
#
#
#
# Elastic Compliance Matrix: (Units=1/GPa)
#
#
# Indices 1 2 3 4 5 6 
#
# 1 0.016077 -0.004985 -0.003464 0.000000 0.000000 0.002543
# 2 -0.004985 0.016077 -0.003464 0.000000 0.000000 -0.002543
# 3 -0.003464 -0.003464 0.014741 0.000000 0.000000 0.000000
# 4 0.000000 0.000000 0.000000 0.023190 0.000000 0.000000
# 5 0.000000 0.000000 0.000000 0.000000 0.023190 0.000000
# 6 0.002543 -0.002543 0.000000 0.000000 0.000000 0.023569
#
#
# Mechanical properties :
#
#
# Convention : Reuss Voigt Hill
#
# Bulk Modulus (GPa) = 43.35188 43.35423 43.35305
# Shear Modulus (GPa) = 33.70174 36.34829 35.02501
#
# Velocity S-wave (km/s) = 3.92991 4.08130 4.00632
# Velocity P-wave (km/s) = 6.36072 6.48667 6.42401
#
# Compressibility (1/GPa) = 0.02306705
#
# Stress axis : x y z
#
# Youngs Moduli (GPa) = 62.20159 62.20159 67.83847
#
# Poissons Ratio (x) = 0.31006 0.23503
# Poissons Ratio (y) = 0.31006 0.23503
# Poissons Ratio (z) = 0.21550 0.21550
#
# Static dielectric constant tensor:
#      x y z
#    x 1.849780 0.000000 0.000000 
#    y 0.000000 1.849780 0.000000 
#    z 0.000000 0.000000 1.870310 
# 
# From -- ./inp_files/966.got.cif
#   From: 2010.05.17/outbox.cif.g08.bks.cpg/sg78_cif.got.tgz:966.got - 2010.06.03 18:45:56.
