data_PCOD9541381
_publ_section_title
;
Structure prediction by ZEFSAII (Michael W. Deem and Ramdas Pophale) SiO2 
 PCOD9541381
Probable space group: P 41
;
_chemical_formula_sum "Si O2"
_cell_formula_units_Z 24
_cell_length_a 13.179756
_cell_length_b 13.179756
_cell_length_c 6.804967
_cell_angle_alpha 90.000000
_cell_angle_beta 90.000000
_cell_angle_gamma 90.000000
_cell_volume 1182.063381
_symmetry_space_group_name_H-M "P 41"
_symmetry_group_IT_number 76
_symmetry_cell_setting 'tetragonal'
loop_
_space_group_symop_operation_xyz
x,y,z
-y,x,1/4+z
-x,-y,1/2+z
y,-x,3/4+z
loop_
_atom_site_type_symbol
_atom_site_label
_atom_site_fract_x
_atom_site_fract_y
_atom_site_fract_z
Si Si1 0.493929 0.638184 0.493270
Si Si2 0.440273 0.223551 0.281242
Si Si3 0.098074 0.113764 0.921897
Si Si4 0.721744 0.604563 0.864941
Si Si5 0.745842 0.903882 0.744767
Si Si6 0.770535 0.131503 0.783353
O O1 0.433161 0.586088 0.672109
O O2 0.508979 0.752271 0.573033
O O3 0.440304 0.651692 0.285553
O O4 0.353576 0.311681 0.274183
O O5 0.518935 0.238116 0.462146
O O6 0.371481 0.123817 0.277266
O O7 0.106213 0.200579 0.756664
O O8 0.994632 0.107270 0.053389
O O9 0.192181 0.142945 0.063313
O O10 0.808274 0.669649 0.974194
O O11 0.805527 0.862751 0.935869
O O12 0.760860 0.020595 0.696057
#
# Coordination Sequence:
#
# PCOD9541381 Si02
#       6
#     4   4   4   4   4   4
#     4  12  22  38  66  94 122 162 222 282 338 396
#     4  11  24  42  66  94 129 173 226 286 345 409
#     4  12  22  38  70 104 138 178 230 286 344 412
#     4  11  24  42  66  94 129 173 226 286 345 409
#     4  11  24  43  66  99 139 179 225 281 342 417
#     4  11  24  43  66  99 139 179 225 281 342 417
#
# _framework density 20.303477999999998
#
# number of rings (size 3 to 8) (size 9 to 14) (size 15 to 20)
#    0.000    0.667    6.667    2.000    2.333    0.000 
#    3.000    0.000    0.000    0.000    0.000    0.000 
#    0.000    0.000    0.000    0.000    0.000    0.000 
#
# Total GULP energy -133605.296305 kJ/mol
# GULP energy per Si atom -5566.887346 kJ/mol
# Density = 2.025727 g / cm^3
# Si number density = 20.303478 Si / 1000 Ang^3
#
#
#
# Elastic Constant Matrix: (Units=GPa)
#
#
# Indices 1 2 3 4 5 6 
#
# 1 43.3688 19.8595 4.7452 0.0000 0.0000 17.7502
# 2 19.8595 43.3688 4.7452 0.0000 0.0000 -17.7502
# 3 4.7452 4.7452 76.5735 0.0000 0.0000 0.0000
# 4 0.0000 0.0000 0.0000 27.9245 0.0000 0.0000
# 5 0.0000 0.0000 0.0000 0.0000 27.9245 0.0000
# 6 17.7502 -17.7502 0.0000 0.0000 0.0000 10.1492
#
#
#
# Elastic Compliance Matrix: (Units=1/GPa)
#
#
# Indices 1 2 3 4 5 6 
#
# 1 -0.004979 0.020943 -0.000989 0.000000 0.000000 0.045335
# 2 0.020943 -0.004979 -0.000989 0.000000 0.000000 -0.045335
# 3 -0.000989 -0.000989 0.013182 0.000000 0.000000 0.000000
# 4 0.000000 0.000000 0.000000 0.035811 0.000000 0.000000
# 5 0.000000 0.000000 0.000000 0.000000 0.035811 0.000000
# 6 0.045335 -0.045335 0.000000 0.000000 0.000000 -0.060044
#
#
# Mechanical properties :
#
#
# Convention : Reuss Voigt Hill
#
# Bulk Modulus (GPa) = 24.29945 24.66788 24.48366
# Shear Modulus (GPa) = -531.47219 22.13038 -254.67090
#
# Velocity S-wave (km/s) = -16.19668 3.30507 -11.21180
# Velocity P-wave (km/s) = 18.37886 5.17113 12.47080
#
# Compressibility (1/GPa) = 0.04115319
#
# Stress axis : x y z
#
# Youngs Moduli (GPa) = -200.85833 -200.85833 75.86125
#
# Poissons Ratio (x) = 4.20654 0.07505
# Poissons Ratio (y) = 4.20654 0.07505
# Poissons Ratio (z) = -0.19871 -0.19871
#
# Static dielectric constant tensor:
#      x y z
#    x 1.861720 0.000000 0.000000 
#    y 0.000000 1.861720 0.000000 
#    z 0.000000 0.000000 1.728480 
# 
# From -- ./inp_files/199.got.cif
#   From: 2010.05.17/outbox.cif.g08.bks.cpg/sg76_cif.got.tgz:199.got - 2010.06.03 18:43:17.
