data_PCOD9541999
_publ_section_title
;
Structure prediction by ZEFSAII (Michael W. Deem and Ramdas Pophale) SiO2 
 PCOD9541999
Probable space group: I 4
;
_chemical_formula_sum "Si O2"
_cell_formula_units_Z 46
_cell_length_a 8.551511
_cell_length_b 8.551511
_cell_length_c 29.940522
_cell_angle_alpha 90.000000
_cell_angle_beta 90.000000
_cell_angle_gamma 90.000000
_cell_volume 2189.500684
_symmetry_space_group_name_H-M "I 4"
_symmetry_group_IT_number 79
_symmetry_cell_setting 'tetragonal'
loop_
_space_group_symop_operation_xyz
x,y,z
-y,x,z
-x,-y,z
y,-x,z
1/2+x,1/2+y,1/2+z
1/2-y,1/2+x,1/2+z
1/2-x,1/2-y,1/2+z
1/2+y,1/2-x,1/2+z
loop_
_atom_site_type_symbol
_atom_site_label
_atom_site_fract_x
_atom_site_fract_y
_atom_site_fract_z
Si Si1 0.500000 0.000000 0.275491
Si Si2 0.890478 0.240626 0.024398
Si Si3 0.000000 0.000000 0.911922
Si Si4 0.090931 0.239091 0.336522
Si Si5 0.896645 0.345721 0.927172
Si Si6 0.907457 0.753638 0.606196
Si Si7 0.251751 0.918292 0.707261
O O1 0.394608 0.888879 0.307102
O O2 0.600745 0.888909 0.242817
O O3 0.854627 0.346862 0.066870
O O4 0.074065 0.198095 0.024747
O O5 0.841860 0.320031 0.977902
O O6 0.807573 0.997470 0.914556
O O7 0.123885 0.273229 0.388235
O O8 0.911713 0.193823 0.326523
O O9 0.000000 0.500000 0.927185
O O10 0.890788 0.690299 0.656561
O O11 0.086980 0.806546 0.602138
O O12 0.097386 0.810934 0.712128
#
# Coordination Sequence:
#
# PCOD9541999 Si02
#       7
#     4   8   2   8   8   8   8
#     4  12  22  40  70  96 124 174 226 284 370 422
#     4  11  24  41  62  98 135 173 227 282 333 413
#     4  12  24  48  72 104 148 192 248 296 340 456
#     4  11  26  45  64  98 136 173 228 292 356 435
#     4  12  24  44  68  99 140 187 231 295 354 408
#     4   9  21  39  62  92 131 174 224 279 340 414
#     4   9  20  41  63  94 132 169 224 284 342 429
#
# _framework density 21.009357999999999
#
# number of rings (size 3 to 8) (size 9 to 14) (size 15 to 20)
#    0.000    1.391    2.609    3.130    2.435    2.783 
#    0.000    1.739    0.000    2.087    0.000    0.000 
#    0.000    0.000    0.000    0.000    0.000    0.000 
#
# Total GULP energy -128242.056027 kJ/mol
# GULP energy per Si atom -5575.741566 kJ/mol
# Density = 2.096154 g / cm^3
# Si number density = 21.009358 Si / 1000 Ang^3
#
#
#
# Elastic Constant Matrix: (Units=GPa)
#
#
# Indices 1 2 3 4 5 6 
#
# 1 65.3770 20.3536 40.6773 0.0000 0.0000 -4.3910
# 2 20.3536 65.3770 40.6773 0.0000 0.0000 4.3910
# 3 40.6773 40.6773 123.2506 0.0000 0.0000 0.0000
# 4 0.0000 0.0000 0.0000 24.8159 0.0000 0.0000
# 5 0.0000 0.0000 0.0000 0.0000 24.8159 0.0000
# 6 -4.3910 4.3910 0.0000 0.0000 0.0000 7.4317
#
#
#
# Elastic Compliance Matrix: (Units=1/GPa)
#
#
# Indices 1 2 3 4 5 6 
#
# 1 0.021044 -0.004060 -0.005605 0.000000 0.000000 0.014832
# 2 -0.004060 0.021044 -0.005605 0.000000 0.000000 -0.014832
# 3 -0.005605 -0.005605 0.011813 0.000000 0.000000 0.000000
# 4 0.000000 0.000000 0.000000 0.040297 0.000000 0.000000
# 5 0.000000 0.000000 0.000000 0.000000 0.040297 0.000000
# 6 0.014832 -0.014832 0.000000 0.000000 0.000000 0.152086
#
#
# Mechanical properties :
#
#
# Convention : Reuss Voigt Hill
#
# Bulk Modulus (GPa) = 42.80882 50.82457 46.81669
# Shear Modulus (GPa) = 15.38900 21.56579 18.47739
#
# Velocity S-wave (km/s) = 2.70938 3.20736 2.96883
# Velocity P-wave (km/s) = 5.49618 6.16118 5.83815
#
# Compressibility (1/GPa) = 0.02335967
#
# Stress axis : x y z
#
# Youngs Moduli (GPa) = 47.52022 47.52022 84.64957
#
# Poissons Ratio (x) = 0.19294 0.47448
# Poissons Ratio (y) = 0.19294 0.47448
# Poissons Ratio (z) = 0.26636 0.26636
#
# Static dielectric constant tensor:
#      x y z
#    x 1.760500 0.000000 0.000000 
#    y 0.000000 1.760500 0.000000 
#    z 0.000000 0.000000 1.760980 
# 
# From -- ./inp_files/2116.got.cif
#   From: 2010.05.17/outbox.cif.g08.bks.cpg/sg79_cif.got.tgz:2116.got - 2010.06.03 18:47:27.
