data_PCOD9541120
_publ_section_title
;
Structure prediction by ZEFSAII (Michael W. Deem and Ramdas Pophale) SiO2 
 PCOD9541120
Probable space group: P 41
;
_chemical_formula_sum "Si O2"
_cell_formula_units_Z 28
_cell_length_a 14.851651
_cell_length_b 14.851651
_cell_length_c 6.026074
_cell_angle_alpha 90.000000
_cell_angle_beta 90.000000
_cell_angle_gamma 90.000000
_cell_volume 1329.180407
_symmetry_space_group_name_H-M "P 41"
_symmetry_group_IT_number 76
_symmetry_cell_setting 'tetragonal'
loop_
_space_group_symop_operation_xyz
x,y,z
-y,x,1/4+z
-x,-y,1/2+z
y,-x,3/4+z
loop_
_atom_site_type_symbol
_atom_site_label
_atom_site_fract_x
_atom_site_fract_y
_atom_site_fract_z
Si Si1 0.026324 0.466463 0.395040
Si Si2 0.238386 0.467424 0.288344
Si Si3 0.672098 0.703766 0.024786
Si Si4 0.176049 0.197293 0.291449
Si Si5 0.201539 0.337733 0.912737
Si Si6 0.024801 0.873938 0.235855
Si Si7 0.955608 0.699341 0.127951
O O1 0.135647 0.469418 0.376864
O O2 0.991688 0.366858 0.466654
O O3 0.997752 0.482935 0.133347
O O4 0.279826 0.566419 0.286596
O O5 0.296908 0.391545 0.416557
O O6 0.231209 0.425501 0.043589
O O7 0.717791 0.699120 0.264579
O O8 0.724509 0.783074 0.891269
O O9 0.141630 0.095074 0.280843
O O10 0.108989 0.242803 0.468834
O O11 0.173323 0.256642 0.073753
O O12 0.112521 0.358894 0.773957
O O13 0.005246 0.769849 0.286795
O O14 0.074221 0.934947 0.415371
#
# Coordination Sequence:
#
# PCOD9541120 Si02
#       7
#     4   4   4   4   4   4   4
#     4  12  26  43  73 108 141 183 243 303 350 430
#     4  11  24  46  65 103 137 176 245 283 364 432
#     4  10  23  42  68  97 131 182 222 292 357 435
#     4   9  20  40  62  88 128 178 222 277 351 414
#     4  10  19  42  70  84 136 181 219 288 361 420
#     4  10  23  39  59  95 132 175 241 289 342 429
#     4  10  21  42  61  91 135 175 222 294 355 402
#
# _framework density 21.065612000000002
#
# number of rings (size 3 to 8) (size 9 to 14) (size 15 to 20)
#    0.000    1.714    4.286    0.857    4.000    3.429 
#    2.571    0.000    0.000    0.000    0.000    0.000 
#    0.000    0.000    0.000    0.000    0.000    0.000 
#
# Total GULP energy -155877.967226 kJ/mol
# GULP energy per Si atom -5567.070258 kJ/mol
# Density = 2.101767 g / cm^3
# Si number density = 21.065612 Si / 1000 Ang^3
#
#
#
# Elastic Constant Matrix: (Units=GPa)
#
#
# Indices 1 2 3 4 5 6 
#
# 1 68.8166 23.2962 18.2590 0.0000 0.0000 -7.4719
# 2 23.2962 68.8166 18.2590 0.0000 0.0000 7.4719
# 3 18.2590 18.2590 81.7239 0.0000 0.0000 0.0000
# 4 0.0000 0.0000 0.0000 15.0680 0.0000 0.0000
# 5 0.0000 0.0000 0.0000 0.0000 15.0680 0.0000
# 6 -7.4719 7.4719 0.0000 0.0000 0.0000 25.1279
#
#
#
# Elastic Compliance Matrix: (Units=1/GPa)
#
#
# Indices 1 2 3 4 5 6 
#
# 1 0.018128 -0.006217 -0.002661 0.000000 0.000000 0.007239
# 2 -0.006217 0.018128 -0.002661 0.000000 0.000000 -0.007239
# 3 -0.002661 -0.002661 0.013425 0.000000 0.000000 0.000000
# 4 0.000000 0.000000 0.000000 0.066366 0.000000 0.000000
# 5 0.000000 0.000000 0.000000 0.000000 0.066366 0.000000
# 6 0.007239 -0.007239 0.000000 0.000000 0.000000 0.044101
#
#
# Mechanical properties :
#
#
# Convention : Reuss Voigt Hill
#
# Bulk Modulus (GPa) = 37.58962 37.66503 37.62733
# Shear Modulus (GPa) = 19.34531 21.68897 20.51714
#
# Velocity S-wave (km/s) = 3.03369 3.21221 3.12422
# Velocity P-wave (km/s) = 5.49125 5.62818 5.56014
#
# Compressibility (1/GPa) = 0.02660309
#
# Stress axis : x y z
#
# Youngs Moduli (GPa) = 55.16342 55.16342 74.48515
#
# Poissons Ratio (x) = 0.34293 0.19822
# Poissons Ratio (y) = 0.34293 0.19822
# Poissons Ratio (z) = 0.14680 0.14680
#
# Static dielectric constant tensor:
#      x y z
#    x 1.828780 0.000000 0.000000 
#    y 0.000000 1.828780 0.000000 
#    z 0.000000 0.000000 1.794290 
# 
# From -- ./inp_files/194.got.cif
#   From: 2010.05.17/outbox.cif.g08.bks.cpg/sg76_cif.got.tgz:194.got - 2010.06.03 18:43:17.
