data_PCOD9541174
_publ_section_title
;
Structure prediction by ZEFSAII (Michael W. Deem and Ramdas Pophale) SiO2 
 PCOD9541174
Probable space group: P 41
;
_chemical_formula_sum "Si O2"
_cell_formula_units_Z 24
_cell_length_a 16.046223
_cell_length_b 16.046223
_cell_length_c 5.247067
_cell_angle_alpha 90.000000
_cell_angle_beta 90.000000
_cell_angle_gamma 90.000000
_cell_volume 1351.021488
_symmetry_space_group_name_H-M "P 41"
_symmetry_group_IT_number 76
_symmetry_cell_setting 'tetragonal'
loop_
_space_group_symop_operation_xyz
x,y,z
-y,x,1/4+z
-x,-y,1/2+z
y,-x,3/4+z
loop_
_atom_site_type_symbol
_atom_site_label
_atom_site_fract_x
_atom_site_fract_y
_atom_site_fract_z
Si Si1 0.717714 0.859874 0.246190
Si Si2 0.872508 0.744403 0.281552
Si Si3 0.770073 0.962079 0.756391
Si Si4 0.566499 0.091490 0.260788
Si Si5 0.893077 0.463110 0.013970
Si Si6 0.069623 0.093876 0.039104
O O1 0.781218 0.781977 0.223571
O O2 0.737338 0.915490 0.500690
O O3 0.620179 0.838776 0.243397
O O4 0.732420 0.916479 0.999333
O O5 0.875593 0.656199 0.421932
O O6 0.906924 0.813373 0.476390
O O7 0.940165 0.748453 0.048698
O O8 0.869471 0.943375 0.755605
O O9 0.529683 0.117385 0.535333
O O10 0.566135 0.990320 0.253672
O O11 0.504117 0.119315 0.037858
O O12 0.972160 0.090302 0.074591
#
# Coordination Sequence:
#
# PCOD9541174 Si02
#       6
#     4   4   4   4   4   4
#     4  11  23  37  58  81 113 146 188 233 279 323
#     4  11  22  36  57  83 109 146 192 239 270 329
#     4  11  22  36  54  77 112 147 193 229 267 313
#     4  10  22  35  60  76 107 140 195 227 278 323
#     4  10  21  39  55  80 103 148 184 233 275 336
#     4  11  22  35  50  73 110 155 190 225 267 306
#
# _framework density 17.764337000000001
#
# number of rings (size 3 to 8) (size 9 to 14) (size 15 to 20)
#    0.000    1.333    1.667    5.000    4.667    4.000 
#    0.000    0.000    0.000    0.000    0.000    0.000 
#    0.000    2.667    0.000    0.000    0.000    0.000 
#
# Total GULP energy -133967.383044 kJ/mol
# GULP energy per Si atom -5581.974294 kJ/mol
# Density = 1.772390 g / cm^3
# Si number density = 17.764337 Si / 1000 Ang^3
#
#
#
# Elastic Constant Matrix: (Units=GPa)
#
#
# Indices 1 2 3 4 5 6 
#
# 1 72.5272 3.1370 -7.3089 0.0000 0.0000 -0.1177
# 2 3.1370 72.5272 -7.3089 0.0000 0.0000 0.1177
# 3 -7.3089 -7.3089 72.5393 0.0000 0.0000 0.0000
# 4 0.0000 0.0000 0.0000 15.5941 0.0000 0.0000
# 5 0.0000 0.0000 0.0000 0.0000 15.5941 0.0000
# 6 -0.1177 0.1177 0.0000 0.0000 0.0000 17.5997
#
#
#
# Elastic Compliance Matrix: (Units=1/GPa)
#
#
# Indices 1 2 3 4 5 6 
#
# 1 0.013945 -0.000466 0.001358 0.000000 0.000000 0.000096
# 2 -0.000466 0.013945 0.001358 0.000000 0.000000 -0.000096
# 3 0.001358 0.001358 0.014059 0.000000 0.000000 0.000000
# 4 0.000000 0.000000 0.000000 0.064127 0.000000 0.000000
# 5 0.000000 0.000000 0.000000 0.000000 0.064127 0.000000
# 6 0.000096 -0.000096 0.000000 0.000000 0.000000 0.056821
#
#
# Mechanical properties :
#
#
# Convention : Reuss Voigt Hill
#
# Bulk Modulus (GPa) = 21.52901 21.62579 21.57740
# Shear Modulus (GPa) = 21.00777 25.02921 23.01849
#
# Velocity S-wave (km/s) = 3.44260 3.75768 3.60359
# Velocity P-wave (km/s) = 5.28654 5.57019 5.43022
#
# Compressibility (1/GPa) = 0.04644895
#
# Stress axis : x y z
#
# Youngs Moduli (GPa) = 71.70964 71.70964 71.12727
#
# Poissons Ratio (x) = 0.03345 -0.09660
# Poissons Ratio (y) = 0.03345 -0.09660
# Poissons Ratio (z) = -0.09739 -0.09739
#
# Static dielectric constant tensor:
#      x y z
#    x 1.667700 0.000000 0.000000 
#    y 0.000000 1.667700 0.000000 
#    z 0.000000 0.000000 1.696800 
# 
# From -- ./inp_files/205.got.cif
#   From: 2010.05.17/outbox.cif.g08.bks.cpg/sg76_cif.got.tgz:205.got - 2010.06.03 18:43:17.
