data_PCOD9541026
_publ_section_title
;
Structure prediction by ZEFSAII (Michael W. Deem and Ramdas Pophale) SiO2 
 PCOD9541026
Probable space group: P 4
;
_chemical_formula_sum "Si O2"
_cell_formula_units_Z 18
_cell_length_a 7.410768
_cell_length_b 7.410768
_cell_length_c 12.931158
_cell_angle_alpha 90.000000
_cell_angle_beta 90.000000
_cell_angle_gamma 90.000000
_cell_volume 710.172504
_symmetry_space_group_name_H-M "P 4"
_symmetry_group_IT_number 75
_symmetry_cell_setting 'tetragonal'
loop_
_space_group_symop_operation_xyz
x,y,z
-y,x,z
-x,-y,z
y,-x,z
loop_
_atom_site_type_symbol
_atom_site_label
_atom_site_fract_x
_atom_site_fract_y
_atom_site_fract_z
Si Si1 0.361777 0.772135 0.899350
Si Si2 0.728914 0.112727 0.674146
Si Si3 0.500000 0.000000 0.518057
Si Si4 0.628631 0.220402 0.347810
Si Si5 0.638459 0.226880 0.121519
O O1 0.268202 0.575574 0.895936
O O2 0.309200 0.873467 0.795675
O O3 0.317750 0.860592 0.010747
O O4 0.907205 0.221189 0.648809
O O5 0.558926 0.154965 0.602662
O O6 0.347994 0.930589 0.435097
O O7 0.725331 0.414756 0.357191
O O8 0.673759 0.143976 0.233544
O O9 0.731071 0.424068 0.120944
#
# Coordination Sequence:
#
# PCOD9541026 Si02
#       5
#     4   4   2   4   4
#     4   9  17  33  59  86 110 140 180 224 273 335
#     4  11  24  39  53  74 110 151 189 233 280 321
#     4  12  22  36  54  76 102 142 194 232 270 324
#     4   9  18  34  56  81 108 137 175 226 278 327
#     4   7  12  27  52  81 109 133 163 212 270 322
#
# _framework density 25.345956000000001
#
# number of rings (size 3 to 8) (size 9 to 14) (size 15 to 20)
#    0.000    2.667    0.000    5.333    0.000    0.000 
#    0.000   10.000    0.000    0.000    0.000    3.111 
#    0.000    0.000    0.000    0.000    0.000    0.000 
#
# Total GULP energy -100200.996925 kJ/mol
# GULP energy per Si atom -5566.722051 kJ/mol
# Density = 2.528827 g / cm^3
# Si number density = 25.345956 Si / 1000 Ang^3
#
#
#
# Elastic Constant Matrix: (Units=GPa)
#
#
# Indices 1 2 3 4 5 6 
#
# 1 65.2980 25.3334 16.4971 0.0000 0.0000 2.9627
# 2 25.3334 65.2980 16.4971 0.0000 0.0000 -2.9627
# 3 16.4971 16.4971 173.4465 0.0000 0.0000 0.0000
# 4 0.0000 0.0000 0.0000 -285.3782 0.0000 0.0000
# 5 0.0000 0.0000 0.0000 0.0000 -285.3782 0.0000
# 6 2.9627 -2.9627 0.0000 0.0000 0.0000 15.5907
#
#
#
# Elastic Compliance Matrix: (Units=1/GPa)
#
#
# Indices 1 2 3 4 5 6 
#
# 1 0.018589 -0.007159 -0.001087 0.000000 0.000000 -0.004893
# 2 -0.007159 0.018589 -0.001087 0.000000 0.000000 0.004893
# 3 -0.001087 -0.001087 0.005972 0.000000 0.000000 0.000000
# 4 0.000000 0.000000 0.000000 -0.003504 0.000000 0.000000
# 5 0.000000 0.000000 0.000000 0.000000 -0.003504 0.000000
# 6 -0.004893 0.004893 0.000000 0.000000 0.000000 0.066000
#
#
# Mechanical properties :
#
#
# Convention : Reuss Voigt Hill
#
# Bulk Modulus (GPa) = 40.84500 46.74420 43.79460
# Shear Modulus (GPa) = 38.76902 -94.65216 -27.94157
#
# Velocity S-wave (km/s) = 3.91525 -6.11761 -3.32385
# Velocity P-wave (km/s) = 6.04887 5.60515 1.60797
#
# Compressibility (1/GPa) = 0.02448280
#
# Stress axis : x y z
#
# Youngs Moduli (GPa) = 53.79666 53.79666 167.44069
#
# Poissons Ratio (x) = 0.38513 0.18202
# Poissons Ratio (y) = 0.38513 0.18202
# Poissons Ratio (z) = 0.05848 0.05848
#
# Static dielectric constant tensor:
#      x y z
#    x 3.836600 0.000000 0.000000 
#    y 0.000000 3.836600 0.000000 
#    z 0.000000 0.000000 2.070770 
# 
# From -- ./inp_files/480.got.cif
#   From: 2010.05.17/outbox.cif.g08.bks.cpg/sg75_cif.got.tgz:480.got - 2010.06.03 18:42:43.
