data_PCOD9541021
_publ_section_title
;
Structure prediction by ZEFSAII (Michael W. Deem and Ramdas Pophale) SiO2 
 PCOD9541021
Probable space group: P 4
;
_chemical_formula_sum "Si O2"
_cell_formula_units_Z 30
_cell_length_a 8.598210
_cell_length_b 8.598210
_cell_length_c 19.982112
_cell_angle_alpha 90.000000
_cell_angle_beta 90.000000
_cell_angle_gamma 90.000000
_cell_volume 1477.261858
_symmetry_space_group_name_H-M "P 4"
_symmetry_group_IT_number 75
_symmetry_cell_setting 'tetragonal'
loop_
_space_group_symop_operation_xyz
x,y,z
-y,x,z
-x,-y,z
y,-x,z
loop_
_atom_site_type_symbol
_atom_site_label
_atom_site_fract_x
_atom_site_fract_y
_atom_site_fract_z
Si Si1 0.750440 0.573213 0.230010
Si Si2 0.250557 0.416826 0.383218
Si Si3 0.077838 0.251062 0.498644
Si Si4 0.031259 0.260771 0.867123
Si Si5 0.032321 0.741714 0.016205
Si Si6 0.500000 0.000000 0.126084
Si Si7 0.425031 0.750516 0.768807
Si Si8 0.253217 0.414925 0.612636
O O1 0.602356 0.685165 0.222414
O O2 0.805287 0.595351 0.306431
O O3 0.881231 0.589389 0.174505
O O4 0.406470 0.311224 0.392411
O O5 0.124624 0.355978 0.435215
O O6 0.121712 0.351052 0.563879
O O7 0.902810 0.187509 0.497813
O O8 0.106522 0.381640 0.815894
O O9 0.873611 0.162878 0.858972
O O10 0.996579 0.324886 0.941674
O O11 0.165215 0.870926 0.022692
O O12 0.070828 0.621695 0.074141
O O13 0.314066 0.599533 0.779840
O O14 0.405649 0.791857 0.690546
O O15 0.408307 0.310113 0.600627
#
# Coordination Sequence:
#
# PCOD9541021 Si02
#       8
#     4   4   4   4   4   2   4   4
#     4   9  20  37  55  81 113 140 176 225 272 324
#     4   9  19  37  59  79 103 140 182 223 272 332
#     4  11  24  37  51  79 116 147 183 235 283 326
#     4   9  19  35  53  74 105 145 185 225 270 326
#     4   9  20  37  53  76 111 146 182 222 268 328
#     4  12  20  32  60  86 106 142 182 220 270 322
#     4   9  19  35  55  81 111 141 182 239 291 334
#     4   9  19  37  58  79 106 144 189 234 285 343
#
# _framework density 20.307841
#
# number of rings (size 3 to 8) (size 9 to 14) (size 15 to 20)
#    0.000    2.533    0.000    4.000    0.000    9.067 
#    0.000    4.000    0.000    3.200    0.000    0.000 
#    0.000    0.000    0.000    0.000    0.000    0.000 
#
# Total GULP energy -167313.175064 kJ/mol
# GULP energy per Si atom -5577.105835 kJ/mol
# Density = 2.026162 g / cm^3
# Si number density = 20.307841 Si / 1000 Ang^3
#
#
#
# Elastic Constant Matrix: (Units=GPa)
#
#
# Indices 1 2 3 4 5 6 
#
# 1 38.7222 31.7980 38.4185 0.0000 0.0000 8.4638
# 2 31.7980 38.7222 38.4185 0.0000 0.0000 -8.4638
# 3 38.4185 38.4185 103.8387 0.0000 0.0000 0.0000
# 4 0.0000 0.0000 0.0000 -37.1155 0.0000 0.0000
# 5 0.0000 0.0000 0.0000 0.0000 -37.1155 0.0000
# 6 8.4638 -8.4638 0.0000 0.0000 0.0000 32.7930
#
#
#
# Elastic Compliance Matrix: (Units=1/GPa)
#
#
# Indices 1 2 3 4 5 6 
#
# 1 0.207562 -0.183805 -0.008790 0.000000 0.000000 -0.101011
# 2 -0.183805 0.207562 -0.008790 0.000000 0.000000 0.101011
# 3 -0.008790 -0.008790 0.016135 0.000000 0.000000 0.000000
# 4 0.000000 0.000000 0.000000 -0.026943 0.000000 0.000000
# 5 0.000000 0.000000 0.000000 0.000000 -0.026943 0.000000
# 6 -0.101011 0.101011 0.000000 0.000000 0.000000 0.082636
#
#
# Mechanical properties :
#
#
# Convention : Reuss Voigt Hill
#
# Bulk Modulus (GPa) = 35.09985 44.28367 39.69176
# Shear Modulus (GPa) = 5.73213 -3.44441 1.14386
#
# Velocity S-wave (km/s) = 1.68189 -1.30376 0.75132
# Velocity P-wave (km/s) = 4.59272 4.42574 4.51000
#
# Compressibility (1/GPa) = 0.02849015
#
# Stress axis : x y z
#
# Youngs Moduli (GPa) = 4.81783 4.81783 61.97887
#
# Poissons Ratio (x) = 0.88554 0.54479
# Poissons Ratio (y) = 0.88554 0.54479
# Poissons Ratio (z) = 0.04235 0.04235
#
# Static dielectric constant tensor:
#      x y z
#    x 1.748380 0.000000 0.000000 
#    y 0.000000 1.748380 0.000000 
#    z 0.000000 0.000000 1.718410 
# 
# From -- ./inp_files/762.got.cif
#   From: 2010.05.17/outbox.cif.g08.bks.cpg/sg75_cif.got.tgz:762.got - 2010.06.03 18:42:43.
