data_PCOD9541281
_publ_section_title
;
Structure prediction by ZEFSAII (Michael W. Deem and Ramdas Pophale) SiO2 
 PCOD9541281
Probable space group: P 41
;
_chemical_formula_sum "Si O2"
_cell_formula_units_Z 28
_cell_length_a 12.501379
_cell_length_b 12.501379
_cell_length_c 8.114511
_cell_angle_alpha 90.000000
_cell_angle_beta 90.000000
_cell_angle_gamma 90.000000
_cell_volume 1268.172107
_symmetry_space_group_name_H-M "P 41"
_symmetry_group_IT_number 76
_symmetry_cell_setting 'tetragonal'
loop_
_space_group_symop_operation_xyz
x,y,z
-y,x,1/4+z
-x,-y,1/2+z
y,-x,3/4+z
loop_
_atom_site_type_symbol
_atom_site_label
_atom_site_fract_x
_atom_site_fract_y
_atom_site_fract_z
Si Si1 0.055871 0.358933 0.587050
Si Si2 0.599495 0.242112 0.360152
Si Si3 0.467618 0.951676 0.659871
Si Si4 0.606642 0.416117 0.081743
Si Si5 0.129860 0.016149 0.432754
Si Si6 0.198362 0.590303 0.356910
Si Si7 0.785311 0.766646 0.862677
O O1 0.089335 0.445310 0.725020
O O2 0.141584 0.322446 0.452781
O O3 0.958611 0.412622 0.484618
O O4 0.029508 0.250097 0.685806
O O5 0.597598 0.123488 0.282623
O O6 0.579461 0.325416 0.215066
O O7 0.505035 0.244728 0.493755
O O8 0.710788 0.262379 0.452507
O O9 0.432810 0.075563 0.651367
O O10 0.592806 0.527963 0.175981
O O11 0.725898 0.400159 0.014234
O O12 0.145189 0.126971 0.329740
O O13 0.072609 0.056339 0.597080
O O14 0.204268 0.696198 0.246473
#
# Coordination Sequence:
#
# PCOD9541281 Si02
#       7
#     4   4   4   4   4   4   4
#     4  11  22  43  69  99 137 173 231 284 350 410
#     4  12  25  43  70 101 137 178 235 287 349 414
#     4  12  23  42  69 104 131 180 228 294 346 412
#     4  12  27  46  69 101 137 186 231 280 351 434
#     4  10  23  43  66  92 134 180 222 280 343 409
#     4  12  24  44  70  98 141 181 223 291 346 413
#     4  11  22  45  65 101 137 182 224 286 347 416
#
# _framework density 22.079021999999998
#
# number of rings (size 3 to 8) (size 9 to 14) (size 15 to 20)
#    0.000    0.571    4.286    3.429    2.000    1.143 
#    5.143    0.000    0.000    0.000    0.000    0.000 
#    0.000    0.000    0.000    0.000    0.000    0.000 
#
# Total GULP energy -156552.881804 kJ/mol
# GULP energy per Si atom -5591.174350 kJ/mol
# Density = 2.202877 g / cm^3
# Si number density = 22.079022 Si / 1000 Ang^3
#
#
#
# Elastic Constant Matrix: (Units=GPa)
#
#
# Indices 1 2 3 4 5 6 
#
# 1 72.4515 7.4690 14.6613 0.0000 0.0000 0.5714
# 2 7.4690 72.4515 14.6613 0.0000 0.0000 -0.5714
# 3 14.6613 14.6613 50.3565 0.0000 0.0000 0.0000
# 4 0.0000 0.0000 0.0000 40.2737 0.0000 0.0000
# 5 0.0000 0.0000 0.0000 0.0000 40.2737 0.0000
# 6 0.5714 -0.5714 0.0000 0.0000 0.0000 15.8117
#
#
#
# Elastic Compliance Matrix: (Units=1/GPa)
#
#
# Indices 1 2 3 4 5 6 
#
# 1 0.014704 -0.000695 -0.004079 0.000000 0.000000 -0.000556
# 2 -0.000695 0.014704 -0.004079 0.000000 0.000000 0.000556
# 3 -0.004079 -0.004079 0.022233 0.000000 0.000000 0.000000
# 4 0.000000 0.000000 0.000000 0.024830 0.000000 0.000000
# 5 0.000000 0.000000 0.000000 0.000000 0.024830 0.000000
# 6 -0.000556 0.000556 0.000000 0.000000 0.000000 0.063285
#
#
# Mechanical properties :
#
#
# Convention : Reuss Voigt Hill
#
# Bulk Modulus (GPa) = 29.46684 29.87141 29.66912
# Shear Modulus (GPa) = 25.82615 29.83633 27.83124
#
# Velocity S-wave (km/s) = 3.42382 3.68005 3.55424
# Velocity P-wave (km/s) = 5.38564 5.62278 5.50549
#
# Compressibility (1/GPa) = 0.03393645
#
# Stress axis : x y z
#
# Youngs Moduli (GPa) = 68.00995 68.00995 44.97733
#
# Poissons Ratio (x) = 0.04725 0.18345
# Poissons Ratio (y) = 0.04725 0.18345
# Poissons Ratio (z) = 0.27739 0.27739
#
# Static dielectric constant tensor:
#      x y z
#    x 1.831520 0.000000 0.000000 
#    y 0.000000 1.831520 0.000000 
#    z 0.000000 0.000000 1.797550 
# 
# From -- ./inp_files/640.got.cif
#   From: 2010.05.17/outbox.cif.g08.bks.cpg/sg76_cif.got.tgz:640.got - 2010.06.03 18:43:17.
