data_PCOD9541127
_publ_section_title
;
Structure prediction by ZEFSAII (Michael W. Deem and Ramdas Pophale) SiO2 
 PCOD9541127
Probable space group: P 41
;
_chemical_formula_sum "Si O2"
_cell_formula_units_Z 32
_cell_length_a 20.298480
_cell_length_b 20.298480
_cell_length_c 5.421898
_cell_angle_alpha 90.000000
_cell_angle_beta 90.000000
_cell_angle_gamma 90.000000
_cell_volume 2233.975363
_symmetry_space_group_name_H-M "P 41"
_symmetry_group_IT_number 76
_symmetry_cell_setting 'tetragonal'
loop_
_space_group_symop_operation_xyz
x,y,z
-y,x,1/4+z
-x,-y,1/2+z
y,-x,3/4+z
loop_
_atom_site_type_symbol
_atom_site_label
_atom_site_fract_x
_atom_site_fract_y
_atom_site_fract_z
Si Si1 0.402659 0.170600 0.720480
Si Si2 0.376017 0.692966 0.025683
Si Si3 0.487297 0.690151 0.642070
Si Si4 0.460139 0.586525 0.275070
Si Si5 0.193102 0.447403 0.522307
Si Si6 0.975403 0.416030 0.133432
Si Si7 0.046483 0.425292 0.638077
Si Si8 0.378455 0.246197 0.235880
O O1 0.481297 0.174466 0.659334
O O2 0.388611 0.096379 0.810486
O O3 0.370484 0.196263 0.466062
O O4 0.386219 0.214393 0.963277
O O5 0.422590 0.676308 0.797661
O O6 0.300032 0.679265 0.984241
O O7 0.404201 0.640250 0.221538
O O8 0.397695 0.766204 0.101764
O O9 0.500808 0.623497 0.491537
O O10 0.467941 0.753960 0.479234
O O11 0.553174 0.713302 0.780995
O O12 0.427309 0.516752 0.327786
O O13 0.124685 0.416937 0.610082
O O14 0.966484 0.495629 0.142053
O O15 0.021989 0.399843 0.901954
O O16 0.006536 0.398472 0.399503
#
# Coordination Sequence:
#
# PCOD9541127 Si02
#       8
#     4   4   4   4   4   4   4   4
#     4  10  20  35  47  67  83 114 136 178 217 272
#     4  11  22  34  46  59  83 111 147 184 228 277
#     4  10  21  35  46  58  81 110 144 185 231 283
#     4  11  25  34  44  58  75 102 145 201 245 278
#     4   9  20  31  48  64  88 106 137 171 228 272
#     4   9  17  29  48  66  92 102 131 159 211 269
#     4   9  17  28  47  72  86 108 124 162 211 276
#     4  11  22  32  50  60  84 111 150 178 223 269
#
# _framework density 14.324241000000001
#
# number of rings (size 3 to 8) (size 9 to 14) (size 15 to 20)
#    0.000    2.000    1.250    2.250   12.250    3.000 
#    0.000    0.000    0.000    0.000    0.000    0.000 
#    0.000    0.000    0.000    0.000    0.000    0.000 
#
# Total GULP energy -178216.537152 kJ/mol
# GULP energy per Si atom -5569.266786 kJ/mol
# Density = 1.429164 g / cm^3
# Si number density = 14.324241 Si / 1000 Ang^3
#
#
#
# Elastic Constant Matrix: (Units=GPa)
#
#
# Indices 1 2 3 4 5 6 
#
# 1 40.3300 6.5556 -1.8267 0.0000 0.0000 0.6992
# 2 6.5556 40.3300 -1.8267 0.0000 0.0000 -0.6992
# 3 -1.8267 -1.8267 39.8080 0.0000 0.0000 0.0000
# 4 0.0000 0.0000 0.0000 10.7129 0.0000 0.0000
# 5 0.0000 0.0000 0.0000 0.0000 10.7129 0.0000
# 6 0.6992 -0.6992 0.0000 0.0000 0.0000 6.4201
#
#
#
# Elastic Compliance Matrix: (Units=1/GPa)
#
#
# Indices 1 2 3 4 5 6 
#
# 1 0.025574 -0.004169 0.000982 0.000000 0.000000 -0.003239
# 2 -0.004169 0.025574 0.000982 0.000000 0.000000 0.003239
# 3 0.000982 0.000982 0.025211 0.000000 0.000000 0.000000
# 4 0.000000 0.000000 0.000000 0.093345 0.000000 0.000000
# 5 0.000000 0.000000 0.000000 0.000000 0.093345 0.000000
# 6 -0.003239 0.003239 0.000000 0.000000 0.000000 0.156466
#
#
# Mechanical properties :
#
#
# Convention : Reuss Voigt Hill
#
# Bulk Modulus (GPa) = 13.89858 14.03026 13.96442
# Shear Modulus (GPa) = 11.16305 13.40691 12.28498
#
# Velocity S-wave (km/s) = 2.79464 3.06266 2.93172
# Velocity P-wave (km/s) = 4.48746 4.72468 4.60759
#
# Compressibility (1/GPa) = 0.07194980
#
# Stress axis : x y z
#
# Youngs Moduli (GPa) = 39.10261 39.10261 39.66567
#
# Poissons Ratio (x) = 0.16301 -0.03896
# Poissons Ratio (y) = 0.16301 -0.03896
# Poissons Ratio (z) = -0.03841 -0.03841
#
# Static dielectric constant tensor:
#      x y z
#    x 1.467340 0.000000 0.000000 
#    y 0.000000 1.467340 0.000000 
#    z 0.000000 0.000000 1.577230 
# 
# From -- ./inp_files/331.got.cif
#   From: 2010.05.17/outbox.cif.g08.bks.cpg/sg76_cif.got.tgz:331.got - 2010.06.03 18:43:17.
