data_PCOD9541422
_publ_section_title
;
Structure prediction by ZEFSAII (Michael W. Deem and Ramdas Pophale) SiO2 
 PCOD9541422
Probable space group: P 41
;
_chemical_formula_sum "Si O2"
_cell_formula_units_Z 20
_cell_length_a 13.268035
_cell_length_b 13.268035
_cell_length_c 4.813270
_cell_angle_alpha 90.000000
_cell_angle_beta 90.000000
_cell_angle_gamma 90.000000
_cell_volume 847.331674
_symmetry_space_group_name_H-M "P 41"
_symmetry_group_IT_number 76
_symmetry_cell_setting 'tetragonal'
loop_
_space_group_symop_operation_xyz
x,y,z
-y,x,1/4+z
-x,-y,1/2+z
y,-x,3/4+z
loop_
_atom_site_type_symbol
_atom_site_label
_atom_site_fract_x
_atom_site_fract_y
_atom_site_fract_z
Si Si1 0.394642 0.229246 0.658360
Si Si2 0.790236 0.902642 0.076658
Si Si3 0.061759 0.464266 0.151297
Si Si4 0.428427 0.360452 0.182874
Si Si5 0.763367 0.038262 0.563108
O O1 0.297281 0.162407 0.720024
O O2 0.477411 0.159326 0.510748
O O3 0.364184 0.313275 0.431999
O O4 0.434550 0.282565 0.931621
O O5 0.821619 0.983005 0.310893
O O6 0.743308 0.960654 0.813839
O O7 0.875705 0.831261 0.951562
O O8 0.968782 0.504446 0.341060
O O9 0.072601 0.344448 0.191386
O O10 0.536727 0.384197 0.313476
#
# Coordination Sequence:
#
# PCOD9541422 Si02
#       5
#     4   4   4   4   4
#     4  12  25  46  73 109 142 196 255 305 366 454
#     4  12  27  48  73 110 148 195 257 310 378 446
#     4  12  23  46  72 105 148 188 239 310 381 422
#     4  12  27  46  69 102 153 198 244 297 370 452
#     4  12  26  48  75 108 151 197 247 316 375 454
#
# _framework density 23.603508999999999
#
# number of rings (size 3 to 8) (size 9 to 14) (size 15 to 20)
#    0.000    0.000    4.000    6.000    5.600    1.600 
#    0.000    0.000    0.000    0.000    0.000    0.000 
#    0.000    0.000    0.000    0.000    0.000    0.000 
#
# Total GULP energy -112165.162903 kJ/mol
# GULP energy per Si atom -5608.258145 kJ/mol
# Density = 2.354979 g / cm^3
# Si number density = 23.603509 Si / 1000 Ang^3
#
#
#
# Elastic Constant Matrix: (Units=GPa)
#
#
# Indices 1 2 3 4 5 6 
#
# 1 80.9438 49.0693 14.0301 0.0000 0.0000 -13.8601
# 2 49.0693 80.9438 14.0301 0.0000 0.0000 13.8601
# 3 14.0301 14.0301 104.6751 0.0000 0.0000 0.0000
# 4 0.0000 0.0000 0.0000 43.5232 0.0000 0.0000
# 5 0.0000 0.0000 0.0000 0.0000 43.5232 0.0000
# 6 -13.8601 13.8601 0.0000 0.0000 0.0000 18.8050
#
#
#
# Elastic Compliance Matrix: (Units=1/GPa)
#
#
# Indices 1 2 3 4 5 6 
#
# 1 0.047653 -0.039733 -0.001062 0.000000 0.000000 0.064407
# 2 -0.039733 0.047653 -0.001062 0.000000 0.000000 -0.064407
# 3 -0.001062 -0.001062 0.009838 0.000000 0.000000 0.000000
# 4 0.000000 0.000000 0.000000 0.022976 0.000000 0.000000
# 5 0.000000 0.000000 0.000000 0.000000 0.022976 0.000000
# 6 0.064407 -0.064407 0.000000 0.000000 0.000000 0.148119
#
#
# Mechanical properties :
#
#
# Convention : Reuss Voigt Hill
#
# Bulk Modulus (GPa) = 46.65763 46.75795 46.70779
# Shear Modulus (GPa) = 12.81816 33.79914 23.30865
#
# Velocity S-wave (km/s) = 2.33290 3.78822 3.14587
# Velocity P-wave (km/s) = 5.20257 6.24395 5.74690
#
# Compressibility (1/GPa) = 0.02143272
#
# Stress axis : x y z
#
# Youngs Moduli (GPa) = 20.98494 20.98494 101.64701
#
# Poissons Ratio (x) = 0.83379 0.10791
# Poissons Ratio (y) = 0.83379 0.10791
# Poissons Ratio (z) = 0.02228 0.02228
#
# Static dielectric constant tensor:
#      x y z
#    x 1.903940 0.000000 0.000000 
#    y 0.000000 1.903940 0.000000 
#    z 0.000000 0.000000 1.844630 
# 
# From -- ./inp_files/149.got.cif
#   From: 2010.05.17/outbox.cif.g08.bks.cpg/sg76_cif.got.tgz:149.got - 2010.06.03 18:43:17.
