data_PCOD9541685
_publ_section_title
;
Structure prediction by ZEFSAII (Michael W. Deem and Ramdas Pophale) SiO2 
 PCOD9541685
Probable space group: P 43
;
_chemical_formula_sum "Si O2"
_cell_formula_units_Z 24
_cell_length_a 11.642576
_cell_length_b 11.642576
_cell_length_c 7.721024
_cell_angle_alpha 90.000000
_cell_angle_beta 90.000000
_cell_angle_gamma 90.000000
_cell_volume 1046.581529
_symmetry_space_group_name_H-M "P 43"
_symmetry_group_IT_number 78
_symmetry_cell_setting 'tetragonal'
loop_
_space_group_symop_operation_xyz
x,y,z
-y,x,3/4+z
-x,-y,1/2+z
y,-x,1/4+z
loop_
_atom_site_type_symbol
_atom_site_label
_atom_site_fract_x
_atom_site_fract_y
_atom_site_fract_z
Si Si1 0.367112 0.446504 0.477280
Si Si2 0.225165 0.555478 0.915954
Si Si3 0.926069 0.630087 0.270565
Si Si4 0.864810 0.535600 0.783677
Si Si5 0.983250 0.283568 0.400844
Si Si6 0.887098 0.075067 0.598762
O O1 0.433852 0.410001 0.303467
O O2 0.404410 0.351657 0.619319
O O3 0.235273 0.452857 0.422867
O O4 0.182844 0.450663 0.796904
O O5 0.140741 0.660565 0.870682
O O6 0.194103 0.513412 0.109322
O O7 0.900411 0.752586 0.355226
O O8 0.034942 0.554885 0.338412
O O9 0.963832 0.663178 0.077193
O O10 0.929866 0.659144 0.762390
O O11 0.954224 0.153232 0.454254
O O12 0.946369 0.098843 0.780440
#
# Coordination Sequence:
#
# PCOD9541685 Si02
#       6
#     4   4   4   4   4   4
#     4  12  26  43  63  95 135 170 218 280 334 397
#     4  10  22  39  70  92 127 174 219 270 333 398
#     4   9  20  43  67  89 131 176 218 263 333 400
#     4  10  22  43  65  99 125 176 226 264 331 409
#     4   9  20  39  67  94 127 170 216 268 328 404
#     4  10  22  39  62  95 133 168 213 273 331 392
#
# _framework density 22.931802000000001
#
# number of rings (size 3 to 8) (size 9 to 14) (size 15 to 20)
#    0.000    2.000    0.000    2.000    7.000    2.667 
#   12.000    0.000    0.000    0.000    0.000    0.000 
#    0.000    0.000    0.000    0.000    0.000    0.000 
#
# Total GULP energy -134028.179913 kJ/mol
# GULP energy per Si atom -5584.507496 kJ/mol
# Density = 2.287961 g / cm^3
# Si number density = 22.931802 Si / 1000 Ang^3
#
#
#
# Elastic Constant Matrix: (Units=GPa)
#
#
# Indices 1 2 3 4 5 6 
#
# 1 80.6228 59.9370 22.8850 0.0000 0.0000 -2.4765
# 2 59.9370 80.6228 22.8850 0.0000 0.0000 2.4765
# 3 22.8850 22.8850 48.6866 0.0000 0.0000 0.0000
# 4 0.0000 0.0000 0.0000 24.3392 0.0000 0.0000
# 5 0.0000 0.0000 0.0000 0.0000 24.3392 0.0000
# 6 -2.4765 2.4765 0.0000 0.0000 0.0000 13.7300
#
#
#
# Elastic Compliance Matrix: (Units=1/GPa)
#
#
# Indices 1 2 3 4 5 6 
#
# 1 0.029462 -0.021062 -0.003948 0.000000 0.000000 0.009113
# 2 -0.021062 0.029462 -0.003948 0.000000 0.000000 -0.009113
# 3 -0.003948 -0.003948 0.024251 0.000000 0.000000 0.000000
# 4 0.000000 0.000000 0.000000 0.041086 0.000000 0.000000
# 5 0.000000 0.000000 0.000000 0.000000 0.041086 0.000000
# 6 0.009113 -0.009113 0.000000 0.000000 0.000000 0.076121
#
#
# Mechanical properties :
#
#
# Convention : Reuss Voigt Hill
#
# Bulk Modulus (GPa) = 39.59157 46.81623 43.20390
# Shear Modulus (GPa) = 16.24402 19.43004 17.83703
#
# Velocity S-wave (km/s) = 2.66439 2.91399 2.79198
# Velocity P-wave (km/s) = 5.17375 5.63751 5.41060
#
# Compressibility (1/GPa) = 0.02525790
#
# Stress axis : x y z
#
# Youngs Moduli (GPa) = 33.94187 33.94187 41.23465
#
# Poissons Ratio (x) = 0.71488 0.16281
# Poissons Ratio (y) = 0.71488 0.16281
# Poissons Ratio (z) = 0.13402 0.13402
#
# Static dielectric constant tensor:
#      x y z
#    x 1.834780 0.000000 0.000000 
#    y 0.000000 1.834780 0.000000 
#    z 0.000000 0.000000 1.913510 
# 
# From -- ./inp_files/583.got.cif
#   From: 2010.05.17/outbox.cif.g08.bks.cpg/sg78_cif.got.tgz:583.got - 2010.06.03 18:45:56.
