data_PCOD9541947
_publ_section_title
;
Structure prediction by ZEFSAII (Michael W. Deem and Ramdas Pophale) SiO2 
 PCOD9541947
Probable space group: I 4
;
_chemical_formula_sum "Si O2"
_cell_formula_units_Z 50
_cell_length_a 15.995335
_cell_length_b 15.995335
_cell_length_c 7.670759
_cell_angle_alpha 90.000000
_cell_angle_beta 90.000000
_cell_angle_gamma 90.000000
_cell_volume 1962.569380
_symmetry_space_group_name_H-M "I 4"
_symmetry_group_IT_number 79
_symmetry_cell_setting 'tetragonal'
loop_
_space_group_symop_operation_xyz
x,y,z
-y,x,z
-x,-y,z
y,-x,z
1/2+x,1/2+y,1/2+z
1/2-y,1/2+x,1/2+z
1/2-x,1/2-y,1/2+z
1/2+y,1/2-x,1/2+z
loop_
_atom_site_type_symbol
_atom_site_label
_atom_site_fract_x
_atom_site_fract_y
_atom_site_fract_z
Si Si1 0.711518 0.283372 0.482850
Si Si2 0.956683 0.588751 0.610103
Si Si3 0.500000 0.500000 0.253109
Si Si4 0.790861 0.617693 0.824027
Si Si5 0.668721 0.476077 0.429654
Si Si6 0.322883 0.084691 0.814959
Si Si7 0.132761 0.017094 0.322338
O O1 0.666678 0.249974 0.656483
O O2 0.811143 0.284767 0.469707
O O3 0.683954 0.377873 0.445299
O O4 0.672531 0.223486 0.334207
O O5 0.884927 0.598141 0.759642
O O6 0.906299 0.595374 0.430497
O O7 0.000000 0.500000 0.617855
O O8 0.033553 0.651572 0.643631
O O9 0.603007 0.498439 0.279899
O O10 0.727595 0.541328 0.860898
O O11 0.756857 0.521398 0.404701
O O12 0.630512 0.507845 0.612398
O O13 0.069472 0.090349 0.384092
#
# Coordination Sequence:
#
# PCOD9541947 Si02
#       7
#     8   8   2   8   8   8   8
#     4  11  23  38  63  95 128 166 214 269 330 389
#     4  11  24  42  62  90 134 178 225 270 327 409
#     4  12  16  28  60 104 128 162 216 284 328 378
#     4  11  23  40  64  94 134 170 213 274 329 393
#     4  12  17  32  63  98 127 159 216 276 323 378
#     4  11  23  41  64  93 134 177 224 277 338 400
#     4  11  18  33  63  98 121 156 215 273 317 374
#
# _framework density 25.476806
#
# number of rings (size 3 to 8) (size 9 to 14) (size 15 to 20)
#    0.000    0.800    9.600    0.480    0.000    2.560 
#    2.880    0.000    0.000    0.000    0.000    0.000 
#    0.000    0.000    0.000    0.000    0.000    0.000 
#
# Total GULP energy -139681.012941 kJ/mol
# GULP energy per Si atom -5587.240518 kJ/mol
# Density = 2.541882 g / cm^3
# Si number density = 25.476806 Si / 1000 Ang^3
#
#
#
# Elastic Constant Matrix: (Units=GPa)
#
#
# Indices 1 2 3 4 5 6 
#
# 1 112.4464 55.3088 11.3485 0.0000 0.0000 -14.4151
# 2 55.3088 112.4464 11.3485 0.0000 0.0000 14.4151
# 3 11.3485 11.3485 78.2932 0.0000 0.0000 0.0000
# 4 0.0000 0.0000 0.0000 14.4604 0.0000 0.0000
# 5 0.0000 0.0000 0.0000 0.0000 14.4604 0.0000
# 6 -14.4151 14.4151 0.0000 0.0000 0.0000 12.4784
#
#
#
# Elastic Compliance Matrix: (Units=1/GPa)
#
#
# Indices 1 2 3 4 5 6 
#
# 1 0.024020 -0.017939 -0.000881 0.000000 0.000000 0.048471
# 2 -0.017939 0.024020 -0.000881 0.000000 0.000000 -0.048471
# 3 -0.000881 -0.000881 0.013028 0.000000 0.000000 0.000000
# 4 0.000000 0.000000 0.000000 0.069155 0.000000 0.000000
# 5 0.000000 0.000000 0.000000 0.000000 0.069155 0.000000
# 6 0.048471 -0.048471 0.000000 0.000000 0.000000 0.192128
#
#
# Mechanical properties :
#
#
# Convention : Reuss Voigt Hill
#
# Bulk Modulus (GPa) = 46.16107 51.02198 48.59153
# Shear Modulus (GPa) = 11.41215 23.29183 17.35199
#
# Velocity S-wave (km/s) = 2.11876 3.02691 2.61260
# Velocity P-wave (km/s) = 4.91363 5.68213 5.31179
#
# Compressibility (1/GPa) = 0.02166328
#
# Stress axis : x y z
#
# Youngs Moduli (GPa) = 41.63248 41.63248 76.75772
#
# Poissons Ratio (x) = 0.74686 0.06765
# Poissons Ratio (y) = 0.74686 0.06765
# Poissons Ratio (z) = 0.03669 0.03669
#
# Static dielectric constant tensor:
#      x y z
#    x 1.971140 0.000000 0.000000 
#    y 0.000000 1.971140 0.000000 
#    z 0.000000 0.000000 2.176810 
# 
# From -- ./inp_files/1106.got.cif
#   From: 2010.05.17/outbox.cif.g08.bks.cpg/sg79_cif.got.tgz:1106.got - 2010.06.03 18:47:27.
