data_PCOD9541661
_publ_section_title
;
Structure prediction by ZEFSAII (Michael W. Deem and Ramdas Pophale) SiO2 
 PCOD9541661
Probable space group: P 43
;
_chemical_formula_sum "Si O2"
_cell_formula_units_Z 24
_cell_length_a 11.656102
_cell_length_b 11.656102
_cell_length_c 7.703341
_cell_angle_alpha 90.000000
_cell_angle_beta 90.000000
_cell_angle_gamma 90.000000
_cell_volume 1046.612221
_symmetry_space_group_name_H-M "P 43"
_symmetry_group_IT_number 78
_symmetry_cell_setting 'tetragonal'
loop_
_space_group_symop_operation_xyz
x,y,z
-y,x,3/4+z
-x,-y,1/2+z
y,-x,1/4+z
loop_
_atom_site_type_symbol
_atom_site_label
_atom_site_fract_x
_atom_site_fract_y
_atom_site_fract_z
Si Si1 0.197850 0.534619 0.160070
Si Si2 0.904832 0.700133 0.610557
Si Si3 0.384926 0.408195 0.673707
Si Si4 0.311424 0.032609 0.726597
Si Si5 0.794518 0.755132 0.073603
Si Si6 0.288719 0.145512 0.202086
O O1 0.190822 0.399042 0.128459
O O2 0.189952 0.599759 0.345547
O O3 0.312614 0.575751 0.063701
O O4 0.080256 0.574028 0.062686
O O5 0.829359 0.815743 0.607408
O O6 0.975810 0.678150 0.788108
O O7 0.008013 0.699772 0.472857
O O8 0.468534 0.395477 0.509842
O O9 0.258350 0.368024 0.620158
O O10 0.240343 0.148361 0.709144
O O11 0.251898 0.929893 0.824493
O O12 0.735370 0.797006 0.892294
#
# Coordination Sequence:
#
# PCOD9541661 Si02
#       6
#     4   4   4   4   4   4
#     4  11  22  39  65  92 123 163 212 263 318 379
#     4  10  21  40  61  88 124 164 213 259 317 386
#     4  11  26  43  64  93 126 164 209 262 320 380
#     4   9  20  37  59  88 124 165 206 258 313 371
#     4   9  21  42  63  91 128 169 216 259 314 378
#     4  10  22  39  64  94 127 169 212 267 320 372
#
# _framework density 22.931128999999999
#
# number of rings (size 3 to 8) (size 9 to 14) (size 15 to 20)
#    0.000    2.000    0.000    2.000    0.000   14.667 
#    0.000   13.333    0.000    0.000    0.000    0.000 
#    0.000    0.000    0.000    0.000    0.000    0.000 
#
# Total GULP energy -133891.024904 kJ/mol
# GULP energy per Si atom -5578.792704 kJ/mol
# Density = 2.287894 g / cm^3
# Si number density = 22.931129 Si / 1000 Ang^3
#
#
#
# Elastic Constant Matrix: (Units=GPa)
#
#
# Indices 1 2 3 4 5 6 
#
# 1 54.4249 32.0973 9.4349 0.0000 0.0000 2.9242
# 2 32.0973 54.4249 9.4349 0.0000 0.0000 -2.9242
# 3 9.4349 9.4349 66.7596 0.0000 0.0000 0.0000
# 4 0.0000 0.0000 0.0000 29.1958 0.0000 0.0000
# 5 0.0000 0.0000 0.0000 0.0000 29.1958 0.0000
# 6 2.9242 -2.9242 0.0000 0.0000 0.0000 19.7051
#
#
#
# Elastic Compliance Matrix: (Units=1/GPa)
#
#
# Indices 1 2 3 4 5 6 
#
# 1 0.029262 -0.017337 -0.001685 0.000000 0.000000 -0.006915
# 2 -0.017337 0.029262 -0.001685 0.000000 0.000000 0.006915
# 3 -0.001685 -0.001685 0.015455 0.000000 0.000000 0.000000
# 4 0.000000 0.000000 0.000000 0.034252 0.000000 0.000000
# 5 0.000000 0.000000 0.000000 0.000000 0.034252 0.000000
# 6 -0.006915 0.006915 0.000000 0.000000 0.000000 0.052801
#
#
# Mechanical properties :
#
#
# Convention : Reuss Voigt Hill
#
# Bulk Modulus (GPa) = 30.70816 30.83818 30.77317
# Shear Modulus (GPa) = 20.19766 23.92881 22.06323
#
# Velocity S-wave (km/s) = 2.97104 3.23384 3.10522
# Velocity P-wave (km/s) = 5.01896 5.23651 5.12889
#
# Compressibility (1/GPa) = 0.03256463
#
# Stress axis : x y z
#
# Youngs Moduli (GPa) = 34.17389 34.17389 64.70196
#
# Poissons Ratio (x) = 0.59247 0.10905
# Poissons Ratio (y) = 0.59247 0.10905
# Poissons Ratio (z) = 0.05760 0.05760
#
# Static dielectric constant tensor:
#      x y z
#    x 1.845100 0.000000 0.000000 
#    y 0.000000 1.845100 0.000000 
#    z 0.000000 0.000000 1.964060 
# 
# From -- ./inp_files/560.got.cif
#   From: 2010.05.17/outbox.cif.g08.bks.cpg/sg78_cif.got.tgz:560.got - 2010.06.03 18:45:56.
