data_PCOD9541107
_publ_section_title
;
Structure prediction by ZEFSAII (Michael W. Deem and Ramdas Pophale) SiO2 
 PCOD9541107
Probable space group: P 41
;
_chemical_formula_sum "Si O2"
_cell_formula_units_Z 28
_cell_length_a 11.623384
_cell_length_b 11.623384
_cell_length_c 7.617371
_cell_angle_alpha 90.000000
_cell_angle_beta 90.000000
_cell_angle_gamma 90.000000
_cell_volume 1029.130098
_symmetry_space_group_name_H-M "P 41"
_symmetry_group_IT_number 76
_symmetry_cell_setting 'tetragonal'
loop_
_space_group_symop_operation_xyz
x,y,z
-y,x,1/4+z
-x,-y,1/2+z
y,-x,3/4+z
loop_
_atom_site_type_symbol
_atom_site_label
_atom_site_fract_x
_atom_site_fract_y
_atom_site_fract_z
Si Si1 0.549380 0.858248 0.992850
Si Si2 0.894529 0.555745 0.240200
Si Si3 0.753295 0.078433 0.202155
Si Si4 0.918161 0.122271 0.654888
Si Si5 0.690153 0.864025 0.362396
Si Si6 0.217692 0.336990 0.434964
Si Si7 0.542916 0.630467 0.783582
O O1 0.577736 0.979744 0.908497
O O2 0.637439 0.837044 0.162507
O O3 0.423523 0.865870 0.080738
O O4 0.542631 0.761778 0.844101
O O5 0.913606 0.616281 0.423182
O O6 0.861974 0.424889 0.224958
O O7 0.807256 0.637213 0.136917
O O8 0.788813 0.210172 0.198767
O O9 0.756038 0.986992 0.356779
O O10 0.819098 0.007708 0.045941
O O11 0.796926 0.192404 0.641225
O O12 0.995994 0.111436 0.482021
O O13 0.340310 0.397495 0.392558
O O14 0.424535 0.572417 0.847128
#
# Coordination Sequence:
#
# PCOD9541107 Si02
#       7
#     4   4   4   4   4   4   4
#     4   9  20  37  61  88 118 166 219 261 316 394
#     4  10  19  37  62  86 119 168 216 261 319 386
#     4  11  19  37  60  90 125 169 211 265 327 391
#     4  12  24  40  68  98 133 171 215 270 334 393
#     4  10  21  35  61  89 122 165 217 266 321 393
#     4  10  20  38  63  90 121 171 217 257 324 404
#     4  10  21  40  67  93 126 168 221 272 325 383
#
# _framework density 27.207446999999998
#
# number of rings (size 3 to 8) (size 9 to 14) (size 15 to 20)
#    0.000    1.714    2.857    2.571    0.000    1.143 
#    0.000    8.571    0.000    0.000    0.000    0.000 
#    0.000    0.000    0.000    0.000    0.000    0.000 
#
# Total GULP energy -156354.315915 kJ/mol
# GULP energy per Si atom -5584.082711 kJ/mol
# Density = 2.714552 g / cm^3
# Si number density = 27.207447 Si / 1000 Ang^3
#
#
#
# Elastic Constant Matrix: (Units=GPa)
#
#
# Indices 1 2 3 4 5 6 
#
# 1 150.2743 42.7906 19.7195 0.0000 0.0000 -11.9950
# 2 42.7906 150.2743 19.7195 0.0000 0.0000 11.9950
# 3 19.7195 19.7195 61.0070 0.0000 0.0000 0.0000
# 4 0.0000 0.0000 0.0000 25.4392 0.0000 0.0000
# 5 0.0000 0.0000 0.0000 0.0000 25.4392 0.0000
# 6 -11.9950 11.9950 0.0000 0.0000 0.0000 48.4553
#
#
#
# Elastic Compliance Matrix: (Units=1/GPa)
#
#
# Indices 1 2 3 4 5 6 
#
# 1 0.007697 -0.002151 -0.001793 0.000000 0.000000 0.002438
# 2 -0.002151 0.007697 -0.001793 0.000000 0.000000 -0.002438
# 3 -0.001793 -0.001793 0.017550 0.000000 0.000000 0.000000
# 4 0.000000 0.000000 0.000000 0.039309 0.000000 0.000000
# 5 0.000000 0.000000 0.000000 0.000000 0.039309 0.000000
# 6 0.002438 -0.002438 0.000000 0.000000 0.000000 0.021845
#
#
# Mechanical properties :
#
#
# Convention : Reuss Voigt Hill
#
# Bulk Modulus (GPa) = 46.57304 58.44609 52.50957
# Shear Modulus (GPa) = 32.88673 38.48847 35.68760
#
# Velocity S-wave (km/s) = 3.48047 3.76524 3.62565
# Velocity P-wave (km/s) = 5.77117 6.35853 6.07196
#
# Compressibility (1/GPa) = 0.02147165
#
# Stress axis : x y z
#
# Youngs Moduli (GPa) = 129.92370 129.92370 56.97873
#
# Poissons Ratio (x) = 0.27947 0.10214
# Poissons Ratio (y) = 0.27947 0.10214
# Poissons Ratio (z) = 0.23290 0.23290
#
# Static dielectric constant tensor:
#      x y z
#    x 2.195480 0.000000 0.000000 
#    y 0.000000 2.195480 0.000000 
#    z 0.000000 0.000000 2.201100 
# 
# From -- ./inp_files/585.got.cif
#   From: 2010.05.17/outbox.cif.g08.bks.cpg/sg76_cif.got.tgz:585.got - 2010.06.03 18:43:17.
