data_PCOD9541251
_publ_section_title
;
Structure prediction by ZEFSAII (Michael W. Deem and Ramdas Pophale) SiO2 
 PCOD9541251
Probable space group: P 41
;
_chemical_formula_sum "Si O2"
_cell_formula_units_Z 28
_cell_length_a 8.319534
_cell_length_b 8.319534
_cell_length_c 15.324193
_cell_angle_alpha 90.000000
_cell_angle_beta 90.000000
_cell_angle_gamma 90.000000
_cell_volume 1060.658593
_symmetry_space_group_name_H-M "P 41"
_symmetry_group_IT_number 76
_symmetry_cell_setting 'tetragonal'
loop_
_space_group_symop_operation_xyz
x,y,z
-y,x,1/4+z
-x,-y,1/2+z
y,-x,3/4+z
loop_
_atom_site_type_symbol
_atom_site_label
_atom_site_fract_x
_atom_site_fract_y
_atom_site_fract_z
Si Si1 0.011459 0.445271 0.011210
Si Si2 0.889324 0.958696 0.971198
Si Si3 0.699418 0.433991 0.414237
Si Si4 0.056709 0.247283 0.177622
Si Si5 0.479299 0.460776 0.554871
Si Si6 0.153059 0.293971 0.611746
Si Si7 0.634979 0.140070 0.606001
O O1 0.987874 0.309106 0.085044
O O2 0.991834 0.602828 0.071417
O O3 0.187943 0.450512 0.969674
O O4 0.905805 0.494191 0.925463
O O5 0.871466 0.806994 0.903830
O O6 0.074588 0.006503 0.958487
O O7 0.762983 0.100525 0.956073
O O8 0.850289 0.875098 0.061726
O O9 0.761900 0.251818 0.412666
O O10 0.516175 0.448834 0.450393
O O11 0.650851 0.499755 0.320546
O O12 0.041917 0.359971 0.264299
O O13 0.308400 0.393872 0.585464
O O14 0.608615 0.321509 0.576706
#
# Coordination Sequence:
#
# PCOD9541251 Si02
#       7
#     4   4   4   4   4   4   4
#     4  11  23  44  72 102 137 184 245 288 357 430
#     4  11  21  43  69  96 136 183 236 283 356 440
#     4  11  20  41  70 101 132 181 237 291 352 423
#     4  11  22  41  73 101 136 189 232 289 361 433
#     4  11  24  41  68  96 141 177 232 297 355 416
#     4  11  24  41  66 101 136 185 232 287 358 427
#     4  10  22  43  68 103 136 185 236 293 361 435
#
# _framework density 26.398692
#
# number of rings (size 3 to 8) (size 9 to 14) (size 15 to 20)
#    0.000    1.143    5.714    2.571    4.000    1.143 
#    5.143    0.000    0.000    0.000    0.000    0.000 
#    0.000    0.000    0.000    0.000    0.000    0.000 
#
# Total GULP energy -156228.801819 kJ/mol
# GULP energy per Si atom -5579.600065 kJ/mol
# Density = 2.633861 g / cm^3
# Si number density = 26.398692 Si / 1000 Ang^3
#
#
#
# Elastic Constant Matrix: (Units=GPa)
#
#
# Indices 1 2 3 4 5 6 
#
# 1 88.7978 -31.1070 10.3180 0.0000 0.0000 15.8251
# 2 -31.1070 88.7978 10.3180 0.0000 0.0000 -15.8251
# 3 10.3180 10.3180 45.1284 0.0000 0.0000 0.0000
# 4 0.0000 0.0000 0.0000 20.5964 0.0000 0.0000
# 5 0.0000 0.0000 0.0000 0.0000 20.5964 0.0000
# 6 15.8251 -15.8251 0.0000 0.0000 0.0000 20.3132
#
#
#
# Elastic Compliance Matrix: (Units=1/GPa)
#
#
# Indices 1 2 3 4 5 6 
#
# 1 0.014688 0.004189 -0.004316 0.000000 0.000000 -0.008179
# 2 0.004189 0.014688 -0.004316 0.000000 0.000000 0.008179
# 3 -0.004316 -0.004316 0.024133 0.000000 0.000000 0.000000
# 4 0.000000 0.000000 0.000000 0.048552 0.000000 0.000000
# 5 0.000000 0.000000 0.000000 0.000000 0.048552 0.000000
# 6 -0.008179 0.008179 0.000000 0.000000 0.000000 0.061973
#
#
# Mechanical properties :
#
#
# Convention : Reuss Voigt Hill
#
# Bulk Modulus (GPa) = 22.40974 22.42023 22.41498
# Shear Modulus (GPa) = 21.15531 27.84753 24.50142
#
# Velocity S-wave (km/s) = 2.83393 3.25142 3.04983
# Velocity P-wave (km/s) = 4.38356 4.75468 4.57289
#
# Compressibility (1/GPa) = 0.04462346
#
# Stress axis : x y z
#
# Youngs Moduli (GPa) = 68.08139 68.08139 41.43767
#
# Poissons Ratio (x) = -0.28522 0.17885
# Poissons Ratio (y) = -0.28522 0.17885
# Poissons Ratio (z) = 0.29385 0.29385
#
# Static dielectric constant tensor:
#      x y z
#    x 2.208070 0.000000 0.000000 
#    y 0.000000 2.208070 0.000000 
#    z 0.000000 0.000000 2.274520 
# 
# From -- ./inp_files/1253.got.cif
#   From: 2010.05.17/outbox.cif.g08.bks.cpg/sg76_cif.got.tgz:1253.got - 2010.06.03 18:43:17.
