data_PCOD9541969
_publ_section_title
;
Structure prediction by ZEFSAII (Michael W. Deem and Ramdas Pophale) SiO2 
 PCOD9541969
Probable space group: I 4
;
_chemical_formula_sum "Si O2"
_cell_formula_units_Z 64
_cell_length_a 22.450894
_cell_length_b 22.450894
_cell_length_c 5.409345
_cell_angle_alpha 90.000000
_cell_angle_beta 90.000000
_cell_angle_gamma 90.000000
_cell_volume 2726.540542
_symmetry_space_group_name_H-M "I 4"
_symmetry_group_IT_number 79
_symmetry_cell_setting 'tetragonal'
loop_
_space_group_symop_operation_xyz
x,y,z
-y,x,z
-x,-y,z
y,-x,z
1/2+x,1/2+y,1/2+z
1/2-y,1/2+x,1/2+z
1/2-x,1/2-y,1/2+z
1/2+y,1/2-x,1/2+z
loop_
_atom_site_type_symbol
_atom_site_label
_atom_site_fract_x
_atom_site_fract_y
_atom_site_fract_z
Si Si1 0.148093 0.521790 0.517260
Si Si2 0.511892 0.266930 0.716825
Si Si3 0.079378 0.763623 0.705933
Si Si4 0.396489 0.343201 0.603965
Si Si5 0.750233 0.211360 0.046977
Si Si6 0.884002 0.706216 0.691950
Si Si7 0.600290 0.128234 0.303506
Si Si8 0.869627 0.847258 0.602178
O O1 0.196973 0.503431 0.719407
O O2 0.187729 0.551796 0.299463
O O3 0.115907 0.461372 0.446213
O O4 0.108432 0.575353 0.611663
O O5 0.558109 0.275693 0.488080
O O6 0.452357 0.300406 0.638002
O O7 0.533998 0.282775 0.989686
O O8 0.204255 0.664636 0.415980
O O9 0.090939 0.693660 0.693445
O O10 0.334420 0.305522 0.590640
O O11 0.400688 0.374036 0.342693
O O12 0.391864 0.378141 0.855632
O O13 0.740840 0.241218 0.319036
O O14 0.637961 0.300415 0.133710
O O15 0.869352 0.657882 0.483172
O O16 0.882070 0.775600 0.603798
#
# Coordination Sequence:
#
# PCOD9541969 Si02
#       8
#     8   8   8   8   8   8   8   8
#     4  11  26  48  71  98 133 194 263 311 379 429
#     4  11  23  48  73  97 147 206 245 288 368 443
#     4  11  27  45  71 108 151 184 247 314 359 447
#     4  11  22  40  67  98 142 200 225 279 353 450
#     4  11  24  38  61 104 141 178 231 286 347 442
#     4  11  26  44  72  98 140 198 228 306 383 455
#     4  11  29  47  75  97 136 198 256 320 379 433
#     4  11  23  44  67 112 148 182 238 292 379 446
#
# _framework density 23.472967000000001
#
# number of rings (size 3 to 8) (size 9 to 14) (size 15 to 20)
#    0.000    1.000    2.500    3.750   14.000    1.000 
#    0.000    1.875    0.000    0.000    0.000    0.000 
#    0.000   35.000    0.000    0.000    0.000    0.000 
#
# Total GULP energy -178839.314594 kJ/mol
# GULP energy per Si atom -5588.728581 kJ/mol
# Density = 2.341954 g / cm^3
# Si number density = 23.472967 Si / 1000 Ang^3
#
#
#
# Elastic Constant Matrix: (Units=GPa)
#
#
# Indices 1 2 3 4 5 6 
#
# 1 67.9794 25.9908 25.4602 0.0000 0.0000 -9.7336
# 2 25.9908 67.9794 25.4602 0.0000 0.0000 9.7336
# 3 25.4602 25.4602 163.7125 0.0000 0.0000 0.0000
# 4 0.0000 0.0000 0.0000 33.9401 0.0000 0.0000
# 5 0.0000 0.0000 0.0000 0.0000 33.9401 0.0000
# 6 -9.7336 9.7336 0.0000 0.0000 0.0000 13.8875
#
#
#
# Elastic Compliance Matrix: (Units=1/GPa)
#
#
# Indices 1 2 3 4 5 6 
#
# 1 0.023451 -0.011830 -0.001807 0.000000 0.000000 0.024728
# 2 -0.011830 0.023451 -0.001807 0.000000 0.000000 -0.024728
# 3 -0.001807 -0.001807 0.006670 0.000000 0.000000 0.000000
# 4 0.000000 0.000000 0.000000 0.029464 0.000000 0.000000
# 5 0.000000 0.000000 0.000000 0.000000 0.029464 0.000000
# 6 0.024728 -0.024728 0.000000 0.000000 0.000000 0.106670
#
#
# Mechanical properties :
#
#
# Convention : Reuss Voigt Hill
#
# Bulk Modulus (GPa) = 44.08529 50.38817 47.23673
# Shear Modulus (GPa) = 19.40848 31.20420 25.30634
#
# Velocity S-wave (km/s) = 2.87861 3.65000 3.28701
# Velocity P-wave (km/s) = 5.46540 6.26709 5.87993
#
# Compressibility (1/GPa) = 0.02268330
#
# Stress axis : x y z
#
# Youngs Moduli (GPa) = 42.64244 42.64244 149.91618
#
# Poissons Ratio (x) = 0.50445 0.27094
# Poissons Ratio (y) = 0.50445 0.27094
# Poissons Ratio (z) = 0.07707 0.07707
#
# Static dielectric constant tensor:
#      x y z
#    x 1.921230 0.000000 0.000000 
#    y 0.000000 1.921230 0.000000 
#    z 0.000000 0.000000 2.047820 
# 
# From -- ./inp_files/304.got.cif
#   From: 2010.05.17/outbox.cif.g08.bks.cpg/sg79_cif.got.tgz:304.got - 2010.06.03 18:47:27.
