data_PCOD9541116
_publ_section_title
;
Structure prediction by ZEFSAII (Michael W. Deem and Ramdas Pophale) SiO2 
 PCOD9541116
Probable space group: P 41
;
_chemical_formula_sum "Si O2"
_cell_formula_units_Z 28
_cell_length_a 9.038305
_cell_length_b 9.038305
_cell_length_c 17.429194
_cell_angle_alpha 90.000000
_cell_angle_beta 90.000000
_cell_angle_gamma 90.000000
_cell_volume 1423.807542
_symmetry_space_group_name_H-M "P 41"
_symmetry_group_IT_number 76
_symmetry_cell_setting 'tetragonal'
loop_
_space_group_symop_operation_xyz
x,y,z
-y,x,1/4+z
-x,-y,1/2+z
y,-x,3/4+z
loop_
_atom_site_type_symbol
_atom_site_label
_atom_site_fract_x
_atom_site_fract_y
_atom_site_fract_z
Si Si1 0.359090 0.586470 0.690140
Si Si2 0.318953 0.657846 0.866628
Si Si3 0.761704 0.860806 0.331820
Si Si4 0.194986 0.992566 0.285852
Si Si5 0.038708 0.868358 0.875113
Si Si6 0.172140 0.308796 0.675969
Si Si7 0.939266 0.490648 0.600804
O O1 0.326448 0.596923 0.779991
O O2 0.524985 0.637079 0.672274
O O3 0.257522 0.701147 0.642587
O O4 0.312409 0.418960 0.665726
O O5 0.161284 0.740523 0.874469
O O6 0.441497 0.785446 0.874396
O O7 0.816781 0.781981 0.254346
O O8 0.877583 0.973896 0.369707
O O9 0.620482 0.963812 0.313181
O O10 0.153702 0.941809 0.201481
O O11 0.355643 0.066940 0.291713
O O12 0.075443 0.118420 0.305806
O O13 0.206480 0.866028 0.351693
O O14 0.033071 0.422763 0.671742
#
# Coordination Sequence:
#
# PCOD9541116 Si02
#       7
#     4   4   4   4   4   4   4
#     4  11  21  38  66  95 131 167 223 263 330 400
#     4  11  22  40  65  96 130 172 219 272 328 397
#     4  10  19  40  65  93 124 174 218 265 331 396
#     4  10  21  41  60  93 129 165 212 274 323 386
#     4  11  22  38  68  90 129 168 218 272 329 385
#     4   9  20  40  62  90 131 171 212 274 319 402
#     4   8  21  39  62  87 136 161 212 270 326 386
#
# _framework density 19.665578
#
# number of rings (size 3 to 8) (size 9 to 14) (size 15 to 20)
#    0.857    1.143    1.429    2.571    0.000    1.143 
#    5.143    0.000    0.000    0.000    0.000    0.000 
#    0.000    0.000    0.000    0.000    0.000    0.000 
#
# Total GULP energy -155971.104600 kJ/mol
# GULP energy per Si atom -5570.396593 kJ/mol
# Density = 1.962082 g / cm^3
# Si number density = 19.665578 Si / 1000 Ang^3
#
#
#
# Elastic Constant Matrix: (Units=GPa)
#
#
# Indices 1 2 3 4 5 6 
#
# 1 73.7885 28.8164 5.5163 0.0000 0.0000 -3.7174
# 2 28.8164 73.7885 5.5163 0.0000 0.0000 3.7174
# 3 5.5163 5.5163 78.1950 0.0000 0.0000 0.0000
# 4 0.0000 0.0000 0.0000 24.4120 0.0000 0.0000
# 5 0.0000 0.0000 0.0000 0.0000 24.4120 0.0000
# 6 -3.7174 3.7174 0.0000 0.0000 0.0000 19.7193
#
#
#
# Elastic Compliance Matrix: (Units=1/GPa)
#
#
# Indices 1 2 3 4 5 6 
#
# 1 0.016386 -0.006565 -0.000693 0.000000 0.000000 0.004327
# 2 -0.006565 0.016386 -0.000693 0.000000 0.000000 -0.004327
# 3 -0.000693 -0.000693 0.012886 0.000000 0.000000 0.000000
# 4 0.000000 0.000000 0.000000 0.040964 0.000000 0.000000
# 5 0.000000 0.000000 0.000000 0.000000 0.040964 0.000000
# 6 0.004327 -0.004327 0.000000 0.000000 0.000000 0.052343
#
#
# Mechanical properties :
#
#
# Convention : Reuss Voigt Hill
#
# Bulk Modulus (GPa) = 33.60631 33.94112 33.77372
# Shear Modulus (GPa) = 24.30147 26.10352 25.20249
#
# Velocity S-wave (km/s) = 3.51912 3.64726 3.58376
# Velocity P-wave (km/s) = 5.79985 5.91890 5.85967
#
# Compressibility (1/GPa) = 0.02975632
#
# Stress axis : x y z
#
# Youngs Moduli (GPa) = 61.02785 61.02785 77.60183
#
# Poissons Ratio (x) = 0.40067 0.05376
# Poissons Ratio (y) = 0.40067 0.05376
# Poissons Ratio (z) = 0.04228 0.04228
#
# Static dielectric constant tensor:
#      x y z
#    x 1.706990 0.000000 0.000000 
#    y 0.000000 1.706990 0.000000 
#    z 0.000000 0.000000 1.684410 
# 
# From -- ./inp_files/1299.got.cif
#   From: 2010.05.17/outbox.cif.g08.bks.cpg/sg76_cif.got.tgz:1299.got - 2010.06.03 18:43:17.
