data_PCOD9541575
_publ_section_title
;
Structure prediction by ZEFSAII (Michael W. Deem and Ramdas Pophale) SiO2 
 PCOD9541575
Probable space group: P 42
;
_chemical_formula_sum "Si O2"
_cell_formula_units_Z 16
_cell_length_a 8.161578
_cell_length_b 8.161578
_cell_length_c 9.552511
_cell_angle_alpha 90.000000
_cell_angle_beta 90.000000
_cell_angle_gamma 90.000000
_cell_volume 636.305706
_symmetry_space_group_name_H-M "P 42"
_symmetry_group_IT_number 77
_symmetry_cell_setting 'tetragonal'
loop_
_space_group_symop_operation_xyz
x,y,z
-y,x,1/2+z
-x,-y,z
y,-x,1/2+z
loop_
_atom_site_type_symbol
_atom_site_label
_atom_site_fract_x
_atom_site_fract_y
_atom_site_fract_z
Si Si1 0.073832 0.817084 0.245760
Si Si2 0.612229 0.844711 0.499732
Si Si3 0.371573 0.298511 0.950437
Si Si4 0.277495 0.305119 0.253369
O O1 0.170606 0.761455 0.385846
O O2 0.914166 0.703976 0.221787
O O3 0.185344 0.749132 0.117395
O O4 0.000000 0.000000 0.236023
O O5 0.480184 0.702353 0.468026
O O6 0.703847 0.850153 0.354009
O O7 0.500000 0.000000 0.515593
O O8 0.523163 0.293426 0.840548
O O9 0.390777 0.269922 0.118020
#
# Coordination Sequence:
#
# PCOD9541575 Si02
#       4
#     4   4   4   4
#     4  12  28  53  82 122 171 227 294 370 446 533
#     4  12  26  49  77 122 164 221 289 354 443 532
#     4  12  26  53  79 122 170 221 289 366 438 531
#     4  12  29  47  84 120 171 227 289 364 443 530
#
# _framework density 25.145143999999998
#
# number of rings (size 3 to 8) (size 9 to 14) (size 15 to 20)
#    0.000    0.000    5.000    3.000    7.000    4.000 
#    0.000    0.000    0.000    0.000    0.000    0.000 
#    0.000    0.000    0.000    0.000    0.000    0.000 
#
# Total GULP energy -89125.679536 kJ/mol
# GULP energy per Si atom -5570.354971 kJ/mol
# Density = 2.508791 g / cm^3
# Si number density = 25.145144 Si / 1000 Ang^3
#
#
#
# Elastic Constant Matrix: (Units=GPa)
#
#
# Indices 1 2 3 4 5 6 
#
# 1 120.2652 63.3033 58.6475 0.0000 0.0000 0.1159
# 2 63.3033 120.2652 58.6475 0.0000 0.0000 -0.1159
# 3 58.6475 58.6475 188.8810 0.0000 0.0000 0.0000
# 4 0.0000 0.0000 0.0000 12.4969 0.0000 0.0000
# 5 0.0000 0.0000 0.0000 0.0000 12.4969 0.0000
# 6 0.1159 -0.1159 0.0000 0.0000 0.0000 46.4884
#
#
#
# Elastic Compliance Matrix: (Units=1/GPa)
#
#
# Indices 1 2 3 4 5 6 
#
# 1 0.012176 -0.005380 -0.002110 0.000000 0.000000 -0.000044
# 2 -0.005380 0.012176 -0.002110 0.000000 0.000000 0.000044
# 3 -0.002110 -0.002110 0.006605 0.000000 0.000000 0.000000
# 4 0.000000 0.000000 0.000000 0.080020 0.000000 0.000000
# 5 0.000000 0.000000 0.000000 0.000000 0.080020 0.000000
# 6 -0.000044 0.000044 0.000000 0.000000 0.000000 0.021511
#
#
# Mechanical properties :
#
#
# Convention : Reuss Voigt Hill
#
# Bulk Modulus (GPa) = 85.06304 87.84533 86.45418
# Shear Modulus (GPa) = 21.22010 30.88399 26.05205
#
# Velocity S-wave (km/s) = 2.90816 3.50841 3.22229
# Velocity P-wave (km/s) = 6.72151 7.17099 6.94989
#
# Compressibility (1/GPa) = 0.01175599
#
# Stress axis : x y z
#
# Youngs Moduli (GPa) = 82.13007 82.13007 151.40701
#
# Poissons Ratio (x) = 0.44186 0.31949
# Poissons Ratio (y) = 0.44186 0.31949
# Poissons Ratio (z) = 0.17330 0.17330
#
# Static dielectric constant tensor:
#      x y z
#    x 2.314460 0.000000 0.000000 
#    y 0.000000 2.314460 0.000000 
#    z 0.000000 0.000000 2.369340 
# 
# From -- ./inp_files/296.got.cif
#   From: 2010.05.17/outbox.cif.g08.bks.cpg/sg77_cif.got.tgz:296.got - 2010.06.03 18:44:51.
