data_PCOD9541161
_publ_section_title
;
Structure prediction by ZEFSAII (Michael W. Deem and Ramdas Pophale) SiO2 
 PCOD9541161
Probable space group: P 41
;
_chemical_formula_sum "Si O2"
_cell_formula_units_Z 32
_cell_length_a 14.741067
_cell_length_b 14.741067
_cell_length_c 8.186087
_cell_angle_alpha 90.000000
_cell_angle_beta 90.000000
_cell_angle_gamma 90.000000
_cell_volume 1778.828980
_symmetry_space_group_name_H-M "P 41"
_symmetry_group_IT_number 76
_symmetry_cell_setting 'tetragonal'
loop_
_space_group_symop_operation_xyz
x,y,z
-y,x,1/4+z
-x,-y,1/2+z
y,-x,3/4+z
loop_
_atom_site_type_symbol
_atom_site_label
_atom_site_fract_x
_atom_site_fract_y
_atom_site_fract_z
Si Si1 0.776437 0.428702 0.619910
Si Si2 0.645504 0.169851 0.768399
Si Si3 0.666721 0.290280 0.080502
Si Si4 0.486634 0.383139 0.170187
Si Si5 0.394696 0.033256 0.253138
Si Si6 0.017398 0.596400 0.618200
Si Si7 0.821316 0.645355 0.642219
Si Si8 0.202447 0.570107 0.485658
O O1 0.688960 0.419669 0.506118
O O2 0.866554 0.373676 0.570028
O O3 0.800107 0.537074 0.624071
O O4 0.757026 0.411209 0.807946
O O5 0.673442 0.194295 0.581205
O O6 0.536186 0.187357 0.766201
O O7 0.658977 0.060537 0.789476
O O8 0.683050 0.228084 0.919832
O O9 0.562777 0.325070 0.074782
O O10 0.686409 0.234472 0.244557
O O11 0.726949 0.380014 0.099097
O O12 0.543882 0.435032 0.310561
O O13 0.494334 0.011588 0.323545
O O14 0.401692 0.043032 0.058236
O O15 0.104133 0.616077 0.507713
O O16 0.927884 0.656249 0.602496
#
# Coordination Sequence:
#
# PCOD9541161 Si02
#       8
#     4   4   4   4   4   4   4   4
#     4   9  20  34  50  76  94 126 182 226 268 310
#     4   9  19  35  52  73 102 136 173 210 265 324
#     4  11  22  34  54  72 101 141 176 220 270 302
#     4  11  26  40  53  67  98 150 199 239 266 298
#     4   9  17  29  54  75  96 125 163 217 273 330
#     4   9  17  29  50  74  98 123 162 206 272 328
#     4   8  18  34  50  73  96 128 169 215 261 324
#     4  10  21  31  49  76 101 131 170 219 259 318
#
# _framework density 17.989362
#
# number of rings (size 3 to 8) (size 9 to 14) (size 15 to 20)
#    0.000    2.500    0.000    3.000   15.750    3.000 
#    0.000    0.000    0.000    0.000    0.000    0.000 
#    0.000    0.000    8.500    0.375    0.000    0.375 
#
# Total GULP energy -178276.622941 kJ/mol
# GULP energy per Si atom -5571.144467 kJ/mol
# Density = 1.794842 g / cm^3
# Si number density = 17.989362 Si / 1000 Ang^3
#
#
#
# Elastic Constant Matrix: (Units=GPa)
#
#
# Indices 1 2 3 4 5 6 
#
# 1 35.1475 0.9739 13.0072 0.0000 0.0000 -2.3834
# 2 0.9739 35.1475 13.0072 0.0000 0.0000 2.3834
# 3 13.0072 13.0072 55.3330 0.0000 0.0000 0.0000
# 4 0.0000 0.0000 0.0000 23.6807 0.0000 0.0000
# 5 0.0000 0.0000 0.0000 0.0000 23.6807 0.0000
# 6 -2.3834 2.3834 0.0000 0.0000 0.0000 0.9188
#
#
#
# Elastic Compliance Matrix: (Units=1/GPa)
#
#
# Indices 1 2 3 4 5 6 
#
# 1 0.039591 -0.006264 -0.007834 0.000000 0.000000 0.118949
# 2 -0.006264 0.039591 -0.007834 0.000000 0.000000 -0.118949
# 3 -0.007834 -0.007834 0.021756 0.000000 0.000000 0.000000
# 4 0.000000 0.000000 0.000000 0.042229 0.000000 0.000000
# 5 0.000000 0.000000 0.000000 0.000000 0.042229 0.000000
# 6 0.118949 -0.118949 0.000000 0.000000 0.000000 1.705480
#
#
# Mechanical properties :
#
#
# Convention : Reuss Voigt Hill
#
# Bulk Modulus (GPa) = 17.52167 19.95605 18.73886
# Shear Modulus (GPa) = 2.55917 16.23200 9.39558
#
# Velocity S-wave (km/s) = 1.19402 3.00711 2.28784
# Velocity P-wave (km/s) = 3.41498 4.81397 4.17351
#
# Compressibility (1/GPa) = 0.05707220
#
# Stress axis : x y z
#
# Youngs Moduli (GPa) = 25.25855 25.25855 45.96525
#
# Poissons Ratio (x) = 0.15822 0.36010
# Poissons Ratio (y) = 0.15822 0.36010
# Poissons Ratio (z) = 0.19788 0.19788
#
# Static dielectric constant tensor:
#      x y z
#    x 1.639270 0.000000 0.000000 
#    y 0.000000 1.639270 0.000000 
#    z 0.000000 0.000000 1.653560 
# 
# From -- ./inp_files/720.got.cif
#   From: 2010.05.17/outbox.cif.g08.bks.cpg/sg76_cif.got.tgz:720.got - 2010.06.03 18:43:17.
