data_PCOD9541693
_publ_section_title
;
Structure prediction by ZEFSAII (Michael W. Deem and Ramdas Pophale) SiO2 
 PCOD9541693
Probable space group: P 43
;
_chemical_formula_sum "Si O2"
_cell_formula_units_Z 24
_cell_length_a 7.431018
_cell_length_b 7.431018
_cell_length_c 17.414999
_cell_angle_alpha 90.000000
_cell_angle_beta 90.000000
_cell_angle_gamma 90.000000
_cell_volume 961.656741
_symmetry_space_group_name_H-M "P 43"
_symmetry_group_IT_number 78
_symmetry_cell_setting 'tetragonal'
loop_
_space_group_symop_operation_xyz
x,y,z
-y,x,3/4+z
-x,-y,1/2+z
y,-x,1/4+z
loop_
_atom_site_type_symbol
_atom_site_label
_atom_site_fract_x
_atom_site_fract_y
_atom_site_fract_z
Si Si1 0.794179 0.709878 0.677140
Si Si2 0.618160 0.291652 0.361444
Si Si3 0.225688 0.979925 0.275366
Si Si4 0.371110 0.739904 0.685214
Si Si5 0.879625 0.373735 0.481446
Si Si6 0.113213 0.701004 0.145702
O O1 0.903601 0.806320 0.609203
O O2 0.581628 0.737881 0.662068
O O3 0.832669 0.497708 0.676703
O O4 0.838012 0.820304 0.754094
O O5 0.408353 0.281482 0.381848
O O6 0.643033 0.333697 0.272618
O O7 0.723266 0.418304 0.421184
O O8 0.702974 0.099921 0.381474
O O9 0.441790 0.961660 0.265693
O O10 0.156838 0.846395 0.209441
O O11 0.296449 0.942957 0.689330
O O12 0.811313 0.273168 0.558351
#
# Coordination Sequence:
#
# PCOD9541693 Si02
#       6
#     4   4   4   4   4   4
#     4  10  23  44  66  96 133 170 226 276 328 409
#     4  11  24  41  66  96 131 174 218 276 341 400
#     4  10  22  41  70  91 130 180 215 274 338 390
#     4  10  24  42  65  98 128 172 228 271 338 404
#     4   9  22  42  62  95 132 166 225 274 323 408
#     4  10  23  40  63  96 132 170 218 271 334 397
#
# _framework density 24.95693
#
# number of rings (size 3 to 8) (size 9 to 14) (size 15 to 20)
#    0.000    2.000    0.000    2.000   11.667    2.667 
#    3.000    0.000    0.000    0.000    0.000    0.000 
#    0.000    0.000    0.000    0.000    0.000    0.000 
#
# Total GULP energy -134301.701679 kJ/mol
# GULP energy per Si atom -5595.904237 kJ/mol
# Density = 2.490013 g / cm^3
# Si number density = 24.956930 Si / 1000 Ang^3
#
#
#
# Elastic Constant Matrix: (Units=GPa)
#
#
# Indices 1 2 3 4 5 6 
#
# 1 68.7812 6.3774 30.3703 0.0000 0.0000 1.0478
# 2 6.3774 68.7812 30.3703 0.0000 0.0000 -1.0478
# 3 30.3703 30.3703 109.7179 0.0000 0.0000 0.0000
# 4 0.0000 0.0000 0.0000 33.0672 0.0000 0.0000
# 5 0.0000 0.0000 0.0000 0.0000 33.0672 0.0000
# 6 1.0478 -1.0478 0.0000 0.0000 0.0000 19.9038
#
#
#
# Elastic Compliance Matrix: (Units=1/GPa)
#
#
# Indices 1 2 3 4 5 6 
#
# 1 0.016596 0.000543 -0.004744 0.000000 0.000000 -0.000845
# 2 0.000543 0.016596 -0.004744 0.000000 0.000000 0.000845
# 3 -0.004744 -0.004744 0.011741 0.000000 0.000000 0.000000
# 4 0.000000 0.000000 0.000000 0.030241 0.000000 0.000000
# 5 0.000000 0.000000 0.000000 0.000000 0.030241 0.000000
# 6 -0.000845 0.000845 0.000000 0.000000 0.000000 0.050331
#
#
# Mechanical properties :
#
#
# Convention : Reuss Voigt Hill
#
# Bulk Modulus (GPa) = 36.97889 42.39071 39.68480
# Shear Modulus (GPa) = 27.37454 29.21845 28.29650
#
# Velocity S-wave (km/s) = 3.31550 3.42534 3.37087
# Velocity P-wave (km/s) = 5.43194 5.71545 5.57550
#
# Compressibility (1/GPa) = 0.02704246
#
# Stress axis : x y z
#
# Youngs Moduli (GPa) = 60.25476 60.25476 85.17361
#
# Poissons Ratio (x) = -0.03273 0.40408
# Poissons Ratio (y) = -0.03273 0.40408
# Poissons Ratio (z) = 0.28586 0.28586
#
# Static dielectric constant tensor:
#      x y z
#    x 2.032630 0.000000 0.000000 
#    y 0.000000 2.032630 0.000000 
#    z 0.000000 0.000000 2.001340 
# 
# From -- ./inp_files/1241.got.cif
#   From: 2010.05.17/outbox.cif.g08.bks.cpg/sg78_cif.got.tgz:1241.got - 2010.06.03 18:45:56.
