data_PCOD9541668
_publ_section_title
;
Structure prediction by ZEFSAII (Michael W. Deem and Ramdas Pophale) SiO2 
 PCOD9541668
Probable space group: P 43
;
_chemical_formula_sum "Si O2"
_cell_formula_units_Z 28
_cell_length_a 12.742482
_cell_length_b 12.742482
_cell_length_c 7.477380
_cell_angle_alpha 90.000000
_cell_angle_beta 90.000000
_cell_angle_gamma 90.000000
_cell_volume 1214.108528
_symmetry_space_group_name_H-M "P 43"
_symmetry_group_IT_number 78
_symmetry_cell_setting 'tetragonal'
loop_
_space_group_symop_operation_xyz
x,y,z
-y,x,3/4+z
-x,-y,1/2+z
y,-x,1/4+z
loop_
_atom_site_type_symbol
_atom_site_label
_atom_site_fract_x
_atom_site_fract_y
_atom_site_fract_z
Si Si1 0.113614 0.779551 0.983790
Si Si2 0.268890 0.320781 0.523880
Si Si3 0.009578 0.669747 0.676897
Si Si4 0.602146 0.220921 0.876000
Si Si5 0.543074 0.789629 0.890096
Si Si6 0.769544 0.372665 0.734229
Si Si7 0.988913 0.870043 0.468374
O O1 0.213442 0.777682 0.850040
O O2 0.017432 0.735683 0.864024
O O3 0.139963 0.694847 0.138722
O O4 0.115629 0.894263 0.074389
O O5 0.236576 0.348107 0.322867
O O6 0.234187 0.420974 0.636591
O O7 0.392525 0.296687 0.501800
O O8 0.096534 0.580037 0.704501
O O9 0.903005 0.617305 0.608610
O O10 0.030083 0.755571 0.521164
O O11 0.671653 0.293301 0.748067
O O12 0.480163 0.249659 0.877424
O O13 0.585791 0.788681 0.685211
O O14 0.083122 0.939126 0.397035
#
# Coordination Sequence:
#
# PCOD9541668 Si02
#       7
#     4   4   4   4   4   4   4
#     4  11  24  41  68  99 133 172 222 278 336 406
#     4   9  21  40  64  93 134 173 222 273 333 395
#     4  11  24  41  68  98 134 176 219 283 338 407
#     4  10  22  43  67  95 138 179 226 275 338 400
#     4   9  20  43  64  93 134 180 221 279 335 401
#     4  10  21  42  64  98 134 176 223 276 336 398
#     4  12  26  44  67  96 133 176 223 272 340 405
#
# _framework density 23.062189
#
# number of rings (size 3 to 8) (size 9 to 14) (size 15 to 20)
#    0.000    1.714    1.429    1.714    6.000    4.571 
#    5.143   11.429    0.000    0.000    0.000    0.000 
#    0.000    0.000    0.000    0.000    0.000    0.000 
#
# Total GULP energy -156382.137007 kJ/mol
# GULP energy per Si atom -5585.076322 kJ/mol
# Density = 2.300970 g / cm^3
# Si number density = 23.062189 Si / 1000 Ang^3
#
#
#
# Elastic Constant Matrix: (Units=GPa)
#
#
# Indices 1 2 3 4 5 6 
#
# 1 70.6045 77.0355 20.3427 0.0000 0.0000 -5.3478
# 2 77.0355 70.6045 20.3427 0.0000 0.0000 5.3478
# 3 20.3427 20.3427 82.1869 0.0000 0.0000 0.0000
# 4 0.0000 0.0000 0.0000 40.8385 0.0000 0.0000
# 5 0.0000 0.0000 0.0000 0.0000 40.8385 0.0000
# 6 -5.3478 5.3478 0.0000 0.0000 0.0000 -13.0723
#
#
#
# Elastic Compliance Matrix: (Units=1/GPa)
#
#
# Indices 1 2 3 4 5 6 
#
# 1 -0.239615 0.246884 -0.001799 0.000000 0.000000 0.199023
# 2 0.246884 -0.239615 -0.001799 0.000000 0.000000 -0.199023
# 3 -0.001799 -0.001799 0.013058 0.000000 0.000000 0.000000
# 4 0.000000 0.000000 0.000000 0.024487 0.000000 0.000000
# 5 0.000000 0.000000 0.000000 0.000000 0.024487 0.000000
# 6 0.199023 -0.199023 0.000000 0.000000 0.000000 -0.239336
#
#
# Mechanical properties :
#
#
# Convention : Reuss Voigt Hill
#
# Bulk Modulus (GPa) = 49.02127 50.98192 50.00160
# Shear Modulus (GPa) = -4.40022 20.76593 8.18285
#
# Velocity S-wave (km/s) = -1.38280 3.00397 1.88570
# Velocity P-wave (km/s) = 4.33045 5.84689 5.14485
#
# Compressibility (1/GPa) = 0.02039931
#
# Stress axis : x y z
#
# Youngs Moduli (GPa) = -4.17336 -4.17336 76.58100
#
# Poissons Ratio (x) = 1.03034 0.13779
# Poissons Ratio (y) = 1.03034 0.13779
# Poissons Ratio (z) = -0.00751 -0.00751
#
# Static dielectric constant tensor:
#      x y z
#    x 1.849390 0.000000 0.000000 
#    y 0.000000 1.849390 0.000000 
#    z 0.000000 0.000000 1.922890 
# 
# From -- ./inp_files/644.got.cif
#   From: 2010.05.17/outbox.cif.g08.bks.cpg/sg78_cif.got.tgz:644.got - 2010.06.03 18:45:56.
