data_PCOD9541921
_publ_section_title
;
Structure prediction by ZEFSAII (Michael W. Deem and Ramdas Pophale) SiO2 
 PCOD9541921
Probable space group: I 4
;
_chemical_formula_sum "Si O2"
_cell_formula_units_Z 52
_cell_length_a 18.802540
_cell_length_b 18.802540
_cell_length_c 7.385551
_cell_angle_alpha 90.000000
_cell_angle_beta 90.000000
_cell_angle_gamma 90.000000
_cell_volume 2611.054543
_symmetry_space_group_name_H-M "I 4"
_symmetry_group_IT_number 79
_symmetry_cell_setting 'tetragonal'
loop_
_space_group_symop_operation_xyz
x,y,z
-y,x,z
-x,-y,z
y,-x,z
1/2+x,1/2+y,1/2+z
1/2-y,1/2+x,1/2+z
1/2-x,1/2-y,1/2+z
1/2+y,1/2-x,1/2+z
loop_
_atom_site_type_symbol
_atom_site_label
_atom_site_fract_x
_atom_site_fract_y
_atom_site_fract_z
Si Si1 0.213844 0.167246 0.881070
Si Si2 0.028896 0.367988 0.565858
Si Si3 0.397234 0.450258 0.991239
Si Si4 0.759959 0.598067 0.009823
Si Si5 0.402093 0.441955 0.430162
Si Si6 0.000000 0.500000 0.816183
Si Si7 0.804734 0.323936 0.192953
O O1 0.255378 0.135578 0.707133
O O2 0.165712 0.106004 0.971767
O O3 0.165743 0.228536 0.789334
O O4 0.264957 0.199160 0.034346
O O5 0.014385 0.423817 0.725731
O O6 0.017545 0.424093 0.405612
O O7 0.105809 0.334861 0.599111
O O8 0.973311 0.304603 0.542697
O O9 0.467804 0.407754 0.931786
O O10 0.320604 0.418932 0.946170
O O11 0.400913 0.447118 0.210722
O O12 0.797511 0.644082 0.854453
O O13 0.476018 0.405501 0.490260
#
# Coordination Sequence:
#
# PCOD9541921 Si02
#       7
#     8   8   8   8   8   4   8
#     4  11  24  41  63  94 133 168 209 269 321 399
#     4  11  23  42  66  94 125 173 219 277 330 393
#     4   8  16  32  59  92 124 163 208 253 309 383
#     4  11  23  41  67  93 126 171 215 265 331 391
#     4   8  16  34  60  89 118 159 209 256 311 378
#     4  10  22  44  66  90 128 164 228 282 320 386
#     4  12  25  43  62  98 132 170 218 265 333 390
#
# _framework density 19.915326
#
# number of rings (size 3 to 8) (size 9 to 14) (size 15 to 20)
#    0.000    1.846    3.077    1.846    8.615    0.000 
#    0.000    3.077    0.000    1.846    0.000    0.000 
#    0.000    0.000    0.000    0.000    0.000    0.000 
#
# Total GULP energy -144913.037224 kJ/mol
# GULP energy per Si atom -5573.578355 kJ/mol
# Density = 1.987000 g / cm^3
# Si number density = 19.915326 Si / 1000 Ang^3
#
#
#
# Elastic Constant Matrix: (Units=GPa)
#
#
# Indices 1 2 3 4 5 6 
#
# 1 68.4474 16.3607 11.8208 0.0000 0.0000 12.1949
# 2 16.3607 68.4474 11.8208 0.0000 0.0000 -12.1949
# 3 11.8208 11.8208 51.4979 0.0000 0.0000 0.0000
# 4 0.0000 0.0000 0.0000 6.3298 0.0000 0.0000
# 5 0.0000 0.0000 0.0000 0.0000 6.3298 0.0000
# 6 12.1949 -12.1949 0.0000 0.0000 0.0000 21.6681
#
#
#
# Elastic Compliance Matrix: (Units=1/GPa)
#
#
# Indices 1 2 3 4 5 6 
#
# 1 0.019333 -0.006736 -0.002892 0.000000 0.000000 -0.014672
# 2 -0.006736 0.019333 -0.002892 0.000000 0.000000 0.014672
# 3 -0.002892 -0.002892 0.020746 0.000000 0.000000 0.000000
# 4 0.000000 0.000000 0.000000 0.157983 0.000000 0.000000
# 5 0.000000 0.000000 0.000000 0.000000 0.157983 0.000000
# 6 -0.014672 0.014672 0.000000 0.000000 0.000000 0.062665
#
#
# Mechanical properties :
#
#
# Convention : Reuss Voigt Hill
#
# Bulk Modulus (GPa) = 29.09166 29.82195 29.45680
# Shear Modulus (GPa) = 10.53655 16.75824 13.64740
#
# Velocity S-wave (km/s) = 2.30264 2.90396 2.62061
# Velocity P-wave (km/s) = 4.65928 5.12356 4.89693
#
# Compressibility (1/GPa) = 0.03437411
#
# Stress axis : x y z
#
# Youngs Moduli (GPa) = 51.72477 51.72477 48.20269
#
# Poissons Ratio (x) = 0.34840 0.13938
# Poissons Ratio (y) = 0.34840 0.13938
# Poissons Ratio (z) = 0.14957 0.14957
#
# Static dielectric constant tensor:
#      x y z
#    x 1.688000 0.000000 0.000000 
#    y 0.000000 1.688000 0.000000 
#    z 0.000000 0.000000 1.746990 
# 
# From -- ./inp_files/682.got.cif
#   From: 2010.05.17/outbox.cif.g08.bks.cpg/sg79_cif.got.tgz:682.got - 2010.06.03 18:47:27.
