data_PCOD9541201
_publ_section_title
;
Structure prediction by ZEFSAII (Michael W. Deem and Ramdas Pophale) SiO2 
 PCOD9541201
Probable space group: P 41
;
_chemical_formula_sum "Si O2"
_cell_formula_units_Z 28
_cell_length_a 12.283105
_cell_length_b 12.283105
_cell_length_c 7.573070
_cell_angle_alpha 90.000000
_cell_angle_beta 90.000000
_cell_angle_gamma 90.000000
_cell_volume 1142.584425
_symmetry_space_group_name_H-M "P 41"
_symmetry_group_IT_number 76
_symmetry_cell_setting 'tetragonal'
loop_
_space_group_symop_operation_xyz
x,y,z
-y,x,1/4+z
-x,-y,1/2+z
y,-x,3/4+z
loop_
_atom_site_type_symbol
_atom_site_label
_atom_site_fract_x
_atom_site_fract_y
_atom_site_fract_z
Si Si1 0.973093 0.594128 0.390180
Si Si2 0.690769 0.062985 0.483359
Si Si3 0.955996 0.133878 0.999082
Si Si4 0.367866 0.470240 0.719994
Si Si5 0.380123 0.081947 0.288407
Si Si6 0.221576 0.267720 0.763812
Si Si7 0.293444 0.691992 0.896049
O O1 0.006277 0.619889 0.590091
O O2 0.902565 0.486518 0.416766
O O3 0.896265 0.689309 0.322273
O O4 0.060445 0.584847 0.238066
O O5 0.655884 0.190164 0.455127
O O6 0.808211 0.031634 0.400141
O O7 0.676741 0.017998 0.681375
O O8 0.852335 0.206467 0.934874
O O9 0.904174 0.029459 0.090341
O O10 0.401679 0.531435 0.544517
O O11 0.277787 0.376407 0.685035
O O12 0.346390 0.571056 0.862556
O O13 0.315749 0.192493 0.276364
O O14 0.283537 0.250245 0.949248
#
# Coordination Sequence:
#
# PCOD9541201 Si02
#       7
#     4   4   4   4   4   4   4
#     4  11  23  39  67 100 133 183 239 286 359 437
#     4  11  23  47  64 103 144 189 240 298 362 432
#     4  12  24  43  70  99 147 196 240 303 373 434
#     4  10  22  43  73  98 136 187 235 298 372 430
#     4  12  22  41  70 102 138 182 239 298 367 432
#     4  10  21  43  67  95 139 191 232 287 367 438
#     4  10  21  42  71  93 139 192 229 296 358 437
#
# _framework density 24.505849000000001
#
# number of rings (size 3 to 8) (size 9 to 14) (size 15 to 20)
#    0.000    1.143    7.143    0.000    0.000    2.286 
#    5.143    0.000    0.000    0.000    0.000    0.000 
#    0.000    0.000    0.000    0.000    0.000    0.000 
#
# Total GULP energy -155983.606491 kJ/mol
# GULP energy per Si atom -5570.843089 kJ/mol
# Density = 2.445007 g / cm^3
# Si number density = 24.505849 Si / 1000 Ang^3
#
#
#
# Elastic Constant Matrix: (Units=GPa)
#
#
# Indices 1 2 3 4 5 6 
#
# 1 97.2282 20.7401 15.5616 0.0000 0.0000 -11.5632
# 2 20.7401 97.2282 15.5616 0.0000 0.0000 11.5632
# 3 15.5616 15.5616 79.9944 0.0000 0.0000 0.0000
# 4 0.0000 0.0000 0.0000 27.7948 0.0000 0.0000
# 5 0.0000 0.0000 0.0000 0.0000 27.7948 0.0000
# 6 -11.5632 11.5632 0.0000 0.0000 0.0000 41.2263
#
#
#
# Elastic Compliance Matrix: (Units=1/GPa)
#
#
# Indices 1 2 3 4 5 6 
#
# 1 0.011610 -0.002675 -0.001738 0.000000 0.000000 0.004007
# 2 -0.002675 0.011610 -0.001738 0.000000 0.000000 -0.004007
# 3 -0.001738 -0.001738 0.013177 0.000000 0.000000 0.000000
# 4 0.000000 0.000000 0.000000 0.035978 0.000000 0.000000
# 5 0.000000 0.000000 0.000000 0.000000 0.035978 0.000000
# 6 0.004007 -0.004007 0.000000 0.000000 0.000000 0.026504
#
#
# Mechanical properties :
#
#
# Convention : Reuss Voigt Hill
#
# Bulk Modulus (GPa) = 41.50222 42.01969 41.76096
# Shear Modulus (GPa) = 32.21803 34.20234 33.21019
#
# Velocity S-wave (km/s) = 3.62982 3.73993 3.68529
# Velocity P-wave (km/s) = 5.87707 5.98611 5.93184
#
# Compressibility (1/GPa) = 0.02409510
#
# Stress axis : x y z
#
# Youngs Moduli (GPa) = 86.12946 86.12946 75.88882
#
# Poissons Ratio (x) = 0.23039 0.13191
# Poissons Ratio (y) = 0.23039 0.13191
# Poissons Ratio (z) = 0.14971 0.14971
#
# Static dielectric constant tensor:
#      x y z
#    x 2.038720 0.000000 0.000000 
#    y 0.000000 2.038720 0.000000 
#    z 0.000000 0.000000 1.933110 
# 
# From -- ./inp_files/631.got.cif
#   From: 2010.05.17/outbox.cif.g08.bks.cpg/sg76_cif.got.tgz:631.got - 2010.06.03 18:43:17.
