data_PCOD9541095
_publ_section_title
;
Structure prediction by ZEFSAII (Michael W. Deem and Ramdas Pophale) SiO2 
 PCOD9541095
Probable space group: P 41
;
_chemical_formula_sum "Si O2"
_cell_formula_units_Z 32
_cell_length_a 9.220762
_cell_length_b 9.220762
_cell_length_c 17.913040
_cell_angle_alpha 90.000000
_cell_angle_beta 90.000000
_cell_angle_gamma 90.000000
_cell_volume 1523.010581
_symmetry_space_group_name_H-M "P 41"
_symmetry_group_IT_number 76
_symmetry_cell_setting 'tetragonal'
loop_
_space_group_symop_operation_xyz
x,y,z
-y,x,1/4+z
-x,-y,1/2+z
y,-x,3/4+z
loop_
_atom_site_type_symbol
_atom_site_label
_atom_site_fract_x
_atom_site_fract_y
_atom_site_fract_z
Si Si1 0.952363 0.877130 0.219530
Si Si2 0.235862 0.544146 0.895751
Si Si3 0.593812 0.218878 0.754243
Si Si4 0.011546 0.288857 0.867304
Si Si5 0.495984 0.648420 0.807805
Si Si6 0.239169 0.067867 0.234651
Si Si7 0.295063 0.590528 0.371498
Si Si8 0.158622 0.683279 0.137407
O O1 0.813958 0.955407 0.184339
O O2 0.934211 0.818179 0.302682
O O3 0.006056 0.737320 0.171312
O O4 0.090018 0.985981 0.218999
O O5 0.347546 0.573222 0.830129
O O6 0.128641 0.410826 0.883722
O O7 0.323643 0.507363 0.970867
O O8 0.153370 0.693715 0.915539
O O9 0.452084 0.271231 0.708424
O O10 0.608206 0.279540 0.837795
O O11 0.724732 0.279890 0.701644
O O12 0.633087 0.049396 0.753413
O O13 0.866082 0.374223 0.843113
O O14 0.627918 0.544862 0.832304
O O15 0.525068 0.794803 0.856651
O O16 0.225740 0.164557 0.309409
#
# Coordination Sequence:
#
# PCOD9541095 Si02
#       8
#     4   4   4   4   4   4   4   4
#     4  11  22  40  65  99 132 183 225 279 337 422
#     4  11  25  45  66 104 138 183 224 303 346 418
#     4  10  19  33  62  91 122 171 231 277 326 404
#     4  12  25  41  70 101 145 175 233 288 358 406
#     4  10  23  41  69  95 138 176 234 282 355 402
#     4  10  19  38  64  89 131 177 227 267 343 418
#     4  11  20  39  66  95 128 184 229 282 336 420
#     4   9  17  35  62  92 116 171 233 270 315 412
#
# _framework density 21.011013999999999
#
# number of rings (size 3 to 8) (size 9 to 14) (size 15 to 20)
#    0.000    1.500    5.000    1.500    0.000    3.000 
#    0.000    0.000    5.500    0.000    0.000    0.000 
#    0.000    0.000    0.000    0.000    0.000    0.000 
#
# Total GULP energy -178318.654014 kJ/mol
# GULP energy per Si atom -5572.457938 kJ/mol
# Density = 2.096319 g / cm^3
# Si number density = 21.011014 Si / 1000 Ang^3
#
#
#
# Elastic Constant Matrix: (Units=GPa)
#
#
# Indices 1 2 3 4 5 6 
#
# 1 66.8860 37.8698 18.5760 0.0000 0.0000 5.5783
# 2 37.8698 66.8860 18.5760 0.0000 0.0000 -5.5783
# 3 18.5760 18.5760 29.2338 0.0000 0.0000 0.0000
# 4 0.0000 0.0000 0.0000 21.7117 0.0000 0.0000
# 5 0.0000 0.0000 0.0000 0.0000 21.7117 0.0000
# 6 5.5783 -5.5783 0.0000 0.0000 0.0000 27.9970
#
#
#
# Elastic Compliance Matrix: (Units=1/GPa)
#
#
# Indices 1 2 3 4 5 6 
#
# 1 0.024823 -0.012500 -0.007830 0.000000 0.000000 -0.007436
# 2 -0.012500 0.024823 -0.007830 0.000000 0.000000 0.007436
# 3 -0.007830 -0.007830 0.044158 0.000000 0.000000 0.000000
# 4 0.000000 0.000000 0.000000 0.046058 0.000000 0.000000
# 5 0.000000 0.000000 0.000000 0.000000 0.046058 0.000000
# 6 -0.007436 0.007436 0.000000 0.000000 0.000000 0.038681
#
#
# Mechanical properties :
#
#
# Convention : Reuss Voigt Hill
#
# Bulk Modulus (GPa) = 26.67894 34.78326 30.73110
# Shear Modulus (GPa) = 17.04056 20.14968 18.59512
#
# Velocity S-wave (km/s) = 2.85095 3.10014 2.97815
# Velocity P-wave (km/s) = 4.85411 5.42266 5.14624
#
# Compressibility (1/GPa) = 0.03748275
#
# Stress axis : x y z
#
# Youngs Moduli (GPa) = 40.28530 40.28530 22.64581
#
# Poissons Ratio (x) = 0.50356 0.17733
# Poissons Ratio (y) = 0.50356 0.17733
# Poissons Ratio (z) = 0.31545 0.31545
#
# Static dielectric constant tensor:
#      x y z
#    x 1.810690 0.000000 0.000000 
#    y 0.000000 1.810690 0.000000 
#    z 0.000000 0.000000 1.780080 
# 
# From -- ./inp_files/1442.got.cif
#   From: 2010.05.17/outbox.cif.g08.bks.cpg/sg76_cif.got.tgz:1442.got - 2010.06.03 18:43:17.
