data_PCOD9541396
_publ_section_title
;
Structure prediction by ZEFSAII (Michael W. Deem and Ramdas Pophale) SiO2 
 PCOD9541396
Probable space group: P 41
;
_chemical_formula_sum "Si O2"
_cell_formula_units_Z 28
_cell_length_a 8.178848
_cell_length_b 8.178848
_cell_length_c 16.443929
_cell_angle_alpha 90.000000
_cell_angle_beta 90.000000
_cell_angle_gamma 90.000000
_cell_volume 1099.992863
_symmetry_space_group_name_H-M "P 41"
_symmetry_group_IT_number 76
_symmetry_cell_setting 'tetragonal'
loop_
_space_group_symop_operation_xyz
x,y,z
-y,x,1/4+z
-x,-y,1/2+z
y,-x,3/4+z
loop_
_atom_site_type_symbol
_atom_site_label
_atom_site_fract_x
_atom_site_fract_y
_atom_site_fract_z
Si Si1 0.856689 0.221419 0.849330
Si Si2 0.257714 0.527641 0.062611
Si Si3 0.198227 0.072859 0.902573
Si Si4 0.613514 0.827376 0.558279
Si Si5 0.743330 0.969311 0.711381
Si Si6 0.584805 0.664160 0.991972
Si Si7 0.730868 0.313001 0.015439
O O1 0.811953 0.390610 0.804867
O O2 0.030462 0.174829 0.887074
O O3 0.817407 0.104808 0.772296
O O4 0.739938 0.225645 0.927966
O O5 0.279674 0.335779 0.076261
O O6 0.272932 0.606390 0.151273
O O7 0.106202 0.599781 0.015595
O O8 0.408543 0.586171 0.006948
O O9 0.280304 0.103634 0.815135
O O10 0.139001 0.902157 0.939418
O O11 0.330724 0.133286 0.967284
O O12 0.661760 0.970428 0.621383
O O13 0.426364 0.765276 0.561108
O O14 0.701500 0.507028 0.006758
#
# Coordination Sequence:
#
# PCOD9541396 Si02
#       7
#     4   4   4   4   4   4   4
#     4  12  27  46  72 104 153 196 240 300 371 434
#     4  11  24  47  75 108 143 187 245 310 364 433
#     4  12  28  46  72 102 150 192 238 294 358 436
#     4  11  25  48  78 107 141 192 248 306 363 437
#     4  12  27  46  72 104 153 196 240 300 371 434
#     4  11  24  47  75 108 143 187 245 310 364 433
#     4  11  25  48  78 107 141 192 248 306 363 437
#
# _framework density 25.454711
#
# number of rings (size 3 to 8) (size 9 to 14) (size 15 to 20)
#    0.000    0.571    2.857    4.286   10.000    5.714 
#    0.000    1.429    0.000    0.000    0.000    0.000 
#    0.000    0.000    0.000    0.000    0.000    0.000 
#
# Total GULP energy -156493.210802 kJ/mol
# GULP energy per Si atom -5589.043243 kJ/mol
# Density = 2.539678 g / cm^3
# Si number density = 25.454711 Si / 1000 Ang^3
#
#
#
# Elastic Constant Matrix: (Units=GPa)
#
#
# Indices 1 2 3 4 5 6 
#
# 1 61.6239 39.0845 26.6912 0.0000 0.0000 -3.1669
# 2 39.0845 61.6239 26.6912 0.0000 0.0000 3.1669
# 3 26.6912 26.6912 166.5143 0.0000 0.0000 0.0000
# 4 0.0000 0.0000 0.0000 2.5214 0.0000 0.0000
# 5 0.0000 0.0000 0.0000 0.0000 2.5214 0.0000
# 6 -3.1669 3.1669 0.0000 0.0000 0.0000 26.2919
#
#
#
# Elastic Compliance Matrix: (Units=1/GPa)
#
#
# Indices 1 2 3 4 5 6 
#
# 1 0.028386 -0.017535 -0.001739 0.000000 0.000000 0.005531
# 2 -0.017535 0.028386 -0.001739 0.000000 0.000000 -0.005531
# 3 -0.001739 -0.001739 0.006563 0.000000 0.000000 0.000000
# 4 0.000000 0.000000 0.000000 0.396608 0.000000 0.000000
# 5 0.000000 0.000000 0.000000 0.000000 0.396608 0.000000
# 6 0.005531 -0.005531 0.000000 0.000000 0.000000 0.039367
#
#
# Mechanical properties :
#
#
# Convention : Reuss Voigt Hill
#
# Bulk Modulus (GPa) = 46.92921 52.74400 49.83661
# Shear Modulus (GPa) = 5.29073 19.41994 12.35534
#
# Velocity S-wave (km/s) = 1.44326 2.76510 2.20554
# Velocity P-wave (km/s) = 4.61018 5.56418 5.10949
#
# Compressibility (1/GPa) = 0.02130869
#
# Stress axis : x y z
#
# Youngs Moduli (GPa) = 35.22805 35.22805 152.36606
#
# Poissons Ratio (x) = 0.61772 0.26503
# Poissons Ratio (y) = 0.61772 0.26503
# Poissons Ratio (z) = 0.06128 0.06128
#
# Static dielectric constant tensor:
#      x y z
#    x 2.056330 0.000000 0.000000 
#    y 0.000000 2.056330 0.000000 
#    z 0.000000 0.000000 1.940700 
# 
# From -- ./inp_files/1286.got.cif
#   From: 2010.05.17/outbox.cif.g08.bks.cpg/sg76_cif.got.tgz:1286.got - 2010.06.03 18:43:17.
