data_PCOD9541546
_publ_section_title
;
Structure prediction by ZEFSAII (Michael W. Deem and Ramdas Pophale) SiO2 
 PCOD9541546
Probable space group: P 42
;
_chemical_formula_sum "Si O2"
_cell_formula_units_Z 24
_cell_length_a 9.408839
_cell_length_b 9.408839
_cell_length_c 13.095914
_cell_angle_alpha 90.000000
_cell_angle_beta 90.000000
_cell_angle_gamma 90.000000
_cell_volume 1159.332174
_symmetry_space_group_name_H-M "P 42"
_symmetry_group_IT_number 77
_symmetry_cell_setting 'tetragonal'
loop_
_space_group_symop_operation_xyz
x,y,z
-y,x,1/2+z
-x,-y,z
y,-x,1/2+z
loop_
_atom_site_type_symbol
_atom_site_label
_atom_site_fract_x
_atom_site_fract_y
_atom_site_fract_z
Si Si1 0.163931 0.997746 0.301060
Si Si2 0.719758 0.186036 0.697292
Si Si3 0.635952 0.589685 0.011499
Si Si4 0.294125 0.144201 0.687857
Si Si5 0.618926 0.881413 0.468190
Si Si6 0.496992 0.668605 0.814910
O O1 0.176265 0.111608 0.209569
O O2 0.280448 0.045956 0.383723
O O3 0.185088 0.844128 0.252142
O O4 0.000000 0.000000 0.340575
O O5 0.669459 0.273868 0.598204
O O6 0.657984 0.267055 0.796145
O O7 0.671435 0.022481 0.702856
O O8 0.500000 0.500000 0.052021
O O9 0.741477 0.479303 0.953922
O O10 0.568666 0.691493 0.925082
O O11 0.285038 0.157132 0.566156
O O12 0.415087 0.247169 0.729498
O O13 0.500000 0.000000 0.495111
O O14 0.500000 0.500000 0.798463
#
# Coordination Sequence:
#
# PCOD9541546 Si02
#       6
#     4   4   4   4   4   4
#     4  10  25  42  65  99 137 171 223 282 327 393
#     4  11  22  44  64  97 133 175 218 271 336 398
#     4  11  23  39  70  99 130 176 222 274 333 397
#     4  11  23  42  67  95 129 179 219 272 332 399
#     4  12  22  43  68  96 131 183 224 267 340 402
#     4  11  22  40  68  96 129 169 224 275 325 394
#
# _framework density 20.701571999999999
#
# number of rings (size 3 to 8) (size 9 to 14) (size 15 to 20)
#    0.000    1.000    3.333    4.000    0.000    2.000 
#    3.000    0.000    0.000    0.000    0.000    0.000 
#    0.000    0.000    0.000    0.000    0.000    0.000 
#
# Total GULP energy -133923.384852 kJ/mol
# GULP energy per Si atom -5580.141035 kJ/mol
# Density = 2.065445 g / cm^3
# Si number density = 20.701572 Si / 1000 Ang^3
#
#
#
# Elastic Constant Matrix: (Units=GPa)
#
#
# Indices 1 2 3 4 5 6 
#
# 1 88.4079 24.1424 23.6666 0.0000 0.0000 -6.4050
# 2 24.1424 88.4079 23.6666 0.0000 0.0000 6.4050
# 3 23.6666 23.6666 104.1503 0.0000 0.0000 0.0000
# 4 0.0000 0.0000 0.0000 28.4994 0.0000 0.0000
# 5 0.0000 0.0000 0.0000 0.0000 28.4994 0.0000
# 6 -6.4050 6.4050 0.0000 0.0000 0.0000 30.9576
#
#
#
# Elastic Compliance Matrix: (Units=1/GPa)
#
#
# Indices 1 2 3 4 5 6 
#
# 1 0.013027 -0.003203 -0.002232 0.000000 0.000000 0.003358
# 2 -0.003203 0.013027 -0.002232 0.000000 0.000000 -0.003358
# 3 -0.002232 -0.002232 0.010616 0.000000 0.000000 0.000000
# 4 0.000000 0.000000 0.000000 0.035088 0.000000 0.000000
# 5 0.000000 0.000000 0.000000 0.000000 0.035088 0.000000
# 6 0.003358 -0.003358 0.000000 0.000000 0.000000 0.033692
#
#
# Mechanical properties :
#
#
# Convention : Reuss Voigt Hill
#
# Bulk Modulus (GPa) = 46.87293 47.10192 46.98742
# Shear Modulus (GPa) = 30.67771 31.55731 31.11751
#
# Velocity S-wave (km/s) = 3.85373 3.90858 3.88125
# Velocity P-wave (km/s) = 6.51866 6.57051 6.54464
#
# Compressibility (1/GPa) = 0.02133428
#
# Stress axis : x y z
#
# Youngs Moduli (GPa) = 76.76523 76.76523 94.19731
#
# Poissons Ratio (x) = 0.24588 0.21028
# Poissons Ratio (y) = 0.24588 0.21028
# Poissons Ratio (z) = 0.17136 0.17136
#
# Static dielectric constant tensor:
#      x y z
#    x 1.746930 0.000000 0.000000 
#    y 0.000000 1.746930 0.000000 
#    z 0.000000 0.000000 1.781360 
# 
# From -- ./inp_files/1111.got.cif
#   From: 2010.05.17/outbox.cif.g08.bks.cpg/sg77_cif.got.tgz:1111.got - 2010.06.03 18:44:51.
