data_PCOD9541142
_publ_section_title
;
Structure prediction by ZEFSAII (Michael W. Deem and Ramdas Pophale) SiO2 
 PCOD9541142
Probable space group: P 41
;
_chemical_formula_sum "Si O2"
_cell_formula_units_Z 32
_cell_length_a 8.695473
_cell_length_b 8.695473
_cell_length_c 18.859170
_cell_angle_alpha 90.000000
_cell_angle_beta 90.000000
_cell_angle_gamma 90.000000
_cell_volume 1425.965431
_symmetry_space_group_name_H-M "P 41"
_symmetry_group_IT_number 76
_symmetry_cell_setting 'tetragonal'
loop_
_space_group_symop_operation_xyz
x,y,z
-y,x,1/4+z
-x,-y,1/2+z
y,-x,3/4+z
loop_
_atom_site_type_symbol
_atom_site_label
_atom_site_fract_x
_atom_site_fract_y
_atom_site_fract_z
Si Si1 0.231180 0.195818 0.971830
Si Si2 0.168511 0.009494 0.609269
Si Si3 0.439917 0.907738 0.985448
Si Si4 0.562568 0.696463 0.243503
Si Si5 0.252972 0.924954 0.462688
Si Si6 0.438322 0.574031 0.638912
Si Si7 0.056604 0.468916 0.388232
Si Si8 0.242322 0.729972 0.871038
O O1 0.120465 0.117678 0.914663
O O2 0.302716 0.345448 0.935387
O O3 0.366631 0.077441 0.988052
O O4 0.166740 0.230830 0.050121
O O5 0.143239 0.978684 0.527154
O O6 0.097175 0.165485 0.639015
O O7 0.354855 0.006529 0.620361
O O8 0.336202 0.809941 0.933248
O O9 0.612048 0.948606 0.960091
O O10 0.432388 0.847664 0.066337
O O11 0.749712 0.700833 0.235779
O O12 0.511258 0.558473 0.192259
O O13 0.518766 0.670361 0.324886
O O14 0.487385 0.846927 0.209447
O O15 0.581227 0.655173 0.601393
O O16 0.920918 0.343993 0.393895
#
# Coordination Sequence:
#
# PCOD9541142 Si02
#       8
#     4   4   4   4   4   4   4   4
#     4  11  21  39  64  93 125 173 226 265 317 405
#     4  10  20  37  70  92 131 168 226 266 323 395
#     4  10  22  40  65  94 135 165 217 279 336 392
#     4  11  22  38  68  93 131 167 228 268 329 394
#     4  10  20  40  64 100 125 176 216 278 325 395
#     4  12  21  39  64  97 123 171 222 274 319 395
#     4   9  21  41  63  94 129 172 216 275 326 392
#     4  11  23  40  64  95 135 170 217 277 337 390
#
# _framework density 22.440935
#
# number of rings (size 3 to 8) (size 9 to 14) (size 15 to 20)
#    0.000    1.500    5.000    0.750    3.500    0.000 
#    0.000    1.250    2.750    0.000    0.000    0.000 
#    0.000    0.000    0.000    0.000    0.000    0.000 
#
# Total GULP energy -178676.941418 kJ/mol
# GULP energy per Si atom -5583.654419 kJ/mol
# Density = 2.238986 g / cm^3
# Si number density = 22.440935 Si / 1000 Ang^3
#
#
#
# Elastic Constant Matrix: (Units=GPa)
#
#
# Indices 1 2 3 4 5 6 
#
# 1 49.4814 15.5845 34.9678 0.0000 0.0000 3.4582
# 2 15.5845 49.4814 34.9678 0.0000 0.0000 -3.4582
# 3 34.9678 34.9678 127.0905 0.0000 0.0000 0.0000
# 4 0.0000 0.0000 0.0000 33.5106 0.0000 0.0000
# 5 0.0000 0.0000 0.0000 0.0000 33.5106 0.0000
# 6 3.4582 -3.4582 0.0000 0.0000 0.0000 23.8192
#
#
#
# Elastic Compliance Matrix: (Units=1/GPa)
#
#
# Indices 1 2 3 4 5 6 
#
# 1 0.026112 -0.004290 -0.006004 0.000000 0.000000 -0.004414
# 2 -0.004290 0.026112 -0.006004 0.000000 0.000000 0.004414
# 3 -0.006004 -0.006004 0.011172 0.000000 0.000000 0.000000
# 4 0.000000 0.000000 0.000000 0.029841 0.000000 0.000000
# 5 0.000000 0.000000 0.000000 0.000000 0.029841 0.000000
# 6 -0.004414 0.004414 0.000000 0.000000 0.000000 0.043265
#
#
# Mechanical properties :
#
#
# Convention : Reuss Voigt Hill
#
# Bulk Modulus (GPa) = 32.46687 44.12152 38.29419
# Shear Modulus (GPa) = 23.89970 27.53697 25.71834
#
# Velocity S-wave (km/s) = 3.26698 3.50678 3.38900
# Velocity P-wave (km/s) = 5.36004 6.00837 5.69344
#
# Compressibility (1/GPa) = 0.03080063
#
# Stress axis : x y z
#
# Youngs Moduli (GPa) = 38.29611 38.29611 89.50559
#
# Poissons Ratio (x) = 0.16427 0.53742
# Poissons Ratio (y) = 0.16427 0.53742
# Poissons Ratio (z) = 0.22994 0.22994
#
# Static dielectric constant tensor:
#      x y z
#    x 1.855880 0.000000 0.000000 
#    y 0.000000 1.855880 0.000000 
#    z 0.000000 0.000000 1.852320 
# 
# From -- ./inp_files/1485.got.cif
#   From: 2010.05.17/outbox.cif.g08.bks.cpg/sg76_cif.got.tgz:1485.got - 2010.06.03 18:43:17.
