data_PCOD9541015
_publ_section_title
;
Structure prediction by ZEFSAII (Michael W. Deem and Ramdas Pophale) SiO2 
 PCOD9541015
Probable space group: P 4
;
_chemical_formula_sum "Si O2"
_cell_formula_units_Z 24
_cell_length_a 13.637198
_cell_length_b 13.637198
_cell_length_c 5.399490
_cell_angle_alpha 90.000000
_cell_angle_beta 90.000000
_cell_angle_gamma 90.000000
_cell_volume 1004.160268
_symmetry_space_group_name_H-M "P 4"
_symmetry_group_IT_number 75
_symmetry_cell_setting 'tetragonal'
loop_
_space_group_symop_operation_xyz
x,y,z
-y,x,z
-x,-y,z
y,-x,z
loop_
_atom_site_type_symbol
_atom_site_label
_atom_site_fract_x
_atom_site_fract_y
_atom_site_fract_z
Si Si1 0.908688 0.601172 0.415180
Si Si2 0.342691 0.458666 0.915191
Si Si3 0.290844 0.374296 0.415194
Si Si4 0.943813 0.706265 0.915181
Si Si5 0.618112 0.816406 0.415186
Si Si6 0.154667 0.749251 0.915186
O O1 0.814004 0.674357 0.415180
O O2 0.954016 0.635079 0.674654
O O3 0.123076 0.514857 0.415185
O O4 0.954014 0.635076 0.155701
O O5 0.434484 0.385952 0.915183
O O6 0.287067 0.434702 0.667429
O O7 0.287074 0.434707 0.162967
O O8 0.382657 0.303268 0.415192
O O9 0.842272 0.770306 0.915182
O O10 0.039345 0.776280 0.915188
O O11 0.680950 0.831722 0.669034
O O12 0.680948 0.831720 0.161334
#
# Coordination Sequence:
#
# PCOD9541015 Si02
#       6
#     4   4   4   4   4   4
#     4  12  25  44  72 104 144 189 234 288 354 419
#     4  11  22  34  52  84 124 174 235 282 320 382
#     4  12  22  41  60  90 137 184 230 276 334 400
#     4  12  26  49  75 106 143 182 235 296 359 426
#     4  12  25  44  72 104 144 189 234 288 354 419
#     4  12  26  49  75 106 143 182 235 296 359 426
#
# _framework density 23.900565
#
# number of rings (size 3 to 8) (size 9 to 14) (size 15 to 20)
#    0.000    0.167    3.333    7.000    0.000    5.667 
#    0.000    0.000    0.000    4.000    0.000    0.000 
#    0.000    0.000    0.000    0.000    0.000    0.000 
#
# Total GULP energy -133839.624262 kJ/mol
# GULP energy per Si atom -5576.651011 kJ/mol
# Density = 2.384617 g / cm^3
# Si number density = 23.900565 Si / 1000 Ang^3
#
#
#
# Elastic Constant Matrix: (Units=GPa)
#
#
# Indices 1 2 3 4 5 6 
#
# 1 113.2240 17.8052 55.9950 0.0000 0.0000 0.6044
# 2 17.8052 113.2240 55.9950 0.0000 0.0000 -0.6044
# 3 55.9950 55.9950 242.8953 0.0000 0.0000 0.0000
# 4 0.0000 0.0000 0.0000-1952.6152 0.0000 0.0000
# 5 0.0000 0.0000 0.0000 0.0000-1952.6152 0.0000
# 6 0.6044 -0.6044 0.0000 0.0000 0.0000 33.2938
#
#
#
# Elastic Compliance Matrix: (Units=1/GPa)
#
#
# Indices 1 2 3 4 5 6 
#
# 1 0.009994 -0.000489 -0.002191 0.000000 0.000000 -0.000190
# 2 -0.000489 0.009994 -0.002191 0.000000 0.000000 0.000190
# 3 -0.002191 -0.002191 0.005127 0.000000 0.000000 0.000000
# 4 0.000000 0.000000 0.000000 -0.000512 0.000000 0.000000
# 5 0.000000 0.000000 0.000000 0.000000 -0.000512 0.000000
# 6 -0.000190 0.000190 0.000000 0.000000 0.000000 0.030043
#
#
# Mechanical properties :
#
#
# Convention : Reuss Voigt Hill
#
# Bulk Modulus (GPa) = 65.05326 80.99266 73.02296
# Shear Modulus (GPa) = 72.46479 -751.75077 -339.64299
#
# Velocity S-wave (km/s) = 5.51227 -17.75431 -11.93378
# Velocity P-wave (km/s) = 8.23352 19.65519 12.62013
#
# Compressibility (1/GPa) = 0.01537202
#
# Stress axis : x y z
#
# Youngs Moduli (GPa) = 100.06433 100.06433 195.03668
#
# Poissons Ratio (x) = 0.04893 0.42735
# Poissons Ratio (y) = 0.04893 0.42735
# Poissons Ratio (z) = 0.21925 0.21925
#
# Static dielectric constant tensor:
#      x y z
#    x 1.941640 0.000000 0.000000 
#    y 0.000000 1.941640 0.000000 
#    z 0.000000 0.000000 2.013010 
# 
# From -- ./inp_files/160.got.cif
#   From: 2010.05.17/outbox.cif.g08.bks.cpg/sg75_cif.got.tgz:160.got - 2010.06.03 18:42:43.
