data_PCOD9541675
_publ_section_title
;
Structure prediction by ZEFSAII (Michael W. Deem and Ramdas Pophale) SiO2 
 PCOD9541675
Probable space group: P 43
;
_chemical_formula_sum "Si O2"
_cell_formula_units_Z 28
_cell_length_a 7.909445
_cell_length_b 7.909445
_cell_length_c 16.947487
_cell_angle_alpha 90.000000
_cell_angle_beta 90.000000
_cell_angle_gamma 90.000000
_cell_volume 1060.223266
_symmetry_space_group_name_H-M "P 43"
_symmetry_group_IT_number 78
_symmetry_cell_setting 'tetragonal'
loop_
_space_group_symop_operation_xyz
x,y,z
-y,x,3/4+z
-x,-y,1/2+z
y,-x,1/4+z
loop_
_atom_site_type_symbol
_atom_site_label
_atom_site_fract_x
_atom_site_fract_y
_atom_site_fract_z
Si Si1 0.181412 0.891892 0.766080
Si Si2 0.346955 0.016289 0.212886
Si Si3 0.120010 0.888063 0.331082
Si Si4 0.445502 0.378789 0.246687
Si Si5 0.639380 0.895490 0.137077
Si Si6 0.907321 0.470943 0.745410
Si Si7 0.427829 0.229833 0.417931
O O1 0.231166 0.763069 0.839216
O O2 0.167535 0.759331 0.694340
O O3 0.277858 0.041988 0.719306
O O4 0.023332 0.982066 0.805908
O O5 0.296540 0.966018 0.301109
O O6 0.446388 0.868037 0.167383
O O7 0.177650 0.073505 0.167603
O O8 0.456399 0.188562 0.211083
O O9 0.110814 0.714902 0.280957
O O10 0.274336 0.465001 0.216236
O O11 0.419517 0.333982 0.337706
O O12 0.617735 0.476982 0.228516
O O13 0.596551 0.029513 0.066082
O O14 0.059776 0.468421 0.683390
#
# Coordination Sequence:
#
# PCOD9541675 Si02
#       7
#     4   4   4   4   4   4   4
#     4  11  21  43  70 102 141 187 246 305 373 444
#     4  11  24  44  71 105 143 193 242 305 384 454
#     4  11  25  43  69 107 148 190 244 314 378 447
#     4  12  24  49  76 101 153 191 256 306 383 458
#     4  10  21  43  72 100 140 189 245 303 370 459
#     4  10  24  46  67 105 152 185 254 309 371 459
#     4  11  25  46  77 108 139 207 247 312 383 461
#
# _framework density 26.409531999999999
#
# number of rings (size 3 to 8) (size 9 to 14) (size 15 to 20)
#    0.000    1.143    2.857    3.429    4.000    3.429 
#   10.286    0.000    0.000    0.000    0.000    0.000 
#    0.000    0.000    0.000    0.000    0.000    0.000 
#
# Total GULP energy -156257.736351 kJ/mol
# GULP energy per Si atom -5580.633441 kJ/mol
# Density = 2.634942 g / cm^3
# Si number density = 26.409532 Si / 1000 Ang^3
#
#
#
# Elastic Constant Matrix: (Units=GPa)
#
#
# Indices 1 2 3 4 5 6 
#
# 1 86.1038 11.5535 27.4216 0.0000 0.0000 -2.1101
# 2 11.5535 86.1038 27.4216 0.0000 0.0000 2.1101
# 3 27.4216 27.4216 127.6359 0.0000 0.0000 0.0000
# 4 0.0000 0.0000 0.0000 33.2301 0.0000 0.0000
# 5 0.0000 0.0000 0.0000 0.0000 33.2301 0.0000
# 6 -2.1101 2.1101 0.0000 0.0000 0.0000 31.0044
#
#
#
# Elastic Compliance Matrix: (Units=1/GPa)
#
#
# Indices 1 2 3 4 5 6 
#
# 1 0.012555 -0.000910 -0.002502 0.000000 0.000000 0.000916
# 2 -0.000910 0.012555 -0.002502 0.000000 0.000000 -0.000916
# 3 -0.002502 -0.002502 0.008910 0.000000 0.000000 0.000000
# 4 0.000000 0.000000 0.000000 0.030093 0.000000 0.000000
# 5 0.000000 0.000000 0.000000 0.000000 0.030093 0.000000
# 6 0.000916 -0.000916 0.000000 0.000000 0.000000 0.032378
#
#
# Mechanical properties :
#
#
# Convention : Reuss Voigt Hill
#
# Bulk Modulus (GPa) = 45.06073 48.07078 46.56575
# Shear Modulus (GPa) = 34.29111 35.05603 34.67357
#
# Velocity S-wave (km/s) = 3.60729 3.64730 3.62735
# Velocity P-wave (km/s) = 5.86936 5.99822 5.93414
#
# Compressibility (1/GPa) = 0.02219227
#
# Stress axis : x y z
#
# Youngs Moduli (GPa) = 79.64788 79.64788 112.23625
#
# Poissons Ratio (x) = 0.07251 0.28079
# Poissons Ratio (y) = 0.07251 0.28079
# Poissons Ratio (z) = 0.19926 0.19926
#
# Static dielectric constant tensor:
#      x y z
#    x 2.128920 0.000000 0.000000 
#    y 0.000000 2.128920 0.000000 
#    z 0.000000 0.000000 2.137640 
# 
# From -- ./inp_files/1290.got.cif
#   From: 2010.05.17/outbox.cif.g08.bks.cpg/sg78_cif.got.tgz:1290.got - 2010.06.03 18:45:56.
