data_PCOD9541228
_publ_section_title
;
Structure prediction by ZEFSAII (Michael W. Deem and Ramdas Pophale) SiO2 
 PCOD9541228
Probable space group: P 41
;
_chemical_formula_sum "Si O2"
_cell_formula_units_Z 28
_cell_length_a 12.299412
_cell_length_b 12.299412
_cell_length_c 9.398787
_cell_angle_alpha 90.000000
_cell_angle_beta 90.000000
_cell_angle_gamma 90.000000
_cell_volume 1421.806537
_symmetry_space_group_name_H-M "P 41"
_symmetry_group_IT_number 76
_symmetry_cell_setting 'tetragonal'
loop_
_space_group_symop_operation_xyz
x,y,z
-y,x,1/4+z
-x,-y,1/2+z
y,-x,3/4+z
loop_
_atom_site_type_symbol
_atom_site_label
_atom_site_fract_x
_atom_site_fract_y
_atom_site_fract_z
Si Si1 0.016227 0.343290 0.054170
Si Si2 0.714718 0.037384 0.620831
Si Si3 0.922333 0.176976 0.612938
Si Si4 0.392345 0.550647 0.540479
Si Si5 0.152774 0.468370 0.542662
Si Si6 0.172472 0.128642 0.671221
Si Si7 0.202413 0.357267 0.831697
O O1 0.015955 0.345095 0.224182
O O2 0.934186 0.438621 0.008176
O O3 0.129543 0.358939 0.972553
O O4 0.968919 0.226177 0.007498
O O5 0.831347 0.088326 0.579084
O O6 0.641322 0.120640 0.710740
O O7 0.741314 0.940445 0.731661
O O8 0.881782 0.225235 0.763642
O O9 0.042452 0.127506 0.644739
O O10 0.440243 0.467170 0.653297
O O11 0.271677 0.510447 0.502898
O O12 0.383520 0.671628 0.606097
O O13 0.156536 0.438725 0.710651
O O14 0.196573 0.238732 0.756637
#
# Coordination Sequence:
#
# PCOD9541228 Si02
#       7
#     4   4   4   4   4   4   4
#     4  12  25  39  66 101 132 168 223 272 335 387
#     4  11  25  39  62 100 135 173 217 276 329 399
#     4  10  22  40  61  90 135 175 216 256 327 406
#     4  10  24  44  71  93 127 172 226 276 330 395
#     4  11  22  45  68  93 129 178 222 270 338 398
#     4  11  20  39  62  88 128 176 208 254 322 399
#     4  11  22  44  66  93 132 176 216 268 333 400
#
# _framework density 19.693255000000001
#
# number of rings (size 3 to 8) (size 9 to 14) (size 15 to 20)
#    0.000    1.143    5.714    0.857    2.000    5.714 
#    0.000    2.857    0.000    0.000    0.000    0.000 
#    0.000    0.000    0.000    0.000    0.000    0.000 
#
# Total GULP energy -156293.836403 kJ/mol
# GULP energy per Si atom -5581.922729 kJ/mol
# Density = 1.964843 g / cm^3
# Si number density = 19.693255 Si / 1000 Ang^3
#
#
#
# Elastic Constant Matrix: (Units=GPa)
#
#
# Indices 1 2 3 4 5 6 
#
# 1 43.7618 12.5634 22.5017 0.0000 0.0000 5.4267
# 2 12.5634 43.7618 22.5017 0.0000 0.0000 -5.4267
# 3 22.5017 22.5017 102.9381 0.0000 0.0000 0.0000
# 4 0.0000 0.0000 0.0000 25.7717 0.0000 0.0000
# 5 0.0000 0.0000 0.0000 0.0000 25.7717 0.0000
# 6 5.4267 -5.4267 0.0000 0.0000 0.0000 20.7266
#
#
#
# Elastic Compliance Matrix: (Units=1/GPa)
#
#
# Indices 1 2 3 4 5 6 
#
# 1 0.028388 -0.006877 -0.004702 0.000000 0.000000 -0.009233
# 2 -0.006877 0.028388 -0.004702 0.000000 0.000000 0.009233
# 3 -0.004702 -0.004702 0.011770 0.000000 0.000000 0.000000
# 4 0.000000 0.000000 0.000000 0.038802 0.000000 0.000000
# 5 0.000000 0.000000 0.000000 0.000000 0.038802 0.000000
# 6 -0.009233 0.009233 0.000000 0.000000 0.000000 0.053082
#
#
# Mechanical properties :
#
#
# Convention : Reuss Voigt Hill
#
# Bulk Modulus (GPa) = 27.79041 33.95504 30.87273
# Shear Modulus (GPa) = 20.50943 23.31364 21.91154
#
# Velocity S-wave (km/s) = 3.23064 3.44443 3.33925
# Velocity P-wave (km/s) = 5.29701 5.75310 5.52976
#
# Compressibility (1/GPa) = 0.03598363
#
# Stress axis : x y z
#
# Youngs Moduli (GPa) = 35.22614 35.22614 84.95939
#
# Poissons Ratio (x) = 0.24225 0.39950
# Poissons Ratio (y) = 0.24225 0.39950
# Poissons Ratio (z) = 0.16564 0.16564
#
# Static dielectric constant tensor:
#      x y z
#    x 1.685080 0.000000 0.000000 
#    y 0.000000 1.685080 0.000000 
#    z 0.000000 0.000000 1.714290 
# 
# From -- ./inp_files/633.got.cif
#   From: 2010.05.17/outbox.cif.g08.bks.cpg/sg76_cif.got.tgz:633.got - 2010.06.03 18:43:17.
