data_PCOD9541706
_publ_section_title
;
Structure prediction by ZEFSAII (Michael W. Deem and Ramdas Pophale) SiO2 
 PCOD9541706
Probable space group: P 43
;
_chemical_formula_sum "Si O2"
_cell_formula_units_Z 32
_cell_length_a 11.472754
_cell_length_b 11.472754
_cell_length_c 11.839893
_cell_angle_alpha 90.000000
_cell_angle_beta 90.000000
_cell_angle_gamma 90.000000
_cell_volume 1558.415075
_symmetry_space_group_name_H-M "P 43"
_symmetry_group_IT_number 78
_symmetry_cell_setting 'tetragonal'
loop_
_space_group_symop_operation_xyz
x,y,z
-y,x,3/4+z
-x,-y,1/2+z
y,-x,1/4+z
loop_
_atom_site_type_symbol
_atom_site_label
_atom_site_fract_x
_atom_site_fract_y
_atom_site_fract_z
Si Si1 0.591188 0.259545 0.747960
Si Si2 0.065102 0.946803 0.291917
Si Si3 0.909287 0.297157 0.069910
Si Si4 0.925813 0.539448 0.665968
Si Si5 0.329493 0.475954 0.528827
Si Si6 0.362229 0.416423 0.763019
Si Si7 0.684690 0.858851 0.558115
Si Si8 0.747087 0.657363 0.828866
O O1 0.554162 0.133753 0.793090
O O2 0.477483 0.337395 0.779442
O O3 0.601116 0.274665 0.614585
O O4 0.717923 0.302037 0.792164
O O5 0.080582 0.807995 0.280023
O O6 0.997025 0.969855 0.414500
O O7 0.194486 0.996866 0.315526
O O8 0.790037 0.242260 0.116414
O O9 0.948445 0.404409 0.147922
O O10 0.885800 0.334466 0.940518
O O11 0.908084 0.415739 0.725753
O O12 0.844270 0.625092 0.739629
O O13 0.294343 0.414484 0.645514
O O14 0.455325 0.417969 0.510310
O O15 0.348711 0.614074 0.533250
O O16 0.247666 0.434889 0.428963
#
# Coordination Sequence:
#
# PCOD9541706 Si02
#       8
#     4   4   4   4   4   4   4   4
#     4  11  18  33  60  90 121 158 210 247 302 384
#     4  10  22  46  74  94 123 172 233 281 324 386
#     4  11  23  42  61  93 125 169 218 267 323 384
#     4  12  23  38  65  94 122 165 210 260 317 387
#     4   9  20  35  56  91 128 164 198 252 322 381
#     4   9  19  32  57  93 128 165 203 243 304 399
#     4  11  22  41  66  97 125 167 216 269 326 381
#     4  11  21  37  63  88 126 164 208 259 314 388
#
# _framework density 20.533684000000001
#
# number of rings (size 3 to 8) (size 9 to 14) (size 15 to 20)
#    0.000    1.500    3.750    2.250    3.500    0.000 
#    6.750    5.000    0.000    0.000    0.000    0.000 
#    0.000    0.000    0.000    0.000    0.000    0.000 
#
# Total GULP energy -178372.853418 kJ/mol
# GULP energy per Si atom -5574.151669 kJ/mol
# Density = 2.048695 g / cm^3
# Si number density = 20.533684 Si / 1000 Ang^3
#
#
#
# Elastic Constant Matrix: (Units=GPa)
#
#
# Indices 1 2 3 4 5 6 
#
# 1 58.3958 41.6221 31.8589 0.0000 0.0000 -16.9765
# 2 41.6221 58.3958 31.8589 0.0000 0.0000 16.9765
# 3 31.8589 31.8589 92.4204 0.0000 0.0000 0.0000
# 4 0.0000 0.0000 0.0000 24.1111 0.0000 0.0000
# 5 0.0000 0.0000 0.0000 0.0000 24.1111 0.0000
# 6 -16.9765 16.9765 0.0000 0.0000 0.0000 -2.6961
#
#
#
# Elastic Compliance Matrix: (Units=1/GPa)
#
#
# Indices 1 2 3 4 5 6 
#
# 1 0.008574 0.004237 -0.004416 0.000000 0.000000 -0.027310
# 2 0.004237 0.008574 -0.004416 0.000000 0.000000 0.027310
# 3 -0.004416 -0.004416 0.013865 0.000000 0.000000 0.000000
# 4 0.000000 0.000000 0.000000 0.041475 0.000000 0.000000
# 5 0.000000 0.000000 0.000000 0.000000 0.041475 0.000000
# 6 -0.027310 0.027310 0.000000 0.000000 0.000000 -0.026984
#
#
# Mechanical properties :
#
#
# Convention : Reuss Voigt Hill
#
# Bulk Modulus (GPa) = 45.82376 46.65466 46.23921
# Shear Modulus (GPa) = 48.33491 16.03004 32.18247
#
# Velocity S-wave (km/s) = 4.85700 2.79708 3.96321
# Velocity P-wave (km/s) = 7.33613 5.76211 6.59623
#
# Compressibility (1/GPa) = 0.02182274
#
# Stress axis : x y z
#
# Youngs Moduli (GPa) = 116.62586 116.62586 72.12422
#
# Poissons Ratio (x) = -0.49418 0.31853
# Poissons Ratio (y) = -0.49418 0.31853
# Poissons Ratio (z) = 0.51507 0.51507
#
# Static dielectric constant tensor:
#      x y z
#    x 1.761500 0.000000 0.000000 
#    y 0.000000 1.761500 0.000000 
#    z 0.000000 0.000000 1.839590 
# 
# From -- ./inp_files/991.got.cif
#   From: 2010.05.17/outbox.cif.g08.bks.cpg/sg78_cif.got.tgz:991.got - 2010.06.03 18:45:56.
