data_PCOD9541467
_publ_section_title
;
Structure prediction by ZEFSAII (Michael W. Deem and Ramdas Pophale) SiO2 
 PCOD9541467
Probable space group: P 42
;
_chemical_formula_sum "Si O2"
_cell_formula_units_Z 32
_cell_length_a 15.187893
_cell_length_b 15.187893
_cell_length_c 8.699351
_cell_angle_alpha 90.000000
_cell_angle_beta 90.000000
_cell_angle_gamma 90.000000
_cell_volume 2006.697510
_symmetry_space_group_name_H-M "P 42"
_symmetry_group_IT_number 77
_symmetry_cell_setting 'tetragonal'
loop_
_space_group_symop_operation_xyz
x,y,z
-y,x,1/2+z
-x,-y,z
y,-x,1/2+z
loop_
_atom_site_type_symbol
_atom_site_label
_atom_site_fract_x
_atom_site_fract_y
_atom_site_fract_z
Si Si1 0.592198 0.892169 0.210440
Si Si2 0.401872 0.902456 0.108244
Si Si3 0.679278 0.035059 0.811473
Si Si4 0.750314 0.870443 0.012504
Si Si5 0.095436 0.132317 0.238972
Si Si6 0.123424 0.086459 0.578083
Si Si7 0.760390 0.119368 0.307399
Si Si8 0.684164 0.954454 0.502447
O O1 0.493712 0.863787 0.168067
O O2 0.623252 0.898312 0.387684
O O3 0.597523 0.995126 0.160874
O O4 0.662761 0.842674 0.103824
O O5 0.319420 0.857871 0.192764
O O6 0.384356 0.911935 0.925958
O O7 0.761576 0.094802 0.759290
O O8 0.723755 0.954210 0.907621
O O9 0.639350 0.992882 0.656597
O O10 0.801637 0.798073 0.911733
O O11 0.818581 0.896134 0.146967
O O12 0.085668 0.095749 0.409146
O O13 0.010234 0.108316 0.141766
O O14 0.091605 0.158146 0.699582
O O15 0.229307 0.098413 0.557305
O O16 0.725261 0.038415 0.410663
#
# Coordination Sequence:
#
# PCOD9541467 Si02
#       8
#     4   4   4   4   4   4   4   4
#     4   9  19  34  51  68  93 128 168 212 258 297
#     4   9  19  34  51  68  93 128 168 212 258 297
#     4  10  19  32  51  70  95 129 175 204 251 298
#     4  11  19  32  50  69  97 130 168 211 250 295
#     4  11  21  33  48  68  96 136 171 209 244 291
#     4  11  21  33  48  68  96 136 171 209 244 291
#     4  11  19  32  50  69  97 130 168 211 250 295
#     4  10  19  32  51  70  95 129 175 204 251 298
#
# _framework density 15.946598
#
# number of rings (size 3 to 8) (size 9 to 14) (size 15 to 20)
#    0.000    1.750    7.500    0.000    0.000    0.000 
#    0.000   17.500    0.000    0.000    0.000    0.000 
#    0.000    0.000    0.000   13.500    0.000    0.000 
#
# Total GULP energy -178435.774547 kJ/mol
# GULP energy per Si atom -5576.117955 kJ/mol
# Density = 1.591030 g / cm^3
# Si number density = 15.946598 Si / 1000 Ang^3
#
#
#
# Elastic Constant Matrix: (Units=GPa)
#
#
# Indices 1 2 3 4 5 6 
#
# 1 46.0431 -9.1722 2.2436 0.0000 0.0000 -3.3095
# 2 -9.1722 46.0431 2.2436 0.0000 0.0000 3.3095
# 3 2.2436 2.2436 85.6615 0.0000 0.0000 0.0000
# 4 0.0000 0.0000 0.0000 14.8807 0.0000 0.0000
# 5 0.0000 0.0000 0.0000 0.0000 14.8807 0.0000
# 6 -3.3095 3.3095 0.0000 0.0000 0.0000 1.5282
#
#
#
# Elastic Compliance Matrix: (Units=1/GPa)
#
#
# Indices 1 2 3 4 5 6 
#
# 1 0.025835 0.001373 -0.000713 0.000000 0.000000 0.052975
# 2 0.001373 0.025835 -0.000713 0.000000 0.000000 -0.052975
# 3 -0.000713 -0.000713 0.011711 0.000000 0.000000 0.000000
# 4 0.000000 0.000000 0.000000 0.067201 0.000000 0.000000
# 5 0.000000 0.000000 0.000000 0.000000 0.067201 0.000000
# 6 0.052975 -0.052975 0.000000 0.000000 0.000000 0.883817
#
#
# Mechanical properties :
#
#
# Convention : Reuss Voigt Hill
#
# Bulk Modulus (GPa) = 15.80341 18.70862 17.25602
# Shear Modulus (GPa) = 4.53393 18.42009 11.47701
#
# Velocity S-wave (km/s) = 1.68801 3.40238 2.68566
# Velocity P-wave (km/s) = 3.70552 5.21464 4.52346
#
# Compressibility (1/GPa) = 0.06327749
#
# Stress axis : x y z
#
# Youngs Moduli (GPa) = 38.70732 38.70732 85.38848
#
# Poissons Ratio (x) = -0.05316 0.06085
# Poissons Ratio (y) = -0.05316 0.06085
# Poissons Ratio (z) = 0.02758 0.02758
#
# Static dielectric constant tensor:
#      x y z
#    x 1.551090 0.000000 0.000000 
#    y 0.000000 1.551090 0.000000 
#    z 0.000000 0.000000 1.607660 
# 
# From -- ./inp_files/542.got.cif
#   From: 2010.05.17/outbox.cif.g08.bks.cpg/sg77_cif.got.tgz:542.got - 2010.06.03 18:44:51.
