data_PCOD9541262
_publ_section_title
;
Structure prediction by ZEFSAII (Michael W. Deem and Ramdas Pophale) SiO2 
 PCOD9541262
Probable space group: P 41
;
_chemical_formula_sum "Si O2"
_cell_formula_units_Z 28
_cell_length_a 14.184792
_cell_length_b 14.184792
_cell_length_c 5.612977
_cell_angle_alpha 90.000000
_cell_angle_beta 90.000000
_cell_angle_gamma 90.000000
_cell_volume 1129.377695
_symmetry_space_group_name_H-M "P 41"
_symmetry_group_IT_number 76
_symmetry_cell_setting 'tetragonal'
loop_
_space_group_symop_operation_xyz
x,y,z
-y,x,1/4+z
-x,-y,1/2+z
y,-x,3/4+z
loop_
_atom_site_type_symbol
_atom_site_label
_atom_site_fract_x
_atom_site_fract_y
_atom_site_fract_z
Si Si1 0.723001 0.088211 0.443450
Si Si2 0.246824 0.305776 0.875831
Si Si3 0.966298 0.452795 0.311451
Si Si4 0.826303 0.248855 0.746322
Si Si5 0.759046 0.412014 0.457569
Si Si6 0.860237 0.991348 0.090494
Si Si7 0.371230 0.450923 0.746325
O O1 0.667309 0.148384 0.239997
O O2 0.763420 0.170000 0.613532
O O3 0.650720 0.013842 0.548331
O O4 0.811576 0.039338 0.316995
O O5 0.236129 0.201672 0.770083
O O6 0.290774 0.375691 0.678932
O O7 0.329415 0.295099 0.066721
O O8 0.852480 0.445937 0.319948
O O9 0.002065 0.497498 0.562747
O O10 0.800929 0.355879 0.681171
O O11 0.934004 0.221790 0.706835
O O12 0.681904 0.494918 0.466492
O O13 0.935609 0.914473 0.176856
O O14 0.398688 0.532328 0.563107
#
# Coordination Sequence:
#
# PCOD9541262 Si02
#       7
#     4   4   4   4   4   4   4
#     4  11  26  45  72 104 148 195 257 314 390 458
#     4  10  22  47  68 106 140 195 239 312 386 457
#     4  12  30  48  78 115 153 203 263 321 384 469
#     4  11  25  43  75  98 148 195 246 312 392 456
#     4  10  25  45  69 104 147 192 247 311 384 463
#     4  12  25  43  71 107 150 198 264 321 384 460
#     4  10  23  43  71 104 140 178 248 307 382 455
#
# _framework density 24.792414000000001
#
# number of rings (size 3 to 8) (size 9 to 14) (size 15 to 20)
#    0.000    1.143    1.429    2.571   14.000    0.000 
#    0.000    0.000    0.000    0.000    0.000    0.000 
#    0.000    0.000    0.000    0.000    0.000    0.000 
#
# Total GULP energy -156502.901183 kJ/mol
# GULP energy per Si atom -5589.389328 kJ/mol
# Density = 2.473599 g / cm^3
# Si number density = 24.792414 Si / 1000 Ang^3
#
#
#
# Elastic Constant Matrix: (Units=GPa)
#
#
# Indices 1 2 3 4 5 6 
#
# 1 93.9557 27.2855 19.5352 0.0000 0.0000 -4.0250
# 2 27.2855 93.9557 19.5352 0.0000 0.0000 4.0250
# 3 19.5352 19.5352 61.7297 0.0000 0.0000 0.0000
# 4 0.0000 0.0000 0.0000 34.3135 0.0000 0.0000
# 5 0.0000 0.0000 0.0000 0.0000 34.3135 0.0000
# 6 -4.0250 4.0250 0.0000 0.0000 0.0000 35.5894
#
#
#
# Elastic Compliance Matrix: (Units=1/GPa)
#
#
# Indices 1 2 3 4 5 6 
#
# 1 0.012196 -0.003011 -0.002907 0.000000 0.000000 0.001720
# 2 -0.003011 0.012196 -0.002907 0.000000 0.000000 -0.001720
# 3 -0.002907 -0.002907 0.018039 0.000000 0.000000 0.000000
# 4 0.000000 0.000000 0.000000 0.029143 0.000000 0.000000
# 5 0.000000 0.000000 0.000000 0.000000 0.029143 0.000000
# 6 0.001720 -0.001720 0.000000 0.000000 0.000000 0.028487
#
#
# Mechanical properties :
#
#
# Convention : Reuss Voigt Hill
#
# Bulk Modulus (GPa) = 40.35147 42.48364 41.41755
# Shear Modulus (GPa) = 32.23445 33.06231 32.64838
#
# Velocity S-wave (km/s) = 3.60970 3.65576 3.63281
# Velocity P-wave (km/s) = 5.80382 5.91544 5.85990
#
# Compressibility (1/GPa) = 0.02478225
#
# Stress axis : x y z
#
# Youngs Moduli (GPa) = 81.99567 81.99567 55.43445
#
# Poissons Ratio (x) = 0.24690 0.16113
# Poissons Ratio (y) = 0.24690 0.16113
# Poissons Ratio (z) = 0.23833 0.23833
#
# Static dielectric constant tensor:
#      x y z
#    x 1.981760 0.000000 0.000000 
#    y 0.000000 1.981760 0.000000 
#    z 0.000000 0.000000 2.029560 
# 
# From -- ./inp_files/263.got.cif
#   From: 2010.05.17/outbox.cif.g08.bks.cpg/sg76_cif.got.tgz:263.got - 2010.06.03 18:43:17.
