data_PCOD9541206
_publ_section_title
;
Structure prediction by ZEFSAII (Michael W. Deem and Ramdas Pophale) SiO2 
 PCOD9541206
Probable space group: P 41
;
_chemical_formula_sum "Si O2"
_cell_formula_units_Z 28
_cell_length_a 11.654542
_cell_length_b 11.654542
_cell_length_c 8.837236
_cell_angle_alpha 90.000000
_cell_angle_beta 90.000000
_cell_angle_gamma 90.000000
_cell_volume 1200.347178
_symmetry_space_group_name_H-M "P 41"
_symmetry_group_IT_number 76
_symmetry_cell_setting 'tetragonal'
loop_
_space_group_symop_operation_xyz
x,y,z
-y,x,1/4+z
-x,-y,1/2+z
y,-x,3/4+z
loop_
_atom_site_type_symbol
_atom_site_label
_atom_site_fract_x
_atom_site_fract_y
_atom_site_fract_z
Si Si1 0.537991 0.973793 0.057290
Si Si2 0.330887 0.178651 0.756366
Si Si3 0.418953 0.406852 0.646691
Si Si4 0.066760 0.271465 0.317309
Si Si5 0.550615 0.773500 0.561076
Si Si6 0.873381 0.955186 0.301986
Si Si7 0.704592 0.863822 0.808657
O O1 0.592190 0.931275 0.214990
O O2 0.409024 0.922737 0.046513
O O3 0.524943 0.110718 0.055270
O O4 0.627377 0.927238 0.933634
O O5 0.375385 0.277872 0.648157
O O6 0.198580 0.151826 0.741666
O O7 0.356641 0.214459 0.927133
O O8 0.539667 0.413780 0.731674
O O9 0.334452 0.475766 0.761513
O O10 0.183850 0.206472 0.361209
O O11 0.026294 0.213058 0.160321
O O12 0.963979 0.257065 0.439677
O O13 0.620200 0.778131 0.716376
O O14 0.974058 0.916937 0.411058
#
# Coordination Sequence:
#
# PCOD9541206 Si02
#       7
#     4   4   4   4   4   4   4
#     4  11  25  41  69 105 136 185 238 288 356 426
#     4  11  24  45  67 102 139 188 229 295 353 425
#     4  10  25  45  69 102 142 182 236 291 354 426
#     4  11  23  45  70 100 148 175 241 290 357 438
#     4  10  21  43  68  97 134 185 236 280 359 415
#     4  12  26  48  71 102 145 192 243 301 368 426
#     4  11  24  43  72 102 140 189 229 301 351 418
#
# _framework density 23.326587
#
# number of rings (size 3 to 8) (size 9 to 14) (size 15 to 20)
#    0.000    1.143    4.286    1.714    2.000    9.143 
#    0.000    0.000    0.000    0.000    0.000    0.000 
#    0.000    0.000    0.000    0.000    0.000    0.000 
#
# Total GULP energy -156784.986490 kJ/mol
# GULP energy per Si atom -5599.463803 kJ/mol
# Density = 2.327349 g / cm^3
# Si number density = 23.326587 Si / 1000 Ang^3
#
#
#
# Elastic Constant Matrix: (Units=GPa)
#
#
# Indices 1 2 3 4 5 6 
#
# 1 94.5070 18.8186 22.8768 0.0000 0.0000 6.9869
# 2 18.8186 94.5070 22.8768 0.0000 0.0000 -6.9869
# 3 22.8768 22.8768 54.6455 0.0000 0.0000 0.0000
# 4 0.0000 0.0000 0.0000 16.4887 0.0000 0.0000
# 5 0.0000 0.0000 0.0000 0.0000 16.4887 0.0000
# 6 6.9869 -6.9869 0.0000 0.0000 0.0000 38.8395
#
#
#
# Elastic Compliance Matrix: (Units=1/GPa)
#
#
# Indices 1 2 3 4 5 6 
#
# 1 0.012142 -0.001523 -0.004446 0.000000 0.000000 -0.002458
# 2 -0.001523 0.012142 -0.004446 0.000000 0.000000 0.002458
# 3 -0.004446 -0.004446 0.022022 0.000000 0.000000 0.000000
# 4 0.000000 0.000000 0.000000 0.060647 0.000000 0.000000
# 5 0.000000 0.000000 0.000000 0.000000 0.060647 0.000000
# 6 -0.002458 0.002458 0.000000 0.000000 0.000000 0.026631
#
#
# Mechanical properties :
#
#
# Convention : Reuss Voigt Hill
#
# Bulk Modulus (GPa) = 39.24997 41.42267 40.33632
# Shear Modulus (GPa) = 22.36587 26.30254 24.33421
#
# Velocity S-wave (km/s) = 3.09983 3.36159 3.23336
# Velocity P-wave (km/s) = 5.44745 5.73265 5.59187
#
# Compressibility (1/GPa) = 0.02547772
#
# Stress axis : x y z
#
# Youngs Moduli (GPa) = 82.35575 82.35575 45.40928
#
# Poissons Ratio (x) = 0.12547 0.20187
# Poissons Ratio (y) = 0.12547 0.20187
# Poissons Ratio (z) = 0.36611 0.36611
#
# Static dielectric constant tensor:
#      x y z
#    x 1.882670 0.000000 0.000000 
#    y 0.000000 1.882670 0.000000 
#    z 0.000000 0.000000 1.867760 
# 
# From -- ./inp_files/592.got.cif
#   From: 2010.05.17/outbox.cif.g08.bks.cpg/sg76_cif.got.tgz:592.got - 2010.06.03 18:43:17.
