data_PCOD9541085
_publ_section_title
;
Structure prediction by ZEFSAII (Michael W. Deem and Ramdas Pophale) SiO2 
 PCOD9541085
Probable space group: P 41
;
_chemical_formula_sum "Si O2"
_cell_formula_units_Z 28
_cell_length_a 9.133158
_cell_length_b 9.133158
_cell_length_c 18.298405
_cell_angle_alpha 90.000000
_cell_angle_beta 90.000000
_cell_angle_gamma 90.000000
_cell_volume 1526.353677
_symmetry_space_group_name_H-M "P 41"
_symmetry_group_IT_number 76
_symmetry_cell_setting 'tetragonal'
loop_
_space_group_symop_operation_xyz
x,y,z
-y,x,1/4+z
-x,-y,1/2+z
y,-x,3/4+z
loop_
_atom_site_type_symbol
_atom_site_label
_atom_site_fract_x
_atom_site_fract_y
_atom_site_fract_z
Si Si1 0.701145 0.743172 0.054470
Si Si2 0.500267 0.874354 0.382234
Si Si3 0.730948 0.873532 0.900653
Si Si4 0.549283 0.368443 0.993659
Si Si5 0.603476 0.571061 0.850606
Si Si6 0.946386 0.123088 0.904062
Si Si7 0.847393 0.220686 0.057530
O O1 0.778038 0.590284 0.073349
O O2 0.528520 0.719526 0.056374
O O3 0.749808 0.845823 0.120124
O O4 0.760119 0.808998 0.980441
O O5 0.530962 0.760896 0.448074
O O6 0.641330 0.931652 0.340806
O O7 0.394992 0.003892 0.407115
O O8 0.664933 0.735322 0.856757
O O9 0.873528 0.968655 0.878005
O O10 0.455057 0.452629 0.055494
O O11 0.690908 0.286621 0.029525
O O12 0.589921 0.490094 0.930431
O O13 0.104425 0.156868 0.872643
O O14 0.925275 0.140118 0.990258
#
# Coordination Sequence:
#
# PCOD9541085 Si02
#       7
#     4   4   4   4   4   4   4
#     4  10  18  37  62  85 107 162 207 244 308 364
#     4  10  22  37  62  87 124 159 206 257 304 382
#     4  11  21  39  59  90 125 153 208 262 310 368
#     4  11  19  38  66  92 117 166 208 261 307 377
#     4  11  20  34  68  93 118 153 210 265 312 356
#     4  11  23  38  65  85 121 171 204 252 304 388
#     4  12  21  41  62  90 124 170 217 245 319 381
#
# _framework density 18.344372
#
# number of rings (size 3 to 8) (size 9 to 14) (size 15 to 20)
#    0.000    1.143   10.000    0.000    0.000    1.143 
#    2.571    0.000    3.143    0.000    0.000    0.000 
#    0.000    0.000    0.000    0.000    0.000    0.000 
#
# Total GULP energy -155906.895528 kJ/mol
# GULP energy per Si atom -5568.103412 kJ/mol
# Density = 1.830262 g / cm^3
# Si number density = 18.344372 Si / 1000 Ang^3
#
#
#
# Elastic Constant Matrix: (Units=GPa)
#
#
# Indices 1 2 3 4 5 6 
#
# 1 87.0192 16.3688 22.1492 0.0000 0.0000 -3.5592
# 2 16.3688 87.0192 22.1492 0.0000 0.0000 3.5592
# 3 22.1492 22.1492 59.8575 0.0000 0.0000 0.0000
# 4 0.0000 0.0000 0.0000 20.9989 0.0000 0.0000
# 5 0.0000 0.0000 0.0000 0.0000 20.9989 0.0000
# 6 -3.5592 3.5592 0.0000 0.0000 0.0000 15.2866
#
#
#
# Elastic Compliance Matrix: (Units=1/GPa)
#
#
# Indices 1 2 3 4 5 6 
#
# 1 0.012994 -0.001500 -0.004253 0.000000 0.000000 0.003375
# 2 -0.001500 0.012994 -0.004253 0.000000 0.000000 -0.003375
# 3 -0.004253 -0.004253 0.019854 0.000000 0.000000 0.000000
# 4 0.000000 0.000000 0.000000 0.047621 0.000000 0.000000
# 5 0.000000 0.000000 0.000000 0.000000 0.047621 0.000000
# 6 0.003375 -0.003375 0.000000 0.000000 0.000000 0.066988
#
#
# Mechanical properties :
#
#
# Convention : Reuss Voigt Hill
#
# Bulk Modulus (GPa) = 38.71474 39.47003 39.09238
# Shear Modulus (GPa) = 21.12402 23.00547 22.06474
#
# Velocity S-wave (km/s) = 3.39710 3.54515 3.47191
# Velocity P-wave (km/s) = 6.04460 6.19034 6.11791
#
# Compressibility (1/GPa) = 0.02582996
#
# Stress axis : x y z
#
# Youngs Moduli (GPa) = 76.95565 76.95565 50.36725
#
# Poissons Ratio (x) = 0.11541 0.21423
# Poissons Ratio (y) = 0.11541 0.21423
# Poissons Ratio (z) = 0.32733 0.32733
#
# Static dielectric constant tensor:
#      x y z
#    x 1.679100 0.000000 0.000000 
#    y 0.000000 1.679100 0.000000 
#    z 0.000000 0.000000 1.671510 
# 
# From -- ./inp_files/1242.got.cif
#   From: 2010.05.17/outbox.cif.g08.bks.cpg/sg76_cif.got.tgz:1242.got - 2010.06.03 18:43:17.
