data_PCOD9541534
_publ_section_title
;
Structure prediction by ZEFSAII (Michael W. Deem and Ramdas Pophale) SiO2 
 PCOD9541534
Probable space group: P 42
;
_chemical_formula_sum "Si O2"
_cell_formula_units_Z 18
_cell_length_a 5.143648
_cell_length_b 5.143648
_cell_length_c 25.955221
_cell_angle_alpha 90.000000
_cell_angle_beta 90.000000
_cell_angle_gamma 90.000000
_cell_volume 686.700260
_symmetry_space_group_name_H-M "P 42"
_symmetry_group_IT_number 77
_symmetry_cell_setting 'tetragonal'
loop_
_space_group_symop_operation_xyz
x,y,z
-y,x,1/2+z
-x,-y,z
y,-x,1/2+z
loop_
_atom_site_type_symbol
_atom_site_label
_atom_site_fract_x
_atom_site_fract_y
_atom_site_fract_z
Si Si1 0.186849 0.249839 0.504700
Si Si2 0.185440 0.247493 0.725875
Si Si3 0.814560 0.752507 0.392956
Si Si4 0.813151 0.750161 0.614131
Si Si5 0.500000 0.500000 0.309415
O O1 0.335792 0.250225 0.559415
O O2 0.000000 0.500000 0.504763
O O3 0.323341 0.245474 0.449270
O O4 0.000000 0.000000 0.504707
O O5 0.386056 0.282094 0.771806
O O6 0.000000 0.500000 0.727415
O O7 0.323341 0.245474 0.669561
O O8 0.000000 0.000000 0.731081
O O9 0.613945 0.717906 0.347025
O O10 0.000000 0.500000 0.391416
O O11 0.000000 0.000000 0.387750
O O12 0.000000 0.500000 0.614068
O O13 0.000000 0.000000 0.614124
#
# Coordination Sequence:
#
# PCOD9541534 Si02
#       5
#     4   4   4   4   2
#     4   8  14  30  57  88 123 167 220 283 352 419
#     4  10  24  42  65  96 135 183 235 293 358 424
#     4  10  24  42  65  96 135 183 235 293 358 424
#     4   8  14  30  57  88 123 167 220 283 352 419
#     4  12  28  40  66  96 140 184 244 290 348 432
#
# _framework density 26.212308
#
# number of rings (size 3 to 8) (size 9 to 14) (size 15 to 20)
#    0.000    2.667    0.000    0.000    6.222    0.000 
#    0.000    1.111    0.000    0.000    0.000   31.111 
#    0.000    5.333    0.000    1.333    0.000    0.000 
#
# Total GULP energy -100825.832898 kJ/mol
# GULP energy per Si atom -5601.435161 kJ/mol
# Density = 2.615265 g / cm^3
# Si number density = 26.212308 Si / 1000 Ang^3
#
#
#
# Elastic Constant Matrix: (Units=GPa)
#
#
# Indices 1 2 3 4 5 6 
#
# 1 143.0945 44.2511 43.0378 0.0000 0.0000 -3.5124
# 2 44.2511 143.0945 43.0378 0.0000 0.0000 3.5124
# 3 43.0378 43.0378 328.3783 0.0000 0.0000 0.0000
# 4 0.0000 0.0000 0.0000 78.6983 0.0000 0.0000
# 5 0.0000 0.0000 0.0000 0.0000 78.6983 0.0000
# 6 -3.5124 3.5124 0.0000 0.0000 0.0000 59.9034
#
#
#
# Elastic Compliance Matrix: (Units=1/GPa)
#
#
# Indices 1 2 3 4 5 6 
#
# 1 0.007920 -0.002240 -0.000744 0.000000 0.000000 0.000596
# 2 -0.002240 0.007920 -0.000744 0.000000 0.000000 -0.000596
# 3 -0.000744 -0.000744 0.003240 0.000000 0.000000 0.000000
# 4 0.000000 0.000000 0.000000 0.012707 0.000000 0.000000
# 5 0.000000 0.000000 0.000000 0.000000 0.012707 0.000000
# 6 0.000596 -0.000596 0.000000 0.000000 0.000000 0.016763
#
#
# Mechanical properties :
#
#
# Convention : Reuss Voigt Hill
#
# Bulk Modulus (GPa) = 86.04155 97.24672 91.64414
# Shear Modulus (GPa) = 68.88221 75.74272 72.31246
#
# Velocity S-wave (km/s) = 5.13182 5.38132 5.25805
# Velocity P-wave (km/s) = 8.24684 8.70584 8.47944
#
# Compressibility (1/GPa) = 0.01162229
#
# Stress axis : x y z
#
# Youngs Moduli (GPa) = 126.26984 126.26984 308.60472
#
# Poissons Ratio (x) = 0.28282 0.22972
# Poissons Ratio (y) = 0.28282 0.22972
# Poissons Ratio (z) = 0.09399 0.09399
#
# Static dielectric constant tensor:
#      x y z
#    x 2.131870 0.000000 0.000000 
#    y 0.000000 2.131870 0.000000 
#    z 0.000000 0.000000 2.137440 
# 
# From -- ./inp_files/1620.got.cif
#   From: 2010.05.17/outbox.cif.g08.bks.cpg/sg77_cif.got.tgz:1620.got - 2010.06.03 18:44:51.
