data_PCOD9541025
_publ_section_title
;
Structure prediction by ZEFSAII (Michael W. Deem and Ramdas Pophale) SiO2 
 PCOD9541025
Probable space group: P 4
;
_chemical_formula_sum "Si O2"
_cell_formula_units_Z 22
_cell_length_a 7.418284
_cell_length_b 7.418284
_cell_length_c 15.663473
_cell_angle_alpha 90.000000
_cell_angle_beta 90.000000
_cell_angle_gamma 90.000000
_cell_volume 861.975604
_symmetry_space_group_name_H-M "P 4"
_symmetry_group_IT_number 75
_symmetry_cell_setting 'tetragonal'
loop_
_space_group_symop_operation_xyz
x,y,z
-y,x,z
-x,-y,z
y,-x,z
loop_
_atom_site_type_symbol
_atom_site_label
_atom_site_fract_x
_atom_site_fract_y
_atom_site_fract_z
Si Si1 0.730707 0.881645 0.842790
Si Si2 0.696206 0.263232 0.392790
Si Si3 0.000000 0.500000 0.708104
Si Si4 0.767135 0.651813 0.575291
Si Si5 0.300851 0.264851 0.211789
Si Si6 0.656378 0.761203 0.031354
O O1 0.690953 0.858636 0.942768
O O2 0.910195 0.772807 0.828832
O O3 0.581264 0.846882 0.771558
O O4 0.741927 0.477053 0.393006
O O5 0.727568 0.167967 0.483305
O O6 0.784570 0.211664 0.302284
O O7 0.084601 0.340921 0.649119
O O8 0.565910 0.732174 0.579753
O O9 0.520168 0.258035 0.211559
O O10 0.267056 0.166078 0.121624
O O11 0.440698 0.736559 0.030831
#
# Coordination Sequence:
#
# PCOD9541025 Si02
#       6
#     4   4   2   4   4   4
#     4  11  24  39  53  71 100 140 182 226 279 330
#     4   7  10  20  41  70 102 131 159 200 254 306
#     4  12  22  36  54  74 102 140 188 230 266 320
#     4   9  18  32  52  77 103 134 174 222 271 313
#     4   7  10  19  41  73 104 131 160 200 253 308
#     4   9  17  31  54  82 107 134 173 219 262 314
#
# _framework density 25.522763000000001
#
# number of rings (size 3 to 8) (size 9 to 14) (size 15 to 20)
#    0.000    3.091    0.000    5.455    0.000    0.000 
#    0.000    1.818    0.000    8.727    0.000    0.000 
#    0.000    2.909    0.000    0.000    0.000    0.182 
#
# Total GULP energy -122508.851382 kJ/mol
# GULP energy per Si atom -5568.584154 kJ/mol
# Density = 2.546467 g / cm^3
# Si number density = 25.522763 Si / 1000 Ang^3
#
#
#
# Elastic Constant Matrix: (Units=GPa)
#
#
# Indices 1 2 3 4 5 6 
#
# 1 59.0763 9.3676 33.4252 0.0000 0.0000 -3.6967
# 2 9.3676 59.0763 33.4252 0.0000 0.0000 3.6967
# 3 33.4252 33.4252 283.5155 0.0000 0.0000 0.0000
# 4 0.0000 0.0000 0.0000 6.9965 0.0000 0.0000
# 5 0.0000 0.0000 0.0000 0.0000 6.9965 0.0000
# 6 -3.6967 3.6967 0.0000 0.0000 0.0000 16.6381
#
#
#
# Elastic Compliance Matrix: (Units=1/GPa)
#
#
# Indices 1 2 3 4 5 6 
#
# 1 0.018658 -0.002146 -0.001947 0.000000 0.000000 0.004622
# 2 -0.002146 0.018658 -0.001947 0.000000 0.000000 -0.004622
# 3 -0.001947 -0.001947 0.003986 0.000000 0.000000 0.000000
# 4 0.000000 0.000000 0.000000 0.142928 0.000000 0.000000
# 5 0.000000 0.000000 0.000000 0.000000 0.142928 0.000000
# 6 0.004622 -0.004622 0.000000 0.000000 0.000000 0.062157
#
#
# Mechanical properties :
#
#
# Convention : Reuss Voigt Hill
#
# Bulk Modulus (GPa) = 34.21942 61.56712 47.89327
# Shear Modulus (GPa) = 12.16141 27.82291 19.99216
#
# Velocity S-wave (km/s) = 2.18524 3.30528 2.80180
# Velocity P-wave (km/s) = 4.45012 6.22425 5.41040
#
# Compressibility (1/GPa) = 0.02922317
#
# Stress axis : x y z
#
# Youngs Moduli (GPa) = 53.59556 53.59556 250.86859
#
# Poissons Ratio (x) = 0.11504 0.48836
# Poissons Ratio (y) = 0.11504 0.48836
# Poissons Ratio (z) = 0.10433 0.10433
#
# Static dielectric constant tensor:
#      x y z
#    x 2.073040 0.000000 0.000000 
#    y 0.000000 2.073040 0.000000 
#    z 0.000000 0.000000 2.264840 
# 
# From -- ./inp_files/664.got.cif
#   From: 2010.05.17/outbox.cif.g08.bks.cpg/sg75_cif.got.tgz:664.got - 2010.06.03 18:42:43.
