data_PCOD9541716
_publ_section_title
;
Structure prediction by ZEFSAII (Michael W. Deem and Ramdas Pophale) SiO2 
 PCOD9541716
Probable space group: P 43
;
_chemical_formula_sum "Si O2"
_cell_formula_units_Z 28
_cell_length_a 11.390972
_cell_length_b 11.390972
_cell_length_c 9.803477
_cell_angle_alpha 90.000000
_cell_angle_beta 90.000000
_cell_angle_gamma 90.000000
_cell_volume 1272.042738
_symmetry_space_group_name_H-M "P 43"
_symmetry_group_IT_number 78
_symmetry_cell_setting 'tetragonal'
loop_
_space_group_symop_operation_xyz
x,y,z
-y,x,3/4+z
-x,-y,1/2+z
y,-x,1/4+z
loop_
_atom_site_type_symbol
_atom_site_label
_atom_site_fract_x
_atom_site_fract_y
_atom_site_fract_z
Si Si1 0.451831 0.894618 0.238060
Si Si2 0.185622 0.680092 0.849628
Si Si3 0.068170 0.301584 0.236413
Si Si4 0.059626 0.887423 0.336586
Si Si5 0.889495 0.698005 0.245517
Si Si6 0.394907 0.440786 0.491810
Si Si7 0.134326 0.447119 0.479789
O O1 0.579256 0.844907 0.208288
O O2 0.406984 0.889255 0.390306
O O3 0.462662 0.031756 0.195175
O O4 0.358357 0.839953 0.134052
O O5 0.209649 0.799969 0.929446
O O6 0.305317 0.636289 0.778615
O O7 0.073539 0.696037 0.751215
O O8 0.111704 0.183890 0.164385
O O9 0.116443 0.331395 0.385954
O O10 0.970161 0.931168 0.453949
O O11 0.008935 0.764733 0.281062
O O12 0.891509 0.593925 0.134562
O O13 0.487385 0.443036 0.370316
O O14 0.265512 0.492464 0.460431
#
# Coordination Sequence:
#
# PCOD9541716 Si02
#       7
#     4   4   4   4   4   4   4
#     4  11  22  44  68 101 129 175 232 280 325 410
#     4  10  23  44  70  93 138 180 220 272 350 407
#     4  11  24  41  67 102 130 179 227 276 331 407
#     4  12  27  41  64 101 144 177 224 277 337 409
#     4  11  24  43  66  99 136 182 222 273 345 404
#     4  11  24  44  69  99 130 177 224 282 339 404
#     4  10  24  43  70  91 135 182 221 272 351 403
#
# _framework density 22.011841
#
# number of rings (size 3 to 8) (size 9 to 14) (size 15 to 20)
#    0.000    1.143    1.429    5.143   10.000    2.286 
#    0.000    1.429    0.000    0.000    0.000    0.000 
#    0.000    0.000    0.000    0.000    0.000    0.000 
#
# Total GULP energy -156508.620440 kJ/mol
# GULP energy per Si atom -5589.593587 kJ/mol
# Density = 2.196174 g / cm^3
# Si number density = 22.011841 Si / 1000 Ang^3
#
#
#
# Elastic Constant Matrix: (Units=GPa)
#
#
# Indices 1 2 3 4 5 6 
#
# 1 35.1818 2.1553 2.8065 0.0000 0.0000 -0.1428
# 2 2.1553 35.1818 2.8065 0.0000 0.0000 0.1428
# 3 2.8065 2.8065 73.9850 0.0000 0.0000 0.0000
# 4 0.0000 0.0000 0.0000 26.1487 0.0000 0.0000
# 5 0.0000 0.0000 0.0000 0.0000 26.1487 0.0000
# 6 -0.1428 0.1428 0.0000 0.0000 0.0000 15.1832
#
#
#
# Elastic Compliance Matrix: (Units=1/GPa)
#
#
# Indices 1 2 3 4 5 6 
#
# 1 0.028609 -0.001672 -0.001022 0.000000 0.000000 0.000285
# 2 -0.001672 0.028609 -0.001022 0.000000 0.000000 -0.000285
# 3 -0.001022 -0.001022 0.013594 0.000000 0.000000 0.000000
# 4 0.000000 0.000000 0.000000 0.038243 0.000000 0.000000
# 5 0.000000 0.000000 0.000000 0.000000 0.038243 0.000000
# 6 0.000285 -0.000285 0.000000 0.000000 0.000000 0.065868
#
#
# Mechanical properties :
#
#
# Convention : Reuss Voigt Hill
#
# Bulk Modulus (GPa) = 15.77791 17.76503 16.77147
# Shear Modulus (GPa) = 20.68483 22.60150 21.64316
#
# Velocity S-wave (km/s) = 3.06880 3.20783 3.13909
# Velocity P-wave (km/s) = 4.44299 4.66995 4.55788
#
# Compressibility (1/GPa) = 0.06337976
#
# Stress axis : x y z
#
# Youngs Moduli (GPa) = 34.95420 34.95420 73.56314
#
# Poissons Ratio (x) = 0.05845 0.07517
# Poissons Ratio (y) = 0.05845 0.07517
# Poissons Ratio (z) = 0.03572 0.03572
#
# Static dielectric constant tensor:
#      x y z
#    x 1.817380 0.000000 0.000000 
#    y 0.000000 1.817380 0.000000 
#    z 0.000000 0.000000 1.784980 
# 
# From -- ./inp_files/609.got.cif
#   From: 2010.05.17/outbox.cif.g08.bks.cpg/sg78_cif.got.tgz:609.got - 2010.06.03 18:45:56.
