data_PCOD9541781
_publ_section_title
;
Structure prediction by ZEFSAII (Michael W. Deem and Ramdas Pophale) SiO2 
 PCOD9541781
Probable space group: P 43
;
_chemical_formula_sum "Si O2"
_cell_formula_units_Z 16
_cell_length_a 11.160902
_cell_length_b 11.160902
_cell_length_c 5.030081
_cell_angle_alpha 90.000000
_cell_angle_beta 90.000000
_cell_angle_gamma 90.000000
_cell_volume 626.575729
_symmetry_space_group_name_H-M "P 43"
_symmetry_group_IT_number 78
_symmetry_cell_setting 'tetragonal'
loop_
_space_group_symop_operation_xyz
x,y,z
-y,x,3/4+z
-x,-y,1/2+z
y,-x,1/4+z
loop_
_atom_site_type_symbol
_atom_site_label
_atom_site_fract_x
_atom_site_fract_y
_atom_site_fract_z
Si Si1 0.239858 0.866528 0.937310
Si Si2 0.250990 0.021509 0.444389
Si Si3 0.424892 0.671272 0.825712
Si Si4 0.516629 0.914193 0.710108
O O1 0.298618 0.947054 0.699560
O O2 0.110429 0.844007 0.814082
O O3 0.218858 0.928348 0.217571
O O4 0.321088 0.747598 0.976376
O O5 0.344184 0.107284 0.291857
O O6 0.547643 0.631445 0.971318
O O7 0.469263 0.781271 0.634811
O O8 0.516656 0.016142 0.485520
#
# Coordination Sequence:
#
# PCOD9541781 Si02
#       4
#     4   4   4   4
#     4  12  27  49  82 117 161 213 270 335 412 485
#     4  12  25  49  80 117 157 211 270 339 404 493
#     4  12  28  49  75 123 168 214 271 343 406 482
#     4  12  24  47  79 111 156 216 273 319 402 496
#
# _framework density 25.535623000000001
#
# number of rings (size 3 to 8) (size 9 to 14) (size 15 to 20)
#    0.000    0.000    7.500    1.500    0.000    6.000 
#    4.500    0.000    0.000    0.000    0.000    0.000 
#    0.000    0.000    0.000    0.000    0.000    0.000 
#
# Total GULP energy -89238.871483 kJ/mol
# GULP energy per Si atom -5577.429468 kJ/mol
# Density = 2.547750 g / cm^3
# Si number density = 25.535623 Si / 1000 Ang^3
#
#
#
# Elastic Constant Matrix: (Units=GPa)
#
#
# Indices 1 2 3 4 5 6 
#
# 1 2607.3827-2443.6254 29.5919 0.0000 0.0000 433.1773
# 2 -2443.6254 2607.3827 29.5919 0.0000 0.0000 -433.1773
# 3 29.5919 29.5919 109.3396 0.0000 0.0000 0.0000
# 4 0.0000 0.0000 0.0000 38.3004 0.0000 0.0000
# 5 0.0000 0.0000 0.0000 0.0000 38.3004 0.0000
# 6 433.1773 -433.1773 0.0000 0.0000 0.0000 110.9142
#
#
#
# Elastic Compliance Matrix: (Units=1/GPa)
#
#
# Indices 1 2 3 4 5 6 
#
# 1 0.003684 0.003084 -0.001832 0.000000 0.000000 -0.002342
# 2 0.003084 0.003684 -0.001832 0.000000 0.000000 0.002342
# 3 -0.001832 -0.001832 0.010137 0.000000 0.000000 0.000000
# 4 0.000000 0.000000 0.000000 0.026109 0.000000 0.000000
# 5 0.000000 0.000000 0.000000 0.000000 0.026109 0.000000
# 6 -0.002342 0.002342 0.000000 0.000000 0.000000 0.027311
#
#
# Mechanical properties :
#
#
# Convention : Reuss Voigt Hill
#
# Bulk Modulus (GPa) = 61.17265 61.69130 61.43198
# Shear Modulus (GPa) = 48.24239 551.40610 299.82424
#
# Velocity S-wave (km/s) = 4.35123 14.71070 10.84753
# Velocity P-wave (km/s) = 7.01798 17.68477 13.45368
#
# Compressibility (1/GPa) = 0.01634717
#
# Stress axis : x y z
#
# Youngs Moduli (GPa) = 271.43000 271.43000 98.64474
#
# Poissons Ratio (x) = -0.83722 0.18071
# Poissons Ratio (y) = -0.83722 0.18071
# Poissons Ratio (z) = 0.49723 0.49723
#
# Static dielectric constant tensor:
#      x y z
#    x 2.288210 0.000000 0.000000 
#    y 0.000000 2.288210 0.000000 
#    z 0.000000 0.000000 1.958140 
# 
# From -- ./inp_files/135.got.cif
#   From: 2010.05.17/outbox.cif.g08.bks.cpg/sg78_cif.got.tgz:135.got - 2010.06.03 18:45:56.
