data_PCOD9541048
_publ_section_title
;
Structure prediction by ZEFSAII (Michael W. Deem and Ramdas Pophale) SiO2 
 PCOD9541048
Probable space group: P 4
;
_chemical_formula_sum "Si O2"
_cell_formula_units_Z 20
_cell_length_a 7.943959
_cell_length_b 7.943959
_cell_length_c 14.567506
_cell_angle_alpha 90.000000
_cell_angle_beta 90.000000
_cell_angle_gamma 90.000000
_cell_volume 919.304093
_symmetry_space_group_name_H-M "P 4"
_symmetry_group_IT_number 75
_symmetry_cell_setting 'tetragonal'
loop_
_space_group_symop_operation_xyz
x,y,z
-y,x,z
-x,-y,z
y,-x,z
loop_
_atom_site_type_symbol
_atom_site_label
_atom_site_fract_x
_atom_site_fract_y
_atom_site_fract_z
Si Si1 0.734331 0.899156 0.290660
Si Si2 0.732711 0.093151 0.778376
Si Si3 0.000000 0.500000 0.439367
Si Si4 0.500000 0.000000 0.935690
Si Si5 0.734071 0.899965 0.086213
Si Si6 0.594500 0.233369 0.591163
O O1 0.792344 0.094839 0.297337
O O2 0.603338 0.876917 0.372193
O O3 0.662626 0.871108 0.188355
O O4 0.633898 0.142065 0.686698
O O5 0.900040 0.205662 0.779263
O O6 0.618829 0.107263 0.868357
O O7 0.893678 0.619665 0.506838
O O8 0.606769 0.880516 0.003132
O O9 0.904817 0.793346 0.079522
O O10 0.707033 0.400680 0.586469
#
# Coordination Sequence:
#
# PCOD9541048 Si02
#       6
#     4   4   2   2   4   4
#     4   9  19  35  55  81 114 153 199 248 295 351
#     4  11  24  42  63  87 117 156 203 253 308 375
#     4  12  20  34  58  88 118 154 198 246 302 364
#     4  12  20  32  58  88 112 142 188 244 304 360
#     4   9  19  36  56  81 115 154 197 246 300 360
#     4  11  24  41  60  86 123 162 200 249 310 372
#
# _framework density 21.755587999999999
#
# number of rings (size 3 to 8) (size 9 to 14) (size 15 to 20)
#    0.000    1.600    0.000    7.200    0.000    1.600 
#    0.000    2.000    0.000    5.400    0.000   16.800 
#    0.000    0.000    0.000    0.000    0.000    0.000 
#
# Total GULP energy -111843.574836 kJ/mol
# GULP energy per Si atom -5592.178742 kJ/mol
# Density = 2.170607 g / cm^3
# Si number density = 21.755588 Si / 1000 Ang^3
#
#
#
# Elastic Constant Matrix: (Units=GPa)
#
#
# Indices 1 2 3 4 5 6 
#
# 1 69.3813 4.5281 42.4137 0.0000 0.0000 -5.1923
# 2 4.5281 69.3813 42.4137 0.0000 0.0000 5.1923
# 3 42.4137 42.4137 192.4463 0.0000 0.0000 0.0000
# 4 0.0000 0.0000 0.0000 23.6385 0.0000 0.0000
# 5 0.0000 0.0000 0.0000 0.0000 23.6385 0.0000
# 6 -5.1923 5.1923 0.0000 0.0000 0.0000 21.7925
#
#
#
# Elastic Compliance Matrix: (Units=1/GPa)
#
#
# Indices 1 2 3 4 5 6 
#
# 1 0.017071 0.001040 -0.003992 0.000000 0.000000 0.003820
# 2 0.001040 0.017071 -0.003992 0.000000 0.000000 -0.003820
# 3 -0.003992 -0.003992 0.006956 0.000000 0.000000 0.000000
# 4 0.000000 0.000000 0.000000 0.042304 0.000000 0.000000
# 5 0.000000 0.000000 0.000000 0.000000 0.042304 0.000000
# 6 0.003820 -0.003820 0.000000 0.000000 0.000000 0.047707
#
#
# Mechanical properties :
#
#
# Convention : Reuss Voigt Hill
#
# Bulk Modulus (GPa) = 36.74856 56.65777 46.70316
# Shear Modulus (GPa) = 25.46216 29.93748 27.69982
#
# Velocity S-wave (km/s) = 3.42478 3.71358 3.57210
# Velocity P-wave (km/s) = 5.70676 6.66986 6.20701
#
# Compressibility (1/GPa) = 0.02721195
#
# Stress axis : x y z
#
# Youngs Moduli (GPa) = 58.57820 58.57820 143.76707
#
# Poissons Ratio (x) = -0.06093 0.57386
# Poissons Ratio (y) = -0.06093 0.57386
# Poissons Ratio (z) = 0.23382 0.23382
#
# Static dielectric constant tensor:
#      x y z
#    x 1.811850 0.000000 0.000000 
#    y 0.000000 1.811850 0.000000 
#    z 0.000000 0.000000 1.787590 
# 
# From -- ./inp_files/511.got.cif
#   From: 2010.05.17/outbox.cif.g08.bks.cpg/sg75_cif.got.tgz:511.got - 2010.06.03 18:42:43.
