data_PCOD9541024
_publ_section_title
;
Structure prediction by ZEFSAII (Michael W. Deem and Ramdas Pophale) SiO2 
 PCOD9541024
Probable space group: P 4
;
_chemical_formula_sum "Si O2"
_cell_formula_units_Z 22
_cell_length_a 8.530416
_cell_length_b 8.530416
_cell_length_c 14.579271
_cell_angle_alpha 90.000000
_cell_angle_beta 90.000000
_cell_angle_gamma 90.000000
_cell_volume 1060.904350
_symmetry_space_group_name_H-M "P 4"
_symmetry_group_IT_number 75
_symmetry_cell_setting 'tetragonal'
loop_
_space_group_symop_operation_xyz
x,y,z
-y,x,z
-x,-y,z
y,-x,z
loop_
_atom_site_type_symbol
_atom_site_label
_atom_site_fract_x
_atom_site_fract_y
_atom_site_fract_z
Si Si1 0.500000 0.000000 0.599270
Si Si2 0.539053 0.757968 0.452068
Si Si3 0.591062 0.253101 0.946045
Si Si4 0.071509 0.255080 0.104517
Si Si5 0.536076 0.238584 0.243995
Si Si6 0.414831 0.748195 0.731618
O O1 0.419080 0.114800 0.527028
O O2 0.608161 0.105786 0.664900
O O3 0.374838 0.669029 0.465999
O O4 0.506976 0.813238 0.347896
O O5 0.693471 0.411447 0.962889
O O6 0.602906 0.210686 0.838738
O O7 0.654076 0.118049 0.011552
O O8 0.105595 0.378760 0.185144
O O9 0.897124 0.185524 0.108674
O O10 0.665996 0.376125 0.225726
O O11 0.309071 0.594679 0.715786
#
# Coordination Sequence:
#
# PCOD9541024 Si02
#       6
#     2   4   4   4   4   4
#     4  12  20  30  60  88 108 142 184 226 292 352
#     4   9  20  38  58  83 114 146 188 240 283 331
#     4   9  19  37  60  83 108 145 197 245 279 324
#     4  11  24  37  52  82 124 161 190 229 284 342
#     4   9  19  37  60  83 108 145 197 245 279 324
#     4   9  20  38  58  83 114 146 188 240 283 331
#
# _framework density 20.737026
#
# number of rings (size 3 to 8) (size 9 to 14) (size 15 to 20)
#    0.000    2.364    0.000    4.364    0.000   11.636 
#    0.000    0.000    0.000    8.727    0.000    0.000 
#    0.000    0.000    0.000    0.000    0.000    0.000 
#
# Total GULP energy -122592.188474 kJ/mol
# GULP energy per Si atom -5572.372203 kJ/mol
# Density = 2.068983 g / cm^3
# Si number density = 20.737026 Si / 1000 Ang^3
#
#
#
# Elastic Constant Matrix: (Units=GPa)
#
#
# Indices 1 2 3 4 5 6 
#
# 1 83.9915 50.6759 59.5383 0.0000 0.0000 -2.0271
# 2 50.6759 83.9915 59.5383 0.0000 0.0000 2.0271
# 3 59.5383 59.5383 114.6181 0.0000 0.0000 0.0000
# 4 0.0000 0.0000 0.0000 65.0347 0.0000 0.0000
# 5 0.0000 0.0000 0.0000 0.0000 65.0347 0.0000
# 6 -2.0271 2.0271 0.0000 0.0000 0.0000 33.2826
#
#
#
# Elastic Compliance Matrix: (Units=1/GPa)
#
#
# Indices 1 2 3 4 5 6 
#
# 1 0.021987 -0.008253 -0.007134 0.000000 0.000000 0.001842
# 2 -0.008253 0.021987 -0.007134 0.000000 0.000000 -0.001842
# 3 -0.007134 -0.007134 0.016136 0.000000 0.000000 0.000000
# 4 0.000000 0.000000 0.000000 0.015376 0.000000 0.000000
# 5 0.000000 0.000000 0.000000 0.000000 0.015376 0.000000
# 6 0.001842 -0.001842 0.000000 0.000000 0.000000 0.030270
#
#
# Mechanical properties :
#
#
# Convention : Reuss Voigt Hill
#
# Bulk Modulus (GPa) = 66.36721 69.12290 67.74506
# Shear Modulus (GPa) = 29.20600 40.19366 34.69983
#
# Velocity S-wave (km/s) = 3.75693 4.40734 4.09507
# Velocity P-wave (km/s) = 7.13394 7.70097 7.42287
#
# Compressibility (1/GPa) = 0.01506768
#
# Stress axis : x y z
#
# Youngs Moduli (GPa) = 45.48158 45.48158 61.97263
#
# Poissons Ratio (x) = 0.37537 0.44211
# Poissons Ratio (y) = 0.37537 0.44211
# Poissons Ratio (z) = 0.32447 0.32447
#
# Static dielectric constant tensor:
#      x y z
#    x 1.735920 0.000000 0.000000 
#    y 0.000000 1.735920 0.000000 
#    z 0.000000 0.000000 1.786280 
# 
# From -- ./inp_files/647.got.cif
#   From: 2010.05.17/outbox.cif.g08.bks.cpg/sg75_cif.got.tgz:647.got - 2010.06.03 18:42:43.
