data_PCOD9541879
_publ_section_title
;
Structure prediction by ZEFSAII (Michael W. Deem and Ramdas Pophale) SiO2 
 PCOD9541879
Probable space group: I 4
;
_chemical_formula_sum "Si O2"
_cell_formula_units_Z 60
_cell_length_a 15.581254
_cell_length_b 15.581254
_cell_length_c 10.499295
_cell_angle_alpha 90.000000
_cell_angle_beta 90.000000
_cell_angle_gamma 90.000000
_cell_volume 2548.971344
_symmetry_space_group_name_H-M "I 4"
_symmetry_group_IT_number 79
_symmetry_cell_setting 'tetragonal'
loop_
_space_group_symop_operation_xyz
x,y,z
-y,x,z
-x,-y,z
y,-x,z
1/2+x,1/2+y,1/2+z
1/2-y,1/2+x,1/2+z
1/2-x,1/2-y,1/2+z
1/2+y,1/2-x,1/2+z
loop_
_atom_site_type_symbol
_atom_site_label
_atom_site_fract_x
_atom_site_fract_y
_atom_site_fract_z
Si Si1 0.021923 0.315366 0.174980
Si Si2 0.500000 0.000000 0.065983
Si Si3 0.292236 0.394467 0.005479
Si Si4 0.226747 0.633902 0.431274
Si Si5 0.403679 0.401851 0.481584
Si Si6 0.327219 0.244450 0.165196
Si Si7 0.680305 0.055875 0.458797
Si Si8 0.179482 0.127599 0.233603
O O1 0.071992 0.308493 0.308825
O O2 0.003983 0.415105 0.151498
O O3 0.941239 0.254476 0.202858
O O4 0.064857 0.286616 0.042096
O O5 0.487447 0.087274 0.984270
O O6 0.210611 0.335525 0.967259
O O7 0.349518 0.384609 0.878568
O O8 0.330270 0.344926 0.126533
O O9 0.252856 0.489220 0.010911
O O10 0.327520 0.657417 0.431263
O O11 0.214112 0.613034 0.282849
O O12 0.501603 0.383433 0.443253
O O13 0.395094 0.391050 0.633965
O O14 0.359179 0.193474 0.041238
O O15 0.230939 0.215754 0.204409
#
# Coordination Sequence:
#
# PCOD9541879 Si02
#       8
#     8   4   8   8   8   8   8   8
#     4  11  23  41  64  96 140 176 217 285 336 404
#     4  12  22  40  66 106 144 176 228 282 342 408
#     4  10  23  41  63  91 132 173 225 269 339 410
#     4  11  23  41  63  94 132 170 221 281 336 396
#     4  11  23  39  64  96 125 167 221 274 334 397
#     4  11  24  41  65  95 130 175 228 272 341 405
#     4  11  25  41  66 100 134 184 227 276 341 411
#     4  10  21  40  63  91 129 172 221 276 331 400
#
# _framework density 23.538909
#
# number of rings (size 3 to 8) (size 9 to 14) (size 15 to 20)
#    0.000    1.200    5.333    0.400    1.867    2.133 
#    0.000    0.000    0.000    0.400    0.000    0.000 
#    0.000    0.000    0.000    0.000    0.000    0.000 
#
# Total GULP energy -167540.370533 kJ/mol
# GULP energy per Si atom -5584.679018 kJ/mol
# Density = 2.348533 g / cm^3
# Si number density = 23.538909 Si / 1000 Ang^3
#
#
#
# Elastic Constant Matrix: (Units=GPa)
#
#
# Indices 1 2 3 4 5 6 
#
# 1 81.5586 7.4571 17.3225 0.0000 0.0000 -2.9487
# 2 7.4571 81.5586 17.3225 0.0000 0.0000 2.9487
# 3 17.3225 17.3225 133.4965 0.0000 0.0000 0.0000
# 4 0.0000 0.0000 0.0000 29.2523 0.0000 0.0000
# 5 0.0000 0.0000 0.0000 0.0000 29.2523 0.0000
# 6 -2.9487 2.9487 0.0000 0.0000 0.0000 29.8718
#
#
#
# Elastic Compliance Matrix: (Units=1/GPa)
#
#
# Indices 1 2 3 4 5 6 
#
# 1 0.012717 -0.000885 -0.001535 0.000000 0.000000 0.001343
# 2 -0.000885 0.012717 -0.001535 0.000000 0.000000 -0.001343
# 3 -0.001535 -0.001535 0.007889 0.000000 0.000000 0.000000
# 4 0.000000 0.000000 0.000000 0.034185 0.000000 0.000000
# 5 0.000000 0.000000 0.000000 0.000000 0.034185 0.000000
# 6 0.001343 -0.001343 0.000000 0.000000 0.000000 0.033741
#
#
# Mechanical properties :
#
#
# Convention : Reuss Voigt Hill
#
# Bulk Modulus (GPa) = 39.35266 42.31310 40.83288
# Shear Modulus (GPa) = 32.93450 34.64273 33.78862
#
# Velocity S-wave (km/s) = 3.74458 3.84047 3.79283
# Velocity P-wave (km/s) = 5.95401 6.13844 6.04693
#
# Compressibility (1/GPa) = 0.02541124
#
# Stress axis : x y z
#
# Youngs Moduli (GPa) = 78.63688 78.63688 126.75458
#
# Poissons Ratio (x) = 0.06961 0.19460
# Poissons Ratio (y) = 0.06961 0.19460
# Poissons Ratio (z) = 0.12073 0.12073
#
# Static dielectric constant tensor:
#      x y z
#    x 1.922190 0.000000 0.000000 
#    y 0.000000 1.922190 0.000000 
#    z 0.000000 0.000000 1.934810 
# 
# From -- ./inp_files/753.got.cif
#   From: 2010.05.17/outbox.cif.g08.bks.cpg/sg79_cif.got.tgz:753.got - 2010.06.03 18:47:27.
