data_PCOD9541454
_publ_section_title
;
Structure prediction by ZEFSAII (Michael W. Deem and Ramdas Pophale) SiO2 
 PCOD9541454
Probable space group: P 41
;
_chemical_formula_sum "Si O2"
_cell_formula_units_Z 24
_cell_length_a 5.010147
_cell_length_b 5.010147
_cell_length_c 32.299045
_cell_angle_alpha 90.000000
_cell_angle_beta 90.000000
_cell_angle_gamma 90.000000
_cell_volume 810.756835
_symmetry_space_group_name_H-M "P 41"
_symmetry_group_IT_number 76
_symmetry_cell_setting 'tetragonal'
loop_
_space_group_symop_operation_xyz
x,y,z
-y,x,1/4+z
-x,-y,1/2+z
y,-x,3/4+z
loop_
_atom_site_type_symbol
_atom_site_label
_atom_site_fract_x
_atom_site_fract_y
_atom_site_fract_z
Si Si1 0.326157 0.563669 0.356950
Si Si2 0.063675 0.826157 0.624615
Si Si3 0.798773 0.588987 0.939398
Si Si4 0.911022 0.701219 0.542169
Si Si5 0.191729 0.733987 0.274979
Si Si6 0.691738 0.766004 0.456588
O O1 0.402159 0.659210 0.446193
O O2 0.285622 0.509957 0.308009
O O3 0.606240 0.706060 0.365115
O O4 0.106241 0.793935 0.366450
O O5 0.658745 0.252708 0.641298
O O6 0.841260 0.752705 0.590268
O O7 0.009967 0.785626 0.673557
O O8 0.090041 0.467257 0.947217
O O9 0.700013 0.783710 0.975722
O O10 0.159221 0.902149 0.535374
O O11 0.032751 0.409949 0.534350
O O12 0.716300 0.799982 0.505844
#
# Coordination Sequence:
#
# PCOD9541454 Si02
#       6
#     4   4   4   4   4   4
#     4   8  14  26  48  76 106 140 178 222 270 322
#     4   8  14  26  48  76 106 140 178 222 270 322
#     4   9  17  31  53  80 110 144 183 226 274 327
#     4   9  17  31  53  80 110 144 183 226 274 327
#     4   9  17  31  53  80 110 144 183 226 274 327
#     4   9  17  31  53  80 110 144 183 226 274 327
#
# _framework density 29.601973000000001
#
# number of rings (size 3 to 8) (size 9 to 14) (size 15 to 20)
#    0.000    3.333    0.000    0.000    0.000    0.000 
#    0.000    6.667    0.000   52.000    0.000    0.000 
#    0.000    0.000    0.000    0.000    0.000    0.000 
#
# Total GULP energy -134520.879063 kJ/mol
# GULP energy per Si atom -5605.036628 kJ/mol
# Density = 2.953460 g / cm^3
# Si number density = 29.601973 Si / 1000 Ang^3
#
#
#
# Elastic Constant Matrix: (Units=GPa)
#
#
# Indices 1 2 3 4 5 6 
#
# 1 109.0793 38.5584 42.7215 0.0000 0.0000 -0.0002
# 2 38.5584 109.0793 42.7215 0.0000 0.0000 0.0002
# 3 42.7215 42.7215 213.8742 0.0000 0.0000 0.0000
# 4 0.0000 0.0000 0.0000 50.1442 0.0000 0.0000
# 5 0.0000 0.0000 0.0000 0.0000 50.1442 0.0000
# 6 -0.0002 0.0002 0.0000 0.0000 0.0000 3.9942
#
#
#
# Elastic Compliance Matrix: (Units=1/GPa)
#
#
# Indices 1 2 3 4 5 6 
#
# 1 0.010919 -0.003261 -0.001530 0.000000 0.000000 0.000001
# 2 -0.003261 0.010919 -0.001530 0.000000 0.000000 -0.000001
# 3 -0.001530 -0.001530 0.005287 0.000000 0.000000 0.000000
# 4 0.000000 0.000000 0.000000 0.019943 0.000000 0.000000
# 5 0.000000 0.000000 0.000000 0.000000 0.019943 0.000000
# 6 0.000001 -0.000001 0.000000 0.000000 0.000000 0.250362
#
#
# Mechanical properties :
#
#
# Convention : Reuss Voigt Hill
#
# Bulk Modulus (GPa) = 69.03743 75.55952 72.29847
# Shear Modulus (GPa) = 14.93242 41.39194 28.16218
#
# Velocity S-wave (km/s) = 2.24841 3.74342 3.08776
# Velocity P-wave (km/s) = 5.48753 6.65318 6.09827
#
# Compressibility (1/GPa) = 0.01448490
#
# Stress axis : x y z
#
# Youngs Moduli (GPa) = 91.57978 91.57978 189.14975
#
# Poissons Ratio (x) = 0.29862 0.28937
# Poissons Ratio (y) = 0.29862 0.28937
# Poissons Ratio (z) = 0.14010 0.14010
#
# Static dielectric constant tensor:
#      x y z
#    x 2.185310 0.000000 0.000000 
#    y 0.000000 2.185310 0.000000 
#    z 0.000000 0.000000 2.577150 
# 
# From -- ./inp_files/1698.got.cif
#   From: 2010.05.17/outbox.cif.g08.bks.cpg/sg76_cif.got.tgz:1698.got - 2010.06.03 18:43:17.
