data_PCOD9541238
_publ_section_title
;
Structure prediction by ZEFSAII (Michael W. Deem and Ramdas Pophale) SiO2 
 PCOD9541238
Probable space group: P 41
;
_chemical_formula_sum "Si O2"
_cell_formula_units_Z 20
_cell_length_a 5.336304
_cell_length_b 5.336304
_cell_length_c 25.344565
_cell_angle_alpha 90.000000
_cell_angle_beta 90.000000
_cell_angle_gamma 90.000000
_cell_volume 721.715391
_symmetry_space_group_name_H-M "P 41"
_symmetry_group_IT_number 76
_symmetry_cell_setting 'tetragonal'
loop_
_space_group_symop_operation_xyz
x,y,z
-y,x,1/4+z
-x,-y,1/2+z
y,-x,3/4+z
loop_
_atom_site_type_symbol
_atom_site_label
_atom_site_fract_x
_atom_site_fract_y
_atom_site_fract_z
Si Si1 0.316309 0.433729 0.718270
Si Si2 0.036544 0.167951 0.303376
Si Si3 0.649192 0.957810 0.888853
Si Si4 0.936891 0.532072 0.485987
Si Si5 0.468390 0.422742 0.580240
O O1 0.435809 0.692792 0.700915
O O2 0.397150 0.437769 0.779929
O O3 0.451649 0.180887 0.700227
O O4 0.030402 0.399414 0.699363
O O5 0.275033 0.064819 0.268772
O O6 0.071169 0.067622 0.363427
O O7 0.786540 0.088467 0.272529
O O8 0.140107 0.455611 0.310444
O O9 0.515387 0.716877 0.864146
O O10 0.560079 0.216144 0.862315
#
# Coordination Sequence:
#
# PCOD9541238 Si02
#       5
#     4   4   4   4   4
#     4  11  23  44  70  98 134 180 221 275 338 401
#     4   9  23  42  63  96 126 174 211 272 325 387
#     4  10  22  40  70  98 135 171 230 266 341 395
#     4  11  24  40  71  88 135 169 222 263 338 378
#     4   9  20  44  64  98 130 176 212 284 320 397
#
# _framework density 27.711753000000002
#
# number of rings (size 3 to 8) (size 9 to 14) (size 15 to 20)
#    1.200    0.800    2.000    0.000    2.800    6.400 
#    0.000    0.000    0.000    0.000    0.000    0.000 
#    0.000    0.000    0.000    0.000    0.000    0.000 
#
# Total GULP energy -111493.738459 kJ/mol
# GULP energy per Si atom -5574.686923 kJ/mol
# Density = 2.764868 g / cm^3
# Si number density = 27.711753 Si / 1000 Ang^3
#
#
#
# Elastic Constant Matrix: (Units=GPa)
#
#
# Indices 1 2 3 4 5 6 
#
# 1 165.8428 13.1864 35.3319 0.0000 0.0000 -1.5405
# 2 13.1864 165.8428 35.3319 0.0000 0.0000 1.5405
# 3 35.3319 35.3319 90.4843 0.0000 0.0000 0.0000
# 4 0.0000 0.0000 0.0000 37.2525 0.0000 0.0000
# 5 0.0000 0.0000 0.0000 0.0000 37.2525 0.0000
# 6 -1.5405 1.5405 0.0000 0.0000 0.0000 31.1509
#
#
#
# Elastic Compliance Matrix: (Units=1/GPa)
#
#
# Indices 1 2 3 4 5 6 
#
# 1 0.006580 0.000023 -0.002578 0.000000 0.000000 0.000324
# 2 0.000023 0.006580 -0.002578 0.000000 0.000000 -0.000324
# 3 -0.002578 -0.002578 0.013065 0.000000 0.000000 0.000000
# 4 0.000000 0.000000 0.000000 0.026844 0.000000 0.000000
# 5 0.000000 0.000000 0.000000 0.000000 0.026844 0.000000
# 6 0.000324 -0.000324 0.000000 0.000000 0.000000 0.032134
#
#
# Mechanical properties :
#
#
# Convention : Reuss Voigt Hill
#
# Bulk Modulus (GPa) = 62.66352 65.54113 64.10233
# Shear Modulus (GPa) = 39.17435 43.68584 41.43009
#
# Velocity S-wave (km/s) = 3.76391 3.97474 3.87077
# Velocity P-wave (km/s) = 6.44602 6.69083 6.56956
#
# Compressibility (1/GPa) = 0.01595825
#
# Stress axis : x y z
#
# Youngs Moduli (GPa) = 151.96845 151.96845 76.53856
#
# Poissons Ratio (x) = -0.00351 0.19735
# Poissons Ratio (y) = -0.00351 0.19735
# Poissons Ratio (z) = 0.39185 0.39185
#
# Static dielectric constant tensor:
#      x y z
#    x 2.217870 0.000000 0.000000 
#    y 0.000000 2.217870 0.000000 
#    z 0.000000 0.000000 2.314920 
# 
# From -- ./inp_files/1691.got.cif
#   From: 2010.05.17/outbox.cif.g08.bks.cpg/sg76_cif.got.tgz:1691.got - 2010.06.03 18:43:17.
