data_PCOD9541524
_publ_section_title
;
Structure prediction by ZEFSAII (Michael W. Deem and Ramdas Pophale) SiO2 
 PCOD9541524
Probable space group: P 42
;
_chemical_formula_sum "Si O2"
_cell_formula_units_Z 20
_cell_length_a 7.546837
_cell_length_b 7.546837
_cell_length_c 13.999756
_cell_angle_alpha 90.000000
_cell_angle_beta 90.000000
_cell_angle_gamma 90.000000
_cell_volume 797.352585
_symmetry_space_group_name_H-M "P 42"
_symmetry_group_IT_number 77
_symmetry_cell_setting 'tetragonal'
loop_
_space_group_symop_operation_xyz
x,y,z
-y,x,1/2+z
-x,-y,z
y,-x,1/2+z
loop_
_atom_site_type_symbol
_atom_site_label
_atom_site_fract_x
_atom_site_fract_y
_atom_site_fract_z
Si Si1 0.589473 0.698702 0.365130
Si Si2 0.292788 0.469593 0.062640
Si Si3 0.291377 0.974366 0.796254
Si Si4 0.166572 0.091771 0.108219
Si Si5 0.313843 0.771866 0.216744
O O1 0.500000 0.500000 0.363831
O O2 0.537779 0.789754 0.464348
O O3 0.801411 0.716493 0.361972
O O4 0.504488 0.770234 0.266688
O O5 0.500000 0.500000 0.054303
O O6 0.259639 0.260099 0.062987
O O7 0.740539 0.405593 0.155757
O O8 0.186803 0.918957 0.700983
O O9 0.500000 0.000000 0.787554
O O10 0.216378 0.174208 0.805747
O O11 0.289896 0.933055 0.144027
O O12 0.000000 0.000000 0.054912
#
# Coordination Sequence:
#
# PCOD9541524 Si02
#       5
#     4   4   4   4   4
#     4  11  23  40  69 104 139 192 248 308 379 464
#     4  11  24  42  68 106 147 193 254 317 390 465
#     4  11  20  40  71  94 136 188 238 294 376 433
#     4  10  23  42  69 103 137 196 242 301 382 455
#     4  11  23  44  71  96 147 188 248 313 377 458
#
# _framework density 25.083008
#
# number of rings (size 3 to 8) (size 9 to 14) (size 15 to 20)
#    0.000    1.200    4.000    1.800    0.000    4.800 
#    0.000   11.000    0.000    2.400    0.000    0.000 
#    0.000    0.000    0.000    0.000    0.000    0.000 
#
# Total GULP energy -111543.774375 kJ/mol
# GULP energy per Si atom -5577.188719 kJ/mol
# Density = 2.502592 g / cm^3
# Si number density = 25.083008 Si / 1000 Ang^3
#
#
#
# Elastic Constant Matrix: (Units=GPa)
#
#
# Indices 1 2 3 4 5 6 
#
# 1 132.2498 55.3029 32.1349 0.0000 0.0000 -7.0017
# 2 55.3029 132.2498 32.1349 0.0000 0.0000 7.0017
# 3 32.1349 32.1349 81.0434 0.0000 0.0000 0.0000
# 4 0.0000 0.0000 0.0000 4.6383 0.0000 0.0000
# 5 0.0000 0.0000 0.0000 0.0000 4.6383 0.0000
# 6 -7.0017 7.0017 0.0000 0.0000 0.0000 41.6730
#
#
#
# Elastic Compliance Matrix: (Units=1/GPa)
#
#
# Indices 1 2 3 4 5 6 
#
# 1 0.009788 -0.003618 -0.002447 0.000000 0.000000 0.002252
# 2 -0.003618 0.009788 -0.002447 0.000000 0.000000 -0.002252
# 3 -0.002447 -0.002447 0.014279 0.000000 0.000000 0.000000
# 4 0.000000 0.000000 0.000000 0.215595 0.000000 0.000000
# 5 0.000000 0.000000 0.000000 0.000000 0.215595 0.000000
# 6 0.002252 -0.002252 0.000000 0.000000 0.000000 0.024753
#
#
# Mechanical properties :
#
#
# Convention : Reuss Voigt Hill
#
# Bulk Modulus (GPa) = 59.40576 64.96539 62.18557
# Shear Modulus (GPa) = 9.75739 25.25462 17.50601
#
# Velocity S-wave (km/s) = 1.97446 3.17652 2.64469
# Velocity P-wave (km/s) = 5.37895 6.27775 5.84565
#
# Compressibility (1/GPa) = 0.01683338
#
# Stress axis : x y z
#
# Youngs Moduli (GPa) = 102.16541 102.16541 70.03155
#
# Poissons Ratio (x) = 0.36962 0.17134
# Poissons Ratio (y) = 0.36962 0.17134
# Poissons Ratio (z) = 0.24996 0.24996
#
# Static dielectric constant tensor:
#      x y z
#    x 2.050570 0.000000 0.000000 
#    y 0.000000 2.050570 0.000000 
#    z 0.000000 0.000000 2.096130 
# 
# From -- ./inp_files/944.got.cif
#   From: 2010.05.17/outbox.cif.g08.bks.cpg/sg77_cif.got.tgz:944.got - 2010.06.03 18:44:51.
