data_PCOD9541053
_publ_section_title
;
Structure prediction by ZEFSAII (Michael W. Deem and Ramdas Pophale) SiO2 
 PCOD9541053
Probable space group: P 4
;
_chemical_formula_sum "Si O2"
_cell_formula_units_Z 16
_cell_length_a 9.339278
_cell_length_b 9.339278
_cell_length_c 7.192781
_cell_angle_alpha 90.000000
_cell_angle_beta 90.000000
_cell_angle_gamma 90.000000
_cell_volume 627.369561
_symmetry_space_group_name_H-M "P 4"
_symmetry_group_IT_number 75
_symmetry_cell_setting 'tetragonal'
loop_
_space_group_symop_operation_xyz
x,y,z
-y,x,z
-x,-y,z
y,-x,z
loop_
_atom_site_type_symbol
_atom_site_label
_atom_site_fract_x
_atom_site_fract_y
_atom_site_fract_z
Si Si1 0.897247 0.671464 0.087940
Si Si2 0.616758 0.826063 0.217028
Si Si3 0.229928 0.035485 0.707693
Si Si4 0.724784 0.439267 0.615247
O O1 0.756064 0.753479 0.138929
O O2 0.844861 0.508014 0.064634
O O3 0.009472 0.661424 0.259290
O O4 0.982881 0.746030 0.921890
O O5 0.558578 0.739534 0.391233
O O6 0.376975 0.120359 0.669060
O O7 0.112751 0.155123 0.642693
O O8 0.670448 0.596998 0.673176
#
# Coordination Sequence:
#
# PCOD9541053 Si02
#       4
#     4   4   4   4
#     4  11  24  46  74 112 151 202 263 323 388 474
#     4  11  24  44  78 112 149 202 260 332 391 466
#     4  11  26  49  72 110 155 207 258 315 394 481
#     4  11  26  49  77 115 157 201 264 331 403 475
#
# _framework density 25.503308000000001
#
# number of rings (size 3 to 8) (size 9 to 14) (size 15 to 20)
#    0.000    1.000    5.000    0.000    3.500    6.000 
#    0.000    0.000    0.000    0.000    0.000    0.000 
#    0.000    0.000    0.000    0.000    0.000    0.000 
#
# Total GULP energy -89230.456898 kJ/mol
# GULP energy per Si atom -5576.903556 kJ/mol
# Density = 2.544526 g / cm^3
# Si number density = 25.503308 Si / 1000 Ang^3
#
#
#
# Elastic Constant Matrix: (Units=GPa)
#
#
# Indices 1 2 3 4 5 6 
#
# 1 159.7142 48.9136 5.4215 0.0000 0.0000 8.3613
# 2 48.9136 159.7142 5.4215 0.0000 0.0000 -8.3613
# 3 5.4215 5.4215 34.1944 0.0000 0.0000 0.0000
# 4 0.0000 0.0000 0.0000 29.0402 0.0000 0.0000
# 5 0.0000 0.0000 0.0000 0.0000 29.0402 0.0000
# 6 8.3613 -8.3613 0.0000 0.0000 0.0000 77.5599
#
#
#
# Elastic Compliance Matrix: (Units=1/GPa)
#
#
# Indices 1 2 3 4 5 6 
#
# 1 0.007004 -0.002171 -0.000766 0.000000 0.000000 -0.000989
# 2 -0.002171 0.007004 -0.000766 0.000000 0.000000 0.000989
# 3 -0.000766 -0.000766 0.029488 0.000000 0.000000 0.000000
# 4 0.000000 0.000000 0.000000 0.034435 0.000000 0.000000
# 5 0.000000 0.000000 0.000000 0.000000 0.034435 0.000000
# 6 -0.000989 0.000989 0.000000 0.000000 0.000000 0.013107
#
#
# Mechanical properties :
#
#
# Convention : Reuss Voigt Hill
#
# Bulk Modulus (GPa) = 27.70959 52.57064 40.14012
# Shear Modulus (GPa) = 34.50472 46.71915 40.61194
#
# Velocity S-wave (km/s) = 3.68224 4.28470 3.99484
# Velocity P-wave (km/s) = 5.38212 6.71835 6.08701
#
# Compressibility (1/GPa) = 0.03608859
#
# Stress axis : x y z
#
# Youngs Moduli (GPa) = 142.78023 142.78023 33.91259
#
# Poissons Ratio (x) = 0.30994 0.02599
# Poissons Ratio (y) = 0.30994 0.02599
# Poissons Ratio (z) = 0.10941 0.10941
#
# Static dielectric constant tensor:
#      x y z
#    x 2.048490 0.000000 0.000000 
#    y 0.000000 2.048490 0.000000 
#    z 0.000000 0.000000 2.058490 
# 
# From -- ./inp_files/268.got.cif
#   From: 2010.05.17/outbox.cif.g08.bks.cpg/sg75_cif.got.tgz:268.got - 2010.06.03 18:42:43.
