data_PCOD9541923
_publ_section_title
;
Structure prediction by ZEFSAII (Michael W. Deem and Ramdas Pophale) SiO2 
 PCOD9541923
Probable space group: I 4
;
_chemical_formula_sum "Si O2"
_cell_formula_units_Z 32
_cell_length_a 9.830811
_cell_length_b 9.830811
_cell_length_c 12.463806
_cell_angle_alpha 90.000000
_cell_angle_beta 90.000000
_cell_angle_gamma 90.000000
_cell_volume 1204.562598
_symmetry_space_group_name_H-M "I 4"
_symmetry_group_IT_number 79
_symmetry_cell_setting 'tetragonal'
loop_
_space_group_symop_operation_xyz
x,y,z
-y,x,z
-x,-y,z
y,-x,z
1/2+x,1/2+y,1/2+z
1/2-y,1/2+x,1/2+z
1/2-x,1/2-y,1/2+z
1/2+y,1/2-x,1/2+z
loop_
_atom_site_type_symbol
_atom_site_label
_atom_site_fract_x
_atom_site_fract_y
_atom_site_fract_z
Si Si1 0.678913 0.242896 0.360000
Si Si2 0.657362 0.957023 0.289288
Si Si3 0.163304 0.509930 0.549371
Si Si4 0.394442 0.694207 0.119962
O O1 0.323334 0.179706 0.354630
O O2 0.573034 0.244053 0.458117
O O3 0.675159 0.171294 0.073459
O O4 0.726186 0.086353 0.343601
O O5 0.500000 0.000000 0.284778
O O6 0.698602 0.943310 0.165266
O O7 0.287966 0.393010 0.249030
O O8 0.000000 0.500000 0.528520
O O9 0.321656 0.553244 0.089804
#
# Coordination Sequence:
#
# PCOD9541923 Si02
#       4
#     8   8   8   8
#     4  11  22  45  78 111 162 213 279 340 427 499
#     4  10  23  47  73 115 164 212 265 357 424 497
#     4  10  22  44  74 112 155 216 268 344 425 484
#     4  10  22  46  78 113 165 217 276 342 412 514
#
# _framework density 26.565659
#
# number of rings (size 3 to 8) (size 9 to 14) (size 15 to 20)
#    0.000    1.750    0.000    5.250    0.000    1.500 
#   45.000    0.000    0.000    0.000    0.000    0.000 
#    0.000    0.000    0.000    0.000    0.000    0.000 
#
# Total GULP energy -89677.660128 kJ/mol
# GULP energy per Si atom -5604.853758 kJ/mol
# Density = 2.650519 g / cm^3
# Si number density = 26.565659 Si / 1000 Ang^3
#
#
#
# Elastic Constant Matrix: (Units=GPa)
#
#
# Indices 1 2 3 4 5 6 
#
# 1 171.9531 64.6457 56.5548 0.0000 0.0000 3.4984
# 2 64.6457 171.9531 56.5548 0.0000 0.0000 -3.4984
# 3 56.5548 56.5548 236.9465 0.0000 0.0000 0.0000
# 4 0.0000 0.0000 0.0000 36.5778 0.0000 0.0000
# 5 0.0000 0.0000 0.0000 0.0000 36.5778 0.0000
# 6 3.4984 -3.4984 0.0000 0.0000 0.0000 42.6364
#
#
#
# Elastic Compliance Matrix: (Units=1/GPa)
#
#
# Indices 1 2 3 4 5 6 
#
# 1 0.007070 -0.002299 -0.001139 0.000000 0.000000 -0.000769
# 2 -0.002299 0.007070 -0.001139 0.000000 0.000000 0.000769
# 3 -0.001139 -0.001139 0.004764 0.000000 0.000000 0.000000
# 4 0.000000 0.000000 0.000000 0.027339 0.000000 0.000000
# 5 0.000000 0.000000 0.000000 0.000000 0.027339 0.000000
# 6 -0.000769 0.000769 0.000000 0.000000 0.000000 0.023580
#
#
# Mechanical properties :
#
#
# Convention : Reuss Voigt Hill
#
# Bulk Modulus (GPa) = 102.55461 104.04041 103.29751
# Shear Modulus (GPa) = 45.63467 50.03155 47.83311
#
# Velocity S-wave (km/s) = 4.14914 4.34443 4.24791
# Velocity P-wave (km/s) = 7.85123 8.02583 7.93901
#
# Compressibility (1/GPa) = 0.00975090
#
# Stress axis : x y z
#
# Youngs Moduli (GPa) = 141.44170 141.44170 209.90963
#
# Poissons Ratio (x) = 0.32519 0.23903
# Poissons Ratio (y) = 0.32519 0.23903
# Poissons Ratio (z) = 0.16107 0.16107
#
# Static dielectric constant tensor:
#      x y z
#    x 2.159560 0.000000 0.000000 
#    y 0.000000 2.159560 0.000000 
#    z 0.000000 0.000000 2.175810 
# 
# From -- ./inp_files/1494.got.cif
#   From: 2010.05.17/outbox.cif.g08.bks.cpg/sg79_cif.got.tgz:1494.got - 2010.06.03 18:47:27.
