data_PCOD9541848
_publ_section_title
;
Structure prediction by ZEFSAII (Michael W. Deem and Ramdas Pophale) SiO2 
 PCOD9541848
Probable space group: I 4
;
_chemical_formula_sum "Si O2"
_cell_formula_units_Z 50
_cell_length_a 11.954184
_cell_length_b 11.954184
_cell_length_c 17.997636
_cell_angle_alpha 90.000000
_cell_angle_beta 90.000000
_cell_angle_gamma 90.000000
_cell_volume 2571.907450
_symmetry_space_group_name_H-M "I 4"
_symmetry_group_IT_number 79
_symmetry_cell_setting 'tetragonal'
loop_
_space_group_symop_operation_xyz
x,y,z
-y,x,z
-x,-y,z
y,-x,z
1/2+x,1/2+y,1/2+z
1/2-y,1/2+x,1/2+z
1/2-x,1/2-y,1/2+z
1/2+y,1/2-x,1/2+z
loop_
_atom_site_type_symbol
_atom_site_label
_atom_site_fract_x
_atom_site_fract_y
_atom_site_fract_z
Si Si1 0.653154 0.205036 0.875000
Si Si2 0.677749 0.443733 0.456609
Si Si3 0.882893 0.732378 0.118578
Si Si4 0.000000 0.000000 0.498358
Si Si5 0.513743 0.867775 0.093025
Si Si6 0.116783 0.700515 0.199790
Si Si7 0.420345 0.254922 0.955074
O O1 0.720188 0.097705 0.905395
O O2 0.638032 0.207947 0.786902
O O3 0.528834 0.214796 0.909272
O O4 0.723837 0.312142 0.904629
O O5 0.635803 0.569773 0.443765
O O6 0.715480 0.428369 0.542071
O O7 0.825352 0.613548 0.097376
O O8 0.796538 0.814502 0.157815
O O9 0.987254 0.712206 0.174364
O O10 0.051850 0.126236 0.491561
O O11 0.581228 0.843843 0.167772
O O12 0.500000 0.000000 0.084372
O O13 0.588904 0.827639 0.024488
#
# Coordination Sequence:
#
# PCOD9541848 Si02
#       7
#     8   8   8   2   8   8   8
#     4  11  23  39  62  95 129 163 206 264 325 372
#     4  11  23  41  66  94 125 168 221 264 313 382
#     4  11  21  41  65  91 126 168 215 258 314 380
#     4   8  20  32  56  88 112 144 196 250 292 352
#     4  10  23  39  61  89 122 163 209 254 303 378
#     4  11  24  39  62  94 130 164 204 265 322 376
#     4  10  20  38  61  89 121 160 207 253 305 373
#
# _framework density 19.440826000000001
#
# number of rings (size 3 to 8) (size 9 to 14) (size 15 to 20)
#    0.000    1.440    3.200    1.920    4.480    1.600 
#    0.000    5.600    0.000    0.000    0.000    0.000 
#    0.000    0.000    0.000    0.000    0.000    0.000 
#
# Total GULP energy -139359.694781 kJ/mol
# GULP energy per Si atom -5574.387791 kJ/mol
# Density = 1.939658 g / cm^3
# Si number density = 19.440826 Si / 1000 Ang^3
#
#
#
# Elastic Constant Matrix: (Units=GPa)
#
#
# Indices 1 2 3 4 5 6 
#
# 1 56.9603 8.5818 23.8074 0.0000 0.0000 4.7604
# 2 8.5818 56.9603 23.8074 0.0000 0.0000 -4.7604
# 3 23.8074 23.8074 106.8797 0.0000 0.0000 0.0000
# 4 0.0000 0.0000 0.0000 25.0007 0.0000 0.0000
# 5 0.0000 0.0000 0.0000 0.0000 25.0007 0.0000
# 6 4.7604 -4.7604 0.0000 0.0000 0.0000 31.8491
#
#
#
# Elastic Compliance Matrix: (Units=1/GPa)
#
#
# Indices 1 2 3 4 5 6 
#
# 1 0.019750 -0.001547 -0.004055 0.000000 0.000000 -0.003183
# 2 -0.001547 0.019750 -0.004055 0.000000 0.000000 0.003183
# 3 -0.004055 -0.004055 0.011163 0.000000 0.000000 0.000000
# 4 0.000000 0.000000 0.000000 0.039999 0.000000 0.000000
# 5 0.000000 0.000000 0.000000 0.000000 0.039999 0.000000
# 6 -0.003183 0.003183 0.000000 0.000000 0.000000 0.032350
#
#
# Mechanical properties :
#
#
# Convention : Reuss Voigt Hill
#
# Bulk Modulus (GPa) = 31.89805 37.02148 34.45977
# Shear Modulus (GPa) = 25.93734 27.34370 26.64052
#
# Velocity S-wave (km/s) = 3.65659 3.75441 3.70583
# Velocity P-wave (km/s) = 5.85414 6.15457 6.00623
#
# Compressibility (1/GPa) = 0.03134988
#
# Stress axis : x y z
#
# Youngs Moduli (GPa) = 50.63322 50.63322 89.58420
#
# Poissons Ratio (x) = 0.07832 0.36324
# Poissons Ratio (y) = 0.07832 0.36324
# Poissons Ratio (z) = 0.20530 0.20530
#
# Static dielectric constant tensor:
#      x y z
#    x 1.746440 0.000000 0.000000 
#    y 0.000000 1.746440 0.000000 
#    z 0.000000 0.000000 1.648680 
# 
# From -- ./inp_files/1781.got.cif
#   From: 2010.05.17/outbox.cif.g08.bks.cpg/sg79_cif.got.tgz:1781.got - 2010.06.03 18:47:27.
