data_PCOD9541459
_publ_section_title
;
Structure prediction by ZEFSAII (Michael W. Deem and Ramdas Pophale) SiO2 
 PCOD9541459
Probable space group: P 42
;
_chemical_formula_sum "Si O2"
_cell_formula_units_Z 24
_cell_length_a 7.649321
_cell_length_b 7.649321
_cell_length_c 18.854578
_cell_angle_alpha 90.000000
_cell_angle_beta 90.000000
_cell_angle_gamma 90.000000
_cell_volume 1103.221175
_symmetry_space_group_name_H-M "P 42"
_symmetry_group_IT_number 77
_symmetry_cell_setting 'tetragonal'
loop_
_space_group_symop_operation_xyz
x,y,z
-y,x,1/2+z
-x,-y,z
y,-x,1/2+z
loop_
_atom_site_type_symbol
_atom_site_label
_atom_site_fract_x
_atom_site_fract_y
_atom_site_fract_z
Si Si1 0.294787 0.438977 0.885650
Si Si2 0.715575 0.771847 0.271019
Si Si3 0.302586 0.065421 0.819683
Si Si4 0.835941 0.408987 0.634036
Si Si5 0.457382 0.710164 0.543984
Si Si6 0.607753 0.739334 0.686882
O O1 0.500000 0.500000 0.884247
O O2 0.213461 0.552030 0.822826
O O3 0.272076 0.234946 0.867391
O O4 0.226174 0.476608 0.964466
O O5 0.699923 0.893654 0.202716
O O6 0.721486 0.575139 0.233136
O O7 0.886032 0.803734 0.318624
O O8 0.291536 0.131371 0.738141
O O9 0.500000 0.000000 0.835941
O O10 0.735896 0.294492 0.576774
O O11 0.711269 0.560094 0.669336
O O12 0.000000 0.500000 0.599350
O O13 0.500000 0.500000 0.542188
O O14 0.566191 0.799753 0.606992
#
# Coordination Sequence:
#
# PCOD9541459 Si02
#       6
#     4   4   4   4   4   4
#     4  11  16  29  47  79 118 137 177 234 280 328
#     4  10  18  32  54  78 106 141 181 229 281 329
#     4  10  18  26  52  80 105 140 178 232 277 324
#     4  10  18  32  51  71 105 142 183 225 271 334
#     4   8  18  28  47  72 108 145 165 216 280 323
#     4   9  16  33  48  70 102 139 174 219 269 318
#
# _framework density 21.754474999999999
#
# number of rings (size 3 to 8) (size 9 to 14) (size 15 to 20)
#    0.000    2.333    5.000    1.500    0.000    0.667 
#    3.000    0.833    0.000    5.000    0.000    0.000 
#   20.000    0.000    0.000    0.000    0.000    0.000 
#
# Total GULP energy -133625.112999 kJ/mol
# GULP energy per Si atom -5567.713042 kJ/mol
# Density = 2.170496 g / cm^3
# Si number density = 21.754475 Si / 1000 Ang^3
#
#
#
# Elastic Constant Matrix: (Units=GPa)
#
#
# Indices 1 2 3 4 5 6 
#
# 1 48.0795 -7.2915 -1.1811 0.0000 0.0000 3.7540
# 2 -7.2915 48.0795 -1.1811 0.0000 0.0000 -3.7540
# 3 -1.1811 -1.1811 142.0180 0.0000 0.0000 0.0000
# 4 0.0000 0.0000 0.0000 2.7402 0.0000 0.0000
# 5 0.0000 0.0000 0.0000 0.0000 2.7402 0.0000
# 6 3.7540 -3.7540 0.0000 0.0000 0.0000 8.3761
#
#
#
# Elastic Compliance Matrix: (Units=1/GPa)
#
#
# Indices 1 2 3 4 5 6 
#
# 1 0.021879 0.002650 0.000204 0.000000 0.000000 -0.008618
# 2 0.002650 0.021879 0.000204 0.000000 0.000000 0.008618
# 3 0.000204 0.000204 0.007045 0.000000 0.000000 0.000000
# 4 0.000000 0.000000 0.000000 0.364942 0.000000 0.000000
# 5 0.000000 0.000000 0.000000 0.000000 0.364942 0.000000
# 6 -0.008618 0.008618 0.000000 0.000000 0.000000 0.127112
#
#
# Mechanical properties :
#
#
# Convention : Reuss Voigt Hill
#
# Bulk Modulus (GPa) = 17.56905 24.31887 20.94396
# Shear Modulus (GPa) = 5.43092 19.29332 12.36212
#
# Velocity S-wave (km/s) = 1.58173 2.98126 2.38640
# Velocity P-wave (km/s) = 3.38074 4.80142 4.15229
#
# Compressibility (1/GPa) = 0.05691828
#
# Stress axis : x y z
#
# Youngs Moduli (GPa) = 45.70664 45.70664 141.94956
#
# Poissons Ratio (x) = -0.12113 -0.02896
# Poissons Ratio (y) = -0.12113 -0.02896
# Poissons Ratio (z) = -0.00932 -0.00932
#
# Static dielectric constant tensor:
#      x y z
#    x 1.916830 0.000000 0.000000 
#    y 0.000000 1.916830 0.000000 
#    z 0.000000 0.000000 1.769970 
# 
# From -- ./inp_files/1314.got.cif
#   From: 2010.05.17/outbox.cif.g08.bks.cpg/sg77_cif.got.tgz:1314.got - 2010.06.03 18:44:51.
