data_PCOD9541495
_publ_section_title
;
Structure prediction by ZEFSAII (Michael W. Deem and Ramdas Pophale) SiO2 
 PCOD9541495
Probable space group: P 42
;
_chemical_formula_sum "Si O2"
_cell_formula_units_Z 20
_cell_length_a 7.955641
_cell_length_b 7.955641
_cell_length_c 12.906210
_cell_angle_alpha 90.000000
_cell_angle_beta 90.000000
_cell_angle_gamma 90.000000
_cell_volume 816.862731
_symmetry_space_group_name_H-M "P 42"
_symmetry_group_IT_number 77
_symmetry_cell_setting 'tetragonal'
loop_
_space_group_symop_operation_xyz
x,y,z
-y,x,1/2+z
-x,-y,z
y,-x,1/2+z
loop_
_atom_site_type_symbol
_atom_site_label
_atom_site_fract_x
_atom_site_fract_y
_atom_site_fract_z
Si Si1 0.516905 0.310310 0.146960
Si Si2 0.995906 0.294552 0.028382
Si Si3 0.165547 0.208882 0.231493
Si Si4 0.635190 0.153215 0.950586
Si Si5 0.680145 0.100392 0.318566
O O1 0.500000 0.500000 0.176469
O O2 0.340871 0.224324 0.170166
O O3 0.648419 0.233035 0.228836
O O4 0.557212 0.293712 0.026105
O O5 0.000000 0.500000 0.038587
O O6 0.031505 0.233631 0.143059
O O7 0.831097 0.189289 0.989318
O O8 0.137007 0.269340 0.937377
O O9 0.163402 0.340264 0.326889
O O10 0.179927 0.026069 0.279480
O O11 0.500000 0.000000 0.969700
O O12 0.500000 0.000000 0.327430
#
# Coordination Sequence:
#
# PCOD9541495 Si02
#       5
#     4   4   4   4   4
#     4  11  23  41  68  98 138 192 247 312 391 474
#     4  10  20  40  69 105 145 190 247 313 389 473
#     4  10  21  40  69 101 139 189 247 312 385 468
#     4  11  24  43  70 108 151 195 253 326 401 477
#     4   8  18  38  62  94 137 180 233 303 380 458
#
# _framework density 24.483916000000001
#
# number of rings (size 3 to 8) (size 9 to 14) (size 15 to 20)
#    0.000    2.000    0.000    4.800    0.000    2.400 
#    0.000    6.000    0.000   14.400    0.000    0.000 
#    0.000    0.000    0.000    0.000    0.000    0.000 
#
# Total GULP energy -111351.382658 kJ/mol
# GULP energy per Si atom -5567.569133 kJ/mol
# Density = 2.442819 g / cm^3
# Si number density = 24.483916 Si / 1000 Ang^3
#
#
#
# Elastic Constant Matrix: (Units=GPa)
#
#
# Indices 1 2 3 4 5 6 
#
# 1 95.5590 29.3013 59.0045 0.0000 0.0000 6.3207
# 2 29.3013 95.5590 59.0045 0.0000 0.0000 -6.3207
# 3 59.0045 59.0045 198.8248 0.0000 0.0000 0.0000
# 4 0.0000 0.0000 0.0000 27.9431 0.0000 0.0000
# 5 0.0000 0.0000 0.0000 0.0000 27.9431 0.0000
# 6 6.3207 -6.3207 0.0000 0.0000 0.0000 14.4606
#
#
#
# Elastic Compliance Matrix: (Units=1/GPa)
#
#
# Indices 1 2 3 4 5 6 
#
# 1 0.013798 -0.002667 -0.003303 0.000000 0.000000 -0.007197
# 2 -0.002667 0.013798 -0.003303 0.000000 0.000000 0.007197
# 3 -0.003303 -0.003303 0.006990 0.000000 0.000000 0.000000
# 4 0.000000 0.000000 0.000000 0.035787 0.000000 0.000000
# 5 0.000000 0.000000 0.000000 0.000000 0.035787 0.000000
# 6 -0.007197 0.007197 0.000000 0.000000 0.000000 0.075445
#
#
# Mechanical properties :
#
#
# Convention : Reuss Voigt Hill
#
# Bulk Modulus (GPa) = 62.34822 76.06260 69.20541
# Shear Modulus (GPa) = 24.33087 30.24485 27.28786
#
# Velocity S-wave (km/s) = 3.15580 3.51849 3.34207
# Velocity P-wave (km/s) = 6.22888 6.90218 6.57416
#
# Compressibility (1/GPa) = 0.01603895
#
# Stress axis : x y z
#
# Youngs Moduli (GPa) = 72.47235 72.47235 143.05788
#
# Poissons Ratio (x) = 0.19331 0.47256
# Poissons Ratio (y) = 0.19331 0.47256
# Poissons Ratio (z) = 0.23940 0.23940
#
# Static dielectric constant tensor:
#      x y z
#    x 1.987340 0.000000 0.000000 
#    y 0.000000 1.987340 0.000000 
#    z 0.000000 0.000000 1.943790 
# 
# From -- ./inp_files/775.got.cif
#   From: 2010.05.17/outbox.cif.g08.bks.cpg/sg77_cif.got.tgz:775.got - 2010.06.03 18:44:51.
