data_PCOD9541291
_publ_section_title
;
Structure prediction by ZEFSAII (Michael W. Deem and Ramdas Pophale) SiO2 
 PCOD9541291
Probable space group: P 41
;
_chemical_formula_sum "Si O2"
_cell_formula_units_Z 32
_cell_length_a 9.454079
_cell_length_b 9.454079
_cell_length_c 18.029169
_cell_angle_alpha 90.000000
_cell_angle_beta 90.000000
_cell_angle_gamma 90.000000
_cell_volume 1611.440089
_symmetry_space_group_name_H-M "P 41"
_symmetry_group_IT_number 76
_symmetry_cell_setting 'tetragonal'
loop_
_space_group_symop_operation_xyz
x,y,z
-y,x,1/4+z
-x,-y,1/2+z
y,-x,3/4+z
loop_
_atom_site_type_symbol
_atom_site_label
_atom_site_fract_x
_atom_site_fract_y
_atom_site_fract_z
Si Si1 0.683723 0.410731 0.519470
Si Si2 0.957865 0.258880 0.319189
Si Si3 0.727325 0.707202 0.456104
Si Si4 0.211577 0.778813 0.300049
Si Si5 0.197771 0.089656 0.236269
Si Si6 0.269945 0.411993 0.687118
Si Si7 0.405201 0.931770 0.579216
Si Si8 0.401573 0.397210 0.437723
O O1 0.690304 0.578356 0.510585
O O2 0.836378 0.348457 0.500897
O O3 0.563061 0.361275 0.461610
O O4 0.633461 0.375819 0.601802
O O5 0.835532 0.233187 0.258964
O O6 0.925931 0.183279 0.397557
O O7 0.968079 0.427558 0.335155
O O8 0.094573 0.197375 0.278519
O O9 0.578263 0.739706 0.415046
O O10 0.846589 0.654906 0.399754
O O11 0.308253 0.781651 0.373131
O O12 0.303423 0.700881 0.237195
O O13 0.071236 0.687456 0.315293
O O14 0.180181 0.936470 0.272469
O O15 0.174811 0.393718 0.759671
O O16 0.435697 0.381506 0.701620
#
# Coordination Sequence:
#
# PCOD9541291 Si02
#       8
#     4   4   4   4   4   4   4   4
#     4  11  22  41  74 100 134 172 231 282 342 403
#     4  11  26  48  68 100 139 184 227 282 341 415
#     4  10  23  46  72 100 134 177 226 284 344 409
#     4  12  27  42  70 101 139 183 222 285 341 408
#     4  12  27  45  68  98 144 183 228 276 341 416
#     4  10  24  43  71 103 137 174 229 287 343 406
#     4  11  25  47  70 103 140 178 232 283 349 417
#     4  11  22  42  71 105 131 175 229 291 341 400
#
# _framework density 19.858015999999999
#
# number of rings (size 3 to 8) (size 9 to 14) (size 15 to 20)
#    0.000    1.000    2.500    3.000   14.000    0.000 
#    2.250    0.000    0.000    0.000    0.000    0.000 
#    0.000    0.000    0.000    0.000    0.000    0.000 
#
# Total GULP energy -178882.547515 kJ/mol
# GULP energy per Si atom -5590.079610 kJ/mol
# Density = 1.981282 g / cm^3
# Si number density = 19.858016 Si / 1000 Ang^3
#
#
#
# Elastic Constant Matrix: (Units=GPa)
#
#
# Indices 1 2 3 4 5 6 
#
# 1 88.4098 47.1535 57.9763 0.0000 0.0000 -13.2440
# 2 47.1535 88.4098 57.9763 0.0000 0.0000 13.2440
# 3 57.9763 57.9763 118.6736 0.0000 0.0000 0.0000
# 4 0.0000 0.0000 0.0000 18.2129 0.0000 0.0000
# 5 0.0000 0.0000 0.0000 0.0000 18.2129 0.0000
# 6 -13.2440 13.2440 0.0000 0.0000 0.0000 14.1398
#
#
#
# Elastic Compliance Matrix: (Units=1/GPa)
#
#
# Indices 1 2 3 4 5 6 
#
# 1 0.036737 -0.024066 -0.006191 0.000000 0.000000 0.056951
# 2 -0.024066 0.036737 -0.006191 0.000000 0.000000 -0.056951
# 3 -0.006191 -0.006191 0.014475 0.000000 0.000000 0.000000
# 4 0.000000 0.000000 0.000000 0.054906 0.000000 0.000000
# 5 0.000000 0.000000 0.000000 0.000000 0.054906 0.000000
# 6 0.056951 -0.056951 0.000000 0.000000 0.000000 0.177407
#
#
# Mechanical properties :
#
#
# Convention : Reuss Voigt Hill
#
# Bulk Modulus (GPa) = 66.41795 69.07839 67.74817
# Shear Modulus (GPa) = 11.03555 18.93892 14.98724
#
# Velocity S-wave (km/s) = 2.35993 3.09158 2.75020
# Velocity P-wave (km/s) = 6.39881 6.89967 6.65396
#
# Compressibility (1/GPa) = 0.01505617
#
# Stress axis : x y z
#
# Youngs Moduli (GPa) = 27.22033 27.22033 69.08419
#
# Poissons Ratio (x) = 0.65507 0.42767
# Poissons Ratio (y) = 0.65507 0.42767
# Poissons Ratio (z) = 0.16851 0.16851
#
# Static dielectric constant tensor:
#      x y z
#    x 1.694340 0.000000 0.000000 
#    y 0.000000 1.694340 0.000000 
#    z 0.000000 0.000000 1.671780 
# 
# From -- ./inp_files/1315.got.cif
#   From: 2010.05.17/outbox.cif.g08.bks.cpg/sg76_cif.got.tgz:1315.got - 2010.06.03 18:43:17.
