data_PCOD9541647
_publ_section_title
;
Structure prediction by ZEFSAII (Michael W. Deem and Ramdas Pophale) SiO2 
 PCOD9541647
Probable space group: P 43
;
_chemical_formula_sum "Si O2"
_cell_formula_units_Z 32
_cell_length_a 9.263528
_cell_length_b 9.263528
_cell_length_c 20.804921
_cell_angle_alpha 90.000000
_cell_angle_beta 90.000000
_cell_angle_gamma 90.000000
_cell_volume 1785.331666
_symmetry_space_group_name_H-M "P 43"
_symmetry_group_IT_number 78
_symmetry_cell_setting 'tetragonal'
loop_
_space_group_symop_operation_xyz
x,y,z
-y,x,3/4+z
-x,-y,1/2+z
y,-x,1/4+z
loop_
_atom_site_type_symbol
_atom_site_label
_atom_site_fract_x
_atom_site_fract_y
_atom_site_fract_z
Si Si1 0.651867 0.045664 0.274420
Si Si2 0.128902 0.644984 0.460117
Si Si3 0.174482 0.197129 0.960010
Si Si4 0.063972 0.807678 0.797701
Si Si5 0.977017 0.091908 0.438024
Si Si6 0.189602 0.553670 0.127332
Si Si7 0.354733 0.296469 0.076726
Si Si8 0.619490 0.165470 0.005742
O O1 0.513206 0.110314 0.239789
O O2 0.762929 0.167997 0.301102
O O3 0.753492 0.958069 0.223398
O O4 0.597390 0.938531 0.329566
O O5 0.211399 0.637568 0.392987
O O6 0.231700 0.745620 0.503332
O O7 0.973248 0.717258 0.450505
O O8 0.300270 0.243998 0.911133
O O9 0.231570 0.228895 0.031229
O O10 0.145751 0.027085 0.949220
O O11 0.031799 0.887831 0.729560
O O12 0.003826 0.884879 0.862026
O O13 0.985326 0.654677 0.791183
O O14 0.310708 0.461247 0.090409
O O15 0.137895 0.447993 0.185202
O O16 0.503923 0.265774 0.041095
#
# Coordination Sequence:
#
# PCOD9541647 Si02
#       8
#     4   4   4   4   4   4   4   4
#     4  10  21  37  60  88 129 150 210 262 328 362
#     4  11  21  37  62  89 114 168 208 259 311 378
#     4  11  20  36  64  91 115 160 213 259 313 373
#     4  10  21  37  62  93 127 154 209 279 320 370
#     4  10  21  34  61  92 124 152 203 272 322 366
#     4  10  21  40  60  88 126 165 204 258 312 396
#     4  10  23  38  59  86 126 162 207 251 312 394
#     4  10  22  39  62  87 123 161 214 250 318 383
#
# _framework density 17.923840999999999
#
# number of rings (size 3 to 8) (size 9 to 14) (size 15 to 20)
#    0.750    1.000    3.750    0.750    3.500    1.000 
#    0.000    2.500    0.000    0.000    0.000    0.000 
#    0.000    0.000    0.000    0.000    0.000    0.000 
#
# Total GULP energy -178135.380966 kJ/mol
# GULP energy per Si atom -5566.730655 kJ/mol
# Density = 1.788305 g / cm^3
# Si number density = 17.923841 Si / 1000 Ang^3
#
#
#
# Elastic Constant Matrix: (Units=GPa)
#
#
# Indices 1 2 3 4 5 6 
#
# 1 98.4807 53.8669 20.0724 0.0000 0.0000 6.5102
# 2 53.8669 98.4807 20.0724 0.0000 0.0000 -6.5102
# 3 20.0724 20.0724 42.7715 0.0000 0.0000 0.0000
# 4 0.0000 0.0000 0.0000 12.9345 0.0000 0.0000
# 5 0.0000 0.0000 0.0000 0.0000 12.9345 0.0000
# 6 6.5102 -6.5102 0.0000 0.0000 0.0000 21.3971
#
#
#
# Elastic Compliance Matrix: (Units=1/GPa)
#
#
# Indices 1 2 3 4 5 6 
#
# 1 0.016045 -0.008554 -0.003515 0.000000 0.000000 -0.007484
# 2 -0.008554 0.016045 -0.003515 0.000000 0.000000 0.007484
# 3 -0.003515 -0.003515 0.026679 0.000000 0.000000 0.000000
# 4 0.000000 0.000000 0.000000 0.077313 0.000000 0.000000
# 5 0.000000 0.000000 0.000000 0.000000 0.077313 0.000000
# 6 -0.007484 0.007484 0.000000 0.000000 0.000000 0.051290
#
#
# Mechanical properties :
#
#
# Convention : Reuss Voigt Hill
#
# Bulk Modulus (GPa) = 36.23283 47.52847 41.88065
# Shear Modulus (GPa) = 16.39064 19.16797 17.77930
#
# Velocity S-wave (km/s) = 3.02729 3.27373 3.15292
# Velocity P-wave (km/s) = 5.69895 6.39251 6.05567
#
# Compressibility (1/GPa) = 0.02759928
#
# Stress axis : x y z
#
# Youngs Moduli (GPa) = 62.32658 62.32658 37.48227
#
# Poissons Ratio (x) = 0.53316 0.13175
# Poissons Ratio (y) = 0.53316 0.13175
# Poissons Ratio (z) = 0.21908 0.21908
#
# Static dielectric constant tensor:
#      x y z
#    x 1.619740 0.000000 0.000000 
#    y 0.000000 1.619740 0.000000 
#    z 0.000000 0.000000 1.635700 
# 
# From -- ./inp_files/1515.got.cif
#   From: 2010.05.17/outbox.cif.g08.bks.cpg/sg78_cif.got.tgz:1515.got - 2010.06.03 18:45:56.
