data_PCOD9541153
_publ_section_title
;
Structure prediction by ZEFSAII (Michael W. Deem and Ramdas Pophale) SiO2 
 PCOD9541153
Probable space group: P 41
;
_chemical_formula_sum "Si O2"
_cell_formula_units_Z 28
_cell_length_a 11.682015
_cell_length_b 11.682015
_cell_length_c 10.107016
_cell_angle_alpha 90.000000
_cell_angle_beta 90.000000
_cell_angle_gamma 90.000000
_cell_volume 1379.299162
_symmetry_space_group_name_H-M "P 41"
_symmetry_group_IT_number 76
_symmetry_cell_setting 'tetragonal'
loop_
_space_group_symop_operation_xyz
x,y,z
-y,x,1/4+z
-x,-y,1/2+z
y,-x,3/4+z
loop_
_atom_site_type_symbol
_atom_site_label
_atom_site_fract_x
_atom_site_fract_y
_atom_site_fract_z
Si Si1 0.694332 0.027994 0.426800
Si Si2 0.077922 0.386516 0.466491
Si Si3 0.591570 0.548682 0.473659
Si Si4 0.600665 0.788323 0.324524
Si Si5 0.931514 0.935421 0.333757
Si Si6 0.536925 0.144189 0.212553
Si Si7 0.159736 0.292195 0.734033
O O1 0.641916 0.900025 0.406359
O O2 0.826231 0.010204 0.389047
O O3 0.670634 0.077956 0.572163
O O4 0.632566 0.106891 0.318808
O O5 0.166998 0.492689 0.489031
O O6 0.108240 0.304085 0.588610
O O7 0.949710 0.438319 0.479207
O O8 0.528079 0.536314 0.610825
O O9 0.581171 0.680155 0.421051
O O10 0.723448 0.511531 0.486502
O O11 0.707059 0.745189 0.234057
O O12 0.899454 0.802999 0.325123
O O13 0.032027 0.955820 0.434333
O O14 0.590691 0.140313 0.064947
#
# Coordination Sequence:
#
# PCOD9541153 Si02
#       7
#     4   4   4   4   4   4   4
#     4  10  21  39  64  93 121 158 215 266 312 376
#     4  11  21  37  69 100 121 161 226 268 306 384
#     4  11  23  40  63  87 128 174 211 259 330 391
#     4   9  20  40  65  88 125 171 204 262 326 382
#     4  11  24  42  63  89 131 172 208 259 327 382
#     4  10  20  42  62  90 126 169 213 261 320 385
#     4  10  21  40  64  93 128 165 209 261 327 378
#
# _framework density 20.300163000000001
#
# number of rings (size 3 to 8) (size 9 to 14) (size 15 to 20)
#    0.000    1.714    1.429    4.286    2.000    1.143 
#    0.000    1.429    0.000    0.000    0.000    0.000 
#    0.000    0.000    0.000    0.000    0.000    0.000 
#
# Total GULP energy -156338.450610 kJ/mol
# GULP energy per Si atom -5583.516093 kJ/mol
# Density = 2.025396 g / cm^3
# Si number density = 20.300163 Si / 1000 Ang^3
#
#
#
# Elastic Constant Matrix: (Units=GPa)
#
#
# Indices 1 2 3 4 5 6 
#
# 1 34.5455 29.4196 31.2848 0.0000 0.0000 9.9700
# 2 29.4196 34.5455 31.2848 0.0000 0.0000 -9.9700
# 3 31.2848 31.2848 115.1644 0.0000 0.0000 0.0000
# 4 0.0000 0.0000 0.0000 23.8847 0.0000 0.0000
# 5 0.0000 0.0000 0.0000 0.0000 23.8847 0.0000
# 6 9.9700 -9.9700 0.0000 0.0000 0.0000 5.1173
#
#
#
# Elastic Compliance Matrix: (Units=1/GPa)
#
#
# Indices 1 2 3 4 5 6 
#
# 1 -0.004181 0.025472 -0.005784 0.000000 0.000000 0.057773
# 2 0.025472 -0.004181 -0.005784 0.000000 0.000000 -0.057773
# 3 -0.005784 -0.005784 0.011826 0.000000 0.000000 0.000000
# 4 0.000000 0.000000 0.000000 0.041868 0.000000 0.000000
# 5 0.000000 0.000000 0.000000 0.000000 0.041868 0.000000
# 6 0.057773 -0.057773 0.000000 0.000000 0.000000 -0.029703
#
#
# Mechanical properties :
#
#
# Convention : Reuss Voigt Hill
#
# Bulk Modulus (GPa) = 31.97681 40.91490 36.44585
# Shear Modulus (GPa) = 124.65512 16.72842 70.69177
#
# Velocity S-wave (km/s) = 7.84470 2.87375 5.90753
# Velocity P-wave (km/s) = 9.89134 5.58659 8.03270
#
# Compressibility (1/GPa) = 0.03127266
#
# Stress axis : x y z
#
# Youngs Moduli (GPa) = -239.17089 -239.17089 84.56208
#
# Poissons Ratio (x) = 6.09223 0.48909
# Poissons Ratio (y) = 6.09223 0.48909
# Poissons Ratio (z) = -1.38332 -1.38332
#
# Static dielectric constant tensor:
#      x y z
#    x 1.725450 0.000000 0.000000 
#    y 0.000000 1.725450 0.000000 
#    z 0.000000 0.000000 1.689790 
# 
# From -- ./inp_files/632.got.cif
#   From: 2010.05.17/outbox.cif.g08.bks.cpg/sg76_cif.got.tgz:632.got - 2010.06.03 18:43:17.
