data_PCOD9541486
_publ_section_title
;
Structure prediction by ZEFSAII (Michael W. Deem and Ramdas Pophale) SiO2 
 PCOD9541486
Probable space group: P 42
;
_chemical_formula_sum "Si O2"
_cell_formula_units_Z 16
_cell_length_a 7.743045
_cell_length_b 7.743045
_cell_length_c 9.148429
_cell_angle_alpha 90.000000
_cell_angle_beta 90.000000
_cell_angle_gamma 90.000000
_cell_volume 548.491736
_symmetry_space_group_name_H-M "P 42"
_symmetry_group_IT_number 77
_symmetry_cell_setting 'tetragonal'
loop_
_space_group_symop_operation_xyz
x,y,z
-y,x,1/2+z
-x,-y,z
y,-x,1/2+z
loop_
_atom_site_type_symbol
_atom_site_label
_atom_site_fract_x
_atom_site_fract_y
_atom_site_fract_z
Si Si1 0.193959 0.068876 0.348110
Si Si2 0.431123 0.693959 0.997580
Si Si3 0.723741 0.134706 0.601630
Si Si4 0.776259 0.365293 0.244060
O O1 0.250000 0.250000 0.422845
O O2 0.216702 0.107223 0.176538
O O3 0.296192 0.919846 0.433712
O O4 0.000000 0.000000 0.382075
O O5 0.500000 0.500000 0.963616
O O6 0.580153 0.796193 0.911978
O O7 0.392777 0.716702 0.169153
O O8 0.550091 0.223958 0.657221
O O9 0.723959 0.949908 0.688469
#
# Coordination Sequence:
#
# PCOD9541486 Si02
#       4
#     4   4   4   4
#     4  10  20  36  58  84 118 160 206 258 320 388
#     4  10  20  36  58  84 118 160 206 258 320 388
#     4   9  19  36  58  86 121 161 208 264 322 383
#     4   9  19  36  58  86 121 161 208 264 322 383
#
# _framework density 29.170902000000002
#
# number of rings (size 3 to 8) (size 9 to 14) (size 15 to 20)
#    0.000    2.500    0.000    1.500    0.000    2.000 
#    0.000    5.000    0.000    6.000    0.000    0.000 
#    0.000    0.000    0.000    0.000    0.000    0.000 
#
# Total GULP energy -89385.035827 kJ/mol
# GULP energy per Si atom -5586.564739 kJ/mol
# Density = 2.910451 g / cm^3
# Si number density = 29.170902 Si / 1000 Ang^3
#
#
#
# Elastic Constant Matrix: (Units=GPa)
#
#
# Indices 1 2 3 4 5 6 
#
# 1 146.3010 18.7431 38.8159 0.0000 0.0000 9.5181
# 2 18.7431 146.3010 38.8159 0.0000 0.0000 -9.5181
# 3 38.8159 38.8159 218.6085 0.0000 0.0000 0.0000
# 4 0.0000 0.0000 0.0000 17.6424 0.0000 0.0000
# 5 0.0000 0.0000 0.0000 0.0000 17.6424 0.0000
# 6 9.5181 -9.5181 0.0000 0.0000 0.0000 13.0011
#
#
#
# Elastic Compliance Matrix: (Units=1/GPa)
#
#
# Indices 1 2 3 4 5 6 
#
# 1 0.007706 -0.001095 -0.001174 0.000000 0.000000 -0.006443
# 2 -0.001095 0.007706 -0.001174 0.000000 0.000000 0.006443
# 3 -0.001174 -0.001174 0.004991 0.000000 0.000000 0.000000
# 4 0.000000 0.000000 0.000000 0.056682 0.000000 0.000000
# 5 0.000000 0.000000 0.000000 0.000000 0.056682 0.000000
# 6 -0.006443 0.006443 0.000000 0.000000 0.000000 0.086351
#
#
# Mechanical properties :
#
#
# Convention : Reuss Voigt Hill
#
# Bulk Modulus (GPa) = 73.97511 78.21780 76.09645
# Shear Modulus (GPa) = 21.59741 37.31288 29.45515
#
# Velocity S-wave (km/s) = 2.72394 3.58035 3.18109
# Velocity P-wave (km/s) = 5.94200 6.63051 6.29568
#
# Compressibility (1/GPa) = 0.01351806
#
# Stress axis : x y z
#
# Youngs Moduli (GPa) = 129.76668 129.76668 200.35071
#
# Poissons Ratio (x) = 0.14209 0.23518
# Poissons Ratio (y) = 0.14209 0.23518
# Poissons Ratio (z) = 0.15233 0.15233
#
# Static dielectric constant tensor:
#      x y z
#    x 2.400450 0.000000 0.000000 
#    y 0.000000 2.400450 0.000000 
#    z 0.000000 0.000000 2.416990 
# 
# From -- ./inp_files/627.got.cif
#   From: 2010.05.17/outbox.cif.g08.bks.cpg/sg77_cif.got.tgz:627.got - 2010.06.03 18:44:51.
