data_PCOD9541682
_publ_section_title
;
Structure prediction by ZEFSAII (Michael W. Deem and Ramdas Pophale) SiO2 
 PCOD9541682
Probable space group: P 43
;
_chemical_formula_sum "Si O2"
_cell_formula_units_Z 28
_cell_length_a 13.864706
_cell_length_b 13.864706
_cell_length_c 6.292886
_cell_angle_alpha 90.000000
_cell_angle_beta 90.000000
_cell_angle_gamma 90.000000
_cell_volume 1209.681932
_symmetry_space_group_name_H-M "P 43"
_symmetry_group_IT_number 78
_symmetry_cell_setting 'tetragonal'
loop_
_space_group_symop_operation_xyz
x,y,z
-y,x,3/4+z
-x,-y,1/2+z
y,-x,1/4+z
loop_
_atom_site_type_symbol
_atom_site_label
_atom_site_fract_x
_atom_site_fract_y
_atom_site_fract_z
Si Si1 0.319593 0.906984 0.626140
Si Si2 0.063161 0.749841 0.528453
Si Si3 0.559973 0.627919 0.293285
Si Si4 0.629070 0.781354 0.005649
Si Si5 0.210228 0.489153 0.373878
Si Si6 0.379176 0.067894 0.890564
Si Si7 0.930868 0.891495 0.009229
O O1 0.375741 0.808231 0.586664
O O2 0.219419 0.901173 0.752653
O O3 0.296045 0.975384 0.420783
O O4 0.390391 0.964648 0.785393
O O5 0.166820 0.708391 0.608261
O O6 0.059780 0.714913 0.288329
O O7 0.063023 0.863482 0.572110
O O8 0.466275 0.600575 0.156398
O O9 0.633891 0.680267 0.130679
O O10 0.527768 0.703058 0.476657
O O11 0.627029 0.858189 0.196887
O O12 0.533017 0.776882 0.859023
O O13 0.112156 0.537866 0.283435
O O14 0.043197 0.902105 0.957275
#
# Coordination Sequence:
#
# PCOD9541682 Si02
#       7
#     4   4   4   4   4   4   4
#     4  10  22  37  62  98 129 174 223 273 338 399
#     4   9  20  41  63  95 135 173 221 279 336 406
#     4  11  27  45  68  97 130 178 224 277 349 416
#     4   9  21  42  65  99 130 169 217 276 336 410
#     4  10  23  40  67  97 139 171 218 281 341 412
#     4   9  20  36  64  96 129 170 212 274 338 400
#     4  10  23  41  63  90 130 181 231 282 334 399
#
# _framework density 23.146581000000001
#
# number of rings (size 3 to 8) (size 9 to 14) (size 15 to 20)
#    0.000    2.286    0.000    0.000   10.000    5.714 
#    0.000    0.000    0.000    0.000    0.000    0.000 
#    0.000    0.000    0.000    0.000    0.000    0.000 
#
# Total GULP energy -156208.193403 kJ/mol
# GULP energy per Si atom -5578.864050 kJ/mol
# Density = 2.309390 g / cm^3
# Si number density = 23.146581 Si / 1000 Ang^3
#
#
#
# Elastic Constant Matrix: (Units=GPa)
#
#
# Indices 1 2 3 4 5 6 
#
# 1 61.9094 22.6811 26.7892 0.0000 0.0000 -2.4828
# 2 22.6811 61.9094 26.7892 0.0000 0.0000 2.4828
# 3 26.7892 26.7892 101.2722 0.0000 0.0000 0.0000
# 4 0.0000 0.0000 0.0000 34.6088 0.0000 0.0000
# 5 0.0000 0.0000 0.0000 0.0000 34.6088 0.0000
# 6 -2.4828 2.4828 0.0000 0.0000 0.0000 27.9573
#
#
#
# Elastic Compliance Matrix: (Units=1/GPa)
#
#
# Indices 1 2 3 4 5 6 
#
# 1 0.019991 -0.005790 -0.003757 0.000000 0.000000 0.002290
# 2 -0.005790 0.019991 -0.003757 0.000000 0.000000 -0.002290
# 3 -0.003757 -0.003757 0.011862 0.000000 0.000000 0.000000
# 4 0.000000 0.000000 0.000000 0.028894 0.000000 0.000000
# 5 0.000000 0.000000 0.000000 0.000000 0.028894 0.000000
# 6 0.002290 -0.002290 0.000000 0.000000 0.000000 0.036175
#
#
# Mechanical properties :
#
#
# Convention : Reuss Voigt Hill
#
# Bulk Modulus (GPa) = 39.62339 41.95665 40.79002
# Shear Modulus (GPa) = 27.65058 29.35708 28.50383
#
# Velocity S-wave (km/s) = 3.46003 3.56520 3.51301
# Velocity P-wave (km/s) = 5.75483 5.92565 5.84086
#
# Compressibility (1/GPa) = 0.02523762
#
# Stress axis : x y z
#
# Youngs Moduli (GPa) = 50.02174 50.02174 84.30437
#
# Poissons Ratio (x) = 0.28964 0.31669
# Poissons Ratio (y) = 0.28964 0.31669
# Poissons Ratio (z) = 0.18791 0.18791
#
# Static dielectric constant tensor:
#      x y z
#    x 1.896430 0.000000 0.000000 
#    y 0.000000 1.896430 0.000000 
#    z 0.000000 0.000000 1.870700 
# 
# From -- ./inp_files/264.got.cif
#   From: 2010.05.17/outbox.cif.g08.bks.cpg/sg78_cif.got.tgz:264.got - 2010.06.03 18:45:56.
