data_PCOD9541874
_publ_section_title
;
Structure prediction by ZEFSAII (Michael W. Deem and Ramdas Pophale) SiO2 
 PCOD9541874
Probable space group: I 4
;
_chemical_formula_sum "Si O2"
_cell_formula_units_Z 42
_cell_length_a 8.698120
_cell_length_b 8.698120
_cell_length_c 23.542597
_cell_angle_alpha 90.000000
_cell_angle_beta 90.000000
_cell_angle_gamma 90.000000
_cell_volume 1781.169125
_symmetry_space_group_name_H-M "I 4"
_symmetry_group_IT_number 79
_symmetry_cell_setting 'tetragonal'
loop_
_space_group_symop_operation_xyz
x,y,z
-y,x,z
-x,-y,z
y,-x,z
1/2+x,1/2+y,1/2+z
1/2-y,1/2+x,1/2+z
1/2-x,1/2-y,1/2+z
1/2+y,1/2-x,1/2+z
loop_
_atom_site_type_symbol
_atom_site_label
_atom_site_fract_x
_atom_site_fract_y
_atom_site_fract_z
Si Si1 0.754764 0.924916 0.401310
Si Si2 0.073398 0.664343 0.089839
Si Si3 0.230877 0.102772 0.216808
Si Si4 0.500000 0.500000 0.455241
Si Si5 0.309206 0.249271 0.505290
Si Si6 0.420725 0.253261 0.309652
O O1 0.701845 0.898204 0.465923
O O2 0.626898 0.866215 0.358113
O O3 0.903681 0.815255 0.392427
O O4 0.111380 0.741900 0.149449
O O5 0.215610 0.665410 0.046207
O O6 0.000000 0.500000 0.101816
O O7 0.944717 0.751460 0.052360
O O8 0.373708 0.172163 0.250749
O O9 0.074988 0.195720 0.231472
O O10 0.349354 0.385583 0.460875
O O11 0.593201 0.315297 0.314202
#
# Coordination Sequence:
#
# PCOD9541874 Si02
#       6
#     8   8   8   2   8   8
#     4  11  25  45  69 100 142 184 229 284 345 416
#     4  11  22  37  65  99 136 180 232 275 341 410
#     4  11  24  43  69  98 136 180 231 286 338 406
#     4   8  20  32  60  88 140 168 224 272 328 394
#     4  10  21  39  62  99 141 180 224 280 341 411
#     4  11  28  48  70 101 136 178 233 292 353 413
#
# _framework density 23.580017999999999
#
# number of rings (size 3 to 8) (size 9 to 14) (size 15 to 20)
#    0.000    1.333    1.905    2.286    8.000    3.810 
#    0.000    0.000    0.000    2.286    0.000    0.000 
#    0.000    0.000    0.000    0.000    0.000    0.000 
#
# Total GULP energy -117179.383850 kJ/mol
# GULP energy per Si atom -5579.970660 kJ/mol
# Density = 2.352635 g / cm^3
# Si number density = 23.580018 Si / 1000 Ang^3
#
#
#
# Elastic Constant Matrix: (Units=GPa)
#
#
# Indices 1 2 3 4 5 6 
#
# 1 61.2698 17.8767 27.9165 0.0000 0.0000 -4.4727
# 2 17.8767 61.2698 27.9165 0.0000 0.0000 4.4727
# 3 27.9165 27.9165 118.4662 0.0000 0.0000 0.0000
# 4 0.0000 0.0000 0.0000 26.6286 0.0000 0.0000
# 5 0.0000 0.0000 0.0000 0.0000 26.6286 0.0000
# 6 -4.4727 4.4727 0.0000 0.0000 0.0000 36.3407
#
#
#
# Elastic Compliance Matrix: (Units=1/GPa)
#
#
# Indices 1 2 3 4 5 6 
#
# 1 0.019399 -0.004246 -0.003571 0.000000 0.000000 0.002910
# 2 -0.004246 0.019399 -0.003571 0.000000 0.000000 -0.002910
# 3 -0.003571 -0.003571 0.010124 0.000000 0.000000 0.000000
# 4 0.000000 0.000000 0.000000 0.037554 0.000000 0.000000
# 5 0.000000 0.000000 0.000000 0.000000 0.037554 0.000000
# 6 0.002910 -0.002910 0.000000 0.000000 0.000000 0.028234
#
#
# Mechanical properties :
#
#
# Convention : Reuss Voigt Hill
#
# Bulk Modulus (GPa) = 38.24379 43.15836 40.70107
# Shear Modulus (GPa) = 27.21011 29.07266 28.14139
#
# Velocity S-wave (km/s) = 3.40067 3.51513 3.45837
# Velocity P-wave (km/s) = 5.62790 5.90064 5.76588
#
# Compressibility (1/GPa) = 0.02614804
#
# Stress axis : x y z
#
# Youngs Moduli (GPa) = 51.54781 51.54782 98.77287
#
# Poissons Ratio (x) = 0.21885 0.35272
# Poissons Ratio (y) = 0.21885 0.35272
# Poissons Ratio (z) = 0.18408 0.18408
#
# Static dielectric constant tensor:
#      x y z
#    x 1.945730 0.000000 0.000000 
#    y 0.000000 1.945730 0.000000 
#    z 0.000000 0.000000 1.914000 
# 
# From -- ./inp_files/2042.got.cif
#   From: 2010.05.17/outbox.cif.g08.bks.cpg/sg79_cif.got.tgz:2042.got - 2010.06.03 18:47:27.
