data_PCOD9541389
_publ_section_title
;
Structure prediction by ZEFSAII (Michael W. Deem and Ramdas Pophale) SiO2 
 PCOD9541389
Probable space group: P 41
;
_chemical_formula_sum "Si O2"
_cell_formula_units_Z 20
_cell_length_a 10.536224
_cell_length_b 10.536224
_cell_length_c 8.511696
_cell_angle_alpha 90.000000
_cell_angle_beta 90.000000
_cell_angle_gamma 90.000000
_cell_volume 944.900534
_symmetry_space_group_name_H-M "P 41"
_symmetry_group_IT_number 76
_symmetry_cell_setting 'tetragonal'
loop_
_space_group_symop_operation_xyz
x,y,z
-y,x,1/4+z
-x,-y,1/2+z
y,-x,3/4+z
loop_
_atom_site_type_symbol
_atom_site_label
_atom_site_fract_x
_atom_site_fract_y
_atom_site_fract_z
Si Si1 0.939019 0.151945 0.539050
Si Si2 0.237458 0.788236 0.748924
Si Si3 0.358612 0.051723 0.783248
Si Si4 0.915465 0.416673 0.693233
Si Si5 0.648429 0.518204 0.582932
O O1 0.823989 0.187548 0.420465
O O2 0.968344 0.284509 0.625366
O O3 0.049673 0.099961 0.422899
O O4 0.131086 0.745448 0.626850
O O5 0.299445 0.922980 0.713671
O O6 0.347977 0.683303 0.749763
O O7 0.410942 0.116813 0.627344
O O8 0.470172 0.012538 0.902615
O O9 0.783500 0.451926 0.609893
O O10 0.559281 0.424563 0.488078
#
# Coordination Sequence:
#
# PCOD9541389 Si02
#       5
#     4   4   4   4   4
#     4  12  27  46  73 106 147 185 236 298 362 433
#     4  11  24  46  70 101 144 181 233 297 351 428
#     4  11  26  46  73 103 141 189 236 295 357 429
#     4  11  27  47  73 102 141 189 240 290 364 422
#     4  11  26  47  69 102 137 186 237 296 346 416
#
# _framework density 21.166248
#
# number of rings (size 3 to 8) (size 9 to 14) (size 15 to 20)
#    0.000    0.800    4.000    1.200   14.000    0.000 
#    0.000    0.000    0.000    0.000    0.000    0.000 
#    0.000    0.000    0.000    0.000    0.000    0.000 
#
# Total GULP energy -111793.887333 kJ/mol
# GULP energy per Si atom -5589.694367 kJ/mol
# Density = 2.111807 g / cm^3
# Si number density = 21.166248 Si / 1000 Ang^3
#
#
#
# Elastic Constant Matrix: (Units=GPa)
#
#
# Indices 1 2 3 4 5 6 
#
# 1 50.7462 54.0394 21.5329 0.0000 0.0000 10.3796
# 2 54.0394 50.7462 21.5329 0.0000 0.0000 -10.3796
# 3 21.5329 21.5329 79.8251 0.0000 0.0000 0.0000
# 4 0.0000 0.0000 0.0000 37.0999 0.0000 0.0000
# 5 0.0000 0.0000 0.0000 0.0000 37.0999 0.0000
# 6 10.3796 -10.3796 0.0000 0.0000 0.0000 13.4212
#
#
#
# Elastic Compliance Matrix: (Units=1/GPa)
#
#
# Indices 1 2 3 4 5 6 
#
# 1 -0.020476 0.031209 -0.002895 0.000000 0.000000 0.039972
# 2 0.031209 -0.020476 -0.002895 0.000000 0.000000 -0.039972
# 3 -0.002895 -0.002895 0.014089 0.000000 0.000000 0.000000
# 4 0.000000 0.000000 0.000000 0.026954 0.000000 0.000000
# 5 0.000000 0.000000 0.000000 0.000000 0.026954 0.000000
# 6 0.039972 -0.039972 0.000000 0.000000 0.000000 0.012682
#
#
# Mechanical properties :
#
#
# Convention : Reuss Voigt Hill
#
# Bulk Modulus (GPa) = 41.71068 41.72532 41.71800
# Shear Modulus (GPa) = -1603.38680 23.13837 -790.12421
#
# Velocity S-wave (km/s) = -27.55295 3.30990 -19.34179
# Velocity P-wave (km/s) = 31.50351 5.86201 21.88730
#
# Compressibility (1/GPa) = 0.02397468
#
# Stress axis : x y z
#
# Youngs Moduli (GPa) = -48.83719 -48.83719 70.97533
#
# Poissons Ratio (x) = 1.52418 0.20549
# Poissons Ratio (y) = 1.52418 0.20549
# Poissons Ratio (z) = -0.14140 -0.14140
#
# Static dielectric constant tensor:
#      x y z
#    x 1.766870 0.000000 0.000000 
#    y 0.000000 1.766870 0.000000 
#    z 0.000000 0.000000 1.781770 
# 
# From -- ./inp_files/434.got.cif
#   From: 2010.05.17/outbox.cif.g08.bks.cpg/sg76_cif.got.tgz:434.got - 2010.06.03 18:43:17.
