data_PCOD9541341
_publ_section_title
;
Structure prediction by ZEFSAII (Michael W. Deem and Ramdas Pophale) SiO2 
 PCOD9541341
Probable space group: P 41
;
_chemical_formula_sum "Si O2"
_cell_formula_units_Z 28
_cell_length_a 14.928539
_cell_length_b 14.928539
_cell_length_c 6.223030
_cell_angle_alpha 90.000000
_cell_angle_beta 90.000000
_cell_angle_gamma 90.000000
_cell_volume 1386.872411
_symmetry_space_group_name_H-M "P 41"
_symmetry_group_IT_number 76
_symmetry_cell_setting 'tetragonal'
loop_
_space_group_symop_operation_xyz
x,y,z
-y,x,1/4+z
-x,-y,1/2+z
y,-x,3/4+z
loop_
_atom_site_type_symbol
_atom_site_label
_atom_site_fract_x
_atom_site_fract_y
_atom_site_fract_z
Si Si1 0.377148 0.183233 0.698840
Si Si2 0.556617 0.942164 0.815697
Si Si3 0.254608 0.813318 0.385974
Si Si4 0.132280 0.100409 0.328257
Si Si5 0.830564 0.042833 0.191104
Si Si6 0.861760 0.537633 0.196251
Si Si7 0.948411 0.290780 0.260059
O O1 0.395536 0.111737 0.508636
O O2 0.295218 0.247270 0.627022
O O3 0.475928 0.202783 0.797641
O O4 0.331222 0.140352 0.908007
O O5 0.493161 0.869996 0.695425
O O6 0.631922 0.983987 0.660144
O O7 0.512088 0.035129 0.884631
O O8 0.198664 0.850817 0.180663
O O9 0.198073 0.864710 0.575452
O O10 0.357888 0.840969 0.414383
O O11 0.214166 0.072428 0.179286
O O12 0.130666 0.027337 0.518345
O O13 0.054954 0.107849 0.150979
O O14 0.741859 0.003194 0.303987
#
# Coordination Sequence:
#
# PCOD9541341 Si02
#       7
#     4   4   4   4   4   4   4
#     4  11  22  43  62  98 138 174 217 292 350 421
#     4  11  21  39  65 100 139 168 225 295 352 407
#     4  12  25  43  70  98 139 184 231 285 364 422
#     4  12  23  42  67  92 130 184 238 290 342 417
#     4  12  24  40  68  91 127 188 237 289 348 410
#     4  11  24  37  67 106 130 178 226 289 355 425
#     4  11  21  40  67  87 129 176 226 286 343 400
#
# _framework density 20.189311
#
# number of rings (size 3 to 8) (size 9 to 14) (size 15 to 20)
#    0.000    0.571    5.714    3.429    2.000    1.143 
#    0.000    0.000   44.000    0.000    3.714    0.000 
#    0.000    0.000    0.000    0.000    0.000    0.000 
#
# Total GULP energy -156000.133006 kJ/mol
# GULP energy per Si atom -5571.433322 kJ/mol
# Density = 2.014336 g / cm^3
# Si number density = 20.189311 Si / 1000 Ang^3
#
#
#
# Elastic Constant Matrix: (Units=GPa)
#
#
# Indices 1 2 3 4 5 6 
#
# 1 102.7034 35.9274 47.2432 0.0000 0.0000 -1.9209
# 2 35.9274 102.7034 47.2432 0.0000 0.0000 1.9209
# 3 47.2432 47.2432 120.3828 0.0000 0.0000 0.0000
# 4 0.0000 0.0000 0.0000 34.9593 0.0000 0.0000
# 5 0.0000 0.0000 0.0000 0.0000 34.9593 0.0000
# 6 -1.9209 1.9209 0.0000 0.0000 0.0000 23.7995
#
#
#
# Elastic Compliance Matrix: (Units=1/GPa)
#
#
# Indices 1 2 3 4 5 6 
#
# 1 0.012446 -0.002599 -0.003864 0.000000 0.000000 0.001214
# 2 -0.002599 0.012446 -0.003864 0.000000 0.000000 -0.001214
# 3 -0.003864 -0.003864 0.011340 0.000000 0.000000 0.000000
# 4 0.000000 0.000000 0.000000 0.028605 0.000000 0.000000
# 5 0.000000 0.000000 0.000000 0.000000 0.028605 0.000000
# 6 0.001214 -0.001214 0.000000 0.000000 0.000000 0.042214
#
#
# Mechanical properties :
#
#
# Convention : Reuss Voigt Hill
#
# Bulk Modulus (GPa) = 64.19859 65.17970 64.68914
# Shear Modulus (GPa) = 30.95902 31.76869 31.36385
#
# Velocity S-wave (km/s) = 3.92016 3.97109 3.94571
# Velocity P-wave (km/s) = 7.23585 7.30619 7.27111
#
# Compressibility (1/GPa) = 0.01557667
#
# Stress axis : x y z
#
# Youngs Moduli (GPa) = 80.34512 80.34512 88.18335
#
# Poissons Ratio (x) = 0.20882 0.34078
# Poissons Ratio (y) = 0.20882 0.34078
# Poissons Ratio (z) = 0.31049 0.31049
#
# Static dielectric constant tensor:
#      x y z
#    x 1.785010 0.000000 0.000000 
#    y 0.000000 1.785010 0.000000 
#    z 0.000000 0.000000 1.816080 
# 
# From -- ./inp_files/225.got.cif
#   From: 2010.05.17/outbox.cif.g08.bks.cpg/sg76_cif.got.tgz:225.got - 2010.06.03 18:43:17.
