data_PCOD9541336
_publ_section_title
;
Structure prediction by ZEFSAII (Michael W. Deem and Ramdas Pophale) SiO2 
 PCOD9541336
Probable space group: P 41
;
_chemical_formula_sum "Si O2"
_cell_formula_units_Z 16
_cell_length_a 7.140150
_cell_length_b 7.140150
_cell_length_c 12.803417
_cell_angle_alpha 90.000000
_cell_angle_beta 90.000000
_cell_angle_gamma 90.000000
_cell_volume 652.740503
_symmetry_space_group_name_H-M "P 41"
_symmetry_group_IT_number 76
_symmetry_cell_setting 'tetragonal'
loop_
_space_group_symop_operation_xyz
x,y,z
-y,x,1/4+z
-x,-y,1/2+z
y,-x,3/4+z
loop_
_atom_site_type_symbol
_atom_site_label
_atom_site_fract_x
_atom_site_fract_y
_atom_site_fract_z
Si Si1 0.135641 0.415721 0.851280
Si Si2 0.395901 0.973294 0.380789
Si Si3 0.821714 0.750670 0.576376
Si Si4 0.131070 0.288116 0.405868
O O1 0.271899 0.599104 0.854946
O O2 0.132219 0.332823 0.735516
O O3 0.162335 0.292719 0.953300
O O4 0.930351 0.514625 0.857978
O O5 0.615134 0.024543 0.377839
O O6 0.312050 0.181888 0.370193
O O7 0.326033 0.867490 0.278746
O O8 0.848255 0.961122 0.618520
#
# Coordination Sequence:
#
# PCOD9541336 Si02
#       4
#     4   4   4   4
#     4   9  21  41  65  98 136 183 231 286 357 410
#     4  11  20  43  63 101 137 177 235 279 354 414
#     4   9  21  43  64  97 138 179 228 292 346 408
#     4   9  22  39  66  96 131 181 224 289 339 414
#
# _framework density 24.512041
#
# number of rings (size 3 to 8) (size 9 to 14) (size 15 to 20)
#    1.500    1.000    0.000    1.500    0.000    2.000 
#   13.500    0.000    0.000    0.000    0.000    0.000 
#    0.000    0.000    0.000    0.000    0.000    0.000 
#
# Total GULP energy -89219.513182 kJ/mol
# GULP energy per Si atom -5576.219574 kJ/mol
# Density = 2.445625 g / cm^3
# Si number density = 24.512041 Si / 1000 Ang^3
#
#
#
# Elastic Constant Matrix: (Units=GPa)
#
#
# Indices 1 2 3 4 5 6 
#
# 1 40.3964 23.6689 -4.1750 0.0000 0.0000 -9.4603
# 2 23.6689 40.3964 -4.1750 0.0000 0.0000 9.4603
# 3 -4.1750 -4.1750 160.4129 0.0000 0.0000 0.0000
# 4 0.0000 0.0000 0.0000 20.2324 0.0000 0.0000
# 5 0.0000 0.0000 0.0000 0.0000 20.2324 0.0000
# 6 -9.4603 9.4603 0.0000 0.0000 0.0000 26.7335
#
#
#
# Elastic Compliance Matrix: (Units=1/GPa)
#
#
# Indices 1 2 3 4 5 6 
#
# 1 0.057672 -0.042010 0.000408 0.000000 0.000000 0.035275
# 2 -0.042010 0.057672 0.000408 0.000000 0.000000 -0.035275
# 3 0.000408 0.000408 0.006255 0.000000 0.000000 0.000000
# 4 0.000000 0.000000 0.000000 0.049426 0.000000 0.000000
# 5 0.000000 0.000000 0.000000 0.000000 0.049426 0.000000
# 6 0.035275 -0.035275 0.000000 0.000000 0.000000 0.062372
#
#
# Mechanical properties :
#
#
# Convention : Reuss Voigt Hill
#
# Bulk Modulus (GPa) = 25.50366 30.20483 27.85425
# Shear Modulus (GPa) = 13.21764 28.49880 20.85822
#
# Velocity S-wave (km/s) = 2.32465 3.41346 2.92025
# Velocity P-wave (km/s) = 4.19910 5.28060 4.77060
#
# Compressibility (1/GPa) = 0.03921006
#
# Stress axis : x y z
#
# Youngs Moduli (GPa) = 17.33940 17.33940 159.86878
#
# Poissons Ratio (x) = 0.72843 -0.06517
# Poissons Ratio (y) = 0.72843 -0.06517
# Poissons Ratio (z) = -0.00707 -0.00707
#
# Static dielectric constant tensor:
#      x y z
#    x 1.928380 0.000000 0.000000 
#    y 0.000000 1.928380 0.000000 
#    z 0.000000 0.000000 1.940550 
# 
# From -- ./inp_files/745.got.cif
#   From: 2010.05.17/outbox.cif.g08.bks.cpg/sg76_cif.got.tgz:745.got - 2010.06.03 18:43:17.
