data_PCOD9541799
_publ_section_title
;
Structure prediction by ZEFSAII (Michael W. Deem and Ramdas Pophale) SiO2 
 PCOD9541799
Probable space group: I 4
;
_chemical_formula_sum "Si O2"
_cell_formula_units_Z 48
_cell_length_a 22.699559
_cell_length_b 22.699559
_cell_length_c 5.455585
_cell_angle_alpha 90.000000
_cell_angle_beta 90.000000
_cell_angle_gamma 90.000000
_cell_volume 2811.099167
_symmetry_space_group_name_H-M "I 4"
_symmetry_group_IT_number 79
_symmetry_cell_setting 'tetragonal'
loop_
_space_group_symop_operation_xyz
x,y,z
-y,x,z
-x,-y,z
y,-x,z
1/2+x,1/2+y,1/2+z
1/2-y,1/2+x,1/2+z
1/2-x,1/2-y,1/2+z
1/2+y,1/2-x,1/2+z
loop_
_atom_site_type_symbol
_atom_site_label
_atom_site_fract_x
_atom_site_fract_y
_atom_site_fract_z
Si Si1 0.216724 0.691489 0.186230
Si Si2 0.205089 0.148802 0.686230
Si Si3 0.706952 0.984892 0.186230
Si Si4 0.307324 0.879345 0.186230
Si Si5 0.326667 0.072151 0.686230
Si Si6 0.795429 0.881983 0.186230
O O1 0.281952 0.718757 0.186230
O O2 0.211103 0.653274 0.434415
O O3 0.164990 0.740268 0.186230
O O4 0.211103 0.653274 0.938045
O O5 0.265327 0.110361 0.686230
O O6 0.172203 0.131995 0.437640
O O7 0.172203 0.131995 0.934820
O O8 0.674301 0.965016 0.436359
O O9 0.767074 0.946545 0.186230
O O10 0.715481 0.054333 0.186230
O O11 0.674301 0.965016 0.936101
O O12 0.378617 0.876997 0.186230
#
# Coordination Sequence:
#
# PCOD9541799 Si02
#       6
#     8   8   8   8   8   8
#     4  12  19  30  47  76  90 112 148 197 228 267
#     4  10  18  28  49  68  98 110 141 193 220 280
#     4  10  20  33  47  62  90 121 156 191 227 279
#     4  12  21  31  49  68  90 118 157 199 229 267
#     4  10  19  35  47  67  86 123 158 181 234 274
#     4  10  17  31  45  66  90 123 147 172 229 284
#
# _framework density 17.07517
#
# number of rings (size 3 to 8) (size 9 to 14) (size 15 to 20)
#    0.000    1.333    6.667    3.000    0.000    0.000 
#    0.000    0.000    0.000    3.000    0.000    0.000 
#    0.000    0.000    0.000    0.000    0.000  933.333 
#
# Total GULP energy -133825.465496 kJ/mol
# GULP energy per Si atom -5576.061062 kJ/mol
# Density = 1.703631 g / cm^3
# Si number density = 17.075170 Si / 1000 Ang^3
#
#
#
# Elastic Constant Matrix: (Units=GPa)
#
#
# Indices 1 2 3 4 5 6 
#
# 1 45.3997 13.4391 31.4543 0.0000 0.0000 15.0093
# 2 13.4391 45.3997 31.4543 0.0000 0.0000 -15.0093
# 3 31.4543 31.4543 196.0305 0.0000 0.0000 0.0000
# 4 0.0000 0.0000 0.0000 17.0863 0.0000 0.0000
# 5 0.0000 0.0000 0.0000 0.0000 17.0863 0.0000
# 6 15.0093 -15.0093 0.0000 0.0000 0.0000 5.8507
#
#
#
# Elastic Compliance Matrix: (Units=1/GPa)
#
#
# Indices 1 2 3 4 5 6 
#
# 1 -0.000841 0.021356 -0.003292 0.000000 0.000000 0.056947
# 2 0.021356 -0.000841 -0.003292 0.000000 0.000000 -0.056947
# 3 -0.003292 -0.003292 0.006158 0.000000 0.000000 0.000000
# 4 0.000000 0.000000 0.000000 0.058526 0.000000 0.000000
# 5 0.000000 0.000000 0.000000 0.000000 0.058526 0.000000
# 6 0.056947 -0.056947 0.000000 0.000000 0.000000 -0.121261
#
#
# Mechanical properties :
#
#
# Convention : Reuss Voigt Hill
#
# Bulk Modulus (GPa) = 29.39390 48.83611 39.11500
# Shear Modulus (GPa) = -278.72216 22.03681 -128.34267
#
# Velocity S-wave (km/s) = -12.79011 3.59636 -8.67908
# Velocity P-wave (km/s) = 14.17265 6.77553 8.80216
#
# Compressibility (1/GPa) = 0.03402067
#
# Stress axis : x y z
#
# Youngs Moduli (GPa) = -1188.43846 -1188.43846 162.40057
#
# Poissons Ratio (x) = 25.38088 0.53458
# Poissons Ratio (y) = 25.38088 0.53458
# Poissons Ratio (z) = -3.91206 -3.91206
#
# Static dielectric constant tensor:
#      x y z
#    x 1.562020 0.000000 0.000000 
#    y 0.000000 1.562020 0.000000 
#    z 0.000000 0.000000 1.712630 
# 
# From -- ./inp_files/213.got.cif
#   From: 2010.05.17/outbox.cif.g08.bks.cpg/sg79_cif.got.tgz:213.got - 2010.06.03 18:47:27.
