data_PCOD9541612
_publ_section_title
;
Structure prediction by ZEFSAII (Michael W. Deem and Ramdas Pophale) SiO2 
 PCOD9541612
Probable space group: P 43
;
_chemical_formula_sum "Si O2"
_cell_formula_units_Z 28
_cell_length_a 7.978790
_cell_length_b 7.978790
_cell_length_c 16.354734
_cell_angle_alpha 90.000000
_cell_angle_beta 90.000000
_cell_angle_gamma 90.000000
_cell_volume 1041.160191
_symmetry_space_group_name_H-M "P 43"
_symmetry_group_IT_number 78
_symmetry_cell_setting 'tetragonal'
loop_
_space_group_symop_operation_xyz
x,y,z
-y,x,3/4+z
-x,-y,1/2+z
y,-x,1/4+z
loop_
_atom_site_type_symbol
_atom_site_label
_atom_site_fract_x
_atom_site_fract_y
_atom_site_fract_z
Si Si1 0.411112 0.283173 0.265160
Si Si2 0.958322 0.705133 0.585470
Si Si3 0.277748 0.064650 0.004700
Si Si4 0.377427 0.200051 0.775177
Si Si5 0.411397 0.617250 0.163191
Si Si6 0.038410 0.358910 0.279262
Si Si7 0.252579 0.858995 0.842654
O O1 0.442475 0.424272 0.194753
O O2 0.581617 0.247503 0.315380
O O3 0.235202 0.346275 0.303636
O O4 0.341464 0.090335 0.262638
O O5 0.870410 0.880485 0.564845
O O6 0.833281 0.550724 0.575201
O O7 0.998672 0.683904 0.682187
O O8 0.322825 0.238969 0.957895
O O9 0.447299 0.009254 0.047658
O O10 0.249605 0.926208 0.935436
O O11 0.338238 0.372429 0.820451
O O12 0.439096 0.260213 0.688649
O O13 0.273726 0.032831 0.790124
O O14 0.920724 0.230065 0.324237
#
# Coordination Sequence:
#
# PCOD9541612 Si02
#       7
#     4   4   4   4   4   4   4
#     4  10  20  38  64 103 139 187 244 307 379 463
#     4  10  19  38  67  98 145 187 251 312 386 467
#     4   9  19  41  64 102 149 191 245 317 393 459
#     4   9  17  37  63  99 139 186 241 308 369 458
#     4   9  17  33  65  95 136 189 241 296 383 452
#     4  11  21  41  71 107 143 201 253 320 391 470
#     4  10  21  40  66 104 149 187 257 316 375 473
#
# _framework density 26.893077999999999
#
# number of rings (size 3 to 8) (size 9 to 14) (size 15 to 20)
#    0.000    2.286    5.714    0.000    0.000    2.286 
#    2.571    1.429    3.143    0.000    0.000    0.000 
#    0.000    0.000    0.000    0.000    0.000    0.000 
#
# Total GULP energy -156155.536875 kJ/mol
# GULP energy per Si atom -5576.983460 kJ/mol
# Density = 2.683187 g / cm^3
# Si number density = 26.893078 Si / 1000 Ang^3
#
#
#
# Elastic Constant Matrix: (Units=GPa)
#
#
# Indices 1 2 3 4 5 6 
#
# 1 79.1700 82.0407 22.8916 0.0000 0.0000 -11.4155
# 2 82.0407 79.1700 22.8916 0.0000 0.0000 11.4155
# 3 22.8916 22.8916 56.7307 0.0000 0.0000 0.0000
# 4 0.0000 0.0000 0.0000 37.2776 0.0000 0.0000
# 5 0.0000 0.0000 0.0000 0.0000 37.2776 0.0000
# 6 -11.4155 11.4155 0.0000 0.0000 0.0000 49.5984
#
#
#
# Elastic Compliance Matrix: (Units=1/GPa)
#
#
# Indices 1 2 3 4 5 6 
#
# 1 -0.058033 0.065039 -0.002827 0.000000 0.000000 -0.028326
# 2 0.065039 -0.058033 -0.002827 0.000000 0.000000 0.028326
# 3 -0.002827 -0.002827 0.019909 0.000000 0.000000 0.000000
# 4 0.000000 0.000000 0.000000 0.026826 0.000000 0.000000
# 5 0.000000 0.000000 0.000000 0.000000 0.026826 0.000000
# 6 -0.028326 0.028326 0.000000 0.000000 0.000000 0.007123
#
#
# Mechanical properties :
#
#
# Convention : Reuss Voigt Hill
#
# Bulk Modulus (GPa) = 44.22332 52.30205 48.26269
# Shear Modulus (GPa) = -34.10310 30.64718 -1.72796
#
# Velocity S-wave (km/s) = -3.56490 3.37945 -0.80245
# Velocity P-wave (km/s) = 0.68182 5.89219 4.13842
#
# Compressibility (1/GPa) = 0.02261250
#
# Stress axis : x y z
#
# Youngs Moduli (GPa) = -17.23165 -17.23165 50.22954
#
# Poissons Ratio (x) = 1.12072 0.14200
# Poissons Ratio (y) = 1.12072 0.14200
# Poissons Ratio (z) = -0.04871 -0.04871
#
# Static dielectric constant tensor:
#      x y z
#    x 2.223750 0.000000 0.000000 
#    y 0.000000 2.223750 0.000000 
#    z 0.000000 0.000000 2.245790 
# 
# From -- ./inp_files/1424.got.cif
#   From: 2010.05.17/outbox.cif.g08.bks.cpg/sg78_cif.got.tgz:1424.got - 2010.06.03 18:45:56.
