data_PCOD9541802
_publ_section_title
;
Structure prediction by ZEFSAII (Michael W. Deem and Ramdas Pophale) SiO2 
 PCOD9541802
Probable space group: I 4
;
_chemical_formula_sum "Si O2"
_cell_formula_units_Z 32
_cell_length_a 14.054998
_cell_length_b 14.054998
_cell_length_c 5.651406
_cell_angle_alpha 90.000000
_cell_angle_beta 90.000000
_cell_angle_gamma 90.000000
_cell_volume 1116.395519
_symmetry_space_group_name_H-M "I 4"
_symmetry_group_IT_number 79
_symmetry_cell_setting 'tetragonal'
loop_
_space_group_symop_operation_xyz
x,y,z
-y,x,z
-x,-y,z
y,-x,z
1/2+x,1/2+y,1/2+z
1/2-y,1/2+x,1/2+z
1/2-x,1/2-y,1/2+z
1/2+y,1/2-x,1/2+z
loop_
_atom_site_type_symbol
_atom_site_label
_atom_site_fract_x
_atom_site_fract_y
_atom_site_fract_z
Si Si1 0.112892 0.345142 0.519260
Si Si2 0.956268 0.187584 0.019260
Si Si3 0.169283 0.125167 0.519260
Si Si4 0.834239 0.397975 0.519260
O O1 0.216184 0.392449 0.519260
O O2 0.064655 0.369083 0.271675
O O3 0.932115 0.145592 0.760249
O O4 0.064655 0.369083 0.766845
O O5 0.932115 0.145593 0.278270
O O6 0.065141 0.225358 0.019260
O O7 0.126222 0.230997 0.519260
O O8 0.284613 0.147677 0.519260
#
# Coordination Sequence:
#
# PCOD9541802 Si02
#       4
#     8   8   8   8
#     4  10  19  33  50  68  98 128 154 193 239 278
#     4  10  18  29  48  72  96 122 158 199 228 270
#     4  10  19  33  50  68  98 128 154 193 239 278
#     4  10  18  29  48  72  96 122 158 199 228 270
#
# _framework density 28.663678000000001
#
# number of rings (size 3 to 8) (size 9 to 14) (size 15 to 20)
#    0.000    2.000    0.000    9.000    0.000    0.000 
#    0.000    0.000    0.000   72.000    0.000    0.000 
#    0.000  195.000    0.000    0.000    0.000    0.000 
#
# Total GULP energy -89423.120003 kJ/mol
# GULP energy per Si atom -5588.945000 kJ/mol
# Density = 2.859844 g / cm^3
# Si number density = 28.663678 Si / 1000 Ang^3
#
#
#
# Elastic Constant Matrix: (Units=GPa)
#
#
# Indices 1 2 3 4 5 6 
#
# 1 87.9569 37.1402 43.4102 0.0000 0.0000 -8.9511
# 2 37.1402 87.9569 43.4102 0.0000 0.0000 8.9511
# 3 43.4102 43.4102 393.5121 0.0000 0.0000 0.0000
# 4 0.0000 0.0000 0.0000 4.2561 0.0000 0.0000
# 5 0.0000 0.0000 0.0000 0.0000 4.2561 0.0000
# 6 -8.9511 8.9511 0.0000 0.0000 0.0000 27.8274
#
#
#
# Elastic Compliance Matrix: (Units=1/GPa)
#
#
# Indices 1 2 3 4 5 6 
#
# 1 0.015425 -0.006768 -0.000955 0.000000 0.000000 0.007139
# 2 -0.006768 0.015425 -0.000955 0.000000 0.000000 -0.007139
# 3 -0.000955 -0.000955 0.002752 0.000000 0.000000 0.000000
# 4 0.000000 0.000000 0.000000 0.234956 0.000000 0.000000
# 5 0.000000 0.000000 0.000000 0.000000 0.234956 0.000000
# 6 0.007139 -0.007139 0.000000 0.000000 0.000000 0.040528
#
#
# Mechanical properties :
#
#
# Convention : Reuss Voigt Hill
#
# Bulk Modulus (GPa) = 61.55659 90.81637 76.18648
# Shear Modulus (GPa) = 8.82123 36.96561 22.89342
#
# Velocity S-wave (km/s) = 1.75618 3.59504 2.82918
# Velocity P-wave (km/s) = 5.06303 6.99890 6.10815
#
# Compressibility (1/GPa) = 0.01624522
#
# Stress axis : x y z
#
# Youngs Moduli (GPa) = 64.82972 64.82972 363.38434
#
# Poissons Ratio (x) = 0.43880 0.34701
# Poissons Ratio (y) = 0.43880 0.34701
# Poissons Ratio (z) = 0.06191 0.06191
#
# Static dielectric constant tensor:
#      x y z
#    x 2.173600 0.000000 0.000000 
#    y 0.000000 2.173600 0.000000 
#    z 0.000000 0.000000 2.242410 
# 
# From -- ./inp_files/100.got.cif
#   From: 2010.05.17/outbox.cif.g08.bks.cpg/sg79_cif.got.tgz:100.got - 2010.06.03 18:47:27.
