data_PCOD9541149
_publ_section_title
;
Structure prediction by ZEFSAII (Michael W. Deem and Ramdas Pophale) SiO2 
 PCOD9541149
Probable space group: P 41
;
_chemical_formula_sum "Si O2"
_cell_formula_units_Z 24
_cell_length_a 11.851293
_cell_length_b 11.851293
_cell_length_c 7.639487
_cell_angle_alpha 90.000000
_cell_angle_beta 90.000000
_cell_angle_gamma 90.000000
_cell_volume 1072.989981
_symmetry_space_group_name_H-M "P 41"
_symmetry_group_IT_number 76
_symmetry_cell_setting 'tetragonal'
loop_
_space_group_symop_operation_xyz
x,y,z
-y,x,1/4+z
-x,-y,1/2+z
y,-x,3/4+z
loop_
_atom_site_type_symbol
_atom_site_label
_atom_site_fract_x
_atom_site_fract_y
_atom_site_fract_z
Si Si1 0.149506 0.977416 0.064860
Si Si2 0.053318 0.682609 0.527788
Si Si3 0.364444 0.803074 0.659470
Si Si4 0.236211 0.780368 0.291513
Si Si5 0.581110 0.392557 0.683461
Si Si6 0.744820 0.427188 0.207517
O O1 0.224165 0.887063 0.167900
O O2 0.089708 0.057061 0.203986
O O3 0.221899 0.048061 0.926832
O O4 0.114664 0.734622 0.356977
O O5 0.137839 0.587736 0.600900
O O6 0.925130 0.645308 0.495985
O O7 0.303794 0.810236 0.469016
O O8 0.492809 0.767558 0.621150
O O9 0.300583 0.697707 0.747176
O O10 0.308671 0.683381 0.199245
O O11 0.517479 0.393005 0.500754
O O12 0.490619 0.340596 0.824432
#
# Coordination Sequence:
#
# PCOD9541149 Si02
#       6
#     4   4   4   4   4   4
#     4  12  24  41  68 101 138 185 236 280 350 417
#     4  11  22  42  66  96 138 180 228 295 344 417
#     4  10  21  41  70  92 138 179 231 286 351 407
#     4  10  22  42  69  98 139 180 231 287 345 412
#     4  11  21  45  70  98 135 177 228 283 353 418
#     4  10  20  39  67  93 126 177 224 279 347 403
#
# _framework density 22.367405000000002
#
# number of rings (size 3 to 8) (size 9 to 14) (size 15 to 20)
#    0.000    1.333    5.000    4.000    0.000    2.667 
#    6.000    1.667    0.000    0.000    0.000    0.000 
#    0.000    0.000    0.000    0.000    0.000    0.000 
#
# Total GULP energy -134379.408323 kJ/mol
# GULP energy per Si atom -5599.142013 kJ/mol
# Density = 2.231650 g / cm^3
# Si number density = 22.367405 Si / 1000 Ang^3
#
#
#
# Elastic Constant Matrix: (Units=GPa)
#
#
# Indices 1 2 3 4 5 6 
#
# 1 119.6073 48.1544 33.2411 0.0000 0.0000 -6.3717
# 2 48.1544 119.6073 33.2411 0.0000 0.0000 6.3717
# 3 33.2411 33.2411 60.8961 0.0000 0.0000 0.0000
# 4 0.0000 0.0000 0.0000 33.0050 0.0000 0.0000
# 5 0.0000 0.0000 0.0000 0.0000 33.0050 0.0000
# 6 -6.3717 6.3717 0.0000 0.0000 0.0000 23.7073
#
#
#
# Elastic Compliance Matrix: (Units=1/GPa)
#
#
# Indices 1 2 3 4 5 6 
#
# 1 0.011153 -0.003547 -0.004152 0.000000 0.000000 0.003951
# 2 -0.003547 0.011153 -0.004152 0.000000 0.000000 -0.003951
# 3 -0.004152 -0.004152 0.020954 0.000000 0.000000 0.000000
# 4 0.000000 0.000000 0.000000 0.030298 0.000000 0.000000
# 5 0.000000 0.000000 0.000000 0.000000 0.030298 0.000000
# 6 0.003951 -0.003951 0.000000 0.000000 0.000000 0.044305
#
#
# Mechanical properties :
#
#
# Convention : Reuss Voigt Hill
#
# Bulk Modulus (GPa) = 51.12790 58.82043 54.97417
# Shear Modulus (GPa) = 28.02955 30.30839 29.16897
#
# Velocity S-wave (km/s) = 3.54382 3.68506 3.61513
# Velocity P-wave (km/s) = 6.29704 6.66789 6.48511
#
# Compressibility (1/GPa) = 0.01955879
#
# Stress axis : x y z
#
# Youngs Moduli (GPa) = 89.66170 89.66170 47.72299
#
# Poissons Ratio (x) = 0.31801 0.19814
# Poissons Ratio (y) = 0.31801 0.19814
# Poissons Ratio (z) = 0.37227 0.37227
#
# Static dielectric constant tensor:
#      x y z
#    x 1.825360 0.000000 0.000000 
#    y 0.000000 1.825360 0.000000 
#    z 0.000000 0.000000 1.823210 
# 
# From -- ./inp_files/581.got.cif
#   From: 2010.05.17/outbox.cif.g08.bks.cpg/sg76_cif.got.tgz:581.got - 2010.06.03 18:43:17.
