data_PCOD9541470
_publ_section_title
;
Structure prediction by ZEFSAII (Michael W. Deem and Ramdas Pophale) SiO2 
 PCOD9541470
Probable space group: P 42
;
_chemical_formula_sum "Si O2"
_cell_formula_units_Z 24
_cell_length_a 11.689638
_cell_length_b 11.689638
_cell_length_c 8.614232
_cell_angle_alpha 90.000000
_cell_angle_beta 90.000000
_cell_angle_gamma 90.000000
_cell_volume 1177.114444
_symmetry_space_group_name_H-M "P 42"
_symmetry_group_IT_number 77
_symmetry_cell_setting 'tetragonal'
loop_
_space_group_symop_operation_xyz
x,y,z
-y,x,1/2+z
-x,-y,z
y,-x,1/2+z
loop_
_atom_site_type_symbol
_atom_site_label
_atom_site_fract_x
_atom_site_fract_y
_atom_site_fract_z
Si Si1 0.875178 0.553625 0.625000
Si Si2 0.177686 0.364568 0.287332
Si Si3 0.206393 0.962330 0.166132
Si Si4 0.035855 0.784048 0.307627
Si Si5 0.831622 0.345192 0.818749
Si Si6 0.882826 0.428671 0.157294
O O1 0.860070 0.567662 0.442042
O O2 0.876865 0.684333 0.682901
O O3 0.805897 0.456915 0.713993
O O4 0.000000 0.500000 0.652146
O O5 0.281280 0.286774 0.336214
O O6 0.206080 0.467038 0.170904
O O7 0.078965 0.273800 0.233902
O O8 0.095928 0.895045 0.231905
O O9 0.254304 0.076364 0.249105
O O10 0.193011 0.998829 0.985357
O O11 0.121158 0.675938 0.279248
O O12 0.879736 0.379274 0.985733
O O13 0.000000 0.500000 0.180352
#
# Coordination Sequence:
#
# PCOD9541470 Si02
#       6
#     4   4   4   4   4   4
#     4   9  18  38  60  81 114 158 200 235 285 362
#     4  10  21  38  60  84 115 154 195 245 300 353
#     4  10  21  38  61  88 121 159 196 240 295 358
#     4  10  21  39  62  88 123 160 195 238 295 358
#     4  11  22  36  61  90 115 152 201 250 299 351
#     4  10  19  35  60  87 116 157 203 238 282 356
#
# _framework density 20.388839999999998
#
# number of rings (size 3 to 8) (size 9 to 14) (size 15 to 20)
#    0.000    2.000    0.000    7.000    0.000    4.667 
#    0.000    6.667    0.000    8.000    0.000    0.000 
#    0.000    0.000    0.000    0.000    0.000    0.000 
#
# Total GULP energy -133610.989782 kJ/mol
# GULP energy per Si atom -5567.124574 kJ/mol
# Density = 2.034243 g / cm^3
# Si number density = 20.388840 Si / 1000 Ang^3
#
#
#
# Elastic Constant Matrix: (Units=GPa)
#
#
# Indices 1 2 3 4 5 6 
#
# 1 71.2091 48.8203 43.6589 0.0000 0.0000 3.0105
# 2 48.8203 71.2091 43.6589 0.0000 0.0000 -3.0105
# 3 43.6589 43.6589 68.7743 0.0000 0.0000 0.0000
# 4 0.0000 0.0000 0.0000 9.7391 0.0000 0.0000
# 5 0.0000 0.0000 0.0000 0.0000 9.7391 0.0000
# 6 3.0105 -3.0105 0.0000 0.0000 0.0000 -13.6344
#
#
#
# Elastic Compliance Matrix: (Units=1/GPa)
#
#
# Indices 1 2 3 4 5 6 
#
# 1 0.028821 -0.013341 -0.009827 0.000000 0.000000 0.009309
# 2 -0.013341 0.028821 -0.009827 0.000000 0.000000 -0.009309
# 3 -0.009827 -0.009827 0.027017 0.000000 0.000000 0.000000
# 4 0.000000 0.000000 0.000000 0.102679 0.000000 0.000000
# 5 0.000000 0.000000 0.000000 0.000000 0.102679 0.000000
# 6 0.009309 -0.009309 0.000000 0.000000 0.000000 -0.069233
#
#
# Mechanical properties :
#
#
# Convention : Reuss Voigt Hill
#
# Bulk Modulus (GPa) = 53.56413 53.71872 53.64142
# Shear Modulus (GPa) = 17.06506 6.17239 11.61872
#
# Velocity S-wave (km/s) = 2.89620 1.74181 2.38976
# Velocity P-wave (km/s) = 6.12473 5.51811 5.82931
#
# Compressibility (1/GPa) = 0.01866921
#
# Stress axis : x y z
#
# Youngs Moduli (GPa) = 34.69716 34.69716 37.01386
#
# Poissons Ratio (x) = 0.46288 0.36373
# Poissons Ratio (y) = 0.46288 0.36373
# Poissons Ratio (z) = 0.34097 0.34097
#
# Static dielectric constant tensor:
#      x y z
#    x 1.825950 0.000000 0.000000 
#    y 0.000000 1.825950 0.000000 
#    z 0.000000 0.000000 1.738610 
# 
# From -- ./inp_files/452.got.cif
#   From: 2010.05.17/outbox.cif.g08.bks.cpg/sg77_cif.got.tgz:452.got - 2010.06.03 18:44:51.
