data_PCOD9541084
_publ_section_title
;
Structure prediction by ZEFSAII (Michael W. Deem and Ramdas Pophale) SiO2 
 PCOD9541084
Probable space group: P 41
;
_chemical_formula_sum "Si O2"
_cell_formula_units_Z 32
_cell_length_a 12.162849
_cell_length_b 12.162849
_cell_length_c 12.064062
_cell_angle_alpha 90.000000
_cell_angle_beta 90.000000
_cell_angle_gamma 90.000000
_cell_volume 1784.695755
_symmetry_space_group_name_H-M "P 41"
_symmetry_group_IT_number 76
_symmetry_cell_setting 'tetragonal'
loop_
_space_group_symop_operation_xyz
x,y,z
-y,x,1/4+z
-x,-y,1/2+z
y,-x,3/4+z
loop_
_atom_site_type_symbol
_atom_site_label
_atom_site_fract_x
_atom_site_fract_y
_atom_site_fract_z
Si Si1 0.003147 0.274205 0.938640
Si Si2 0.695681 0.214135 0.341250
Si Si3 0.104063 0.654669 0.875411
Si Si4 0.227847 0.311362 0.352829
Si Si5 0.942563 0.828365 0.975626
Si Si6 0.082563 0.509370 0.326225
Si Si7 0.857183 0.064985 0.972820
Si Si8 0.552812 0.795032 0.847655
O O1 0.946513 0.388429 0.904351
O O2 0.919376 0.180513 0.979478
O O3 0.050590 0.224173 0.824532
O O4 0.101083 0.289056 0.025718
O O5 0.787787 0.304098 0.311714
O O6 0.709217 0.198551 0.473738
O O7 0.569435 0.248878 0.325584
O O8 0.036276 0.764672 0.908595
O O9 0.023891 0.569774 0.814048
O O10 0.139587 0.595952 0.990139
O O11 0.170500 0.215981 0.423588
O O12 0.174082 0.428449 0.379569
O O13 0.357573 0.299910 0.366508
O O14 0.941080 0.960625 0.973252
O O15 0.944429 0.797316 0.104620
O O16 0.128533 0.546751 0.206855
#
# Coordination Sequence:
#
# PCOD9541084 Si02
#       8
#     4   4   4   4   4   4   4   4
#     4  11  22  37  52  85 125 154 188 225 298 359
#     4  10  21  34  57  84 115 150 188 243 283 334
#     4  10  20  34  57  82 116 147 192 240 285 342
#     4   9  20  36  63  85 105 152 200 247 276 334
#     4  10  19  35  52  84 114 153 194 225 287 343
#     4  10  20  36  60  87 114 151 192 236 295 340
#     4  10  22  33  54  80 121 163 174 232 282 356
#     4  10  18  37  57  83 112 148 198 240 280 336
#
# _framework density 17.930226000000001
#
# number of rings (size 3 to 8) (size 9 to 14) (size 15 to 20)
#    0.000    2.000    1.250    3.750    3.500    3.000 
#    0.000    0.000    0.000    4.500    0.000    0.000 
#    0.000    0.000    0.000    0.000    0.000    0.000 
#
# Total GULP energy -178481.199008 kJ/mol
# GULP energy per Si atom -5577.537469 kJ/mol
# Density = 1.788942 g / cm^3
# Si number density = 17.930226 Si / 1000 Ang^3
#
#
#
# Elastic Constant Matrix: (Units=GPa)
#
#
# Indices 1 2 3 4 5 6 
#
# 1 111.9408 75.8174 26.0706 0.0000 0.0000 -5.5756
# 2 75.8174 111.9408 26.0706 0.0000 0.0000 5.5756
# 3 26.0706 26.0706 51.1300 0.0000 0.0000 0.0000
# 4 0.0000 0.0000 0.0000 19.8405 0.0000 0.0000
# 5 0.0000 0.0000 0.0000 0.0000 19.8405 0.0000
# 6 -5.5756 5.5756 0.0000 0.0000 0.0000 28.6013
#
#
#
# Elastic Compliance Matrix: (Units=1/GPa)
#
#
# Indices 1 2 3 4 5 6 
#
# 1 0.017830 -0.011625 -0.003164 0.000000 0.000000 0.005742
# 2 -0.011625 0.017830 -0.003164 0.000000 0.000000 -0.005742
# 3 -0.003164 -0.003164 0.022784 0.000000 0.000000 0.000000
# 4 0.000000 0.000000 0.000000 0.050402 0.000000 0.000000
# 5 0.000000 0.000000 0.000000 0.000000 0.050402 0.000000
# 6 0.005742 -0.005742 0.000000 0.000000 0.000000 0.037202
#
#
# Mechanical properties :
#
#
# Convention : Reuss Voigt Hill
#
# Bulk Modulus (GPa) = 44.36801 58.99208 51.68004
# Shear Modulus (GPa) = 20.84472 23.45999 22.15236
#
# Velocity S-wave (km/s) = 3.41331 3.62111 3.51875
# Velocity P-wave (km/s) = 6.35081 7.10321 6.73752
#
# Compressibility (1/GPa) = 0.02253876
#
# Stress axis : x y z
#
# Youngs Moduli (GPa) = 56.08511 56.08511 43.89015
#
# Poissons Ratio (x) = 0.65202 0.13885
# Poissons Ratio (y) = 0.65202 0.13885
# Poissons Ratio (z) = 0.17743 0.17743
#
# Static dielectric constant tensor:
#      x y z
#    x 1.634600 0.000000 0.000000 
#    y 0.000000 1.634600 0.000000 
#    z 0.000000 0.000000 1.615950 
# 
# From -- ./inp_files/937.got.cif
#   From: 2010.05.17/outbox.cif.g08.bks.cpg/sg76_cif.got.tgz:937.got - 2010.06.03 18:43:17.
