data_PCOD9541632
_publ_section_title
;
Structure prediction by ZEFSAII (Michael W. Deem and Ramdas Pophale) SiO2 
 PCOD9541632
Probable space group: P 43
;
_chemical_formula_sum "Si O2"
_cell_formula_units_Z 32
_cell_length_a 7.874487
_cell_length_b 7.874487
_cell_length_c 20.396999
_cell_angle_alpha 90.000000
_cell_angle_beta 90.000000
_cell_angle_gamma 90.000000
_cell_volume 1264.767844
_symmetry_space_group_name_H-M "P 43"
_symmetry_group_IT_number 78
_symmetry_cell_setting 'tetragonal'
loop_
_space_group_symop_operation_xyz
x,y,z
-y,x,3/4+z
-x,-y,1/2+z
y,-x,1/4+z
loop_
_atom_site_type_symbol
_atom_site_label
_atom_site_fract_x
_atom_site_fract_y
_atom_site_fract_z
Si Si1 0.857808 0.053191 0.837490
Si Si2 0.812392 0.241894 0.704513
Si Si3 0.437293 0.937426 0.518125
Si Si4 0.140731 0.168635 0.642947
Si Si5 0.401434 0.048004 0.156267
Si Si6 0.571349 0.587480 0.108520
Si Si7 0.654422 0.796618 0.783879
Si Si8 0.710606 0.611314 0.242069
O O1 0.678510 0.958542 0.831071
O O2 0.985221 0.914771 0.868384
O O3 0.884706 0.119029 0.762700
O O4 0.875716 0.225125 0.878372
O O5 0.808257 0.424917 0.736811
O O6 0.954080 0.251741 0.648273
O O7 0.647508 0.142450 0.679537
O O8 0.473042 0.953920 0.595826
O O9 0.259692 0.843015 0.509587
O O10 0.489671 0.121656 0.489340
O O11 0.274761 0.273777 0.599524
O O12 0.225521 0.205767 0.714842
O O13 0.451943 0.151060 0.220392
O O14 0.643907 0.421359 0.074183
O O15 0.575578 0.557464 0.186358
O O16 0.410065 0.640695 0.065112
#
# Coordination Sequence:
#
# PCOD9541632 Si02
#       8
#     4   4   4   4   4   4   4   4
#     4   9  17  35  59  89 116 154 201 256 311 361
#     4   8  16  35  57  87 119 155 196 263 305 363
#     4  10  20  39  62  87 119 166 206 249 316 382
#     4   8  17  34  59  83 112 158 205 251 301 367
#     4   9  20  36  60  85 125 150 203 255 311 365
#     4  10  22  39  59  89 127 160 210 260 317 375
#     4  11  23  34  59  90 121 163 197 257 314 372
#     4   9  21  40  65  82 123 166 212 261 305 383
#
# _framework density 25.301083999999999
#
# number of rings (size 3 to 8) (size 9 to 14) (size 15 to 20)
#    0.750    2.000    0.000    0.750    3.500    0.000 
#    4.500    1.250    0.000    0.000    0.000    0.000 
#    0.000    0.000    0.000    0.000    0.000    0.000 
#
# Total GULP energy -178416.420155 kJ/mol
# GULP energy per Si atom -5575.513130 kJ/mol
# Density = 2.524350 g / cm^3
# Si number density = 25.301084 Si / 1000 Ang^3
#
#
#
# Elastic Constant Matrix: (Units=GPa)
#
#
# Indices 1 2 3 4 5 6 
#
# 1 57.7868 8.8873 28.3852 0.0000 0.0000 5.3810
# 2 8.8873 57.7868 28.3852 0.0000 0.0000 -5.3810
# 3 28.3852 28.3852 125.7989 0.0000 0.0000 0.0000
# 4 0.0000 0.0000 0.0000 31.5712 0.0000 0.0000
# 5 0.0000 0.0000 0.0000 0.0000 31.5712 0.0000
# 6 5.3810 -5.3810 0.0000 0.0000 0.0000 28.3949
#
#
#
# Elastic Compliance Matrix: (Units=1/GPa)
#
#
# Indices 1 2 3 4 5 6 
#
# 1 0.019953 -0.001388 -0.004189 0.000000 0.000000 -0.004044
# 2 -0.001388 0.019953 -0.004189 0.000000 0.000000 0.004044
# 3 -0.004189 -0.004189 0.009840 0.000000 0.000000 0.000000
# 4 0.000000 0.000000 0.000000 0.031674 0.000000 0.000000
# 5 0.000000 0.000000 0.000000 0.000000 0.031674 0.000000
# 6 -0.004044 0.004044 0.000000 0.000000 0.000000 0.036750
#
#
# Mechanical properties :
#
#
# Convention : Reuss Voigt Hill
#
# Bulk Modulus (GPa) = 33.09753 41.40979 37.25366
# Shear Modulus (GPa) = 27.86347 30.02179 28.94263
#
# Velocity S-wave (km/s) = 3.32215 3.44842 3.38587
# Velocity P-wave (km/s) = 5.27498 5.67959 5.48102
#
# Compressibility (1/GPa) = 0.03021373
#
# Stress axis : x y z
#
# Youngs Moduli (GPa) = 50.11872 50.11872 101.62994
#
# Poissons Ratio (x) = 0.06954 0.42573
# Poissons Ratio (y) = 0.06954 0.42573
# Poissons Ratio (z) = 0.20995 0.20995
#
# Static dielectric constant tensor:
#      x y z
#    x 2.048990 0.000000 0.000000 
#    y 0.000000 2.048990 0.000000 
#    z 0.000000 0.000000 1.991310 
# 
# From -- ./inp_files/1608.got.cif
#   From: 2010.05.17/outbox.cif.g08.bks.cpg/sg78_cif.got.tgz:1608.got - 2010.06.03 18:45:56.
