data_PCOD9541662
_publ_section_title
;
Structure prediction by ZEFSAII (Michael W. Deem and Ramdas Pophale) SiO2 
 PCOD9541662
Probable space group: P 43
;
_chemical_formula_sum "Si O2"
_cell_formula_units_Z 24
_cell_length_a 11.504001
_cell_length_b 11.504001
_cell_length_c 7.775806
_cell_angle_alpha 90.000000
_cell_angle_beta 90.000000
_cell_angle_gamma 90.000000
_cell_volume 1029.066021
_symmetry_space_group_name_H-M "P 43"
_symmetry_group_IT_number 78
_symmetry_cell_setting 'tetragonal'
loop_
_space_group_symop_operation_xyz
x,y,z
-y,x,3/4+z
-x,-y,1/2+z
y,-x,1/4+z
loop_
_atom_site_type_symbol
_atom_site_label
_atom_site_fract_x
_atom_site_fract_y
_atom_site_fract_z
Si Si1 0.632595 0.754725 0.189820
Si Si2 0.706997 0.866811 0.509984
Si Si3 0.625625 0.199807 0.251025
Si Si4 0.856044 0.043985 0.316057
Si Si5 0.899112 0.378516 0.112101
Si Si6 0.854483 0.548015 0.640534
O O1 0.709793 0.766986 0.363662
O O2 0.675665 0.645313 0.086539
O O3 0.500161 0.767584 0.248245
O O4 0.650777 0.862089 0.056203
O O5 0.806799 0.955341 0.460261
O O6 0.700507 0.843842 0.712124
O O7 0.574914 0.909943 0.462457
O O8 0.510086 0.142685 0.328352
O O9 0.743431 0.125263 0.280061
O O10 0.602761 0.209468 0.049928
O O11 0.892274 0.967249 0.150262
O O12 0.037566 0.374483 0.086075
#
# Coordination Sequence:
#
# PCOD9541662 Si02
#       6
#     4   4   4   4   4   4
#     4  10  21  40  63  96 131 163 228 287 346 405
#     4   9  20  38  59  89 126 172 229 271 333 394
#     4  11  22  41  68  92 136 184 222 297 344 410
#     4  12  24  41  57  90 145 196 237 285 351 416
#     4  11  20  39  69  94 128 174 237 287 331 406
#     4   9  19  37  64  97 128 173 233 281 335 407
#
# _framework density 23.322119000000001
#
# number of rings (size 3 to 8) (size 9 to 14) (size 15 to 20)
#    1.000    0.667    3.333    3.000    0.000    1.333 
#    6.000    0.000    0.000    2.000    0.000    0.000 
#    0.000    0.000    0.000    0.000    0.000    0.000 
#
# Total GULP energy -133837.608517 kJ/mol
# GULP energy per Si atom -5576.567022 kJ/mol
# Density = 2.326904 g / cm^3
# Si number density = 23.322119 Si / 1000 Ang^3
#
#
#
# Elastic Constant Matrix: (Units=GPa)
#
#
# Indices 1 2 3 4 5 6 
#
# 1 57.3002 23.0023 38.7828 0.0000 0.0000 5.3683
# 2 23.0023 57.3002 38.7828 0.0000 0.0000 -5.3683
# 3 38.7828 38.7828 139.7010 0.0000 0.0000 0.0000
# 4 0.0000 0.0000 0.0000 33.8297 0.0000 0.0000
# 5 0.0000 0.0000 0.0000 0.0000 33.8297 0.0000
# 6 5.3683 -5.3683 0.0000 0.0000 0.0000 28.6144
#
#
#
# Elastic Compliance Matrix: (Units=1/GPa)
#
#
# Indices 1 2 3 4 5 6 
#
# 1 0.023996 -0.006980 -0.004724 0.000000 0.000000 -0.005811
# 2 -0.006980 0.023996 -0.004724 0.000000 0.000000 0.005811
# 3 -0.004724 -0.004724 0.009781 0.000000 0.000000 0.000000
# 4 0.000000 0.000000 0.000000 0.029560 0.000000 0.000000
# 5 0.000000 0.000000 0.000000 0.000000 0.029560 0.000000
# 6 -0.005811 0.005811 0.000000 0.000000 0.000000 0.037128
#
#
# Mechanical properties :
#
#
# Convention : Reuss Voigt Hill
#
# Bulk Modulus (GPa) = 40.13293 50.60413 45.36853
# Shear Modulus (GPa) = 25.61738 29.50368 27.56053
#
# Velocity S-wave (km/s) = 3.31783 3.56061 3.44136
# Velocity P-wave (km/s) = 5.65003 6.21683 5.94019
#
# Compressibility (1/GPa) = 0.02491719
#
# Stress axis : x y z
#
# Youngs Moduli (GPa) = 41.67440 41.67440 102.23993
#
# Poissons Ratio (x) = 0.29088 0.48296
# Poissons Ratio (y) = 0.29088 0.48296
# Poissons Ratio (z) = 0.19686 0.19686
#
# Static dielectric constant tensor:
#      x y z
#    x 1.892160 0.000000 0.000000 
#    y 0.000000 1.892160 0.000000 
#    z 0.000000 0.000000 1.904860 
# 
# From -- ./inp_files/580.got.cif
#   From: 2010.05.17/outbox.cif.g08.bks.cpg/sg78_cif.got.tgz:580.got - 2010.06.03 18:45:56.
