data_PCOD9541654
_publ_section_title
;
Structure prediction by ZEFSAII (Michael W. Deem and Ramdas Pophale) SiO2 
 PCOD9541654
Probable space group: P 43
;
_chemical_formula_sum "Si O2"
_cell_formula_units_Z 28
_cell_length_a 7.287475
_cell_length_b 7.287475
_cell_length_c 18.649356
_cell_angle_alpha 90.000000
_cell_angle_beta 90.000000
_cell_angle_gamma 90.000000
_cell_volume 990.416792
_symmetry_space_group_name_H-M "P 43"
_symmetry_group_IT_number 78
_symmetry_cell_setting 'tetragonal'
loop_
_space_group_symop_operation_xyz
x,y,z
-y,x,3/4+z
-x,-y,1/2+z
y,-x,1/4+z
loop_
_atom_site_type_symbol
_atom_site_label
_atom_site_fract_x
_atom_site_fract_y
_atom_site_fract_z
Si Si1 0.601753 0.187647 0.291270
Si Si2 0.453805 0.686458 0.255343
Si Si3 0.003942 0.334762 0.904909
Si Si4 0.927508 0.077540 0.528362
Si Si5 0.323211 0.024916 0.563065
Si Si6 0.370572 0.665614 0.423183
Si Si7 0.593683 0.135981 0.444792
O O1 0.488298 0.288003 0.230720
O O2 0.510919 0.123945 0.364652
O O3 0.222788 0.182434 0.167883
O O4 0.034693 0.110265 0.304587
O O5 0.386616 0.884016 0.225672
O O6 0.731373 0.028013 0.261210
O O7 0.432788 0.649303 0.339923
O O8 0.308337 0.557411 0.214716
O O9 0.101139 0.217907 0.842827
O O10 0.942615 0.528764 0.867248
O O11 0.792034 0.039053 0.461346
O O12 0.432731 0.041442 0.489571
O O13 0.312385 0.242151 0.580808
O O14 0.632462 0.343694 0.475099
#
# Coordination Sequence:
#
# PCOD9541654 Si02
#       7
#     4   4   4   4   4   4   4
#     4  10  21  38  69 105 139 180 237 294 350 430
#     4  12  23  44  71 101 146 188 233 308 364 428
#     4  11  24  46  73 105 143 196 243 294 375 437
#     4   9  21  40  68 100 139 184 238 289 352 434
#     4   9  20  38  70 105 136 187 235 290 353 433
#     4  12  26  43  75 110 143 189 253 302 366 453
#     4  11  19  39  74 102 136 192 233 285 372 423
#
# _framework density 28.270924999999998
#
# number of rings (size 3 to 8) (size 9 to 14) (size 15 to 20)
#    0.857    0.571    2.857    3.429    0.000    2.286 
#    0.000    2.857    0.000    0.000    0.000    0.000 
#    0.000    0.000    0.000    0.000    0.000    0.000 
#
# Total GULP energy -156065.416226 kJ/mol
# GULP energy per Si atom -5573.764865 kJ/mol
# Density = 2.820658 g / cm^3
# Si number density = 28.270925 Si / 1000 Ang^3
#
#
#
# Elastic Constant Matrix: (Units=GPa)
#
#
# Indices 1 2 3 4 5 6 
#
# 1 139.9478 12.6361 44.2539 0.0000 0.0000 1.0258
# 2 12.6361 139.9478 44.2539 0.0000 0.0000 -1.0258
# 3 44.2539 44.2539 205.3342 0.0000 0.0000 0.0000
# 4 0.0000 0.0000 0.0000 44.1184 0.0000 0.0000
# 5 0.0000 0.0000 0.0000 0.0000 44.1184 0.0000
# 6 1.0258 -1.0258 0.0000 0.0000 0.0000 23.8529
#
#
#
# Elastic Compliance Matrix: (Units=1/GPa)
#
#
# Indices 1 2 3 4 5 6 
#
# 1 0.007675 -0.000185 -0.001614 0.000000 0.000000 -0.000338
# 2 -0.000185 0.007675 -0.001614 0.000000 0.000000 0.000338
# 3 -0.001614 -0.001614 0.005566 0.000000 0.000000 0.000000
# 4 0.000000 0.000000 0.000000 0.022666 0.000000 0.000000
# 5 0.000000 0.000000 0.000000 0.000000 0.022666 0.000000
# 6 -0.000338 0.000338 0.000000 0.000000 0.000000 0.041953
#
#
# Mechanical properties :
#
#
# Convention : Reuss Voigt Hill
#
# Bulk Modulus (GPa) = 70.97691 76.39087 73.68389
# Shear Modulus (GPa) = 41.76232 48.02365 44.89299
#
# Velocity S-wave (km/s) = 3.84763 4.12599 3.98924
# Velocity P-wave (km/s) = 6.70071 7.05536 6.88032
#
# Compressibility (1/GPa) = 0.01408909
#
# Stress axis : x y z
#
# Youngs Moduli (GPa) = 130.29027 130.29027 179.66423
#
# Poissons Ratio (x) = 0.02411 0.29003
# Poissons Ratio (y) = 0.02411 0.29003
# Poissons Ratio (z) = 0.21033 0.21033
#
# Static dielectric constant tensor:
#      x y z
#    x 2.640040 0.000000 0.000000 
#    y 0.000000 2.640040 0.000000 
#    z 0.000000 0.000000 2.321400 
# 
# From -- ./inp_files/1259.got.cif
#   From: 2010.05.17/outbox.cif.g08.bks.cpg/sg78_cif.got.tgz:1259.got - 2010.06.03 18:45:56.
