data_PCOD9541581
_publ_section_title
;
Structure prediction by ZEFSAII (Michael W. Deem and Ramdas Pophale) SiO2 
 PCOD9541581
Probable space group: P 42
;
_chemical_formula_sum "Si O2"
_cell_formula_units_Z 26
_cell_length_a 12.000000
_cell_length_b 12.000000
_cell_length_c 9.000000
_cell_angle_alpha 90.000000
_cell_angle_beta 90.000000
_cell_angle_gamma 90.000000
_cell_volume 1296.000000
_symmetry_space_group_name_H-M "P 42"
_symmetry_group_IT_number 77
_symmetry_cell_setting 'tetragonal'
loop_
_space_group_symop_operation_xyz
x,y,z
-y,x,1/2+z
-x,-y,z
y,-x,1/2+z
loop_
_atom_site_type_symbol
_atom_site_label
_atom_site_fract_x
_atom_site_fract_y
_atom_site_fract_z
Si Si1 0.617305 0.348893 0.075600
Si Si2 0.500000 0.500000 0.825952
Si Si3 0.875677 0.042606 0.206450
Si Si4 0.817933 0.242490 0.673842
Si Si5 0.131551 0.494017 0.683766
Si Si6 0.146217 0.737441 0.012182
Si Si7 0.902598 0.683888 0.943865
O O1 0.569158 0.416255 0.218487
O O2 0.571281 0.221831 0.083569
O O3 0.751142 0.334942 0.075440
O O4 0.570509 0.416593 0.932690
O O5 0.882509 0.151812 0.104686
O O6 0.793084 0.080318 0.338823
O O7 0.812639 0.937329 0.130233
O O8 0.000000 0.000000 0.248455
O O9 0.826647 0.377429 0.675884
O O10 0.722426 0.185556 0.571432
O O11 0.811801 0.219712 0.850510
O O12 0.132007 0.421499 0.839406
O O13 0.000000 0.500000 0.641189
O O14 0.030365 0.668433 0.000144
#
# Coordination Sequence:
#
# PCOD9541581 Si02
#       7
#     4   2   4   4   4   4   4
#     4  11  24  48  71 105 137 189 249 303 362 430
#     4  10  26  46  78 102 136 188 252 314 352 426
#     4  11  22  39  67 103 145 184 235 294 362 447
#     4  11  25  40  68 101 141 189 235 295 367 434
#     4  12  23  45  68 101 144 193 234 301 368 424
#     4  11  22  42  66 104 139 181 239 298 362 437
#     4  11  25  42  69 102 144 194 236 297 364 430
#
# _framework density 20.061727999999999
#
# number of rings (size 3 to 8) (size 9 to 14) (size 15 to 20)
#    0.000    0.923    6.154    0.923    6.462    0.000 
#    2.769    1.538    0.000    0.000    0.000    0.000 
#    0.000    0.000    0.000    0.000    0.000    0.000 
#
# Total GULP energy -145202.367265 kJ/mol
# GULP energy per Si atom -5584.706433 kJ/mol
# Density = 2.001607 g / cm^3
# Si number density = 20.061728 Si / 1000 Ang^3
#
#
#
# Elastic Constant Matrix: (Units=GPa)
#
#
# Indices 1 2 3 4 5 6 
#
# 1 143.2209 32.0744 41.3593 0.0000 0.0000 -12.5871
# 2 32.0744 143.2209 41.3593 0.0000 0.0000 12.5871
# 3 41.3593 41.3593 77.1032 0.0000 0.0000 0.0000
# 4 0.0000 0.0000 0.0000 37.9382 0.0000 0.0000
# 5 0.0000 0.0000 0.0000 0.0000 37.9382 0.0000
# 6 -12.5871 12.5871 0.0000 0.0000 0.0000 38.5573
#
#
#
# Elastic Compliance Matrix: (Units=1/GPa)
#
#
# Indices 1 2 3 4 5 6 
#
# 1 0.008677 -0.001039 -0.004097 0.000000 0.000000 0.003172
# 2 -0.001039 0.008677 -0.004097 0.000000 0.000000 -0.003172
# 3 -0.004097 -0.004097 0.017365 0.000000 0.000000 0.000000
# 4 0.000000 0.000000 0.000000 0.026359 0.000000 0.000000
# 5 0.000000 0.000000 0.000000 0.000000 0.026359 0.000000
# 6 0.003172 -0.003172 0.000000 0.000000 0.000000 0.028006
#
#
# Mechanical properties :
#
#
# Convention : Reuss Voigt Hill
#
# Bulk Modulus (GPa) = 61.52849 65.90342 63.71595
# Shear Modulus (GPa) = 35.88711 39.47020 37.67865
#
# Velocity S-wave (km/s) = 4.23405 4.44039 4.33845
# Velocity P-wave (km/s) = 7.39182 7.69487 7.54487
#
# Compressibility (1/GPa) = 0.01625263
#
# Stress axis : x y z
#
# Youngs Moduli (GPa) = 115.25037 115.25037 57.58656
#
# Poissons Ratio (x) = 0.11971 0.23594
# Poissons Ratio (y) = 0.11971 0.23594
# Poissons Ratio (z) = 0.47220 0.47220
#
# Static dielectric constant tensor:
#      x y z
#    x 1.727730 0.000000 0.000000 
#    y 0.000000 1.727730 0.000000 
#    z 0.000000 0.000000 1.750930 
# 
# From -- ./inp_files/465.got.cif
#   From: 2010.05.17/outbox.ucp.g08.bks.cvg/sg77_cif.got.tgz:465.got - 2010.06.11 16:42:04.
