data_PCOD9541624
_publ_section_title
;
Structure prediction by ZEFSAII (Michael W. Deem and Ramdas Pophale) SiO2 
 PCOD9541624
Probable space group: P 43
;
_chemical_formula_sum "Si O2"
_cell_formula_units_Z 32
_cell_length_a 11.306490
_cell_length_b 11.306490
_cell_length_c 12.105932
_cell_angle_alpha 90.000000
_cell_angle_beta 90.000000
_cell_angle_gamma 90.000000
_cell_volume 1547.582592
_symmetry_space_group_name_H-M "P 43"
_symmetry_group_IT_number 78
_symmetry_cell_setting 'tetragonal'
loop_
_space_group_symop_operation_xyz
x,y,z
-y,x,3/4+z
-x,-y,1/2+z
y,-x,1/4+z
loop_
_atom_site_type_symbol
_atom_site_label
_atom_site_fract_x
_atom_site_fract_y
_atom_site_fract_z
Si Si1 0.539479 0.256127 0.990160
Si Si2 0.114994 0.772388 0.389710
Si Si3 0.956293 0.715477 0.727151
Si Si4 0.609839 0.112017 0.608186
Si Si5 0.478469 0.116358 0.380791
Si Si6 0.560054 0.712613 0.716620
Si Si7 0.038614 0.624033 0.962884
Si Si8 0.283138 0.191619 0.902434
O O1 0.626922 0.152501 0.954623
O O2 0.584736 0.382687 0.950645
O O3 0.413769 0.217505 0.946378
O O4 0.535718 0.263676 0.122970
O O5 0.157502 0.896921 0.445992
O O6 0.199886 0.669742 0.438030
O O7 0.140702 0.785364 0.258768
O O8 0.988179 0.705279 0.395257
O O9 0.061353 0.652035 0.656401
O O10 0.993878 0.694993 0.855016
O O11 0.559837 0.088272 0.485950
O O12 0.487448 0.119293 0.675605
O O13 0.684837 0.229433 0.615259
O O14 0.471193 0.252211 0.341608
O O15 0.549564 0.059947 0.278603
O O16 0.103625 0.708294 0.049456
#
# Coordination Sequence:
#
# PCOD9541624 Si02
#       8
#     4   4   4   4   4   4   4   4
#     4  10  20  36  57  89 116 165 214 267 321 386
#     4  10  20  37  66  92 116 165 217 268 324 399
#     4  10  20  35  65  96 119 158 226 273 324 404
#     4  11  23  38  65  96 125 173 222 263 333 399
#     4  11  18  38  60  89 122 167 214 267 330 392
#     4  10  20  36  58  85 121 160 211 265 324 387
#     4  11  19  38  64  92 127 168 222 272 326 401
#     4  11  22  38  65  89 126 172 218 275 320 396
#
# _framework density 20.677409000000001
#
# number of rings (size 3 to 8) (size 9 to 14) (size 15 to 20)
#    0.000    1.500    5.000    2.250    3.500    0.000 
#    6.750    0.000    2.750    0.000    0.000    0.000 
#    0.000    0.000    0.000    0.000    0.000    0.000 
#
# Total GULP energy -178208.130967 kJ/mol
# GULP energy per Si atom -5569.004093 kJ/mol
# Density = 2.063035 g / cm^3
# Si number density = 20.677409 Si / 1000 Ang^3
#
#
#
# Elastic Constant Matrix: (Units=GPa)
#
#
# Indices 1 2 3 4 5 6 
#
# 1 21.8858 6.6557 10.1997 0.0000 0.0000 4.4771
# 2 6.6557 21.8858 10.1997 0.0000 0.0000 -4.4771
# 3 10.1997 10.1997 88.5440 0.0000 0.0000 0.0000
# 4 0.0000 0.0000 0.0000 14.7158 0.0000 0.0000
# 5 0.0000 0.0000 0.0000 0.0000 14.7158 0.0000
# 6 4.4771 -4.4771 0.0000 0.0000 0.0000 28.0179
#
#
#
# Elastic Compliance Matrix: (Units=1/GPa)
#
#
# Indices 1 2 3 4 5 6 
#
# 1 0.055324 -0.017144 -0.004398 0.000000 0.000000 -0.011580
# 2 -0.017144 0.055324 -0.004398 0.000000 0.000000 0.011580
# 3 -0.004398 -0.004398 0.012307 0.000000 0.000000 0.000000
# 4 0.000000 0.000000 0.000000 0.067954 0.000000 0.000000
# 5 0.000000 0.000000 0.000000 0.000000 0.067954 0.000000
# 6 -0.011580 0.011580 0.000000 0.000000 0.000000 0.039392
#
#
# Mechanical properties :
#
#
# Convention : Reuss Voigt Hill
#
# Bulk Modulus (GPa) = 14.06966 20.71399 17.39183
# Shear Modulus (GPa) = 13.37515 18.50724 15.94119
#
# Velocity S-wave (km/s) = 2.54608 2.99498 2.77961
# Velocity P-wave (km/s) = 3.93224 4.69034 4.32792
#
# Compressibility (1/GPa) = 0.07107491
#
# Stress axis : x y z
#
# Youngs Moduli (GPa) = 18.07536 18.07536 81.25391
#
# Poissons Ratio (x) = 0.30988 0.35736
# Poissons Ratio (y) = 0.30988 0.35736
# Poissons Ratio (z) = 0.07950 0.07950
#
# Static dielectric constant tensor:
#      x y z
#    x 1.774170 0.000000 0.000000 
#    y 0.000000 1.774170 0.000000 
#    z 0.000000 0.000000 1.795820 
# 
# From -- ./inp_files/971.got.cif
#   From: 2010.05.17/outbox.cif.g08.bks.cpg/sg78_cif.got.tgz:971.got - 2010.06.03 18:45:56.
