data_PCOD9541011
_publ_section_title
;
Structure prediction by ZEFSAII (Michael W. Deem and Ramdas Pophale) SiO2 
 PCOD9541011
Probable space group: P 4
;
_chemical_formula_sum "Si O2"
_cell_formula_units_Z 25
_cell_length_a 10.948860
_cell_length_b 10.948860
_cell_length_c 8.630714
_cell_angle_alpha 90.000000
_cell_angle_beta 90.000000
_cell_angle_gamma 90.000000
_cell_volume 1034.628722
_symmetry_space_group_name_H-M "P 4"
_symmetry_group_IT_number 75
_symmetry_cell_setting 'tetragonal'
loop_
_space_group_symop_operation_xyz
x,y,z
-y,x,z
-x,-y,z
y,-x,z
loop_
_atom_site_type_symbol
_atom_site_label
_atom_site_fract_x
_atom_site_fract_y
_atom_site_fract_z
Si Si1 0.982314 0.805198 0.459360
Si Si2 0.804475 0.989568 0.831304
Si Si3 0.520865 0.708035 0.503022
Si Si4 0.362125 0.738310 0.013113
Si Si5 0.584706 0.104944 0.272012
Si Si6 0.500000 0.500000 0.115004
Si Si7 0.590349 0.827964 0.824542
O O1 0.957290 0.670971 0.399515
O O2 0.107143 0.870801 0.408433
O O3 0.993247 0.807292 0.645107
O O4 0.664300 0.952239 0.856802
O O5 0.890703 0.877004 0.885763
O O6 0.394921 0.627778 0.506590
O O7 0.501517 0.794476 0.354957
O O8 0.549131 0.795452 0.649732
O O9 0.474120 0.804039 0.928960
O O10 0.275344 0.686958 0.879514
O O11 0.326747 0.831764 0.147369
O O12 0.408060 0.617175 0.100227
O O13 0.500000 0.000000 0.202993
#
# Coordination Sequence:
#
# PCOD9541011 Si02
#       7
#     4   4   4   4   4   1   4
#     4   9  21  43  70  95 132 180 227 286 355 409
#     4   9  20  38  66  98 127 175 231 285 351 411
#     4  11  26  43  71 107 139 181 240 291 356 428
#     4  10  24  40  67  96 141 192 224 289 366 426
#     4  12  28  43  68 106 144 181 239 300 351 431
#     4   8  20  40  64  86 128 184 232 262 356 428
#     4  11  21  43  69  98 141 182 231 295 351 433
#
# _framework density 24.163257000000002
#
# number of rings (size 3 to 8) (size 9 to 14) (size 15 to 20)
#    0.000    1.760    1.600    1.920   11.200    1.280 
#    0.000    0.800    0.000    1.920    0.000    0.000 
#    0.000    0.000    0.000    0.000    0.000    0.000 
#
# Total GULP energy -139346.822716 kJ/mol
# GULP energy per Si atom -5573.872909 kJ/mol
# Density = 2.410826 g / cm^3
# Si number density = 24.163257 Si / 1000 Ang^3
#
#
#
# Elastic Constant Matrix: (Units=GPa)
#
#
# Indices 1 2 3 4 5 6 
#
# 1 83.1699 29.0665 16.9195 0.0000 0.0000 -2.6377
# 2 29.0665 83.1699 16.9195 0.0000 0.0000 2.6377
# 3 16.9195 16.9195 66.3375 0.0000 0.0000 0.0000
# 4 0.0000 0.0000 0.0000 23.1485 0.0000 0.0000
# 5 0.0000 0.0000 0.0000 0.0000 23.1485 0.0000
# 6 -2.6377 2.6377 0.0000 0.0000 0.0000 36.5712
#
#
#
# Elastic Compliance Matrix: (Units=1/GPa)
#
#
# Indices 1 2 3 4 5 6 
#
# 1 0.014133 -0.004481 -0.002462 0.000000 0.000000 0.001343
# 2 -0.004481 0.014133 -0.002462 0.000000 0.000000 -0.001343
# 3 -0.002462 -0.002462 0.016330 0.000000 0.000000 0.000000
# 4 0.000000 0.000000 0.000000 0.043199 0.000000 0.000000
# 5 0.000000 0.000000 0.000000 0.000000 0.043199 0.000000
# 6 0.001343 -0.001343 0.000000 0.000000 0.000000 0.027538
#
#
# Mechanical properties :
#
#
# Convention : Reuss Voigt Hill
#
# Bulk Modulus (GPa) = 38.77902 39.83201 39.30552
# Shear Modulus (GPa) = 26.89077 27.89174 27.39126
#
# Velocity S-wave (km/s) = 3.33960 3.40119 3.37054
# Velocity P-wave (km/s) = 5.56365 5.65194 5.60797
#
# Compressibility (1/GPa) = 0.02578714
#
# Stress axis : x y z
#
# Youngs Moduli (GPa) = 70.75637 70.75637 61.23629
#
# Poissons Ratio (x) = 0.31706 0.15075
# Poissons Ratio (y) = 0.31706 0.15075
# Poissons Ratio (z) = 0.17418 0.17418
#
# Static dielectric constant tensor:
#      x y z
#    x 1.929580 0.000000 0.000000 
#    y 0.000000 1.929580 0.000000 
#    z 0.000000 0.000000 1.925680 
# 
# From -- ./inp_files/376.got.cif
#   From: 2010.05.17/outbox.cif.g08.bks.cpg/sg75_cif.got.tgz:376.got - 2010.06.03 18:42:43.
