data_PCOD9541676
_publ_section_title
;
Structure prediction by ZEFSAII (Michael W. Deem and Ramdas Pophale) SiO2 
 PCOD9541676
Probable space group: P 43
;
_chemical_formula_sum "Si O2"
_cell_formula_units_Z 24
_cell_length_a 11.179432
_cell_length_b 11.179432
_cell_length_c 7.366983
_cell_angle_alpha 90.000000
_cell_angle_beta 90.000000
_cell_angle_gamma 90.000000
_cell_volume 920.723324
_symmetry_space_group_name_H-M "P 43"
_symmetry_group_IT_number 78
_symmetry_cell_setting 'tetragonal'
loop_
_space_group_symop_operation_xyz
x,y,z
-y,x,3/4+z
-x,-y,1/2+z
y,-x,1/4+z
loop_
_atom_site_type_symbol
_atom_site_label
_atom_site_fract_x
_atom_site_fract_y
_atom_site_fract_z
Si Si1 0.123850 0.310231 0.465710
Si Si2 0.878250 0.294867 0.311602
Si Si3 0.524037 0.333864 0.070726
Si Si4 0.808413 0.515780 0.468251
Si Si5 0.321006 0.989023 0.120510
Si Si6 0.769070 0.788706 0.457945
O O1 0.981005 0.682795 0.817620
O O2 0.185694 0.179791 0.457080
O O3 0.234482 0.397322 0.424428
O O4 0.068797 0.329871 0.667218
O O5 0.804281 0.419860 0.306898
O O6 0.850424 0.259697 0.519402
O O7 0.600092 0.435738 0.962134
O O8 0.471368 0.251747 0.903886
O O9 0.293051 0.128096 0.106918
O O10 0.948305 0.556738 0.469677
O O11 0.748641 0.645870 0.445830
O O12 0.214721 0.914237 0.215169
#
# Coordination Sequence:
#
# PCOD9541676 Si02
#       6
#     4   4   4   4   4   4
#     4  10  24  45  74 111 145 193 251 305 378 445
#     4  10  21  43  77 103 149 188 249 302 374 439
#     4  12  30  47  73 106 151 193 250 305 377 455
#     4  10  22  40  74 106 145 190 246 299 373 447
#     4   8  18  38  73  99 144 189 236 307 362 443
#     4   8  17  37  67 105 136 191 238 294 372 427
#
# _framework density 26.066462000000001
#
# number of rings (size 3 to 8) (size 9 to 14) (size 15 to 20)
#    1.000    1.333    0.000    1.000    4.667    4.000 
#    3.000    0.000   33.000    0.000    0.000    0.000 
#    0.000    0.000    0.000    0.000    0.000    0.000 
#
# Total GULP energy -133766.146195 kJ/mol
# GULP energy per Si atom -5573.589425 kJ/mol
# Density = 2.600713 g / cm^3
# Si number density = 26.066462 Si / 1000 Ang^3
#
#
#
# Elastic Constant Matrix: (Units=GPa)
#
#
# Indices 1 2 3 4 5 6 
#
# 1 142.7902 68.5265 37.6859 0.0000 0.0000 1.7971
# 2 68.5265 142.7902 37.6859 0.0000 0.0000 -1.7971
# 3 37.6859 37.6859 105.9882 0.0000 0.0000 0.0000
# 4 0.0000 0.0000 0.0000 41.8414 0.0000 0.0000
# 5 0.0000 0.0000 0.0000 0.0000 41.8414 0.0000
# 6 1.7971 -1.7971 0.0000 0.0000 0.0000 21.5774
#
#
#
# Elastic Compliance Matrix: (Units=1/GPa)
#
#
# Indices 1 2 3 4 5 6 
#
# 1 0.009470 -0.004050 -0.001927 0.000000 0.000000 -0.001126
# 2 -0.004050 0.009470 -0.001927 0.000000 0.000000 0.001126
# 3 -0.001927 -0.001927 0.010805 0.000000 0.000000 0.000000
# 4 0.000000 0.000000 0.000000 0.023900 0.000000 0.000000
# 5 0.000000 0.000000 0.000000 0.000000 0.023900 0.000000
# 6 -0.001126 0.001126 0.000000 0.000000 0.000000 0.046532
#
#
# Mechanical properties :
#
#
# Convention : Reuss Voigt Hill
#
# Bulk Modulus (GPa) = 71.75441 75.48504 73.61973
# Shear Modulus (GPa) = 34.59469 37.56339 36.07904
#
# Velocity S-wave (km/s) = 3.64699 3.80025 3.72441
# Velocity P-wave (km/s) = 6.73211 6.94820 6.84101
#
# Compressibility (1/GPa) = 0.01393643
#
# Stress axis : x y z
#
# Youngs Moduli (GPa) = 105.59899 105.59899 92.54654
#
# Poissons Ratio (x) = 0.42770 0.17834
# Poissons Ratio (y) = 0.42770 0.17834
# Poissons Ratio (z) = 0.20349 0.20349
#
# Static dielectric constant tensor:
#      x y z
#    x 2.137630 0.000000 0.000000 
#    y 0.000000 2.137630 0.000000 
#    z 0.000000 0.000000 2.090190 
# 
# From -- ./inp_files/574.got.cif
#   From: 2010.05.17/outbox.cif.g08.bks.cpg/sg78_cif.got.tgz:574.got - 2010.06.03 18:45:56.
