data_PCOD9541766
_publ_section_title
;
Structure prediction by ZEFSAII (Michael W. Deem and Ramdas Pophale) SiO2 
 PCOD9541766
Probable space group: P 43
;
_chemical_formula_sum "Si O2"
_cell_formula_units_Z 24
_cell_length_a 11.153741
_cell_length_b 11.153741
_cell_length_c 8.397693
_cell_angle_alpha 90.000000
_cell_angle_beta 90.000000
_cell_angle_gamma 90.000000
_cell_volume 1044.722877
_symmetry_space_group_name_H-M "P 43"
_symmetry_group_IT_number 78
_symmetry_cell_setting 'tetragonal'
loop_
_space_group_symop_operation_xyz
x,y,z
-y,x,3/4+z
-x,-y,1/2+z
y,-x,1/4+z
loop_
_atom_site_type_symbol
_atom_site_label
_atom_site_fract_x
_atom_site_fract_y
_atom_site_fract_z
Si Si1 0.262705 0.157300 0.418040
Si Si2 0.079472 0.202462 0.985248
Si Si3 0.208348 0.958438 0.897220
Si Si4 0.614162 0.591261 0.826957
Si Si5 0.582568 0.162909 0.917765
Si Si6 0.030903 0.579722 0.920444
O O1 0.225257 0.057323 0.288920
O O2 0.314487 0.285467 0.365138
O O3 0.371784 0.106063 0.522539
O O4 0.146371 0.160094 0.533877
O O5 0.152657 0.277315 0.117131
O O6 0.098708 0.256455 0.809654
O O7 0.118707 0.063928 0.957321
O O8 0.312530 0.017044 0.795103
O O9 0.488934 0.607610 0.735473
O O10 0.703668 0.535053 0.693958
O O11 0.521328 0.093392 0.772694
O O12 0.553359 0.095172 0.084218
#
# Coordination Sequence:
#
# PCOD9541766 Si02
#       6
#     4   4   4   4   4   4
#     4  11  27  49  71 114 157 198 255 328 386 482
#     4  11  27  41  74 111 157 200 245 312 397 481
#     4  12  24  42  71 113 151 203 245 309 395 489
#     4  12  31  53  79 106 151 207 277 340 388 450
#     4  11  26  49  74 108 146 199 260 327 390 471
#     4  11  25  44  75 104 148 199 260 314 398 481
#
# _framework density 22.9726
#
# number of rings (size 3 to 8) (size 9 to 14) (size 15 to 20)
#    0.000    0.667    3.333    2.000   16.333    1.333 
#    0.000    0.000    0.000    0.000    0.000    0.000 
#    0.000    0.000    0.000    0.000    0.000    0.000 
#
# Total GULP energy -134045.898095 kJ/mol
# GULP energy per Si atom -5585.245754 kJ/mol
# Density = 2.292031 g / cm^3
# Si number density = 22.972600 Si / 1000 Ang^3
#
#
#
# Elastic Constant Matrix: (Units=GPa)
#
#
# Indices 1 2 3 4 5 6 
#
# 1 78.7665 42.6497 25.8704 0.0000 0.0000 1.8664
# 2 42.6497 78.7665 25.8704 0.0000 0.0000 -1.8664
# 3 25.8704 25.8704 87.6088 0.0000 0.0000 0.0000
# 4 0.0000 0.0000 0.0000 36.9853 0.0000 0.0000
# 5 0.0000 0.0000 0.0000 0.0000 36.9853 0.0000
# 6 1.8664 -1.8664 0.0000 0.0000 0.0000 22.4521
#
#
#
# Elastic Compliance Matrix: (Units=1/GPa)
#
#
# Indices 1 2 3 4 5 6 
#
# 1 0.018675 -0.009253 -0.002782 0.000000 0.000000 -0.002322
# 2 -0.009253 0.018675 -0.002782 0.000000 0.000000 0.002322
# 3 -0.002782 -0.002782 0.013058 0.000000 0.000000 0.000000
# 4 0.000000 0.000000 0.000000 0.027038 0.000000 0.000000
# 5 0.000000 0.000000 0.000000 0.000000 0.027038 0.000000
# 6 -0.002322 0.002322 0.000000 0.000000 0.000000 0.044925
#
#
# Mechanical properties :
#
#
# Convention : Reuss Voigt Hill
#
# Bulk Modulus (GPa) = 48.14116 48.21364 48.17740
# Shear Modulus (GPa) = 26.88650 29.33463 28.11056
#
# Velocity S-wave (km/s) = 3.42478 3.57731 3.50187
# Velocity P-wave (km/s) = 6.05312 6.17218 6.11294
#
# Compressibility (1/GPa) = 0.02077225
#
# Stress axis : x y z
#
# Youngs Moduli (GPa) = 53.54800 53.54800 76.58432
#
# Poissons Ratio (x) = 0.49548 0.21307
# Poissons Ratio (y) = 0.49548 0.21307
# Poissons Ratio (z) = 0.14898 0.14898
#
# Static dielectric constant tensor:
#      x y z
#    x 1.954210 0.000000 0.000000 
#    y 0.000000 1.954210 0.000000 
#    z 0.000000 0.000000 1.911540 
# 
# From -- ./inp_files/533.got.cif
#   From: 2010.05.17/outbox.cif.g08.bks.cpg/sg78_cif.got.tgz:533.got - 2010.06.03 18:45:56.
