data_PCOD9541188
_publ_section_title
;
Structure prediction by ZEFSAII (Michael W. Deem and Ramdas Pophale) SiO2 
 PCOD9541188
Probable space group: P 41
;
_chemical_formula_sum "Si O2"
_cell_formula_units_Z 16
_cell_length_a 10.419961
_cell_length_b 10.419961
_cell_length_c 7.288307
_cell_angle_alpha 90.000000
_cell_angle_beta 90.000000
_cell_angle_gamma 90.000000
_cell_volume 791.332213
_symmetry_space_group_name_H-M "P 41"
_symmetry_group_IT_number 76
_symmetry_cell_setting 'tetragonal'
loop_
_space_group_symop_operation_xyz
x,y,z
-y,x,1/4+z
-x,-y,1/2+z
y,-x,3/4+z
loop_
_atom_site_type_symbol
_atom_site_label
_atom_site_fract_x
_atom_site_fract_y
_atom_site_fract_z
Si Si1 0.720675 0.756254 0.821020
Si Si2 0.161753 0.979891 0.912376
Si Si3 0.898890 0.424322 0.243223
Si Si4 0.518738 0.828016 0.110887
O O1 0.630418 0.816771 0.662404
O O2 0.645556 0.777199 0.010536
O O3 0.753946 0.607250 0.787617
O O4 0.859034 0.827345 0.803616
O O5 0.302440 0.035665 0.893667
O O6 0.076761 0.095544 0.985716
O O7 0.020163 0.505103 0.314140
O O8 0.817618 0.487212 0.081356
#
# Coordination Sequence:
#
# PCOD9541188 Si02
#       4
#     4   4   4   4
#     4  10  23  41  60  93 120 159 215 245 306 376
#     4   9  20  36  57  93 121 148 201 256 301 370
#     4  10  21  41  65  88 124 163 201 258 313 367
#     4  11  22  42  66  88 125 166 203 257 310 367
#
# _framework density 20.219071
#
# number of rings (size 3 to 8) (size 9 to 14) (size 15 to 20)
#    0.000    2.000    2.500    0.000    3.500    2.000 
#    9.000    0.000    0.000    0.000    0.000    0.000 
#    0.000    0.000    0.000    0.000    0.000    0.000 
#
# Total GULP energy -89240.998028 kJ/mol
# GULP energy per Si atom -5577.562377 kJ/mol
# Density = 2.017305 g / cm^3
# Si number density = 20.219071 Si / 1000 Ang^3
#
#
#
# Elastic Constant Matrix: (Units=GPa)
#
#
# Indices 1 2 3 4 5 6 
#
# 1 22.8190 31.7693 11.0918 0.0000 0.0000 -8.2746
# 2 31.7693 22.8190 11.0918 0.0000 0.0000 8.2746
# 3 11.0918 11.0918 54.1258 0.0000 0.0000 0.0000
# 4 0.0000 0.0000 0.0000 27.8637 0.0000 0.0000
# 5 0.0000 0.0000 0.0000 0.0000 27.8637 0.0000
# 6 -8.2746 8.2746 0.0000 0.0000 0.0000 19.9783
#
#
#
# Elastic Compliance Matrix: (Units=1/GPa)
#
#
# Indices 1 2 3 4 5 6 
#
# 1 -0.021645 0.041628 -0.004095 0.000000 0.000000 -0.026206
# 2 0.041628 -0.021645 -0.004095 0.000000 0.000000 0.026206
# 3 -0.004095 -0.004095 0.020154 0.000000 0.000000 0.000000
# 4 0.000000 0.000000 0.000000 0.035889 0.000000 0.000000
# 5 0.000000 0.000000 0.000000 0.000000 0.035889 0.000000
# 6 -0.026206 0.026206 0.000000 0.000000 0.000000 0.028346
#
#
# Mechanical properties :
#
#
# Convention : Reuss Voigt Hill
#
# Bulk Modulus (GPa) = 22.86247 23.07439 22.96843
# Shear Modulus (GPa) = 202.48502 18.19520 110.34011
#
# Velocity S-wave (km/s) = 10.01813 3.00309 7.39532
# Velocity P-wave (km/s) = 12.04779 4.84373 9.18180
#
# Compressibility (1/GPa) = 0.04373981
#
# Stress axis : x y z
#
# Youngs Moduli (GPa) = -46.20067 -46.20067 49.61829
#
# Poissons Ratio (x) = 1.92323 0.20319
# Poissons Ratio (y) = 1.92323 0.20319
# Poissons Ratio (z) = -0.18919 -0.18919
#
# Static dielectric constant tensor:
#      x y z
#    x 1.705260 0.000000 0.000000 
#    y 0.000000 1.705260 0.000000 
#    z 0.000000 0.000000 1.735970 
# 
# From -- ./inp_files/423.got.cif
#   From: 2010.05.17/outbox.cif.g08.bks.cpg/sg76_cif.got.tgz:423.got - 2010.06.03 18:43:17.
