data_PCOD9541822
_publ_section_title
;
Structure prediction by ZEFSAII (Michael W. Deem and Ramdas Pophale) SiO2 
 PCOD9541822
Probable space group: I 4
;
_chemical_formula_sum "Si O2"
_cell_formula_units_Z 40
_cell_length_a 20.855228
_cell_length_b 20.855228
_cell_length_c 5.225806
_cell_angle_alpha 90.000000
_cell_angle_beta 90.000000
_cell_angle_gamma 90.000000
_cell_volume 2272.914857
_symmetry_space_group_name_H-M "I 4"
_symmetry_group_IT_number 79
_symmetry_cell_setting 'tetragonal'
loop_
_space_group_symop_operation_xyz
x,y,z
-y,x,z
-x,-y,z
y,-x,z
1/2+x,1/2+y,1/2+z
1/2-y,1/2+x,1/2+z
1/2-x,1/2-y,1/2+z
1/2+y,1/2-x,1/2+z
loop_
_atom_site_type_symbol
_atom_site_label
_atom_site_fract_x
_atom_site_fract_y
_atom_site_fract_z
Si Si1 0.949487 0.668997 0.099670
Si Si2 0.248486 0.662631 0.364389
Si Si3 0.319152 0.697360 0.864491
Si Si4 0.724915 0.933103 0.329996
Si Si5 0.356089 0.075194 0.850386
O O1 0.896633 0.701920 0.922058
O O2 0.914594 0.622174 0.297965
O O3 0.992707 0.722360 0.244284
O O4 0.002455 0.629424 0.937579
O O5 0.297805 0.666567 0.599788
O O6 0.210288 0.730208 0.378168
O O7 0.286488 0.660583 0.099101
O O8 0.395158 0.709676 0.875271
O O9 0.683506 0.927205 0.587179
O O10 0.688853 0.901135 0.083757
#
# Coordination Sequence:
#
# PCOD9541822 Si02
#       5
#     8   8   8   8   8
#     4  10  24  37  60  78 117 156 199 231 284 329
#     4  10  21  32  58  78 106 142 192 234 292 339
#     4  10  20  34  54  81 104 142 187 242 287 335
#     4  10  22  36  57  76 114 149 187 243 275 330
#     4  10  23  35  58  73 115 151 202 230 268 329
#
# _framework density 17.598548999999998
#
# number of rings (size 3 to 8) (size 9 to 14) (size 15 to 20)
#    1.200    0.800    2.000    1.200   11.200    0.000 
#    0.000    3.000    0.000    0.000    0.000    0.000 
#    0.000    0.800    2.400    0.000    0.400    0.000 
#
# Total GULP energy -111409.752747 kJ/mol
# GULP energy per Si atom -5570.487637 kJ/mol
# Density = 1.755849 g / cm^3
# Si number density = 17.598549 Si / 1000 Ang^3
#
#
#
# Elastic Constant Matrix: (Units=GPa)
#
#
# Indices 1 2 3 4 5 6 
#
# 1 43.3856 28.9944 5.6598 0.0000 0.0000 13.7847
# 2 28.9944 43.3856 5.6598 0.0000 0.0000 -13.7847
# 3 5.6598 5.6598 90.8436 0.0000 0.0000 0.0000
# 4 0.0000 0.0000 0.0000 22.8235 0.0000 0.0000
# 5 0.0000 0.0000 0.0000 0.0000 22.8235 0.0000
# 6 13.7847 -13.7847 0.0000 0.0000 0.0000 14.2297
#
#
#
# Elastic Compliance Matrix: (Units=1/GPa)
#
#
# Indices 1 2 3 4 5 6 
#
# 1 -0.033621 0.047573 -0.000869 0.000000 0.000000 0.078655
# 2 0.047573 -0.033621 -0.000869 0.000000 0.000000 -0.078655
# 3 -0.000869 -0.000869 0.011116 0.000000 0.000000 0.000000
# 4 0.000000 0.000000 0.000000 0.043815 0.000000 0.000000
# 5 0.000000 0.000000 0.000000 0.000000 0.043815 0.000000
# 6 0.078655 -0.078655 0.000000 0.000000 0.000000 -0.082115
#
#
# Mechanical properties :
#
#
# Convention : Reuss Voigt Hill
#
# Bulk Modulus (GPa) = 28.13485 28.69364 28.41425
# Shear Modulus (GPa) = -38.33383 21.12872 -8.60256
#
# Velocity S-wave (km/s) = -4.67222 3.46872 -2.21333
# Velocity P-wave (km/s) = 3.61725 5.69057 3.10629
#
# Compressibility (1/GPa) = 0.03554311
#
# Stress axis : x y z
#
# Youngs Moduli (GPa) = -29.74332 -29.74332 89.95851
#
# Poissons Ratio (x) = 1.41498 0.07820
# Poissons Ratio (y) = 1.41498 0.07820
# Poissons Ratio (z) = -0.02585 -0.02585
#
# Static dielectric constant tensor:
#      x y z
#    x 1.623690 0.000000 0.000000 
#    y 0.000000 1.623690 0.000000 
#    z 0.000000 0.000000 1.618070 
# 
# From -- ./inp_files/180.got.cif
#   From: 2010.05.17/outbox.cif.g08.bks.cpg/sg79_cif.got.tgz:180.got - 2010.06.03 18:47:27.
