data_PCOD9541496
_publ_section_title
;
Structure prediction by ZEFSAII (Michael W. Deem and Ramdas Pophale) SiO2 
 PCOD9541496
Probable space group: P 42
;
_chemical_formula_sum "Si O2"
_cell_formula_units_Z 20
_cell_length_a 8.720313
_cell_length_b 8.720313
_cell_length_c 12.040519
_cell_angle_alpha 90.000000
_cell_angle_beta 90.000000
_cell_angle_gamma 90.000000
_cell_volume 915.607527
_symmetry_space_group_name_H-M "P 42"
_symmetry_group_IT_number 77
_symmetry_cell_setting 'tetragonal'
loop_
_space_group_symop_operation_xyz
x,y,z
-y,x,1/2+z
-x,-y,z
y,-x,1/2+z
loop_
_atom_site_type_symbol
_atom_site_label
_atom_site_fract_x
_atom_site_fract_y
_atom_site_fract_z
Si Si1 0.302680 0.237301 0.787740
Si Si2 0.500000 0.500000 0.823100
Si Si3 0.324456 0.950681 0.466259
Si Si4 0.500000 0.000000 0.935869
Si Si5 0.045137 0.179481 0.186013
Si Si6 0.769792 0.715006 0.404456
O O1 0.399812 0.383065 0.752259
O O2 0.161996 0.299051 0.862069
O O3 0.409055 0.128928 0.865295
O O4 0.255975 0.122747 0.692177
O O5 0.381935 0.611447 0.891020
O O6 0.500000 0.000000 0.488118
O O7 0.233453 0.881135 0.570870
O O8 0.249420 0.112723 0.441274
O O9 0.629082 0.109490 0.986025
O O10 0.146445 0.255766 0.284379
O O11 0.000000 0.000000 0.198708
#
# Coordination Sequence:
#
# PCOD9541496 Si02
#       6
#     4   2   4   2   4   4
#     4  10  21  43  64  93 131 168 214 266 322 380
#     4  10  20  40  70  86 132 178 202 264 338 378
#     4  12  25  41  67  95 129 172 219 263 323 394
#     4   8  20  34  66  86 120 166 202 250 326 366
#     4  11  25  40  68  97 123 170 221 270 320 382
#     4  10  21  43  64  93 131 168 214 266 322 380
#
# _framework density 21.843420999999999
#
# number of rings (size 3 to 8) (size 9 to 14) (size 15 to 20)
#    0.000    1.600    4.000    0.000   14.000    0.000 
#    0.000    6.000    4.400    0.000    0.000    0.000 
#    0.000    0.000    0.000    0.000    0.000    0.000 
#
# Total GULP energy -111359.945740 kJ/mol
# GULP energy per Si atom -5567.997287 kJ/mol
# Density = 2.179370 g / cm^3
# Si number density = 21.843421 Si / 1000 Ang^3
#
#
#
# Elastic Constant Matrix: (Units=GPa)
#
#
# Indices 1 2 3 4 5 6 
#
# 1 100.7383 22.8618 1.4487 0.0000 0.0000 -3.6674
# 2 22.8618 100.7383 1.4487 0.0000 0.0000 3.6674
# 3 1.4487 1.4487 48.2823 0.0000 0.0000 0.0000
# 4 0.0000 0.0000 0.0000 13.2878 0.0000 0.0000
# 5 0.0000 0.0000 0.0000 0.0000 13.2878 0.0000
# 6 -3.6674 3.6674 0.0000 0.0000 0.0000 53.2924
#
#
#
# Elastic Compliance Matrix: (Units=1/GPa)
#
#
# Indices 1 2 3 4 5 6 
#
# 1 0.010510 -0.002414 -0.000243 0.000000 0.000000 0.000889
# 2 -0.002414 0.010510 -0.000243 0.000000 0.000000 -0.000889
# 3 -0.000243 -0.000243 0.020726 0.000000 0.000000 0.000000
# 4 0.000000 0.000000 0.000000 0.075257 0.000000 0.000000
# 5 0.000000 0.000000 0.000000 0.000000 0.075257 0.000000
# 6 0.000889 -0.000889 0.000000 0.000000 0.000000 0.018887
#
#
# Mechanical properties :
#
#
# Convention : Reuss Voigt Hill
#
# Bulk Modulus (GPa) = 27.81871 33.47525 30.64698
# Shear Modulus (GPa) = 21.84068 30.90692 26.37380
#
# Velocity S-wave (km/s) = 3.16551 3.76564 3.47854
# Velocity P-wave (km/s) = 5.11114 5.85364 5.49494
#
# Compressibility (1/GPa) = 0.03594702
#
# Stress axis : x y z
#
# Youngs Moduli (GPa) = 95.14338 95.14338 48.24833
#
# Poissons Ratio (x) = 0.22969 0.01172
# Poissons Ratio (y) = 0.22969 0.01172
# Poissons Ratio (z) = 0.02311 0.02311
#
# Static dielectric constant tensor:
#      x y z
#    x 1.954070 0.000000 0.000000 
#    y 0.000000 1.954070 0.000000 
#    z 0.000000 0.000000 1.775900 
# 
# From -- ./inp_files/802.got.cif
#   From: 2010.05.17/outbox.cif.g08.bks.cpg/sg77_cif.got.tgz:802.got - 2010.06.03 18:44:51.
