data_PCOD9541701
_publ_section_title
;
Structure prediction by ZEFSAII (Michael W. Deem and Ramdas Pophale) SiO2 
 PCOD9541701
Probable space group: P 43
;
_chemical_formula_sum "Si O2"
_cell_formula_units_Z 28
_cell_length_a 15.239516
_cell_length_b 15.239516
_cell_length_c 5.427957
_cell_angle_alpha 90.000000
_cell_angle_beta 90.000000
_cell_angle_gamma 90.000000
_cell_volume 1260.604192
_symmetry_space_group_name_H-M "P 43"
_symmetry_group_IT_number 78
_symmetry_cell_setting 'tetragonal'
loop_
_space_group_symop_operation_xyz
x,y,z
-y,x,3/4+z
-x,-y,1/2+z
y,-x,1/4+z
loop_
_atom_site_type_symbol
_atom_site_label
_atom_site_fract_x
_atom_site_fract_y
_atom_site_fract_z
Si Si1 0.261559 0.931445 0.688870
Si Si2 0.121567 0.047843 0.904257
Si Si3 0.655901 0.665869 0.638219
Si Si4 0.454939 0.967886 0.736715
Si Si5 0.475585 0.762191 0.721995
Si Si6 0.178532 0.234483 0.947268
Si Si7 0.461840 0.614588 0.014305
O O1 0.350792 0.986002 0.727482
O O2 0.266094 0.881539 0.427726
O O3 0.176540 0.995064 0.696618
O O4 0.253029 0.865405 0.927538
O O5 0.182070 0.128901 0.984432
O O6 0.030236 0.094151 0.834416
O O7 0.578719 0.735813 0.701877
O O8 0.715500 0.600381 0.806630
O O9 0.727138 0.720592 0.479889
O O10 0.594215 0.597435 0.494104
O O11 0.463337 0.863837 0.705307
O O12 0.503967 0.008730 0.501249
O O13 0.456186 0.718200 0.985725
O O14 0.417638 0.559413 0.799489
#
# Coordination Sequence:
#
# PCOD9541701 Si02
#       7
#     4   4   4   4   4   4   4
#     4  11  24  48  73 103 145 188 232 305 361 422
#     4  10  22  43  75 109 142 181 238 302 371 432
#     4  12  25  44  68 104 143 193 243 294 364 425
#     4  12  29  51  73 103 146 195 246 296 359 437
#     4  12  26  46  71 104 144 191 244 302 359 438
#     4  11  25  44  72 103 145 187 235 296 362 433
#     4  12  23  40  70 106 147 187 236 309 372 431
#
# _framework density 22.211572
#
# number of rings (size 3 to 8) (size 9 to 14) (size 15 to 20)
#    0.000    0.571    4.286    3.429    4.000    3.429 
#    5.143    0.000    0.000    0.000    0.000    0.000 
#    0.000    0.000    0.000    0.000    0.000    0.000 
#
# Total GULP energy -156017.460861 kJ/mol
# GULP energy per Si atom -5572.052174 kJ/mol
# Density = 2.216102 g / cm^3
# Si number density = 22.211572 Si / 1000 Ang^3
#
#
#
# Elastic Constant Matrix: (Units=GPa)
#
#
# Indices 1 2 3 4 5 6 
#
# 1 110.2292 20.3309 7.3409 0.0000 0.0000 -5.7195
# 2 20.3309 110.2292 7.3409 0.0000 0.0000 5.7195
# 3 7.3409 7.3409 66.1868 0.0000 0.0000 0.0000
# 4 0.0000 0.0000 0.0000 29.7181 0.0000 0.0000
# 5 0.0000 0.0000 0.0000 0.0000 29.7181 0.0000
# 6 -5.7195 5.7195 0.0000 0.0000 0.0000 21.4404
#
#
#
# Elastic Compliance Matrix: (Units=1/GPa)
#
#
# Indices 1 2 3 4 5 6 
#
# 1 0.009635 -0.001879 -0.000860 0.000000 0.000000 0.003072
# 2 -0.001879 0.009635 -0.000860 0.000000 0.000000 -0.003072
# 3 -0.000860 -0.000860 0.015300 0.000000 0.000000 0.000000
# 4 0.000000 0.000000 0.000000 0.033649 0.000000 0.000000
# 5 0.000000 0.000000 0.000000 0.000000 0.033649 0.000000
# 6 0.003072 -0.003072 0.000000 0.000000 0.000000 0.048280
#
#
# Mechanical properties :
#
#
# Convention : Reuss Voigt Hill
#
# Bulk Modulus (GPa) = 36.53541 39.63007 38.08274
# Shear Modulus (GPa) = 30.03511 32.95084 31.49297
#
# Velocity S-wave (km/s) = 3.68125 3.85580 3.76954
# Velocity P-wave (km/s) = 5.87821 6.14034 6.01070
#
# Compressibility (1/GPa) = 0.02737071
#
# Stress axis : x y z
#
# Youngs Moduli (GPa) = 103.78522 103.78522 65.36135
#
# Poissons Ratio (x) = 0.19504 0.05623
# Poissons Ratio (y) = 0.19504 0.05623
# Poissons Ratio (z) = 0.08928 0.08928
#
# Static dielectric constant tensor:
#      x y z
#    x 1.840860 0.000000 0.000000 
#    y 0.000000 1.840860 0.000000 
#    z 0.000000 0.000000 1.886920 
# 
# From -- ./inp_files/219.got.cif
#   From: 2010.05.17/outbox.cif.g08.bks.cpg/sg78_cif.got.tgz:219.got - 2010.06.03 18:45:56.
