data_PCOD9541452
_publ_section_title
;
Structure prediction by ZEFSAII (Michael W. Deem and Ramdas Pophale) SiO2 
 PCOD9541452
Probable space group: P 41
;
_chemical_formula_sum "Si O2"
_cell_formula_units_Z 12
_cell_length_a 4.862464
_cell_length_b 4.862464
_cell_length_c 16.917292
_cell_angle_alpha 90.000000
_cell_angle_beta 90.000000
_cell_angle_gamma 90.000000
_cell_volume 399.984943
_symmetry_space_group_name_H-M "P 41"
_symmetry_group_IT_number 76
_symmetry_cell_setting 'tetragonal'
loop_
_space_group_symop_operation_xyz
x,y,z
-y,x,1/4+z
-x,-y,1/2+z
y,-x,3/4+z
loop_
_atom_site_type_symbol
_atom_site_label
_atom_site_fract_x
_atom_site_fract_y
_atom_site_fract_z
Si Si1 0.101542 0.398458 0.346190
Si Si2 0.459109 0.702708 0.712764
Si Si3 0.797292 0.040891 0.979616
O O1 0.288249 0.292531 0.273570
O O2 0.782428 0.409863 0.377667
O O3 0.090137 0.717572 0.314713
O O4 0.207469 0.211751 0.418810
O O5 0.266337 0.436907 0.708898
O O6 0.233663 0.936907 0.733482
#
# Coordination Sequence:
#
# PCOD9541452 Si02
#       3
#     4   4   4
#     4  12  30  56  86 134 176 236 310 368 454 538
#     4  12  30  54  92 130 178 238 300 374 450 536
#     4  12  30  54  92 130 178 238 300 374 450 536
#
# _framework density 30.001124000000001
#
# number of rings (size 3 to 8) (size 9 to 14) (size 15 to 20)
#    0.000    0.000    0.000    6.000   28.000    0.000 
#    0.000    0.000    0.000    0.000    0.000    0.000 
#    0.000    0.000    0.000    0.000    0.000    0.000 
#
# Total GULP energy -66983.899831 kJ/mol
# GULP energy per Si atom -5581.991653 kJ/mol
# Density = 2.993284 g / cm^3
# Si number density = 30.001124 Si / 1000 Ang^3
#
#
#
# Elastic Constant Matrix: (Units=GPa)
#
#
# Indices 1 2 3 4 5 6 
#
# 1 208.6721 97.6605 58.0086 0.0000 0.0000 0.0000
# 2 97.6605 208.6721 58.0086 0.0000 0.0000 0.0000
# 3 58.0086 58.0086 147.5409 0.0000 0.0000 0.0000
# 4 0.0000 0.0000 0.0000 60.8484 0.0000 0.0000
# 5 0.0000 0.0000 0.0000 0.0000 60.8484 0.0000
# 6 0.0000 0.0000 0.0000 0.0000 0.0000 85.0239
#
#
#
# Elastic Compliance Matrix: (Units=1/GPa)
#
#
# Indices 1 2 3 4 5 6 
#
# 1 0.006422 -0.002586 -0.001508 0.000000 0.000000 0.000000
# 2 -0.002586 0.006422 -0.001508 0.000000 0.000000 0.000000
# 3 -0.001508 -0.001508 0.007964 0.000000 0.000000 0.000000
# 4 0.000000 0.000000 0.000000 0.016434 0.000000 0.000000
# 5 0.000000 0.000000 0.000000 0.000000 0.016434 0.000000
# 6 0.000000 0.000000 0.000000 0.000000 0.000000 0.011761
#
#
# Mechanical properties :
#
#
# Convention : Reuss Voigt Hill
#
# Bulk Modulus (GPa) = 104.13825 110.24894 107.19359
# Shear Modulus (GPa) = 62.62314 64.75796 63.69055
#
# Velocity S-wave (km/s) = 4.57372 4.65103 4.61253
# Velocity P-wave (km/s) = 7.91699 8.10375 8.01091
#
# Compressibility (1/GPa) = 0.00960262
#
# Stress axis : x y z
#
# Youngs Moduli (GPa) = 155.71929 155.71929 125.57130
#
# Poissons Ratio (x) = 0.40273 0.18936
# Poissons Ratio (y) = 0.40273 0.18936
# Poissons Ratio (z) = 0.23483 0.23483
#
# Static dielectric constant tensor:
#      x y z
#    x 2.378880 0.000000 0.000000 
#    y 0.000000 2.378880 0.000000 
#    z 0.000000 0.000000 2.661160 
# 
# From -- ./inp_files/1163.got.cif
#   From: 2010.05.17/outbox.cif.g08.bks.cpg/sg76_cif.got.tgz:1163.got - 2010.06.03 18:43:17.
