data_PCOD9541461
_publ_section_title
;
Structure prediction by ZEFSAII (Michael W. Deem and Ramdas Pophale) SiO2 
 PCOD9541461
Probable space group: P 42
;
_chemical_formula_sum "Si O2"
_cell_formula_units_Z 24
_cell_length_a 8.265872
_cell_length_b 8.265872
_cell_length_c 16.893915
_cell_angle_alpha 90.000000
_cell_angle_beta 90.000000
_cell_angle_gamma 90.000000
_cell_volume 1154.270659
_symmetry_space_group_name_H-M "P 42"
_symmetry_group_IT_number 77
_symmetry_cell_setting 'tetragonal'
loop_
_space_group_symop_operation_xyz
x,y,z
-y,x,1/2+z
-x,-y,z
y,-x,1/2+z
loop_
_atom_site_type_symbol
_atom_site_label
_atom_site_fract_x
_atom_site_fract_y
_atom_site_fract_z
Si Si1 0.157760 0.881251 0.213550
Si Si2 0.878556 0.818030 0.472480
Si Si3 0.892138 0.338010 0.357589
Si Si4 0.315000 0.116555 0.109485
Si Si5 0.488460 0.690377 0.994386
Si Si6 0.310988 0.984341 0.578381
O O1 0.186962 0.760909 0.286214
O O2 0.111867 0.760031 0.141423
O O3 0.299539 0.004915 0.186840
O O4 0.000000 0.000000 0.223068
O O5 0.731741 0.692343 0.469359
O O6 0.795794 0.983214 0.499543
O O7 0.980451 0.790324 0.394171
O O8 0.998966 0.755082 0.541105
O O9 0.764799 0.397766 0.424646
O O10 0.000000 0.500000 0.336945
O O11 0.187997 0.263605 0.114264
O O12 0.470917 0.202374 0.072514
O O13 0.500000 0.500000 0.006889
O O14 0.500000 0.000000 0.564983
#
# Coordination Sequence:
#
# PCOD9541461 Si02
#       6
#     4   4   4   4   4   4
#     4   9  18  31  50  75 105 141 181 224 277 340
#     4   9  18  32  51  76 105 138 179 225 275 330
#     4   9  18  32  51  72 102 146 187 226 281 348
#     4   9  18  32  51  78 104 135 181 229 274 327
#     4  10  19  33  55  80 108 142 185 235 286 335
#     4  10  18  30  51  79 107 134 176 233 279 322
#
# _framework density 20.792352000000001
#
# number of rings (size 3 to 8) (size 9 to 14) (size 15 to 20)
#    0.000    2.667    0.000    4.500    0.000    2.667 
#    0.000    0.000    0.000   42.000    0.000    4.667 
#    0.000    0.000    0.000    0.000    0.000    0.000 
#
# Total GULP energy -133656.931992 kJ/mol
# GULP energy per Si atom -5569.038833 kJ/mol
# Density = 2.074503 g / cm^3
# Si number density = 20.792352 Si / 1000 Ang^3
#
#
#
# Elastic Constant Matrix: (Units=GPa)
#
#
# Indices 1 2 3 4 5 6 
#
# 1 102.5043 39.2912 27.8700 0.0000 0.0000 1.0781
# 2 39.2912 102.5043 27.8700 0.0000 0.0000 -1.0781
# 3 27.8700 27.8700 68.9019 0.0000 0.0000 0.0000
# 4 0.0000 0.0000 0.0000 19.8024 0.0000 0.0000
# 5 0.0000 0.0000 0.0000 0.0000 19.8024 0.0000
# 6 1.0781 -1.0781 0.0000 0.0000 0.0000 16.4505
#
#
#
# Elastic Compliance Matrix: (Units=1/GPa)
#
#
# Indices 1 2 3 4 5 6 
#
# 1 0.012120 -0.003735 -0.003392 0.000000 0.000000 -0.001039
# 2 -0.003735 0.012120 -0.003392 0.000000 0.000000 0.001039
# 3 -0.003392 -0.003392 0.017257 0.000000 0.000000 0.000000
# 4 0.000000 0.000000 0.000000 0.050499 0.000000 0.000000
# 5 0.000000 0.000000 0.000000 0.000000 0.050499 0.000000
# 6 -0.001039 0.001039 0.000000 0.000000 0.000000 0.060925
#
#
# Mechanical properties :
#
#
# Convention : Reuss Voigt Hill
#
# Bulk Modulus (GPa) = 48.87306 51.55254 50.21280
# Shear Modulus (GPa) = 21.61899 23.13634 22.37766
#
# Velocity S-wave (km/s) = 3.22802 3.33938 3.28418
# Velocity P-wave (km/s) = 6.11963 6.30210 6.21153
#
# Compressibility (1/GPa) = 0.02046117
#
# Stress axis : x y z
#
# Youngs Moduli (GPa) = 82.50576 82.50576 57.94618
#
# Poissons Ratio (x) = 0.30812 0.19655
# Poissons Ratio (y) = 0.30812 0.19655
# Poissons Ratio (z) = 0.27986 0.27986
#
# Static dielectric constant tensor:
#      x y z
#    x 1.786320 0.000000 0.000000 
#    y 0.000000 1.786320 0.000000 
#    z 0.000000 0.000000 1.795360 
# 
# From -- ./inp_files/1296.got.cif
#   From: 2010.05.17/outbox.cif.g08.bks.cpg/sg77_cif.got.tgz:1296.got - 2010.06.03 18:44:51.
