data_PCOD9541726
_publ_section_title
;
Structure prediction by ZEFSAII (Michael W. Deem and Ramdas Pophale) SiO2 
 PCOD9541726
Probable space group: P 43
;
_chemical_formula_sum "Si O2"
_cell_formula_units_Z 24
_cell_length_a 8.151457
_cell_length_b 8.151457
_cell_length_c 16.651652
_cell_angle_alpha 90.000000
_cell_angle_beta 90.000000
_cell_angle_gamma 90.000000
_cell_volume 1106.439852
_symmetry_space_group_name_H-M "P 43"
_symmetry_group_IT_number 78
_symmetry_cell_setting 'tetragonal'
loop_
_space_group_symop_operation_xyz
x,y,z
-y,x,3/4+z
-x,-y,1/2+z
y,-x,1/4+z
loop_
_atom_site_type_symbol
_atom_site_label
_atom_site_fract_x
_atom_site_fract_y
_atom_site_fract_z
Si Si1 0.996652 0.821670 0.372230
Si Si2 0.559720 0.518100 0.962245
Si Si3 0.617541 0.240709 0.346200
Si Si4 0.672778 0.322746 0.820605
Si Si5 0.850095 0.910029 0.205365
Si Si6 0.970889 0.516977 0.495843
O O1 0.160491 0.777169 0.322572
O O2 0.873604 0.850231 0.297342
O O3 0.959905 0.666080 0.431200
O O4 0.012105 0.989293 0.425448
O O5 0.440287 0.623556 0.908421
O O6 0.677372 0.418932 0.904069
O O7 0.649994 0.650225 0.017847
O O8 0.464287 0.374334 0.008377
O O9 0.762431 0.149664 0.390808
O O10 0.479787 0.119396 0.310281
O O11 0.531660 0.191209 0.801153
O O12 0.663880 0.981601 0.204585
#
# Coordination Sequence:
#
# PCOD9541726 Si02
#       6
#     4   4   4   4   4   4
#     4  12  27  50  70 109 152 195 252 313 374 455
#     4  10  24  45  73 106 141 195 248 309 371 456
#     4  11  24  45  70 107 142 188 252 304 371 450
#     4  11  24  45  72 102 150 191 249 307 379 446
#     4  12  27  47  75 105 151 197 253 313 378 452
#     4  12  26  46  74 107 146 200 244 310 387 441
#
# _framework density 21.691189999999999
#
# number of rings (size 3 to 8) (size 9 to 14) (size 15 to 20)
#    0.000    0.667    6.667    0.000    7.000    1.333 
#    3.000    0.000    0.000    0.000    0.000    0.000 
#    0.000    0.000    0.000    0.000    0.000    0.000 
#
# Total GULP energy -133625.766916 kJ/mol
# GULP energy per Si atom -5567.740288 kJ/mol
# Density = 2.164182 g / cm^3
# Si number density = 21.691190 Si / 1000 Ang^3
#
#
#
# Elastic Constant Matrix: (Units=GPa)
#
#
# Indices 1 2 3 4 5 6 
#
# 1 91.1121 -0.7650 34.1443 0.0000 0.0000 -7.8218
# 2 -0.7650 91.1121 34.1443 0.0000 0.0000 7.8218
# 3 34.1443 34.1443 109.6181 0.0000 0.0000 0.0000
# 4 0.0000 0.0000 0.0000 12.5284 0.0000 0.0000
# 5 0.0000 0.0000 0.0000 0.0000 12.5284 0.0000
# 6 -7.8218 7.8218 0.0000 0.0000 0.0000 43.9619
#
#
#
# Elastic Compliance Matrix: (Units=1/GPa)
#
#
# Indices 1 2 3 4 5 6 
#
# 1 0.012850 0.001626 -0.004509 0.000000 0.000000 0.001997
# 2 0.001626 0.012850 -0.004509 0.000000 0.000000 -0.001997
# 3 -0.004509 -0.004509 0.011932 0.000000 0.000000 0.000000
# 4 0.000000 0.000000 0.000000 0.079818 0.000000 0.000000
# 5 0.000000 0.000000 0.000000 0.000000 0.079818 0.000000
# 6 0.001997 -0.001997 0.000000 0.000000 0.000000 0.023458
#
#
# Mechanical properties :
#
#
# Convention : Reuss Voigt Hill
#
# Bulk Modulus (GPa) = 43.76729 47.43215 45.59972
# Shear Modulus (GPa) = 20.56533 28.75834 24.66184
#
# Velocity S-wave (km/s) = 3.08246 3.64511 3.37553
# Velocity P-wave (km/s) = 5.73498 6.29526 6.02164
#
# Compressibility (1/GPa) = 0.02284811
#
# Stress axis : x y z
#
# Youngs Moduli (GPa) = 77.81835 77.81835 83.81026
#
# Poissons Ratio (x) = -0.12656 0.37792
# Poissons Ratio (y) = -0.12656 0.37792
# Poissons Ratio (z) = 0.35090 0.35090
#
# Static dielectric constant tensor:
#      x y z
#    x 1.871170 0.000000 0.000000 
#    y 0.000000 1.871170 0.000000 
#    z 0.000000 0.000000 1.804220 
# 
# From -- ./inp_files/1222.got.cif
#   From: 2010.05.17/outbox.cif.g08.bks.cpg/sg78_cif.got.tgz:1222.got - 2010.06.03 18:45:56.
