data_PCOD9541982
_publ_section_title
;
Structure prediction by ZEFSAII (Michael W. Deem and Ramdas Pophale) SiO2 
 PCOD9541982
Probable space group: I 4
;
_chemical_formula_sum "Si O2"
_cell_formula_units_Z 42
_cell_length_a 15.942829
_cell_length_b 15.942829
_cell_length_c 7.815007
_cell_angle_alpha 90.000000
_cell_angle_beta 90.000000
_cell_angle_gamma 90.000000
_cell_volume 1986.369999
_symmetry_space_group_name_H-M "I 4"
_symmetry_group_IT_number 79
_symmetry_cell_setting 'tetragonal'
loop_
_space_group_symop_operation_xyz
x,y,z
-y,x,z
-x,-y,z
y,-x,z
1/2+x,1/2+y,1/2+z
1/2-y,1/2+x,1/2+z
1/2-x,1/2-y,1/2+z
1/2+y,1/2-x,1/2+z
loop_
_atom_site_type_symbol
_atom_site_label
_atom_site_fract_x
_atom_site_fract_y
_atom_site_fract_z
Si Si1 0.625179 0.348329 0.064700
Si Si2 0.791781 0.401906 0.182375
Si Si3 0.939354 0.257718 0.873622
Si Si4 0.408878 0.955079 0.397275
Si Si5 0.500000 0.500000 0.083190
Si Si6 0.577263 0.228498 0.761475
O O1 0.724267 0.366396 0.048379
O O2 0.613246 0.295811 0.239090
O O3 0.581467 0.437522 0.081540
O O4 0.583096 0.296466 0.910542
O O5 0.748858 0.464264 0.315344
O O6 0.838152 0.326021 0.273664
O O7 0.863054 0.454475 0.081806
O O8 0.917629 0.356542 0.859309
O O9 0.927437 0.233774 0.071324
O O10 0.500000 0.000000 0.399682
O O11 0.341007 0.003521 0.280851
#
# Coordination Sequence:
#
# PCOD9541982 Si02
#       6
#     8   8   8   8   2   8
#     4  12  26  52  67 100 141 187 235 292 345 411
#     4  11  25  44  71 104 142 184 228 297 347 412
#     4  11  25  43  71 106 134 183 231 282 353 416
#     4  11  23  42  71 108 144 180 228 283 358 423
#     4  12  24  52  78  84 140 190 240 280 346 412
#     4  11  26  43  71 107 142 183 230 284 357 426
#
# _framework density 21.144098
#
# number of rings (size 3 to 8) (size 9 to 14) (size 15 to 20)
#    0.000    0.762    5.714    0.000   13.333    0.000 
#    6.857    0.952    0.000    0.000    0.000    0.000 
#    0.000    0.000    0.000    0.000    0.000    0.000 
#
# Total GULP energy -117085.185457 kJ/mol
# GULP energy per Si atom -5575.485022 kJ/mol
# Density = 2.109597 g / cm^3
# Si number density = 21.144098 Si / 1000 Ang^3
#
#
#
# Elastic Constant Matrix: (Units=GPa)
#
#
# Indices 1 2 3 4 5 6 
#
# 1 75.3070 -7.6714 27.2040 0.0000 0.0000 8.9776
# 2 -7.6714 75.3070 27.2040 0.0000 0.0000 -8.9776
# 3 27.2040 27.2040 114.5992 0.0000 0.0000 0.0000
# 4 0.0000 0.0000 0.0000 20.0348 0.0000 0.0000
# 5 0.0000 0.0000 0.0000 0.0000 20.0348 0.0000
# 6 8.9776 -8.9776 0.0000 0.0000 0.0000 33.1184
#
#
#
# Elastic Compliance Matrix: (Units=1/GPa)
#
#
# Indices 1 2 3 4 5 6 
#
# 1 0.015539 0.002736 -0.004338 0.000000 0.000000 -0.003470
# 2 0.002736 0.015539 -0.004338 0.000000 0.000000 0.003470
# 3 -0.004338 -0.004338 0.010786 0.000000 0.000000 0.000000
# 4 0.000000 0.000000 0.000000 0.049913 0.000000 0.000000
# 5 0.000000 0.000000 0.000000 0.000000 0.049913 0.000000
# 6 -0.003470 0.003470 0.000000 0.000000 0.000000 0.032076
#
#
# Mechanical properties :
#
#
# Convention : Reuss Voigt Hill
#
# Bulk Modulus (GPa) = 33.35250 39.85404 36.60327
# Shear Modulus (GPa) = 25.55718 29.20269 27.37993
#
# Velocity S-wave (km/s) = 3.48043 3.72038 3.60240
# Velocity P-wave (km/s) = 5.65326 6.11103 5.88660
#
# Compressibility (1/GPa) = 0.02998276
#
# Stress axis : x y z
#
# Youngs Moduli (GPa) = 64.35604 64.35604 92.71550
#
# Poissons Ratio (x) = -0.17610 0.40221
# Poissons Ratio (y) = -0.17610 0.40221
# Poissons Ratio (z) = 0.27919 0.27919
#
# Static dielectric constant tensor:
#      x y z
#    x 1.770250 0.000000 0.000000 
#    y 0.000000 1.770250 0.000000 
#    z 0.000000 0.000000 1.800520 
# 
# From -- ./inp_files/578.got.cif
#   From: 2010.05.17/outbox.cif.g08.bks.cpg/sg79_cif.got.tgz:578.got - 2010.06.03 18:47:27.
