data_PCOD9541754
_publ_section_title
;
Structure prediction by ZEFSAII (Michael W. Deem and Ramdas Pophale) SiO2 
 PCOD9541754
Probable space group: P 43
;
_chemical_formula_sum "Si O2"
_cell_formula_units_Z 32
_cell_length_a 8.897816
_cell_length_b 8.897816
_cell_length_c 19.319759
_cell_angle_alpha 90.000000
_cell_angle_beta 90.000000
_cell_angle_gamma 90.000000
_cell_volume 1529.567143
_symmetry_space_group_name_H-M "P 43"
_symmetry_group_IT_number 78
_symmetry_cell_setting 'tetragonal'
loop_
_space_group_symop_operation_xyz
x,y,z
-y,x,3/4+z
-x,-y,1/2+z
y,-x,1/4+z
loop_
_atom_site_type_symbol
_atom_site_label
_atom_site_fract_x
_atom_site_fract_y
_atom_site_fract_z
Si Si1 0.276477 0.374094 0.039030
Si Si2 0.803731 0.408586 0.304520
Si Si3 0.433386 0.556322 0.144927
Si Si4 0.398054 0.736332 0.687615
Si Si5 0.966328 0.334079 0.962538
Si Si6 0.797707 0.016169 0.136360
Si Si7 0.991165 0.009984 0.759194
Si Si8 0.347198 0.032776 0.054012
O O1 0.291985 0.482233 0.105217
O O2 0.349645 0.213236 0.058735
O O3 0.369530 0.417694 0.970172
O O4 0.103611 0.366069 0.014788
O O5 0.678820 0.508315 0.341352
O O6 0.717841 0.311163 0.247544
O O7 0.877754 0.305183 0.363662
O O8 0.937671 0.513857 0.273973
O O9 0.545876 0.417388 0.154122
O O10 0.540794 0.834488 0.716080
O O11 0.309168 0.838837 0.632485
O O12 0.022812 0.339707 0.883345
O O13 0.934170 0.157896 0.975806
O O14 0.863858 0.019493 0.212965
O O15 0.938187 0.007984 0.084893
O O16 0.988012 0.190162 0.764595
#
# Coordination Sequence:
#
# PCOD9541754 Si02
#       8
#     4   4   4   4   4   4   4   4
#     4  11  24  45  74  98 136 191 230 295 352 422
#     4  12  26  44  68 101 145 182 226 296 348 425
#     4  12  24  44  70 108 140 186 236 286 370 428
#     4  12  26  44  68 101 145 182 226 296 348 425
#     4  11  23  47  67  96 135 181 231 284 343 419
#     4  12  24  46  66 102 138 180 236 286 356 410
#     4  11  26  43  72  98 134 179 234 287 344 422
#     4  11  23  47  67  96 135 181 231 284 343 419
#
# _framework density 20.920953000000001
#
# number of rings (size 3 to 8) (size 9 to 14) (size 15 to 20)
#    0.000    0.500    7.500    0.000    3.500    2.000 
#    9.000    0.000    0.000    0.000    0.000    0.000 
#    0.000    0.000    0.000    0.000    0.000    0.000 
#
# Total GULP energy -178554.614003 kJ/mol
# GULP energy per Si atom -5579.831688 kJ/mol
# Density = 2.087334 g / cm^3
# Si number density = 20.920953 Si / 1000 Ang^3
#
#
#
# Elastic Constant Matrix: (Units=GPa)
#
#
# Indices 1 2 3 4 5 6 
#
# 1 72.6463 29.3887 -7.6800 0.0000 0.0000 -8.0865
# 2 29.3887 72.6463 -7.6800 0.0000 0.0000 8.0865
# 3 -7.6800 -7.6800 30.5308 0.0000 0.0000 0.0000
# 4 0.0000 0.0000 0.0000 28.0874 0.0000 0.0000
# 5 0.0000 0.0000 0.0000 0.0000 28.0874 0.0000
# 6 -8.0865 8.0865 0.0000 0.0000 0.0000 19.2954
#
#
#
# Elastic Compliance Matrix: (Units=1/GPa)
#
#
# Indices 1 2 3 4 5 6 
#
# 1 0.018799 -0.008613 0.002562 0.000000 0.000000 0.011488
# 2 -0.008613 0.018799 0.002562 0.000000 0.000000 -0.011488
# 3 0.002562 0.002562 0.034043 0.000000 0.000000 0.000000
# 4 0.000000 0.000000 0.000000 0.035603 0.000000 0.000000
# 5 0.000000 0.000000 0.000000 0.000000 0.035603 0.000000
# 6 0.011488 -0.011488 0.000000 0.000000 0.000000 0.061455
#
#
# Mechanical properties :
#
#
# Convention : Reuss Voigt Hill
#
# Bulk Modulus (GPa) = 15.46432 22.65340 19.05886
# Shear Modulus (GPa) = 21.47447 25.88037 23.67742
#
# Velocity S-wave (km/s) = 3.20731 3.52100 3.36781
# Velocity P-wave (km/s) = 4.59605 5.23273 4.92469
#
# Compressibility (1/GPa) = 0.06466500
#
# Stress axis : x y z
#
# Youngs Moduli (GPa) = 53.19318 53.19318 29.37465
#
# Poissons Ratio (x) = 0.45816 -0.07527
# Poissons Ratio (y) = 0.45816 -0.07527
# Poissons Ratio (z) = -0.13630 -0.13630
#
# Static dielectric constant tensor:
#      x y z
#    x 1.780470 0.000000 0.000000 
#    y 0.000000 1.780470 0.000000 
#    z 0.000000 0.000000 1.745100 
# 
# From -- ./inp_files/1529.got.cif
#   From: 2010.05.17/outbox.cif.g08.bks.cpg/sg78_cif.got.tgz:1529.got - 2010.06.03 18:45:56.
