data_PCOD9541554
_publ_section_title
;
Structure prediction by ZEFSAII (Michael W. Deem and Ramdas Pophale) SiO2 
 PCOD9541554
Probable space group: P 42
;
_chemical_formula_sum "Si O2"
_cell_formula_units_Z 24
_cell_length_a 9.980067
_cell_length_b 9.980067
_cell_length_c 11.864904
_cell_angle_alpha 90.000000
_cell_angle_beta 90.000000
_cell_angle_gamma 90.000000
_cell_volume 1181.765052
_symmetry_space_group_name_H-M "P 42"
_symmetry_group_IT_number 77
_symmetry_cell_setting 'tetragonal'
loop_
_space_group_symop_operation_xyz
x,y,z
-y,x,1/2+z
-x,-y,z
y,-x,1/2+z
loop_
_atom_site_type_symbol
_atom_site_label
_atom_site_fract_x
_atom_site_fract_y
_atom_site_fract_z
Si Si1 0.480234 0.842710 0.515160
Si Si2 0.209181 0.262320 0.825339
Si Si3 0.039307 0.655128 0.690631
Si Si4 0.998880 0.340958 0.424365
Si Si5 0.722970 0.296294 0.853468
Si Si6 0.476617 0.354052 0.714892
O O1 0.351068 0.816617 0.436863
O O2 0.607745 0.786500 0.446826
O O3 0.477299 0.761821 0.630873
O O4 0.500000 0.000000 0.533918
O O5 0.323460 0.335336 0.751212
O O6 0.072517 0.258432 0.755001
O O7 0.267224 0.118156 0.856934
O O8 0.183182 0.685957 0.743858
O O9 0.000000 0.500000 0.715163
O O10 0.031112 0.674180 0.557255
O O11 0.144014 0.283355 0.394180
O O12 0.000000 0.500000 0.398635
O O13 0.573335 0.343798 0.823058
O O14 0.500000 0.500000 0.662174
#
# Coordination Sequence:
#
# PCOD9541554 Si02
#       6
#     4   4   4   4   4   4
#     4  12  26  46  71  99 140 184 231 283 349 410
#     4  12  23  46  68 100 138 177 228 287 340 409
#     4  11  22  47  70  95 137 185 223 279 350 415
#     4  11  26  43  70 101 137 183 229 279 350 415
#     4  12  23  46  68 100 138 177 228 287 340 409
#     4  12  26  40  73 107 134 178 233 289 339 406
#
# _framework density 20.308606000000001
#
# number of rings (size 3 to 8) (size 9 to 14) (size 15 to 20)
#    0.000    0.333    6.667    2.000    4.667    3.333 
#    0.000    1.667    0.000    0.000    0.000    0.000 
#    0.000    0.000    0.000    0.000    0.000    0.000 
#
# Total GULP energy -134366.346928 kJ/mol
# GULP energy per Si atom -5598.597789 kJ/mol
# Density = 2.026238 g / cm^3
# Si number density = 20.308606 Si / 1000 Ang^3
#
#
#
# Elastic Constant Matrix: (Units=GPa)
#
#
# Indices 1 2 3 4 5 6 
#
# 1 84.2955 11.3149 4.7054 0.0000 0.0000 -1.5084
# 2 11.3149 84.2955 4.7054 0.0000 0.0000 1.5084
# 3 4.7054 4.7054 35.5976 0.0000 0.0000 0.0000
# 4 0.0000 0.0000 0.0000 22.9314 0.0000 0.0000
# 5 0.0000 0.0000 0.0000 0.0000 22.9314 0.0000
# 6 -1.5084 1.5084 0.0000 0.0000 0.0000 28.1343
#
#
#
# Elastic Compliance Matrix: (Units=1/GPa)
#
#
# Indices 1 2 3 4 5 6 
#
# 1 0.012165 -0.001568 -0.001401 0.000000 0.000000 0.000736
# 2 -0.001568 0.012165 -0.001401 0.000000 0.000000 -0.000736
# 3 -0.001401 -0.001401 0.028462 0.000000 0.000000 0.000000
# 4 0.000000 0.000000 0.000000 0.043608 0.000000 0.000000
# 5 0.000000 0.000000 0.000000 0.000000 0.043608 0.000000
# 6 0.000736 -0.000736 0.000000 0.000000 0.000000 0.035623
#
#
# Mechanical properties :
#
#
# Convention : Reuss Voigt Hill
#
# Bulk Modulus (GPa) = 22.69992 27.29336 24.99664
# Shear Modulus (GPa) = 25.11880 27.03029 26.07454
#
# Velocity S-wave (km/s) = 3.52071 3.65221 3.58706
# Velocity P-wave (km/s) = 5.26583 5.59047 5.43058
#
# Compressibility (1/GPa) = 0.04405302
#
# Stress axis : x y z
#
# Youngs Moduli (GPa) = 82.20411 82.20411 35.13449
#
# Poissons Ratio (x) = 0.12888 0.04921
# Poissons Ratio (y) = 0.12888 0.04921
# Poissons Ratio (z) = 0.11515 0.11515
#
# Static dielectric constant tensor:
#      x y z
#    x 1.692490 0.000000 0.000000 
#    y 0.000000 1.692490 0.000000 
#    z 0.000000 0.000000 1.714160 
# 
# From -- ./inp_files/1121.got.cif
#   From: 2010.05.17/outbox.cif.g08.bks.cpg/sg77_cif.got.tgz:1121.got - 2010.06.03 18:44:51.
