data_PCOD9541144
_publ_section_title
;
Structure prediction by ZEFSAII (Michael W. Deem and Ramdas Pophale) SiO2 
 PCOD9541144
Probable space group: P 41
;
_chemical_formula_sum "Si O2"
_cell_formula_units_Z 32
_cell_length_a 9.193673
_cell_length_b 9.193673
_cell_length_c 19.033638
_cell_angle_alpha 90.000000
_cell_angle_beta 90.000000
_cell_angle_gamma 90.000000
_cell_volume 1608.792047
_symmetry_space_group_name_H-M "P 41"
_symmetry_group_IT_number 76
_symmetry_cell_setting 'tetragonal'
loop_
_space_group_symop_operation_xyz
x,y,z
-y,x,1/4+z
-x,-y,1/2+z
y,-x,3/4+z
loop_
_atom_site_type_symbol
_atom_site_label
_atom_site_fract_x
_atom_site_fract_y
_atom_site_fract_z
Si Si1 0.780676 0.314584 0.525200
Si Si2 0.388335 0.885359 0.274785
Si Si3 0.652703 0.220077 0.278172
Si Si4 0.719324 0.814584 0.924502
Si Si5 0.385359 0.888335 0.924917
Si Si6 0.847297 0.720077 0.171530
Si Si7 0.631967 0.984722 0.168039
Si Si8 0.131967 0.515278 0.781664
O O1 0.734315 0.483110 0.520262
O O2 0.741905 0.241905 0.599851
O O3 0.722466 0.221286 0.462301
O O4 0.954472 0.318675 0.525070
O O5 0.278714 0.777534 0.237401
O O6 0.394067 0.841548 0.356273
O O7 0.527071 0.906675 0.225304
O O8 0.658452 0.105933 0.343429
O O9 0.747302 0.361868 0.296056
O O10 0.692292 0.128393 0.208458
O O11 0.545528 0.818675 0.924632
O O12 0.765685 0.983110 0.929440
O O13 0.406675 0.027070 0.974398
O O14 0.752698 0.861868 0.153646
O O15 0.807708 0.628393 0.241244
O O16 0.542356 0.042356 0.099851
#
# Coordination Sequence:
#
# PCOD9541144 Si02
#       8
#     4   4   4   4   4   4   4   4
#     4   9  19  35  56  80 110 149 190 237 290 347
#     4  10  20  38  58  83 117 152 194 242 293 351
#     4  10  22  39  59  85 119 153 194 246 296 352
#     4   9  19  35  56  80 110 149 190 237 290 347
#     4  10  20  38  58  83 117 152 194 242 293 351
#     4  10  22  39  59  85 119 153 194 246 296 352
#     4  11  23  40  62  88 119 158 199 243 298 356
#     4  11  23  40  62  88 119 158 199 243 298 356
#
# _framework density 19.890699999999999
#
# number of rings (size 3 to 8) (size 9 to 14) (size 15 to 20)
#    0.000    2.000    0.000    6.000    0.000    4.000 
#    0.000    7.500    0.000    0.000    0.000    0.000 
#    0.000    0.000    0.000    0.000    0.000    0.000 
#
# Total GULP energy -178341.510829 kJ/mol
# GULP energy per Si atom -5573.172213 kJ/mol
# Density = 1.984543 g / cm^3
# Si number density = 19.890700 Si / 1000 Ang^3
#
#
#
# Elastic Constant Matrix: (Units=GPa)
#
#
# Indices 1 2 3 4 5 6 
#
# 1 61.6470 -14.9426 11.8676 0.0000 0.0000 -0.0003
# 2 -14.9426 61.6470 11.8676 0.0000 0.0000 0.0003
# 3 11.8676 11.8676 95.6342 0.0000 0.0000 0.0000
# 4 0.0000 0.0000 0.0000 28.1874 0.0000 0.0000
# 5 0.0000 0.0000 0.0000 0.0000 28.1874 0.0000
# 6 -0.0003 0.0003 0.0000 0.0000 0.0000 24.6336
#
#
#
# Elastic Compliance Matrix: (Units=1/GPa)
#
#
# Indices 1 2 3 4 5 6 
#
# 1 0.017955 0.004898 -0.002836 0.000000 0.000000 0.000000
# 2 0.004898 0.017955 -0.002836 0.000000 0.000000 0.000000
# 3 -0.002836 -0.002836 0.011160 0.000000 0.000000 0.000000
# 4 0.000000 0.000000 0.000000 0.035477 0.000000 0.000000
# 5 0.000000 0.000000 0.000000 0.000000 0.035477 0.000000
# 6 0.000000 0.000000 0.000000 0.000000 0.000000 0.040595
#
#
# Mechanical properties :
#
#
# Convention : Reuss Voigt Hill
#
# Bulk Modulus (GPa) = 21.96746 26.27925 24.12335
# Shear Modulus (GPa) = 28.51612 30.21073 29.36343
#
# Velocity S-wave (km/s) = 3.79045 3.90145 3.84635
# Velocity P-wave (km/s) = 5.49771 5.79100 5.64626
#
# Compressibility (1/GPa) = 0.04552187
#
# Stress axis : x y z
#
# Youngs Moduli (GPa) = 55.69625 55.69625 89.60307
#
# Poissons Ratio (x) = -0.27280 0.25410
# Poissons Ratio (y) = -0.27280 0.25410
# Poissons Ratio (z) = 0.15795 0.15795
#
# Static dielectric constant tensor:
#      x y z
#    x 1.695840 0.000000 0.000000 
#    y 0.000000 1.695840 0.000000 
#    z 0.000000 0.000000 1.812620 
# 
# From -- ./inp_files/1469.got.cif
#   From: 2010.05.17/outbox.cif.g08.bks.cpg/sg76_cif.got.tgz:1469.got - 2010.06.03 18:43:17.
