data_PCOD9541494
_publ_section_title
;
Structure prediction by ZEFSAII (Michael W. Deem and Ramdas Pophale) SiO2 
 PCOD9541494
Probable space group: P 42
;
_chemical_formula_sum "Si O2"
_cell_formula_units_Z 20
_cell_length_a 8.627384
_cell_length_b 8.627384
_cell_length_c 10.827371
_cell_angle_alpha 90.000000
_cell_angle_beta 90.000000
_cell_angle_gamma 90.000000
_cell_volume 805.900222
_symmetry_space_group_name_H-M "P 42"
_symmetry_group_IT_number 77
_symmetry_cell_setting 'tetragonal'
loop_
_space_group_symop_operation_xyz
x,y,z
-y,x,1/2+z
-x,-y,z
y,-x,1/2+z
loop_
_atom_site_type_symbol
_atom_site_label
_atom_site_fract_x
_atom_site_fract_y
_atom_site_fract_z
Si Si1 0.340006 0.819456 0.201830
Si Si2 0.085347 0.664201 0.080395
Si Si3 0.204144 0.143574 0.124742
Si Si4 0.168336 0.536064 0.446540
Si Si5 0.710566 0.371372 0.843085
O O1 0.217046 0.682703 0.183986
O O2 0.457551 0.774293 0.310117
O O3 0.249409 0.983058 0.193756
O O4 0.446464 0.833369 0.079504
O O5 0.000000 0.500000 0.081262
O O6 0.970310 0.806934 0.102213
O O7 0.174867 0.684867 0.951232
O O8 0.274601 0.269398 0.218069
O O9 0.287557 0.160663 0.991790
O O10 0.321816 0.460759 0.387661
O O11 0.000000 0.500000 0.385896
#
# Coordination Sequence:
#
# PCOD9541494 Si02
#       5
#     4   4   4   4   4
#     4   9  19  40  66  93 131 181 228 284 354 427
#     4  11  23  41  64  98 135 172 233 297 351 430
#     4  10  20  40  67  97 137 179 231 290 347 429
#     4   8  17  36  65  98 131 172 225 281 345 424
#     4  10  20  41  69  96 135 182 223 282 366 430
#
# _framework density 24.816967000000002
#
# number of rings (size 3 to 8) (size 9 to 14) (size 15 to 20)
#    0.000    2.400    0.000    3.600    0.000    0.800 
#    0.000   37.000    0.000    0.000    0.000    0.000 
#    0.000    0.000    0.000    0.000    0.000    0.000 
#
# Total GULP energy -111700.394054 kJ/mol
# GULP energy per Si atom -5585.019703 kJ/mol
# Density = 2.476048 g / cm^3
# Si number density = 24.816967 Si / 1000 Ang^3
#
#
#
# Elastic Constant Matrix: (Units=GPa)
#
#
# Indices 1 2 3 4 5 6 
#
# 1 128.6088 52.3442 34.6232 0.0000 0.0000 -3.1788
# 2 52.3442 128.6088 34.6232 0.0000 0.0000 3.1788
# 3 34.6232 34.6232 65.8973 0.0000 0.0000 0.0000
# 4 0.0000 0.0000 0.0000 35.5599 0.0000 0.0000
# 5 0.0000 0.0000 0.0000 0.0000 35.5599 0.0000
# 6 -3.1788 3.1788 0.0000 0.0000 0.0000 47.6324
#
#
#
# Elastic Compliance Matrix: (Units=1/GPa)
#
#
# Indices 1 2 3 4 5 6 
#
# 1 0.010051 -0.003134 -0.003634 0.000000 0.000000 0.000880
# 2 -0.003134 0.010051 -0.003634 0.000000 0.000000 -0.000880
# 3 -0.003634 -0.003634 0.018994 0.000000 0.000000 0.000000
# 4 0.000000 0.000000 0.000000 0.028122 0.000000 0.000000
# 5 0.000000 0.000000 0.000000 0.000000 0.028122 0.000000
# 6 0.000880 -0.000880 0.000000 0.000000 0.000000 0.021112
#
#
# Mechanical properties :
#
#
# Convention : Reuss Voigt Hill
#
# Bulk Modulus (GPa) = 54.67156 62.92177 58.79667
# Shear Modulus (GPa) = 34.87864 37.18540 36.03202
#
# Velocity S-wave (km/s) = 3.75298 3.87510 3.81453
# Velocity P-wave (km/s) = 6.39199 6.74027 6.56844
#
# Compressibility (1/GPa) = 0.01829105
#
# Stress axis : x y z
#
# Youngs Moduli (GPa) = 99.48932 99.48932 52.64787
#
# Poissons Ratio (x) = 0.31183 0.19134
# Poissons Ratio (y) = 0.31183 0.19134
# Poissons Ratio (z) = 0.36157 0.36157
#
# Static dielectric constant tensor:
#      x y z
#    x 1.994000 0.000000 0.000000 
#    y 0.000000 1.994000 0.000000 
#    z 0.000000 0.000000 1.984710 
# 
# From -- ./inp_files/749.got.cif
#   From: 2010.05.17/outbox.cif.g08.bks.cpg/sg77_cif.got.tgz:749.got - 2010.06.03 18:44:51.
