data_PCOD9541202
_publ_section_title
;
Structure prediction by ZEFSAII (Michael W. Deem and Ramdas Pophale) SiO2 
 PCOD9541202
Probable space group: P 41
;
_chemical_formula_sum "Si O2"
_cell_formula_units_Z 28
_cell_length_a 14.863859
_cell_length_b 14.863859
_cell_length_c 5.309867
_cell_angle_alpha 90.000000
_cell_angle_beta 90.000000
_cell_angle_gamma 90.000000
_cell_volume 1173.131772
_symmetry_space_group_name_H-M "P 41"
_symmetry_group_IT_number 76
_symmetry_cell_setting 'tetragonal'
loop_
_space_group_symop_operation_xyz
x,y,z
-y,x,1/4+z
-x,-y,1/2+z
y,-x,3/4+z
loop_
_atom_site_type_symbol
_atom_site_label
_atom_site_fract_x
_atom_site_fract_y
_atom_site_fract_z
Si Si1 0.529783 0.046616 0.829880
Si Si2 0.877385 0.031504 0.347176
Si Si3 0.375544 0.450418 0.246499
Si Si4 0.566365 0.769599 0.198086
Si Si5 0.826505 0.850547 0.952876
Si Si6 0.741054 0.319317 0.435430
Si Si7 0.730851 0.043406 0.026420
O O1 0.493644 0.142665 0.736103
O O2 0.628350 0.049578 0.951810
O O3 0.528255 0.987465 0.572398
O O4 0.896782 0.084184 0.598071
O O5 0.914688 0.932666 0.386406
O O6 0.770828 0.042540 0.309106
O O7 0.469549 0.403432 0.313106
O O8 0.319808 0.503745 0.461598
O O9 0.312800 0.367507 0.166746
O O10 0.638524 0.770644 0.421596
O O11 0.616213 0.765356 0.926508
O O12 0.772226 0.790556 0.751863
O O13 0.763637 0.939720 0.975608
O O14 0.869297 0.778874 0.148853
#
# Coordination Sequence:
#
# PCOD9541202 Si02
#       7
#     4   4   4   4   4   4   4
#     4  12  28  50  75 103 143 195 244 292 357 427
#     4  12  24  43  69 104 145 188 237 300 362 427
#     4  10  21  42  72 106 140 182 231 294 366 431
#     4  11  24  47  69 104 142 186 237 297 357 425
#     4  12  25  44  66 103 140 188 241 289 360 419
#     4  11  26  44  73 103 143 184 236 296 354 430
#     4  12  26  44  70 101 141 189 238 300 354 429
#
# _framework density 23.867736000000001
#
# number of rings (size 3 to 8) (size 9 to 14) (size 15 to 20)
#    0.000    0.571    2.857    5.143    4.000    4.571 
#    5.143    0.000    0.000    0.000    0.000    0.000 
#    0.000    0.000    0.000    0.000    0.000    0.000 
#
# Total GULP energy -156094.262247 kJ/mol
# GULP energy per Si atom -5574.795080 kJ/mol
# Density = 2.381341 g / cm^3
# Si number density = 23.867736 Si / 1000 Ang^3
#
#
#
# Elastic Constant Matrix: (Units=GPa)
#
#
# Indices 1 2 3 4 5 6 
#
# 1 71.8757 1.8412 -3.8939 0.0000 0.0000 -4.7848
# 2 1.8412 71.8757 -3.8939 0.0000 0.0000 4.7848
# 3 -3.8939 -3.8939 62.2030 0.0000 0.0000 0.0000
# 4 0.0000 0.0000 0.0000 19.6467 0.0000 0.0000
# 5 0.0000 0.0000 0.0000 0.0000 19.6467 0.0000
# 6 -4.7848 4.7848 0.0000 0.0000 0.0000 23.6352
#
#
#
# Elastic Compliance Matrix: (Units=1/GPa)
#
#
# Indices 1 2 3 4 5 6 
#
# 1 0.014170 -0.000515 0.000855 0.000000 0.000000 0.002973
# 2 -0.000515 0.014170 0.000855 0.000000 0.000000 -0.002973
# 3 0.000855 0.000855 0.016183 0.000000 0.000000 0.000000
# 4 0.000000 0.000000 0.000000 0.050899 0.000000 0.000000
# 5 0.000000 0.000000 0.000000 0.000000 0.050899 0.000000
# 6 0.002973 -0.002973 0.000000 0.000000 0.000000 0.043513
#
#
# Mechanical properties :
#
#
# Convention : Reuss Voigt Hill
#
# Bulk Modulus (GPa) = 21.31550 21.56237 21.43893
# Shear Modulus (GPa) = 24.62042 26.71246 25.66644
#
# Velocity S-wave (km/s) = 3.21524 3.34905 3.28283
# Velocity P-wave (km/s) = 4.76799 4.89986 4.83437
#
# Compressibility (1/GPa) = 0.04691423
#
# Stress axis : x y z
#
# Youngs Moduli (GPa) = 70.57007 70.57007 61.79164
#
# Poissons Ratio (x) = 0.03632 -0.05282
# Poissons Ratio (y) = 0.03632 -0.05282
# Poissons Ratio (z) = -0.06033 -0.06033
#
# Static dielectric constant tensor:
#      x y z
#    x 1.976570 0.000000 0.000000 
#    y 0.000000 1.976570 0.000000 
#    z 0.000000 0.000000 2.012870 
# 
# From -- ./inp_files/231.got.cif
#   From: 2010.05.17/outbox.cif.g08.bks.cpg/sg76_cif.got.tgz:231.got - 2010.06.03 18:43:17.
