data_PCOD9541463
_publ_section_title
;
Structure prediction by ZEFSAII (Michael W. Deem and Ramdas Pophale) SiO2 
 PCOD9541463
Probable space group: P 42
;
_chemical_formula_sum "Si O2"
_cell_formula_units_Z 32
_cell_length_a 9.442060
_cell_length_b 9.442060
_cell_length_c 19.844764
_cell_angle_alpha 90.000000
_cell_angle_beta 90.000000
_cell_angle_gamma 90.000000
_cell_volume 1769.210264
_symmetry_space_group_name_H-M "P 42"
_symmetry_group_IT_number 77
_symmetry_cell_setting 'tetragonal'
loop_
_space_group_symop_operation_xyz
x,y,z
-y,x,1/2+z
-x,-y,z
y,-x,1/2+z
loop_
_atom_site_type_symbol
_atom_site_label
_atom_site_fract_x
_atom_site_fract_y
_atom_site_fract_z
Si Si1 0.730106 0.760155 0.263650
Si Si2 0.029122 0.348334 0.176318
Si Si3 0.097917 0.371617 0.956780
Si Si4 0.229058 0.765421 0.255037
Si Si5 0.847531 0.982212 0.355287
Si Si6 0.659027 0.002622 0.156719
Si Si7 0.873112 0.102407 0.564502
Si Si8 0.468148 0.659418 0.353512
O O1 0.669907 0.884972 0.216002
O O2 0.604108 0.700847 0.308573
O O3 0.821257 0.658221 0.215795
O O4 0.837028 0.836534 0.315098
O O5 0.901257 0.324063 0.227859
O O6 0.000000 0.500000 0.143436
O O7 0.029897 0.217053 0.124868
O O8 0.000173 0.284830 0.904171
O O9 0.230968 0.433786 0.914308
O O10 0.000000 0.500000 0.983105
O O11 0.139321 0.249474 0.010423
O O12 0.169005 0.891849 0.301362
O O13 0.337346 0.676812 0.301069
O O14 0.302537 0.848126 0.192303
O O15 0.000000 0.000000 0.388525
O O16 0.765408 0.952328 0.098850
O O17 0.500000 0.000000 0.130904
O O18 0.000000 0.000000 0.541105
O O19 0.500000 0.500000 0.377416
#
# Coordination Sequence:
#
# PCOD9541463 Si02
#       8
#     4   4   4   4   4   4   4   4
#     4  10  19  32  58  92 118 150 187 242 305 352
#     4  11  21  35  57  89 125 149 187 250 305 353
#     4  11  23  40  61  82 113 157 207 243 285 352
#     4  10  19  32  58  90 120 148 186 242 303 357
#     4  10  18  32  58  86 112 146 193 244 290 346
#     4  10  19  35  62  89 119 150 196 241 295 360
#     4  11  23  40  62  84 112 158 207 248 287 342
#     4  11  22  38  60  90 125 158 193 240 306 368
#
# _framework density 18.087164999999999
#
# number of rings (size 3 to 8) (size 9 to 14) (size 15 to 20)
#    0.000    1.500    5.000    1.500    0.000    0.000 
#    0.000    1.250    0.000    0.000    0.000    0.000 
#    0.000    0.000    0.000    0.000    0.000    0.000 
#
# Total GULP energy -178359.885896 kJ/mol
# GULP energy per Si atom -5573.746434 kJ/mol
# Density = 1.804600 g / cm^3
# Si number density = 18.087165 Si / 1000 Ang^3
#
#
#
# Elastic Constant Matrix: (Units=GPa)
#
#
# Indices 1 2 3 4 5 6 
#
# 1 86.8967 38.0696 29.1550 0.0000 0.0000 9.2339
# 2 38.0696 86.8967 29.1550 0.0000 0.0000 -9.2339
# 3 29.1550 29.1550 72.8435 0.0000 0.0000 0.0000
# 4 0.0000 0.0000 0.0000 12.7179 0.0000 0.0000
# 5 0.0000 0.0000 0.0000 0.0000 12.7179 0.0000
# 6 9.2339 -9.2339 0.0000 0.0000 0.0000 21.7131
#
#
#
# Elastic Compliance Matrix: (Units=1/GPa)
#
#
# Indices 1 2 3 4 5 6 
#
# 1 0.017123 -0.007283 -0.003938 0.000000 0.000000 -0.010379
# 2 -0.007283 0.017123 -0.003938 0.000000 0.000000 0.010379
# 3 -0.003938 -0.003938 0.016881 0.000000 0.000000 0.000000
# 4 0.000000 0.000000 0.000000 0.078629 0.000000 0.000000
# 5 0.000000 0.000000 0.000000 0.000000 0.078629 0.000000
# 6 -0.010379 0.010379 0.000000 0.000000 0.000000 0.054883
#
#
# Mechanical properties :
#
#
# Convention : Reuss Voigt Hill
#
# Bulk Modulus (GPa) = 48.06073 48.82178 48.44126
# Shear Modulus (GPa) = 16.63767 19.44696 18.04231
#
# Velocity S-wave (km/s) = 3.03621 3.28255 3.16178
# Velocity P-wave (km/s) = 6.23866 6.43568 6.33793
#
# Compressibility (1/GPa) = 0.02080701
#
# Stress axis : x y z
#
# Youngs Moduli (GPa) = 58.40123 58.40123 59.23960
#
# Poissons Ratio (x) = 0.42534 0.23330
# Poissons Ratio (y) = 0.42534 0.23330
# Poissons Ratio (z) = 0.23000 0.23000
#
# Static dielectric constant tensor:
#      x y z
#    x 1.623300 0.000000 0.000000 
#    y 0.000000 1.623300 0.000000 
#    z 0.000000 0.000000 1.628760 
# 
# From -- ./inp_files/1692.got.cif
#   From: 2010.05.17/outbox.cif.g08.bks.cpg/sg77_cif.got.tgz:1692.got - 2010.06.03 18:44:51.
