data_PCOD9541738
_publ_section_title
;
Structure prediction by ZEFSAII (Michael W. Deem and Ramdas Pophale) SiO2 
 PCOD9541738
Probable space group: P 43
;
_chemical_formula_sum "Si O2"
_cell_formula_units_Z 32
_cell_length_a 7.979670
_cell_length_b 7.979670
_cell_length_c 20.205675
_cell_angle_alpha 90.000000
_cell_angle_beta 90.000000
_cell_angle_gamma 90.000000
_cell_volume 1286.599049
_symmetry_space_group_name_H-M "P 43"
_symmetry_group_IT_number 78
_symmetry_cell_setting 'tetragonal'
loop_
_space_group_symop_operation_xyz
x,y,z
-y,x,3/4+z
-x,-y,1/2+z
y,-x,1/4+z
loop_
_atom_site_type_symbol
_atom_site_label
_atom_site_fract_x
_atom_site_fract_y
_atom_site_fract_z
Si Si1 0.364860 0.717430 0.222220
Si Si2 0.092999 0.099163 0.296686
Si Si3 0.269409 0.008614 0.044247
Si Si4 0.799438 0.282932 0.923017
Si Si5 0.982249 0.412209 0.132730
Si Si6 0.355802 0.416962 0.819988
Si Si7 0.444070 0.934690 0.750390
Si Si8 0.817240 0.301386 0.260165
O O1 0.164852 0.714275 0.241305
O O2 0.477890 0.627661 0.278585
O O3 0.387958 0.646671 0.148548
O O4 0.455925 0.901633 0.224148
O O5 0.998890 0.927737 0.308900
O O6 0.256394 0.092385 0.341119
O O7 0.148819 0.106090 0.219897
O O8 0.977027 0.258683 0.304768
O O9 0.341989 0.096575 0.109925
O O10 0.329671 0.816033 0.041148
O O11 0.642354 0.172332 0.899259
O O12 0.783427 0.440762 0.971016
O O13 0.967392 0.558328 0.079593
O O14 0.879235 0.416146 0.199869
O O15 0.318216 0.610639 0.805342
O O16 0.259409 0.872230 0.732186
#
# Coordination Sequence:
#
# PCOD9541738 Si02
#       8
#     4   4   4   4   4   4   4   4
#     4  12  27  52  76 112 153 202 259 328 391 468
#     4   9  18  39  69 101 128 176 255 309 357 455
#     4  11  20  47  77 102 142 197 249 313 393 447
#     4   9  16  37  69 101 131 172 253 294 362 465
#     4   9  20  39  67  99 129 181 244 299 372 453
#     4  12  30  50  70 113 162 197 261 318 395 478
#     4  11  21  43  72  97 141 188 247 309 375 448
#     4  11  26  41  64 103 144 189 238 318 381 444
#
# _framework density 24.871773000000001
#
# number of rings (size 3 to 8) (size 9 to 14) (size 15 to 20)
#    0.000    1.500    5.000    0.750    3.500    2.000 
#   11.250    0.000    0.000    0.000    0.000    0.000 
#    0.000    0.000    0.000    0.000    0.000    0.000 
#
# Total GULP energy -178491.186700 kJ/mol
# GULP energy per Si atom -5577.849584 kJ/mol
# Density = 2.481516 g / cm^3
# Si number density = 24.871773 Si / 1000 Ang^3
#
#
#
# Elastic Constant Matrix: (Units=GPa)
#
#
# Indices 1 2 3 4 5 6 
#
# 1 57.4739 3.8792 27.1735 0.0000 0.0000 -1.1983
# 2 3.8792 57.4739 27.1735 0.0000 0.0000 1.1983
# 3 27.1735 27.1735 104.3327 0.0000 0.0000 0.0000
# 4 0.0000 0.0000 0.0000 25.8680 0.0000 0.0000
# 5 0.0000 0.0000 0.0000 0.0000 25.8680 0.0000
# 6 -1.1983 1.1983 0.0000 0.0000 0.0000 41.6058
#
#
#
# Elastic Compliance Matrix: (Units=1/GPa)
#
#
# Indices 1 2 3 4 5 6 
#
# 1 0.019935 0.001252 -0.005518 0.000000 0.000000 0.000538
# 2 0.001252 0.019935 -0.005518 0.000000 0.000000 -0.000538
# 3 -0.005518 -0.005518 0.012459 0.000000 0.000000 0.000000
# 4 0.000000 0.000000 0.000000 0.038658 0.000000 0.000000
# 5 0.000000 0.000000 0.000000 0.000000 0.038658 0.000000
# 6 0.000538 -0.000538 0.000000 0.000000 0.000000 0.024066
#
#
# Mechanical properties :
#
#
# Convention : Reuss Voigt Hill
#
# Bulk Modulus (GPa) = 30.52438 37.30364 33.91401
# Shear Modulus (GPa) = 27.14455 29.40534 28.27494
#
# Velocity S-wave (km/s) = 3.30719 3.44216 3.37535
# Velocity P-wave (km/s) = 5.18485 5.55237 5.37176
#
# Compressibility (1/GPa) = 0.03276070
#
# Stress axis : x y z
#
# Youngs Moduli (GPa) = 50.16328 50.16328 80.26225
#
# Poissons Ratio (x) = -0.06282 0.44290
# Poissons Ratio (y) = -0.06282 0.44290
# Poissons Ratio (z) = 0.27681 0.27681
#
# Static dielectric constant tensor:
#      x y z
#    x 2.050010 0.000000 0.000000 
#    y 0.000000 2.050010 0.000000 
#    z 0.000000 0.000000 1.989990 
# 
# From -- ./inp_files/1470.got.cif
#   From: 2010.05.17/outbox.cif.g08.bks.cpg/sg78_cif.got.tgz:1470.got - 2010.06.03 18:45:56.
