data_PCOD9541036
_publ_section_title
;
Structure prediction by ZEFSAII (Michael W. Deem and Ramdas Pophale) SiO2 
 PCOD9541036
Probable space group: P 4
;
_chemical_formula_sum "Si O2"
_cell_formula_units_Z 26
_cell_length_a 8.380431
_cell_length_b 8.380431
_cell_length_c 17.344204
_cell_angle_alpha 90.000000
_cell_angle_beta 90.000000
_cell_angle_gamma 90.000000
_cell_volume 1218.111609
_symmetry_space_group_name_H-M "P 4"
_symmetry_group_IT_number 75
_symmetry_cell_setting 'tetragonal'
loop_
_space_group_symop_operation_xyz
x,y,z
-y,x,z
-x,-y,z
y,-x,z
loop_
_atom_site_type_symbol
_atom_site_label
_atom_site_fract_x
_atom_site_fract_y
_atom_site_fract_z
Si Si1 0.926203 0.259558 0.895080
Si Si2 0.415311 0.244273 0.753260
Si Si3 0.094338 0.747263 0.611006
Si Si4 0.535755 0.765968 0.016823
Si Si5 0.544405 0.238437 0.191594
Si Si6 0.000000 0.500000 0.315929
Si Si7 0.913987 0.254029 0.434908
O O1 0.874008 0.361754 0.820950
O O2 0.103984 0.188841 0.894252
O O3 0.900493 0.374337 0.968035
O O4 0.596260 0.305670 0.759003
O O5 0.377522 0.157315 0.672824
O O6 0.110360 0.689643 0.522808
O O7 0.910830 0.803076 0.621106
O O8 0.373847 0.668125 0.000533
O O9 0.488057 0.817563 0.103877
O O10 0.674941 0.375159 0.202615
O O11 0.590705 0.109983 0.254946
O O12 0.894573 0.389244 0.371397
O O13 0.097163 0.194222 0.426135
#
# Coordination Sequence:
#
# PCOD9541036 Si02
#       7
#     4   4   4   4   4   2   4
#     4  11  24  39  57  85 118 152 196 247 295 346
#     4  11  24  39  57  85 118 152 196 247 295 346
#     4   9  19  37  59  81 110 149 192 238 288 344
#     4   9  19  37  59  81 110 149 192 238 288 344
#     4   9  20  37  55  81 116 150 188 236 288 345
#     4  12  20  32  60  88 110 148 192 232 284 348
#     4   9  20  37  55  81 116 150 188 236 288 345
#
# _framework density 21.344514
#
# number of rings (size 3 to 8) (size 9 to 14) (size 15 to 20)
#    0.000    2.154    0.000    4.615    0.000   11.692 
#    0.000    0.000    0.000    3.692    0.000    0.000 
#    0.000    0.000    0.000    0.000    0.000    0.000 
#
# Total GULP energy -144997.714097 kJ/mol
# GULP energy per Si atom -5576.835158 kJ/mol
# Density = 2.129593 g / cm^3
# Si number density = 21.344514 Si / 1000 Ang^3
#
#
#
# Elastic Constant Matrix: (Units=GPa)
#
#
# Indices 1 2 3 4 5 6 
#
# 1 54.0668 34.0416 27.2314 0.0000 0.0000 0.4530
# 2 34.0416 54.0668 27.2314 0.0000 0.0000 -0.4530
# 3 27.2314 27.2314 99.5977 0.0000 0.0000 0.0000
# 4 0.0000 0.0000 0.0000 18.0698 0.0000 0.0000
# 5 0.0000 0.0000 0.0000 0.0000 18.0698 0.0000
# 6 0.4530 -0.4530 0.0000 0.0000 0.0000 37.2763
#
#
#
# Elastic Compliance Matrix: (Units=1/GPa)
#
#
# Indices 1 2 3 4 5 6 
#
# 1 0.031811 -0.018153 -0.003734 0.000000 0.000000 -0.000607
# 2 -0.018153 0.031811 -0.003734 0.000000 0.000000 0.000607
# 3 -0.003734 -0.003734 0.012082 0.000000 0.000000 0.000000
# 4 0.000000 0.000000 0.000000 0.055341 0.000000 0.000000
# 5 0.000000 0.000000 0.000000 0.000000 0.055341 0.000000
# 6 -0.000607 0.000607 0.000000 0.000000 0.000000 0.026841
#
#
# Mechanical properties :
#
#
# Convention : Reuss Voigt Hill
#
# Bulk Modulus (GPa) = 40.88110 42.74891 41.81501
# Shear Modulus (GPa) = 18.34016 22.63162 20.48589
#
# Velocity S-wave (km/s) = 2.93447 3.25976 3.10138
# Velocity P-wave (km/s) = 5.53859 5.85146 5.69718
#
# Compressibility (1/GPa) = 0.02446118
#
# Stress axis : x y z
#
# Youngs Moduli (GPa) = 31.43548 31.43548 82.76507
#
# Poissons Ratio (x) = 0.57066 0.30907
# Poissons Ratio (y) = 0.57066 0.30907
# Poissons Ratio (z) = 0.11739 0.11739
#
# Static dielectric constant tensor:
#      x y z
#    x 1.766790 0.000000 0.000000 
#    y 0.000000 1.766790 0.000000 
#    z 0.000000 0.000000 1.785210 
# 
# From -- ./inp_files/730.got.cif
#   From: 2010.05.17/outbox.cif.g08.bks.cpg/sg75_cif.got.tgz:730.got - 2010.06.03 18:42:43.
