data_PCOD9541316
_publ_section_title
;
Structure prediction by ZEFSAII (Michael W. Deem and Ramdas Pophale) SiO2 
 PCOD9541316
Probable space group: P 41
;
_chemical_formula_sum "Si O2"
_cell_formula_units_Z 32
_cell_length_a 16.832289
_cell_length_b 16.832289
_cell_length_c 5.439615
_cell_angle_alpha 90.000000
_cell_angle_beta 90.000000
_cell_angle_gamma 90.000000
_cell_volume 1541.184104
_symmetry_space_group_name_H-M "P 41"
_symmetry_group_IT_number 76
_symmetry_cell_setting 'tetragonal'
loop_
_space_group_symop_operation_xyz
x,y,z
-y,x,1/4+z
-x,-y,1/2+z
y,-x,3/4+z
loop_
_atom_site_type_symbol
_atom_site_label
_atom_site_fract_x
_atom_site_fract_y
_atom_site_fract_z
Si Si1 0.128228 0.304212 0.131490
Si Si2 0.404794 0.574289 0.079018
Si Si3 0.873076 0.491832 0.120984
Si Si4 0.751002 0.624073 0.968902
Si Si5 0.771982 0.242343 0.088659
Si Si6 0.763217 0.398593 0.417538
Si Si7 0.038860 0.351725 0.626494
Si Si8 0.127310 0.662755 0.301904
O O1 0.209729 0.352206 0.205609
O O2 0.079700 0.312049 0.385633
O O3 0.170445 0.224756 0.032004
O O4 0.076157 0.331826 0.896787
O O5 0.490383 0.588394 0.961263
O O6 0.324790 0.566477 0.916297
O O7 0.388873 0.657046 0.220205
O O8 0.834921 0.460401 0.373307
O O9 0.944542 0.553763 0.109529
O O10 0.798244 0.543335 0.024252
O O11 0.892722 0.412542 0.972795
O O12 0.770334 0.694986 0.162102
O O13 0.852614 0.255632 0.938306
O O14 0.764105 0.327401 0.222671
O O15 0.789737 0.358886 0.671166
O O16 0.946914 0.329784 0.623651
#
# Coordination Sequence:
#
# PCOD9541316 Si02
#       8
#     4   4   4   4   4   4   4   4
#     4  11  22  45  67 100 125 185 223 288 344 442
#     4  12  28  39  57  85 125 177 251 320 359 397
#     4  10  25  37  68  85 127 178 234 295 360 436
#     4  11  23  44  65  86 124 175 249 285 368 416
#     4  11  21  43  68  96 126 188 233 286 349 436
#     4  11  25  41  65  86 130 182 238 296 371 421
#     4  11  27  40  70 100 142 172 239 292 362 436
#     4  11  25  43  62 104 135 185 231 300 361 430
#
# _framework density 20.763255000000001
#
# number of rings (size 3 to 8) (size 9 to 14) (size 15 to 20)
#    0.000    1.000    5.000    0.750   15.750    0.000 
#    0.000    0.000    0.000    0.000    0.000    0.000 
#    0.000    0.000    8.500    1.250    0.000    0.000 
#
# Total GULP energy -178297.876767 kJ/mol
# GULP energy per Si atom -5571.808649 kJ/mol
# Density = 2.071600 g / cm^3
# Si number density = 20.763255 Si / 1000 Ang^3
#
#
#
# Elastic Constant Matrix: (Units=GPa)
#
#
# Indices 1 2 3 4 5 6 
#
# 1 81.0983 31.1211 26.2180 0.0000 0.0000 8.1822
# 2 31.1211 81.0983 26.2180 0.0000 0.0000 -8.1822
# 3 26.2180 26.2180 79.2296 0.0000 0.0000 0.0000
# 4 0.0000 0.0000 0.0000 31.3219 0.0000 0.0000
# 5 0.0000 0.0000 0.0000 0.0000 31.3219 0.0000
# 6 8.1822 -8.1822 0.0000 0.0000 0.0000 17.3661
#
#
#
# Elastic Compliance Matrix: (Units=1/GPa)
#
#
# Indices 1 2 3 4 5 6 
#
# 1 0.017100 -0.006559 -0.003488 0.000000 0.000000 -0.011147
# 2 -0.006559 0.017100 -0.003488 0.000000 0.000000 0.011147
# 3 -0.003488 -0.003488 0.014930 0.000000 0.000000 0.000000
# 4 0.000000 0.000000 0.000000 0.031927 0.000000 0.000000
# 5 0.000000 0.000000 0.000000 0.000000 0.031927 0.000000
# 6 -0.011147 0.011147 0.000000 0.000000 0.000000 0.068088
#
#
# Mechanical properties :
#
#
# Convention : Reuss Voigt Hill
#
# Bulk Modulus (GPa) = 45.33193 45.39339 45.36266
# Shear Modulus (GPa) = 23.20243 26.52659 24.86451
#
# Velocity S-wave (km/s) = 3.34649 3.57819 3.46428
# Velocity P-wave (km/s) = 6.06730 6.24349 6.15603
#
# Compressibility (1/GPa) = 0.02205951
#
# Stress axis : x y z
#
# Youngs Moduli (GPa) = 58.47935 58.47935 66.97889
#
# Poissons Ratio (x) = 0.38357 0.23363
# Poissons Ratio (y) = 0.38357 0.23363
# Poissons Ratio (z) = 0.20398 0.20398
#
# Static dielectric constant tensor:
#      x y z
#    x 1.793550 0.000000 0.000000 
#    y 0.000000 1.793550 0.000000 
#    z 0.000000 0.000000 1.901810 
# 
# From -- ./inp_files/346.got.cif
#   From: 2010.05.17/outbox.cif.g08.bks.cpg/sg76_cif.got.tgz:346.got - 2010.06.03 18:43:17.
