data_PCOD9541673
_publ_section_title
;
Structure prediction by ZEFSAII (Michael W. Deem and Ramdas Pophale) SiO2 
 PCOD9541673
Probable space group: P 43
;
_chemical_formula_sum "Si O2"
_cell_formula_units_Z 28
_cell_length_a 8.378243
_cell_length_b 8.378243
_cell_length_c 17.024922
_cell_angle_alpha 90.000000
_cell_angle_beta 90.000000
_cell_angle_gamma 90.000000
_cell_volume 1195.063647
_symmetry_space_group_name_H-M "P 43"
_symmetry_group_IT_number 78
_symmetry_cell_setting 'tetragonal'
loop_
_space_group_symop_operation_xyz
x,y,z
-y,x,3/4+z
-x,-y,1/2+z
y,-x,1/4+z
loop_
_atom_site_type_symbol
_atom_site_label
_atom_site_fract_x
_atom_site_fract_y
_atom_site_fract_z
Si Si1 0.443531 0.906739 0.409870
Si Si2 0.063440 0.734922 0.072455
Si Si3 0.955425 0.100890 0.738074
Si Si4 0.319960 0.685802 0.811396
Si Si5 0.736119 0.341335 0.131868
Si Si6 0.764941 0.859388 0.654942
Si Si7 0.450653 0.977145 0.589655
O O1 0.564455 0.862751 0.340058
O O2 0.356742 0.070526 0.381578
O O3 0.326839 0.758378 0.420896
O O4 0.505419 0.952801 0.497827
O O5 0.875286 0.711078 0.065136
O O6 0.091226 0.818140 0.156685
O O7 0.114451 0.855584 0.004673
O O8 0.878120 0.164621 0.817292
O O9 0.888925 0.925384 0.719369
O O10 0.500881 0.664291 0.840744
O O11 0.313021 0.637419 0.721601
O O12 0.159685 0.607730 0.849082
O O13 0.674921 0.166360 0.105527
O O14 0.595713 0.944926 0.649787
#
# Coordination Sequence:
#
# PCOD9541673 Si02
#       7
#     4   4   4   4   4   4   4
#     4  10  23  43  68 101 139 178 234 301 355 437
#     4  10  21  43  69  97 135 177 229 289 358 413
#     4  10  22  41  67  99 128 179 231 284 343 423
#     4  10  24  45  70 102 140 192 236 300 359 434
#     4  10  24  45  72 100 141 187 242 294 368 430
#     4  11  24  42  68 101 136 177 238 289 353 432
#     4  11  24  45  68 100 145 188 236 297 368 429
#
# _framework density 23.429713
#
# number of rings (size 3 to 8) (size 9 to 14) (size 15 to 20)
#    0.000    1.714    1.429    1.714   10.000    1.143 
#    7.714    0.000    0.000    0.000    0.000    0.000 
#    0.000    0.000    0.000    0.000    0.000    0.000 
#
# Total GULP energy -156265.438727 kJ/mol
# GULP energy per Si atom -5580.908526 kJ/mol
# Density = 2.337639 g / cm^3
# Si number density = 23.429713 Si / 1000 Ang^3
#
#
#
# Elastic Constant Matrix: (Units=GPa)
#
#
# Indices 1 2 3 4 5 6 
#
# 1 65.7195 16.3478 19.8753 0.0000 0.0000 2.6130
# 2 16.3478 65.7195 19.8753 0.0000 0.0000 -2.6130
# 3 19.8753 19.8753 70.4221 0.0000 0.0000 0.0000
# 4 0.0000 0.0000 0.0000 32.9492 0.0000 0.0000
# 5 0.0000 0.0000 0.0000 0.0000 32.9492 0.0000
# 6 2.6130 -2.6130 0.0000 0.0000 0.0000 30.7572
#
#
#
# Elastic Compliance Matrix: (Units=1/GPa)
#
#
# Indices 1 2 3 4 5 6 
#
# 1 0.017276 -0.003162 -0.003984 0.000000 0.000000 -0.001736
# 2 -0.003162 0.017276 -0.003984 0.000000 0.000000 0.001736
# 3 -0.003984 -0.003984 0.016449 0.000000 0.000000 0.000000
# 4 0.000000 0.000000 0.000000 0.030350 0.000000 0.000000
# 5 0.000000 0.000000 0.000000 0.000000 0.030350 0.000000
# 6 -0.001736 0.001736 0.000000 0.000000 0.000000 0.032808
#
#
# Mechanical properties :
#
#
# Convention : Reuss Voigt Hill
#
# Bulk Modulus (GPa) = 34.79037 34.89533 34.84285
# Shear Modulus (GPa) = 28.35302 29.04865 28.70083
#
# Velocity S-wave (km/s) = 3.48247 3.52493 3.50376
# Velocity P-wave (km/s) = 5.57236 5.61184 5.59214
#
# Compressibility (1/GPa) = 0.02874359
#
# Stress axis : x y z
#
# Youngs Moduli (GPa) = 57.88211 57.88211 60.79518
#
# Poissons Ratio (x) = 0.18301 0.24218
# Poissons Ratio (y) = 0.18301 0.24218
# Poissons Ratio (z) = 0.23058 0.23058
#
# Static dielectric constant tensor:
#      x y z
#    x 2.029910 0.000000 0.000000 
#    y 0.000000 2.029910 0.000000 
#    z 0.000000 0.000000 1.885880 
# 
# From -- ./inp_files/1309.got.cif
#   From: 2010.05.17/outbox.cif.g08.bks.cpg/sg78_cif.got.tgz:1309.got - 2010.06.03 18:45:56.
