data_PCOD9541371
_publ_section_title
;
Structure prediction by ZEFSAII (Michael W. Deem and Ramdas Pophale) SiO2 
 PCOD9541371
Probable space group: P 41
;
_chemical_formula_sum "Si O2"
_cell_formula_units_Z 24
_cell_length_a 10.848817
_cell_length_b 10.848817
_cell_length_c 9.117630
_cell_angle_alpha 90.000000
_cell_angle_beta 90.000000
_cell_angle_gamma 90.000000
_cell_volume 1073.116151
_symmetry_space_group_name_H-M "P 41"
_symmetry_group_IT_number 76
_symmetry_cell_setting 'tetragonal'
loop_
_space_group_symop_operation_xyz
x,y,z
-y,x,1/4+z
-x,-y,1/2+z
y,-x,3/4+z
loop_
_atom_site_type_symbol
_atom_site_label
_atom_site_fract_x
_atom_site_fract_y
_atom_site_fract_z
Si Si1 0.386688 0.430032 0.026200
Si Si2 0.284854 0.999142 0.066609
Si Si3 0.164851 0.254913 0.028144
Si Si4 0.359048 0.802292 0.267654
Si Si5 0.561607 0.054296 0.038676
Si Si6 0.560074 0.771071 0.018566
O O1 0.510666 0.411436 0.118974
O O2 0.301476 0.522158 0.122457
O O3 0.302926 0.309598 0.023655
O O4 0.290920 0.913374 0.922033
O O5 0.187788 0.107913 0.036136
O O6 0.422092 0.052923 0.100244
O O7 0.265146 0.903723 0.200310
O O8 0.097883 0.329526 0.896947
O O9 0.437057 0.861585 0.396261
O O10 0.289443 0.683997 0.326692
O O11 0.450745 0.764061 0.136535
O O12 0.584901 0.913970 0.991482
#
# Coordination Sequence:
#
# PCOD9541371 Si02
#       6
#     4   4   4   4   4   4
#     4  12  25  46  73 108 145 183 236 303 366 426
#     4  11  25  48  71 101 143 188 240 290 366 414
#     4  12  26  48  72 105 146 189 240 298 351 440
#     4  11  25  43  76 101 144 187 233 295 360 433
#     4  11  26  43  76 101 142 190 239 285 365 427
#     4  11  23  44  72 102 142 181 238 291 364 416
#
# _framework density 22.364771999999999
#
# number of rings (size 3 to 8) (size 9 to 14) (size 15 to 20)
#    0.000    0.667    5.000    3.000    9.333    2.667 
#    3.000    0.000    0.000    0.000    0.000    0.000 
#    0.000    0.000    0.000    0.000    0.000    0.000 
#
# Total GULP energy -134241.269498 kJ/mol
# GULP energy per Si atom -5593.386229 kJ/mol
# Density = 2.231387 g / cm^3
# Si number density = 22.364772 Si / 1000 Ang^3
#
#
#
# Elastic Constant Matrix: (Units=GPa)
#
#
# Indices 1 2 3 4 5 6 
#
# 1 61.0986 73.3514 11.0665 0.0000 0.0000 -12.2186
# 2 73.3514 61.0986 11.0665 0.0000 0.0000 12.2186
# 3 11.0665 11.0665 53.6526 0.0000 0.0000 0.0000
# 4 0.0000 0.0000 0.0000 23.1180 0.0000 0.0000
# 5 0.0000 0.0000 0.0000 0.0000 23.1180 0.0000
# 6 -12.2186 12.2186 0.0000 0.0000 0.0000 29.7522
#
#
#
# Elastic Compliance Matrix: (Units=1/GPa)
#
#
# Indices 1 2 3 4 5 6 
#
# 1 -0.018583 0.026283 -0.001588 0.000000 0.000000 -0.018426
# 2 0.026283 -0.018583 -0.001588 0.000000 0.000000 0.018426
# 3 -0.001588 -0.001588 0.019294 0.000000 0.000000 0.000000
# 4 0.000000 0.000000 0.000000 0.043256 0.000000 0.000000
# 5 0.000000 0.000000 0.000000 0.000000 0.043256 0.000000
# 6 -0.018426 0.018426 0.000000 0.000000 0.000000 0.018477
#
#
# Mechanical properties :
#
#
# Convention : Reuss Voigt Hill
#
# Bulk Modulus (GPa) = 35.28628 40.75763 38.02195
# Shear Modulus (GPa) = 99.30444 20.55533 59.92988
#
# Velocity S-wave (km/s) = 6.67072 3.03495 5.18215
# Velocity P-wave (km/s) = 8.66852 5.52673 7.26939
#
# Compressibility (1/GPa) = 0.02833963
#
# Stress axis : x y z
#
# Youngs Moduli (GPa) = -53.81149 -53.81149 51.83086
#
# Poissons Ratio (x) = 1.41430 0.08231
# Poissons Ratio (y) = 1.41430 0.08231
# Poissons Ratio (z) = -0.08545 -0.08545
#
# Static dielectric constant tensor:
#      x y z
#    x 1.844100 0.000000 0.000000 
#    y 0.000000 1.844100 0.000000 
#    z 0.000000 0.000000 1.811540 
# 
# From -- ./inp_files/544.got.cif
#   From: 2010.05.17/outbox.cif.g08.bks.cpg/sg76_cif.got.tgz:544.got - 2010.06.03 18:43:17.
