data_PCOD9541643
_publ_section_title
;
Structure prediction by ZEFSAII (Michael W. Deem and Ramdas Pophale) SiO2 
 PCOD9541643
Probable space group: P 43
;
_chemical_formula_sum "Si O2"
_cell_formula_units_Z 28
_cell_length_a 12.307331
_cell_length_b 12.307331
_cell_length_c 7.911053
_cell_angle_alpha 90.000000
_cell_angle_beta 90.000000
_cell_angle_gamma 90.000000
_cell_volume 1198.290333
_symmetry_space_group_name_H-M "P 43"
_symmetry_group_IT_number 78
_symmetry_cell_setting 'tetragonal'
loop_
_space_group_symop_operation_xyz
x,y,z
-y,x,3/4+z
-x,-y,1/2+z
y,-x,1/4+z
loop_
_atom_site_type_symbol
_atom_site_label
_atom_site_fract_x
_atom_site_fract_y
_atom_site_fract_z
Si Si1 0.793421 0.902170 0.454360
Si Si2 0.580915 0.235708 0.615453
Si Si3 0.180247 0.706490 0.657967
Si Si4 0.047280 0.285126 0.978792
Si Si5 0.217270 0.623927 0.044720
Si Si6 0.880976 0.054876 0.161937
Si Si7 0.638368 0.449898 0.075671
O O1 0.851999 0.794222 0.523725
O O2 0.667291 0.879014 0.409563
O O3 0.794230 0.988312 0.599539
O O4 0.839641 0.961329 0.288636
O O5 0.620114 0.110791 0.626843
O O6 0.500788 0.243654 0.773629
O O7 0.680491 0.316196 0.621548
O O8 0.521735 0.283331 0.449502
O O9 0.195807 0.668477 0.853310
O O10 0.192131 0.837532 0.656842
O O11 0.275343 0.648981 0.547422
O O12 0.054942 0.680629 0.597621
O O13 0.993433 0.098105 0.238836
O O14 0.532577 0.404414 0.179877
#
# Coordination Sequence:
#
# PCOD9541643 Si02
#       7
#     4   4   4   4   4   4   4
#     4  11  22  40  64  96 134 193 222 288 348 442
#     4  10  20  42  69  97 126 179 229 293 349 428
#     4  11  24  41  62 103 134 176 228 297 343 432
#     4  11  25  39  61 100 145 176 235 285 355 433
#     4  10  21  41  69  91 129 174 237 285 362 410
#     4  12  22  37  62  94 132 185 233 277 352 434
#     4  11  24  50  77  99 134 187 246 309 371 433
#
# _framework density 23.366627000000001
#
# number of rings (size 3 to 8) (size 9 to 14) (size 15 to 20)
#    0.000    1.143    5.714    1.714    2.000    2.286 
#    5.143    0.000    0.000    0.000    0.000    0.000 
#    0.000    0.000    0.000    0.000    0.000    0.000 
#
# Total GULP energy -156041.123672 kJ/mol
# GULP energy per Si atom -5572.897274 kJ/mol
# Density = 2.331344 g / cm^3
# Si number density = 23.366627 Si / 1000 Ang^3
#
#
#
# Elastic Constant Matrix: (Units=GPa)
#
#
# Indices 1 2 3 4 5 6 
#
# 1 125.9804 43.3318 28.8538 0.0000 0.0000 13.5863
# 2 43.3318 125.9804 28.8538 0.0000 0.0000 -13.5863
# 3 28.8538 28.8538 53.9922 0.0000 0.0000 0.0000
# 4 0.0000 0.0000 0.0000 3.6441 0.0000 0.0000
# 5 0.0000 0.0000 0.0000 0.0000 3.6441 0.0000
# 6 13.5863 -13.5863 0.0000 0.0000 0.0000 56.3621
#
#
#
# Elastic Compliance Matrix: (Units=1/GPa)
#
#
# Indices 1 2 3 4 5 6 
#
# 1 0.010181 -0.002960 -0.003859 0.000000 0.000000 -0.003168
# 2 -0.002960 0.010181 -0.003859 0.000000 0.000000 0.003168
# 3 -0.003859 -0.003859 0.022646 0.000000 0.000000 0.000000
# 4 0.000000 0.000000 0.000000 0.274413 0.000000 0.000000
# 5 0.000000 0.000000 0.000000 0.000000 0.274413 0.000000
# 6 -0.003168 0.003168 0.000000 0.000000 0.000000 0.019270
#
#
# Mechanical properties :
#
#
# Convention : Reuss Voigt Hill
#
# Bulk Modulus (GPa) = 46.18476 56.44797 51.31637
# Shear Modulus (GPa) = 7.81643 26.39098 17.10371
#
# Velocity S-wave (km/s) = 1.83095 3.36435 2.70843
# Velocity P-wave (km/s) = 4.92727 6.26911 5.63825
#
# Compressibility (1/GPa) = 0.02165216
#
# Stress axis : x y z
#
# Youngs Moduli (GPa) = 98.21986 98.21986 44.15787
#
# Poissons Ratio (x) = 0.29069 0.17042
# Poissons Ratio (y) = 0.29069 0.17042
# Poissons Ratio (z) = 0.37906 0.37906
#
# Static dielectric constant tensor:
#      x y z
#    x 1.961980 0.000000 0.000000 
#    y 0.000000 1.961980 0.000000 
#    z 0.000000 0.000000 1.912430 
# 
# From -- ./inp_files/643.got.cif
#   From: 2010.05.17/outbox.cif.g08.bks.cpg/sg78_cif.got.tgz:643.got - 2010.06.03 18:45:56.
