data_PCOD9541066
_publ_section_title
;
Structure prediction by ZEFSAII (Michael W. Deem and Ramdas Pophale) SiO2 
 PCOD9541066
Probable space group: P 4
;
_chemical_formula_sum "Si O2"
_cell_formula_units_Z 25
_cell_length_a 12.000000
_cell_length_b 12.000000
_cell_length_c 9.000000
_cell_angle_alpha 90.000000
_cell_angle_beta 90.000000
_cell_angle_gamma 90.000000
_cell_volume 1296.000000
_symmetry_space_group_name_H-M "P 4"
_symmetry_group_IT_number 75
_symmetry_cell_setting 'tetragonal'
loop_
_space_group_symop_operation_xyz
x,y,z
-y,x,z
-x,-y,z
y,-x,z
loop_
_atom_site_type_symbol
_atom_site_label
_atom_site_fract_x
_atom_site_fract_y
_atom_site_fract_z
Si Si1 0.904093 0.289520 0.894460
Si Si2 0.500000 0.500000 0.876570
Si Si3 0.867799 0.512464 0.585068
Si Si4 0.762820 0.516242 0.882575
Si Si5 0.896545 0.711813 0.392345
Si Si6 0.267240 0.126101 0.553428
Si Si7 0.142705 0.281635 0.046824
O O1 0.842528 0.408997 0.901757
O O2 0.914378 0.252921 0.722452
O O3 0.825293 0.203093 0.978742
O O4 0.023472 0.297009 0.969697
O O5 0.635907 0.478426 0.877027
O O6 0.802376 0.565286 0.722895
O O7 0.864208 0.587121 0.439881
O O8 0.820230 0.390269 0.555011
O O9 0.000000 0.500000 0.624786
O O10 0.786167 0.608727 0.006272
O O11 0.825748 0.791383 0.498109
O O12 0.873148 0.732416 0.221692
O O13 0.024044 0.727862 0.439150
#
# Coordination Sequence:
#
# PCOD9541066 Si02
#       7
#     4   1   4   4   4   4   4
#     4  11  23  41  67  92 124 169 220 257 306 373
#     4  12  24  40  68  98 128 160 212 274 296 360
#     4   9  20  39  62  88 118 163 212 250 297 374
#     4  11  22  42  65  92 124 165 217 259 313 366
#     4  11  23  38  60  91 127 159 201 255 320 367
#     4  10  21  40  61  86 120 162 209 255 298 367
#     4  12  24  39  63  96 129 165 207 263 319 380
#
# _framework density 19.290123000000001
#
# number of rings (size 3 to 8) (size 9 to 14) (size 15 to 20)
#    0.000    1.280    1.600    6.240    2.240    5.760 
#    0.000    3.200    0.000    0.960    0.000    0.000 
#    0.000    0.000    0.000    0.000    0.000    0.000 
#
# Total GULP energy -139378.009879 kJ/mol
# GULP energy per Si atom -5575.120395 kJ/mol
# Density = 1.924622 g / cm^3
# Si number density = 19.290123 Si / 1000 Ang^3
#
#
#
# Elastic Constant Matrix: (Units=GPa)
#
#
# Indices 1 2 3 4 5 6 
#
# 1 38.9523 8.0088 8.9888 0.0000 0.0000 -5.5627
# 2 8.0088 38.9523 8.9888 0.0000 0.0000 5.5627
# 3 8.9888 8.9888 73.9658 0.0000 0.0000 0.0000
# 4 0.0000 0.0000 0.0000 12.5006 0.0000 0.0000
# 5 0.0000 0.0000 0.0000 0.0000 12.5006 0.0000
# 6 -5.5627 5.5627 0.0000 0.0000 0.0000 28.3884
#
#
#
# Elastic Compliance Matrix: (Units=1/GPa)
#
#
# Indices 1 2 3 4 5 6 
#
# 1 0.028550 -0.006217 -0.002714 0.000000 0.000000 0.006812
# 2 -0.006217 0.028550 -0.002714 0.000000 0.000000 -0.006812
# 3 -0.002714 -0.002714 0.014179 0.000000 0.000000 0.000000
# 4 0.000000 0.000000 0.000000 0.079996 0.000000 0.000000
# 5 0.000000 0.000000 0.000000 0.000000 0.079996 0.000000
# 6 0.006812 -0.006812 0.000000 0.000000 0.000000 0.037896
#
#
# Mechanical properties :
#
#
# Convention : Reuss Voigt Hill
#
# Bulk Modulus (GPa) = 20.83785 22.64923 21.74354
# Shear Modulus (GPa) = 16.20991 19.07017 17.64004
#
# Velocity S-wave (km/s) = 2.90198 3.14761 3.02728
# Velocity P-wave (km/s) = 4.69621 4.99768 4.84929
#
# Compressibility (1/GPa) = 0.04798959
#
# Stress axis : x y z
#
# Youngs Moduli (GPa) = 35.02655 35.02655 70.52477
#
# Poissons Ratio (x) = 0.21774 0.19141
# Poissons Ratio (y) = 0.21774 0.19141
# Poissons Ratio (z) = 0.09506 0.09506
#
# Static dielectric constant tensor:
#      x y z
#    x 1.679350 0.000000 0.000000 
#    y 0.000000 1.679350 0.000000 
#    z 0.000000 0.000000 1.654900 
# 
# From -- ./inp_files/381.got.cif
#   From: 2010.05.17/outbox.ucp.g08.bks.cvg/sg75_cif.got.tgz:381.got - 2010.06.11 16:41:55.
