data_PCOD9541043
_publ_section_title
;
Structure prediction by ZEFSAII (Michael W. Deem and Ramdas Pophale) SiO2 
 PCOD9541043
Probable space group: P 4
;
_chemical_formula_sum "Si O2"
_cell_formula_units_Z 22
_cell_length_a 8.194951
_cell_length_b 8.194951
_cell_length_c 14.723689
_cell_angle_alpha 90.000000
_cell_angle_beta 90.000000
_cell_angle_gamma 90.000000
_cell_volume 988.802049
_symmetry_space_group_name_H-M "P 4"
_symmetry_group_IT_number 75
_symmetry_cell_setting 'tetragonal'
loop_
_space_group_symop_operation_xyz
x,y,z
-y,x,z
-x,-y,z
y,-x,z
loop_
_atom_site_type_symbol
_atom_site_label
_atom_site_fract_x
_atom_site_fract_y
_atom_site_fract_z
Si Si1 0.131878 0.231589 0.205020
Si Si2 0.723864 0.337477 0.590444
Si Si3 0.685477 0.295214 0.388807
Si Si4 0.000000 0.500000 0.901472
Si Si5 0.897222 0.248493 0.770886
Si Si6 0.246207 0.410573 0.038356
O O1 0.177359 0.252053 0.310370
O O2 0.198694 0.375766 0.142381
O O3 0.941807 0.213889 0.182697
O O4 0.717377 0.534562 0.600248
O O5 0.757813 0.268614 0.489544
O O6 0.850744 0.285038 0.666916
O O7 0.719850 0.489000 0.379616
O O8 0.125372 0.596599 0.835911
O O9 0.098405 0.381264 0.969606
O O10 0.085743 0.204914 0.788191
O O11 0.403760 0.299756 0.022768
#
# Coordination Sequence:
#
# PCOD9541043 Si02
#       6
#     4   4   4   2   4   4
#     4  11  24  40  59  88 127 167 207 258 319 381
#     4   9  19  38  63  90 123 165 212 261 313 376
#     4   9  19  37  62  91 122 160 208 259 315 379
#     4  12  24  44  66  90 126 170 216 266 326 386
#     4  11  24  40  61  91 126 164 209 263 322 383
#     4  11  24  42  66  93 120 158 212 266 316 380
#
# _framework density 22.249143
#
# number of rings (size 3 to 8) (size 9 to 14) (size 15 to 20)
#    0.000    1.636    0.000    5.455    0.000    5.091 
#    0.000    9.091    0.000    0.000    0.000    0.000 
#    0.000    0.000    0.000    0.000    0.000    0.000 
#
# Total GULP energy -122769.939971 kJ/mol
# GULP energy per Si atom -5580.451817 kJ/mol
# Density = 2.219850 g / cm^3
# Si number density = 22.249143 Si / 1000 Ang^3
#
#
#
# Elastic Constant Matrix: (Units=GPa)
#
#
# Indices 1 2 3 4 5 6 
#
# 1 51.7628 20.6771 40.8394 0.0000 0.0000 -2.3177
# 2 20.6771 51.7628 40.8394 0.0000 0.0000 2.3177
# 3 40.8394 40.8394 151.6036 0.0000 0.0000 0.0000
# 4 0.0000 0.0000 0.0000 37.0527 0.0000 0.0000
# 5 0.0000 0.0000 0.0000 0.0000 37.0527 0.0000
# 6 -2.3177 2.3177 0.0000 0.0000 0.0000 12.8234
#
#
#
# Elastic Compliance Matrix: (Units=1/GPa)
#
#
# Indices 1 2 3 4 5 6 
#
# 1 0.026443 -0.006617 -0.005341 0.000000 0.000000 0.005975
# 2 -0.006617 0.026443 -0.005341 0.000000 0.000000 -0.005975
# 3 -0.005341 -0.005341 0.009474 0.000000 0.000000 0.000000
# 4 0.000000 0.000000 0.000000 0.026989 0.000000 0.000000
# 5 0.000000 0.000000 0.000000 0.000000 0.026989 0.000000
# 6 0.005975 -0.005975 0.000000 0.000000 0.000000 0.080142
#
#
# Mechanical properties :
#
#
# Convention : Reuss Voigt Hill
#
# Bulk Modulus (GPa) = 36.01891 51.09345 43.55618
# Shear Modulus (GPa) = 20.80461 27.57066 24.18764
#
# Velocity S-wave (km/s) = 3.06122 3.52402 3.30074
# Velocity P-wave (km/s) = 5.35899 6.29065 5.84342
#
# Compressibility (1/GPa) = 0.02776319
#
# Stress axis : x y z
#
# Youngs Moduli (GPa) = 37.81663 37.81663 105.55560
#
# Poissons Ratio (x) = 0.25022 0.56377
# Poissons Ratio (y) = 0.25022 0.56377
# Poissons Ratio (z) = 0.20198 0.20198
#
# Static dielectric constant tensor:
#      x y z
#    x 1.836350 0.000000 0.000000 
#    y 0.000000 1.836350 0.000000 
#    z 0.000000 0.000000 1.821260 
# 
# From -- ./inp_files/668.got.cif
#   From: 2010.05.17/outbox.cif.g08.bks.cpg/sg75_cif.got.tgz:668.got - 2010.06.03 18:42:43.
