data_PCOD9541533
_publ_section_title
;
Structure prediction by ZEFSAII (Michael W. Deem and Ramdas Pophale) SiO2 
 PCOD9541533
Probable space group: P 42
;
_chemical_formula_sum "Si O2"
_cell_formula_units_Z 24
_cell_length_a 11.900354
_cell_length_b 11.900354
_cell_length_c 8.002213
_cell_angle_alpha 90.000000
_cell_angle_beta 90.000000
_cell_angle_gamma 90.000000
_cell_volume 1133.260804
_symmetry_space_group_name_H-M "P 42"
_symmetry_group_IT_number 77
_symmetry_cell_setting 'tetragonal'
loop_
_space_group_symop_operation_xyz
x,y,z
-y,x,1/2+z
-x,-y,z
y,-x,1/2+z
loop_
_atom_site_type_symbol
_atom_site_label
_atom_site_fract_x
_atom_site_fract_y
_atom_site_fract_z
Si Si1 0.409989 0.086860 0.162340
Si Si2 0.358947 0.311873 0.543543
Si Si3 0.802995 0.287691 0.360867
Si Si4 0.132624 0.020324 0.690287
Si Si5 0.795288 0.856988 0.351355
Si Si6 0.555204 0.262739 0.329730
O O1 0.293290 0.060990 0.257437
O O2 0.484286 0.151761 0.298238
O O3 0.500000 0.000000 0.092752
O O4 0.365962 0.160402 0.010268
O O5 0.361463 0.218801 0.692702
O O6 0.269844 0.254839 0.416307
O O7 0.475705 0.333219 0.451323
O O8 0.315975 0.419402 0.647114
O O9 0.679169 0.239706 0.397586
O O10 0.893868 0.191968 0.319730
O O11 0.179015 0.896233 0.729904
O O12 0.156374 0.076576 0.511155
O O13 0.000000 0.000000 0.710678
#
# Coordination Sequence:
#
# PCOD9541533 Si02
#       6
#     4   4   4   4   4   4
#     4  11  25  42  70  99 141 194 235 298 357 429
#     4   8  19  44  69  98 137 185 234 294 350 423
#     4   9  23  43  68 104 140 184 239 292 364 424
#     4  11  24  41  69 103 143 180 235 298 368 430
#     4  10  24  41  66 102 140 188 234 288 364 432
#     4   9  20  45  69  97 143 174 248 280 358 424
#
# _framework density 21.177826
#
# number of rings (size 3 to 8) (size 9 to 14) (size 15 to 20)
#    1.000    1.333    0.000    0.500    9.333    0.000 
#    6.000   10.000    0.000    0.000    0.000    0.000 
#    0.000    0.000    0.000    0.000    0.000    0.000 
#
# Total GULP energy -133668.030224 kJ/mol
# GULP energy per Si atom -5569.501259 kJ/mol
# Density = 2.112962 g / cm^3
# Si number density = 21.177826 Si / 1000 Ang^3
#
#
#
# Elastic Constant Matrix: (Units=GPa)
#
#
# Indices 1 2 3 4 5 6 
#
# 1 104.8090 38.3693 21.1247 0.0000 0.0000 8.3692
# 2 38.3693 104.8090 21.1247 0.0000 0.0000 -8.3692
# 3 21.1247 21.1247 48.1253 0.0000 0.0000 0.0000
# 4 0.0000 0.0000 0.0000 27.9089 0.0000 0.0000
# 5 0.0000 0.0000 0.0000 0.0000 27.9089 0.0000
# 6 8.3692 -8.3692 0.0000 0.0000 0.0000 16.4642
#
#
#
# Elastic Compliance Matrix: (Units=1/GPa)
#
#
# Indices 1 2 3 4 5 6 
#
# 1 0.012643 -0.004619 -0.003522 0.000000 0.000000 -0.008775
# 2 -0.004619 0.012643 -0.003522 0.000000 0.000000 0.008775
# 3 -0.003522 -0.003522 0.023871 0.000000 0.000000 0.000000
# 4 0.000000 0.000000 0.000000 0.035831 0.000000 0.000000
# 5 0.000000 0.000000 0.000000 0.000000 0.035831 0.000000
# 6 -0.008775 0.008775 0.000000 0.000000 0.000000 0.069658
#
#
# Mechanical properties :
#
#
# Convention : Reuss Voigt Hill
#
# Bulk Modulus (GPa) = 38.71420 46.55340 42.63380
# Shear Modulus (GPa) = 22.48071 26.26471 24.37271
#
# Velocity S-wave (km/s) = 3.26163 3.52547 3.39611
# Velocity P-wave (km/s) = 5.70128 6.21303 5.96265
#
# Compressibility (1/GPa) = 0.02583032
#
# Stress axis : x y z
#
# Youngs Moduli (GPa) = 79.09692 79.09692 41.89183
#
# Poissons Ratio (x) = 0.36536 0.14754
# Poissons Ratio (y) = 0.36536 0.14754
# Poissons Ratio (z) = 0.27858 0.27858
#
# Static dielectric constant tensor:
#      x y z
#    x 1.826350 0.000000 0.000000 
#    y 0.000000 1.826350 0.000000 
#    z 0.000000 0.000000 1.790480 
# 
# From -- ./inp_files/440.got.cif
#   From: 2010.05.17/outbox.cif.g08.bks.cpg/sg77_cif.got.tgz:440.got - 2010.06.03 18:44:51.
