data_PCOD9541985
_publ_section_title
;
Structure prediction by ZEFSAII (Michael W. Deem and Ramdas Pophale) SiO2 
 PCOD9541985
Probable space group: I 4
;
_chemical_formula_sum "Si O2"
_cell_formula_units_Z 56
_cell_length_a 14.850956
_cell_length_b 14.850956
_cell_length_c 11.714596
_cell_angle_alpha 90.000000
_cell_angle_beta 90.000000
_cell_angle_gamma 90.000000
_cell_volume 2583.664622
_symmetry_space_group_name_H-M "I 4"
_symmetry_group_IT_number 79
_symmetry_cell_setting 'tetragonal'
loop_
_space_group_symop_operation_xyz
x,y,z
-y,x,z
-x,-y,z
y,-x,z
1/2+x,1/2+y,1/2+z
1/2-y,1/2+x,1/2+z
1/2-x,1/2-y,1/2+z
1/2+y,1/2-x,1/2+z
loop_
_atom_site_type_symbol
_atom_site_label
_atom_site_fract_x
_atom_site_fract_y
_atom_site_fract_z
Si Si1 0.951038 0.690595 0.127780
Si Si2 0.287695 0.082856 0.594684
Si Si3 0.866536 0.204911 0.816248
Si Si4 0.221488 0.811947 0.453048
Si Si5 0.048412 0.143598 0.295131
Si Si6 0.757279 0.442078 0.374157
Si Si7 0.847773 0.388277 0.136592
O O1 0.870423 0.626436 0.167044
O O2 0.944553 0.784624 0.193203
O O3 0.049459 0.645565 0.136591
O O4 0.921794 0.702724 0.996720
O O5 0.207531 0.097806 0.686587
O O6 0.247195 0.134443 0.486089
O O7 0.326050 0.983418 0.574729
O O8 0.779090 0.262534 0.854451
O O9 0.838420 0.105716 0.855126
O O10 0.951349 0.245606 0.880186
O O11 0.192347 0.909720 0.406402
O O12 0.284333 0.819395 0.566100
O O13 0.946064 0.109435 0.290369
O O14 0.815476 0.408449 0.266018
#
# Coordination Sequence:
#
# PCOD9541985 Si02
#       7
#     8   8   8   8   8   8   8
#     4  12  25  43  72 101 142 188 234 298 361 431
#     4  11  24  44  68 102 138 188 236 290 360 430
#     4  11  23  43  65 103 133 182 235 289 359 430
#     4  12  22  44  76  97 141 188 237 290 363 436
#     4  11  28  46  69 105 142 190 245 301 365 432
#     4  11  25  42  69 101 141 178 238 290 360 435
#     4  11  26  44  68 106 141 183 238 304 360 428
#
# _framework density 21.674638000000002
#
# number of rings (size 3 to 8) (size 9 to 14) (size 15 to 20)
#    0.000    0.714    5.714    1.286    6.000    1.429 
#    0.000    1.429    0.000    0.000    0.000    0.000 
#    0.000    0.000    0.000    0.000    0.000    0.000 
#
# Total GULP energy -156130.287751 kJ/mol
# GULP energy per Si atom -5576.081705 kJ/mol
# Density = 2.162531 g / cm^3
# Si number density = 21.674638 Si / 1000 Ang^3
#
#
#
# Elastic Constant Matrix: (Units=GPa)
#
#
# Indices 1 2 3 4 5 6 
#
# 1 -650.1339 785.4139 32.1370 0.0000 0.0000 -347.4259
# 2 785.4139 -650.1339 32.1370 0.0000 0.0000 347.4259
# 3 32.1370 32.1370 66.2803 0.0000 0.0000 0.0000
# 4 0.0000 0.0000 0.0000 21.2614 0.0000 0.0000
# 5 0.0000 0.0000 0.0000 0.0000 21.2614 0.0000
# 6 -347.4259 347.4259 0.0000 0.0000 0.0000 -135.7950
#
#
#
# Elastic Compliance Matrix: (Units=1/GPa)
#
#
# Indices 1 2 3 4 5 6 
#
# 1 0.006263 0.003341 -0.004657 0.000000 0.000000 -0.007476
# 2 0.003341 0.006263 -0.004657 0.000000 0.000000 0.007476
# 3 -0.004657 -0.004657 0.019603 0.000000 0.000000 0.000000
# 4 0.000000 0.000000 0.000000 0.047034 0.000000 0.000000
# 5 0.000000 0.000000 0.000000 0.000000 0.047034 0.000000
# 6 -0.007476 0.007476 0.000000 0.000000 0.000000 0.030892
#
#
# Mechanical properties :
#
#
# Convention : Reuss Voigt Hill
#
# Bulk Modulus (GPa) = 49.54192 51.70979 50.62586
# Shear Modulus (GPa) = 28.44725 -157.56614 -64.55945
#
# Velocity S-wave (km/s) = 3.62673 -8.53545 -5.46355
# Velocity P-wave (km/s) = 6.35958 8.55742 4.04878
#
# Compressibility (1/GPa) = 0.02018493
#
# Stress axis : x y z
#
# Youngs Moduli (GPa) = 159.65590 159.65590 51.01145
#
# Poissons Ratio (x) = -0.53345 0.23756
# Poissons Ratio (y) = -0.53345 0.23756
# Poissons Ratio (z) = 0.74351 0.74351
#
# Static dielectric constant tensor:
#      x y z
#    x 1.832830 0.000000 0.000000 
#    y 0.000000 1.832830 0.000000 
#    z 0.000000 0.000000 1.853730 
# 
# From -- ./inp_files/1150.got.cif
#   From: 2010.05.17/outbox.cif.g08.bks.cpg/sg79_cif.got.tgz:1150.got - 2010.06.03 18:47:27.
