data_PCOD9541884
_publ_section_title
;
Structure prediction by ZEFSAII (Michael W. Deem and Ramdas Pophale) SiO2 
 PCOD9541884
Probable space group: I 4
;
_chemical_formula_sum "Si O2"
_cell_formula_units_Z 42
_cell_length_a 12.978177
_cell_length_b 12.978177
_cell_length_c 9.483603
_cell_angle_alpha 90.000000
_cell_angle_beta 90.000000
_cell_angle_gamma 90.000000
_cell_volume 1597.352446
_symmetry_space_group_name_H-M "I 4"
_symmetry_group_IT_number 79
_symmetry_cell_setting 'tetragonal'
loop_
_space_group_symop_operation_xyz
x,y,z
-y,x,z
-x,-y,z
y,-x,z
1/2+x,1/2+y,1/2+z
1/2-y,1/2+x,1/2+z
1/2-x,1/2-y,1/2+z
1/2+y,1/2-x,1/2+z
loop_
_atom_site_type_symbol
_atom_site_label
_atom_site_fract_x
_atom_site_fract_y
_atom_site_fract_z
Si Si1 0.093910 0.423760 0.698440
Si Si2 0.102611 0.132047 0.802148
Si Si3 0.327195 0.816645 0.951185
Si Si4 0.421425 0.276878 0.697357
Si Si5 0.000000 0.000000 0.123150
Si Si6 0.047325 0.228019 0.514354
O O1 0.091914 0.381204 0.858958
O O2 0.203326 0.479073 0.682685
O O3 0.082756 0.333529 0.586830
O O4 0.000000 0.500000 0.678797
O O5 0.178954 0.219024 0.862066
O O6 0.080340 0.147204 0.634712
O O7 0.981697 0.138924 0.848725
O O8 0.426581 0.743566 0.976883
O O9 0.285072 0.838395 0.106852
O O10 0.437139 0.390191 0.639346
O O11 0.399587 0.286745 0.863489
#
# Coordination Sequence:
#
# PCOD9541884 Si02
#       6
#     8   8   8   8   2   8
#     4  10  21  44  74 111 147 183 240 322 392 455
#     4  10  24  45  71  98 144 202 257 311 386 483
#     4  10  23  42  66 109 142 188 238 313 392 457
#     4  11  26  43  75 102 149 205 242 314 378 468
#     4  12  32  52  60 106 164 204 264 306 384 448
#     4  10  23  44  71 111 144 185 252 318 395 454
#
# _framework density 26.293510000000001
#
# number of rings (size 3 to 8) (size 9 to 14) (size 15 to 20)
#    0.000    1.714    1.905    0.000   10.667    0.000 
#   10.286    0.000    0.000    0.000    0.000    0.000 
#    0.000    0.000    0.000    0.000    0.000    0.000 
#
# Total GULP energy -117080.948481 kJ/mol
# GULP energy per Si atom -5575.283261 kJ/mol
# Density = 2.623367 g / cm^3
# Si number density = 26.293510 Si / 1000 Ang^3
#
#
#
# Elastic Constant Matrix: (Units=GPa)
#
#
# Indices 1 2 3 4 5 6 
#
# 1 115.6786 29.1436 31.4754 0.0000 0.0000 -3.6387
# 2 29.1436 115.6786 31.4754 0.0000 0.0000 3.6387
# 3 31.4754 31.4754 197.6726 0.0000 0.0000 0.0000
# 4 0.0000 0.0000 0.0000 27.1824 0.0000 0.0000
# 5 0.0000 0.0000 0.0000 0.0000 27.1824 0.0000
# 6 -3.6387 3.6387 0.0000 0.0000 0.0000 23.5138
#
#
#
# Elastic Compliance Matrix: (Units=1/GPa)
#
#
# Indices 1 2 3 4 5 6 
#
# 1 0.009563 -0.002145 -0.001181 0.000000 0.000000 0.001812
# 2 -0.002145 0.009563 -0.001181 0.000000 0.000000 -0.001812
# 3 -0.001181 -0.001181 0.005435 0.000000 0.000000 0.000000
# 4 0.000000 0.000000 0.000000 0.036789 0.000000 0.000000
# 5 0.000000 0.000000 0.000000 0.000000 0.036789 0.000000
# 6 0.001812 -0.001812 0.000000 0.000000 0.000000 0.043089
#
#
# Mechanical properties :
#
#
# Convention : Reuss Voigt Hill
#
# Bulk Modulus (GPa) = 64.32096 68.13539 66.22818
# Shear Modulus (GPa) = 32.16982 38.03807 35.10394
#
# Velocity S-wave (km/s) = 3.50164 3.80764 3.65784
# Velocity P-wave (km/s) = 6.39253 6.73056 6.56372
#
# Compressibility (1/GPa) = 0.01554703
#
# Stress axis : x y z
#
# Youngs Moduli (GPa) = 104.56496 104.56496 183.99099
#
# Poissons Ratio (x) = 0.22429 0.21734
# Poissons Ratio (y) = 0.22429 0.21734
# Poissons Ratio (z) = 0.12352 0.12352
#
# Static dielectric constant tensor:
#      x y z
#    x 2.068270 0.000000 0.000000 
#    y 0.000000 2.068270 0.000000 
#    z 0.000000 0.000000 2.145960 
# 
# From -- ./inp_files/575.got.cif
#   From: 2010.05.17/outbox.cif.g08.bks.cpg/sg79_cif.got.tgz:575.got - 2010.06.03 18:47:27.
