data_PCOD9541009
_publ_section_title
;
Structure prediction by ZEFSAII (Michael W. Deem and Ramdas Pophale) SiO2 
 PCOD9541009
Probable space group: P 4
;
_chemical_formula_sum "Si O2"
_cell_formula_units_Z 14
_cell_length_a 10.687208
_cell_length_b 10.687208
_cell_length_c 4.724640
_cell_angle_alpha 90.000000
_cell_angle_beta 90.000000
_cell_angle_gamma 90.000000
_cell_volume 539.631442
_symmetry_space_group_name_H-M "P 4"
_symmetry_group_IT_number 75
_symmetry_cell_setting 'tetragonal'
loop_
_space_group_symop_operation_xyz
x,y,z
-y,x,z
-x,-y,z
y,-x,z
loop_
_atom_site_type_symbol
_atom_site_label
_atom_site_fract_x
_atom_site_fract_y
_atom_site_fract_z
Si Si1 0.276340 0.004370 0.407710
Si Si2 0.500000 0.500000 0.431224
Si Si3 0.585521 0.226194 0.616846
Si Si4 0.000000 0.000000 0.270512
Si Si5 0.169858 0.674595 0.906320
O O1 0.260107 0.060029 0.722651
O O2 0.371175 0.889449 0.426648
O O3 0.324897 0.120293 0.223201
O O4 0.145559 0.953716 0.292321
O O5 0.550753 0.353640 0.452879
O O6 0.466394 0.185129 0.798309
O O7 0.700818 0.258725 0.826847
#
# Coordination Sequence:
#
# PCOD9541009 Si02
#       5
#     4   1   4   1   4
#     4  12  27  47  77 110 157 205 258 320 383 462
#     4   8  20  48  84 114 156 202 264 326 392 462
#     4  10  23  50  79 115 156 204 262 325 392 462
#     4  12  28  50  76 114 164 202 260 314 396 458
#     4  11  27  47  78 113 153 203 258 319 389 460
#
# _framework density 25.943636000000001
#
# number of rings (size 3 to 8) (size 9 to 14) (size 15 to 20)
#    0.000    1.143    2.857    0.857    4.000    8.000 
#    0.000    0.000    0.000   15.429    0.000    0.000 
#    0.000    0.000    0.000    0.000    0.000    0.000 
#
# Total GULP energy -78073.666123 kJ/mol
# GULP energy per Si atom -5576.690437 kJ/mol
# Density = 2.588459 g / cm^3
# Si number density = 25.943636 Si / 1000 Ang^3
#
#
#
# Elastic Constant Matrix: (Units=GPa)
#
#
# Indices 1 2 3 4 5 6 
#
# 1 190.8469 -8.3052 17.6256 0.0000 0.0000 32.5980
# 2 -8.3052 190.8469 17.6256 0.0000 0.0000 -32.5980
# 3 17.6256 17.6256 66.5636 0.0000 0.0000 0.0000
# 4 0.0000 0.0000 0.0000 14.0578 0.0000 0.0000
# 5 0.0000 0.0000 0.0000 0.0000 14.0578 0.0000
# 6 32.5980 -32.5980 0.0000 0.0000 0.0000 72.0363
#
#
#
# Elastic Compliance Matrix: (Units=1/GPa)
#
#
# Indices 1 2 3 4 5 6 
#
# 1 0.005834 -0.000061 -0.001529 0.000000 0.000000 -0.002667
# 2 -0.000061 0.005834 -0.001529 0.000000 0.000000 0.002667
# 3 -0.001529 -0.001529 0.015833 0.000000 0.000000 0.000000
# 4 0.000000 0.000000 0.000000 0.071135 0.000000 0.000000
# 5 0.000000 0.000000 0.000000 0.000000 0.071135 0.000000
# 6 -0.002667 0.002667 0.000000 0.000000 0.000000 0.016296
#
#
# Mechanical properties :
#
#
# Convention : Reuss Voigt Hill
#
# Bulk Modulus (GPa) = 47.02648 55.79441 51.41045
# Shear Modulus (GPa) = 25.07631 48.11779 36.59705
#
# Velocity S-wave (km/s) = 3.11234 4.31130 3.75992
# Velocity P-wave (km/s) = 5.57506 6.80704 6.22162
#
# Compressibility (1/GPa) = 0.02126462
#
# Stress axis : x y z
#
# Youngs Moduli (GPa) = 171.40997 171.40997 63.15985
#
# Poissons Ratio (x) = 0.01038 0.09656
# Poissons Ratio (y) = 0.01038 0.09656
# Poissons Ratio (z) = 0.26205 0.26205
#
# Static dielectric constant tensor:
#      x y z
#    x 1.985770 0.000000 0.000000 
#    y 0.000000 1.985770 0.000000 
#    z 0.000000 0.000000 2.057650 
# 
# From -- ./inp_files/76.got.cif
#   From: 2010.05.17/outbox.cif.g08.bks.cpg/sg75_cif.got.tgz:76.got - 2010.06.03 18:42:43.
