data_PCOD9541926
_publ_section_title
;
Structure prediction by ZEFSAII (Michael W. Deem and Ramdas Pophale) SiO2 
 PCOD9541926
Probable space group: I 4
;
_chemical_formula_sum "Si O2"
_cell_formula_units_Z 58
_cell_length_a 17.402807
_cell_length_b 17.402807
_cell_length_c 8.608917
_cell_angle_alpha 90.000000
_cell_angle_beta 90.000000
_cell_angle_gamma 90.000000
_cell_volume 2607.276729
_symmetry_space_group_name_H-M "I 4"
_symmetry_group_IT_number 79
_symmetry_cell_setting 'tetragonal'
loop_
_space_group_symop_operation_xyz
x,y,z
-y,x,z
-x,-y,z
y,-x,z
1/2+x,1/2+y,1/2+z
1/2-y,1/2+x,1/2+z
1/2-x,1/2-y,1/2+z
1/2+y,1/2-x,1/2+z
loop_
_atom_site_type_symbol
_atom_site_label
_atom_site_fract_x
_atom_site_fract_y
_atom_site_fract_z
Si Si1 0.570390 0.170837 0.653930
Si Si2 0.201561 0.609407 0.940722
Si Si3 0.500000 0.500000 0.595328
Si Si4 0.194268 0.447469 0.006819
Si Si5 0.268534 0.287500 0.065674
Si Si6 0.067257 0.552830 0.712324
Si Si7 0.189069 0.850257 0.888769
Si Si8 0.519400 0.323857 0.500486
O O1 0.647936 0.151422 0.567117
O O2 0.576543 0.161710 0.838309
O O3 0.506055 0.110716 0.597484
O O4 0.540071 0.255406 0.617436
O O5 0.237315 0.528093 0.988113
O O6 0.138153 0.587503 0.811735
O O7 0.268211 0.671807 0.925232
O O8 0.502445 0.404877 0.582049
O O9 0.241309 0.375188 0.062898
O O10 0.124379 0.466663 0.121307
O O11 0.313891 0.280810 0.228439
O O12 0.194701 0.234048 0.027268
O O13 0.000000 0.500000 0.785269
O O14 0.097517 0.833844 0.900937
O O15 0.199007 0.942040 0.906811
#
# Coordination Sequence:
#
# PCOD9541926 Si02
#       8
#     8   8   2   8   8   8   8   8
#     4  11  23  41  68 100 142 184 228 297 368 442
#     4  11  25  42  67 101 143 192 241 296 364 445
#     4   8  20  44  76 100 126 180 248 292 350 440
#     4  11  26  43  66 104 146 192 236 303 361 448
#     4  12  25  45  70 105 145 198 242 302 369 452
#     4  11  24  42  68 102 147 194 241 291 371 449
#     4  11  25  44  78 101 146 186 250 301 372 444
#     4  10  22  46  71 107 134 188 244 306 360 442
#
# _framework density 22.245432000000001
#
# number of rings (size 3 to 8) (size 9 to 14) (size 15 to 20)
#    0.000    1.103    2.759    2.483    5.793    1.103 
#    4.966    0.000    0.000    0.414    0.000    0.000 
#    0.000    0.000    0.000    0.000    0.000    0.000 
#
# Total GULP energy -161620.405007 kJ/mol
# GULP energy per Si atom -5573.117414 kJ/mol
# Density = 2.219480 g / cm^3
# Si number density = 22.245432 Si / 1000 Ang^3
#
#
#
# Elastic Constant Matrix: (Units=GPa)
#
#
# Indices 1 2 3 4 5 6 
#
# 1 129.4257 34.9640 21.1202 0.0000 0.0000 -7.6978
# 2 34.9640 129.4257 21.1202 0.0000 0.0000 7.6978
# 3 21.1202 21.1202 60.3271 0.0000 0.0000 0.0000
# 4 0.0000 0.0000 0.0000 18.1894 0.0000 0.0000
# 5 0.0000 0.0000 0.0000 0.0000 18.1894 0.0000
# 6 -7.6978 7.6978 0.0000 0.0000 0.0000 33.1674
#
#
#
# Elastic Compliance Matrix: (Units=1/GPa)
#
#
# Indices 1 2 3 4 5 6 
#
# 1 0.008843 -0.002159 -0.002340 0.000000 0.000000 0.002554
# 2 -0.002159 0.008843 -0.002340 0.000000 0.000000 -0.002554
# 3 -0.002340 -0.002340 0.018215 0.000000 0.000000 0.000000
# 4 0.000000 0.000000 0.000000 0.054977 0.000000 0.000000
# 5 0.000000 0.000000 0.000000 0.000000 0.054977 0.000000
# 6 0.002554 -0.002554 0.000000 0.000000 0.000000 0.031335
#
#
# Mechanical properties :
#
#
# Convention : Reuss Voigt Hill
#
# Bulk Modulus (GPa) = 44.99849 52.62084 48.80966
# Shear Modulus (GPa) = 25.21716 30.04084 27.62900
#
# Velocity S-wave (km/s) = 3.37053 3.67880 3.52804
# Velocity P-wave (km/s) = 5.95142 6.46149 6.21169
#
# Compressibility (1/GPa) = 0.02222297
#
# Stress axis : x y z
#
# Youngs Moduli (GPa) = 113.07794 113.07794 54.90024
#
# Poissons Ratio (x) = 0.24414 0.12848
# Poissons Ratio (y) = 0.24414 0.12848
# Poissons Ratio (z) = 0.26462 0.26462
#
# Static dielectric constant tensor:
#      x y z
#    x 1.874060 0.000000 0.000000 
#    y 0.000000 1.874060 0.000000 
#    z 0.000000 0.000000 1.894770 
# 
# From -- ./inp_files/727.got.cif
#   From: 2010.05.17/outbox.cif.g08.bks.cpg/sg79_cif.got.tgz:727.got - 2010.06.03 18:47:27.
