data_PCOD9541007
_publ_section_title
;
Structure prediction by ZEFSAII (Michael W. Deem and Ramdas Pophale) SiO2 
 PCOD9541007
Probable space group: P 4
;
_chemical_formula_sum "Si O2"
_cell_formula_units_Z 24
_cell_length_a 12.670993
_cell_length_b 12.670993
_cell_length_c 6.509902
_cell_angle_alpha 90.000000
_cell_angle_beta 90.000000
_cell_angle_gamma 90.000000
_cell_volume 1045.191220
_symmetry_space_group_name_H-M "P 4"
_symmetry_group_IT_number 75
_symmetry_cell_setting 'tetragonal'
loop_
_space_group_symop_operation_xyz
x,y,z
-y,x,z
-x,-y,z
y,-x,z
loop_
_atom_site_type_symbol
_atom_site_label
_atom_site_fract_x
_atom_site_fract_y
_atom_site_fract_z
Si Si1 0.481282 0.825732 0.268550
Si Si2 0.146957 0.622555 0.895758
Si Si3 0.286063 0.820684 0.991713
Si Si4 0.672007 0.459622 0.603302
Si Si5 0.354150 0.943138 0.611155
Si Si6 0.172614 0.964084 0.286986
O O1 0.377486 0.784053 0.148075
O O2 0.543669 0.733862 0.386995
O O3 0.437948 0.903381 0.444008
O O4 0.556918 0.878497 0.100709
O O5 0.244819 0.566883 0.780343
O O6 0.950983 0.376351 0.739555
O O7 0.193415 0.736568 0.958109
O O8 0.240858 0.929163 0.090317
O O9 0.337398 0.851112 0.776452
O O10 0.621933 0.575794 0.617394
O O11 0.246386 0.956245 0.484575
O O12 0.077997 0.879931 0.287645
#
# Coordination Sequence:
#
# PCOD9541007 Si02
#       6
#     4   4   4   4   4   4
#     4  11  25  44  66  96 134 179 230 286 346 413
#     4  12  25  43  70 102 139 183 229 287 348 415
#     4  11  24  44  68 100 137 181 233 283 344 413
#     4  11  25  45  69  98 134 179 231 287 348 414
#     4  11  25  43  68 101 138 180 228 284 349 416
#     4  10  22  42  69 102 140 181 227 280 341 413
#
# _framework density 22.962305000000001
#
# number of rings (size 3 to 8) (size 9 to 14) (size 15 to 20)
#    0.000    1.000    0.000    6.000    0.000   10.667 
#    0.000    3.333    0.000    0.000    0.000    0.000 
#    0.000    0.000    0.000    0.000    0.000    0.000 
#
# Total GULP energy -134489.890647 kJ/mol
# GULP energy per Si atom -5603.745444 kJ/mol
# Density = 2.291004 g / cm^3
# Si number density = 22.962305 Si / 1000 Ang^3
#
#
#
# Elastic Constant Matrix: (Units=GPa)
#
#
# Indices 1 2 3 4 5 6 
#
# 1 121.8564 48.9312 73.5081 0.0000 0.0000 -7.1904
# 2 48.9312 121.8564 73.5081 0.0000 0.0000 7.1904
# 3 73.5081 73.5081 172.3955 0.0000 0.0000 0.0000
# 4 0.0000 0.0000 0.0000 44.7195 0.0000 0.0000
# 5 0.0000 0.0000 0.0000 0.0000 44.7195 0.0000
# 6 -7.1904 7.1904 0.0000 0.0000 0.0000 16.4872
#
#
#
# Elastic Compliance Matrix: (Units=1/GPa)
#
#
# Indices 1 2 3 4 5 6 
#
# 1 0.012127 -0.002876 -0.003944 0.000000 0.000000 0.006543
# 2 -0.002876 0.012127 -0.003944 0.000000 0.000000 -0.006543
# 3 -0.003944 -0.003944 0.009164 0.000000 0.000000 0.000000
# 4 0.000000 0.000000 0.000000 0.022362 0.000000 0.000000
# 5 0.000000 0.000000 0.000000 0.000000 0.022362 0.000000
# 6 0.006543 -0.006543 0.000000 0.000000 0.000000 0.066360
#
#
# Mechanical properties :
#
#
# Convention : Reuss Voigt Hill
#
# Bulk Modulus (GPa) = 84.11850 89.77813 86.94831
# Shear Modulus (GPa) = 29.41281 35.86263 32.63772
#
# Velocity S-wave (km/s) = 3.58287 3.95625 3.77418
# Velocity P-wave (km/s) = 7.33681 7.74933 7.54589
#
# Compressibility (1/GPa) = 0.01188799
#
# Stress axis : x y z
#
# Youngs Moduli (GPa) = 82.46203 82.46203 109.11880
#
# Poissons Ratio (x) = 0.23718 0.43041
# Poissons Ratio (y) = 0.23718 0.43041
# Poissons Ratio (z) = 0.32526 0.32526
#
# Static dielectric constant tensor:
#      x y z
#    x 1.865690 0.000000 0.000000 
#    y 0.000000 1.865690 0.000000 
#    z 0.000000 0.000000 1.821560 
# 
# From -- ./inp_files/145.got.cif
#   From: 2010.05.17/outbox.cif.g08.bks.cpg/sg75_cif.got.tgz:145.got - 2010.06.03 18:42:43.
