data_PCOD9541810
_publ_section_title
;
Structure prediction by ZEFSAII (Michael W. Deem and Ramdas Pophale) SiO2 
 PCOD9541810
Probable space group: I 4
;
_chemical_formula_sum "Si O2"
_cell_formula_units_Z 40
_cell_length_a 16.485751
_cell_length_b 16.485751
_cell_length_c 6.582279
_cell_angle_alpha 90.000000
_cell_angle_beta 90.000000
_cell_angle_gamma 90.000000
_cell_volume 1788.931695
_symmetry_space_group_name_H-M "I 4"
_symmetry_group_IT_number 79
_symmetry_cell_setting 'tetragonal'
loop_
_space_group_symop_operation_xyz
x,y,z
-y,x,z
-x,-y,z
y,-x,z
1/2+x,1/2+y,1/2+z
1/2-y,1/2+x,1/2+z
1/2-x,1/2-y,1/2+z
1/2+y,1/2-x,1/2+z
loop_
_atom_site_type_symbol
_atom_site_label
_atom_site_fract_x
_atom_site_fract_y
_atom_site_fract_z
Si Si1 0.403046 0.168051 0.516580
Si Si2 0.293678 0.688223 0.748585
Si Si3 0.703354 0.950885 0.328180
Si Si4 0.919986 0.776966 0.616545
Si Si5 0.892307 0.076052 0.959094
O O1 0.323064 0.208197 0.627412
O O2 0.375157 0.078225 0.455260
O O3 0.482982 0.178383 0.656796
O O4 0.419675 0.215051 0.305210
O O5 0.365514 0.755881 0.751389
O O6 0.338407 0.616317 0.628575
O O7 0.269742 0.657695 0.971737
O O8 0.762618 0.000595 0.479900
O O9 0.910682 0.862189 0.730708
O O10 0.981010 0.109213 0.988565
#
# Coordination Sequence:
#
# PCOD9541810 Si02
#       5
#     8   8   8   8   8
#     4  10  25  43  67 102 133 186 229 293 353 411
#     4  10  21  38  64  96 131 174 225 293 345 418
#     4  11  24  45  67 100 143 176 245 288 350 431
#     4  10  21  39  62  95 129 178 230 278 355 397
#     4  10  19  33  55  89 133 176 216 272 343 412
#
# _framework density 22.359714
#
# number of rings (size 3 to 8) (size 9 to 14) (size 15 to 20)
#    0.000    1.800    0.000    4.800    2.800    4.800 
#    0.000    5.000    0.000    0.000    0.000    0.000 
#    0.000    0.000    0.000    0.000    0.000    0.000 
#
# Total GULP energy -111450.852028 kJ/mol
# GULP energy per Si atom -5572.542601 kJ/mol
# Density = 2.230882 g / cm^3
# Si number density = 22.359714 Si / 1000 Ang^3
#
#
#
# Elastic Constant Matrix: (Units=GPa)
#
#
# Indices 1 2 3 4 5 6 
#
# 1 91.3136 30.3547 47.3461 0.0000 0.0000 1.7249
# 2 30.3547 91.3136 47.3461 0.0000 0.0000 -1.7249
# 3 47.3461 47.3461 123.4707 0.0000 0.0000 0.0000
# 4 0.0000 0.0000 0.0000 22.8583 0.0000 0.0000
# 5 0.0000 0.0000 0.0000 0.0000 22.8583 0.0000
# 6 1.7249 -1.7249 0.0000 0.0000 0.0000 32.9350
#
#
#
# Elastic Compliance Matrix: (Units=1/GPa)
#
#
# Indices 1 2 3 4 5 6 
#
# 1 0.014084 -0.002369 -0.004492 0.000000 0.000000 -0.000862
# 2 -0.002369 0.014084 -0.004492 0.000000 0.000000 0.000862
# 3 -0.004492 -0.004492 0.011544 0.000000 0.000000 0.000000
# 4 0.000000 0.000000 0.000000 0.043748 0.000000 0.000000
# 5 0.000000 0.000000 0.000000 0.000000 0.043748 0.000000
# 6 -0.000862 0.000862 0.000000 0.000000 0.000000 0.030453
#
#
# Mechanical properties :
#
#
# Convention : Reuss Voigt Hill
#
# Bulk Modulus (GPa) = 58.80396 61.79905 60.30150
# Shear Modulus (GPa) = 26.87627 27.80038 27.33833
#
# Velocity S-wave (km/s) = 3.47074 3.52991 3.50045
# Velocity P-wave (km/s) = 6.51288 6.65674 6.58520
#
# Compressibility (1/GPa) = 0.01700566
#
# Stress axis : x y z
#
# Youngs Moduli (GPa) = 71.00082 71.00082 86.62207
#
# Poissons Ratio (x) = 0.16820 0.38914
# Poissons Ratio (y) = 0.16820 0.38914
# Poissons Ratio (z) = 0.31896 0.31896
#
# Static dielectric constant tensor:
#      x y z
#    x 1.905610 0.000000 0.000000 
#    y 0.000000 1.905610 0.000000 
#    z 0.000000 0.000000 1.847400 
# 
# From -- ./inp_files/116.got.cif
#   From: 2010.05.17/outbox.cif.g08.bks.cpg/sg79_cif.got.tgz:116.got - 2010.06.03 18:47:27.
