data_PCOD9541455
_publ_section_title
;
Structure prediction by ZEFSAII (Michael W. Deem and Ramdas Pophale) SiO2 
 PCOD9541455
Probable space group: P 41
;
_chemical_formula_sum "Si O2"
_cell_formula_units_Z 20
_cell_length_a 11.000701
_cell_length_b 11.000701
_cell_length_c 5.674820
_cell_angle_alpha 90.000000
_cell_angle_beta 90.000000
_cell_angle_gamma 90.000000
_cell_volume 686.740740
_symmetry_space_group_name_H-M "P 41"
_symmetry_group_IT_number 76
_symmetry_cell_setting 'tetragonal'
loop_
_space_group_symop_operation_xyz
x,y,z
-y,x,1/4+z
-x,-y,1/2+z
y,-x,3/4+z
loop_
_atom_site_type_symbol
_atom_site_label
_atom_site_fract_x
_atom_site_fract_y
_atom_site_fract_z
Si Si1 0.332717 0.494361 0.181140
Si Si2 0.106730 0.131740 0.943563
Si Si3 0.269252 0.296903 0.681508
Si Si4 0.063026 0.699021 0.173176
Si Si5 0.096583 0.453077 0.395874
O O1 0.423747 0.384264 0.223951
O O2 0.336296 0.591091 0.401809
O O3 0.194233 0.449401 0.182866
O O4 0.222907 0.218940 0.903651
O O5 0.009058 0.138438 0.152246
O O6 0.022464 0.188516 0.734293
O O7 0.259258 0.200375 0.461926
O O8 0.180500 0.406926 0.613477
O O9 0.018455 0.633289 0.936781
O O10 0.052916 0.591786 0.372541
#
# Coordination Sequence:
#
# PCOD9541455 Si02
#       5
#     4   4   4   4   4
#     4   9  17  32  52  73  99 130 162 201 244 288
#     4   9  17  32  52  73  99 130 162 201 244 288
#     4   8  16  32  52  74 100 128 160 202 244 288
#     4   9  17  32  52  73  99 130 162 201 244 288
#     4   9  17  32  52  73  99 130 162 201 244 288
#
# _framework density 29.123072000000001
#
# number of rings (size 3 to 8) (size 9 to 14) (size 15 to 20)
#    0.000    3.200    0.000    0.000    0.000    0.000 
#    0.000   36.000    0.000    4.800    0.000    0.000 
#    0.000    0.000    0.000    0.000    0.000    0.000 
#
# Total GULP energy -111602.206514 kJ/mol
# GULP energy per Si atom -5580.110326 kJ/mol
# Density = 2.905679 g / cm^3
# Si number density = 29.123072 Si / 1000 Ang^3
#
#
#
# Elastic Constant Matrix: (Units=GPa)
#
#
# Indices 1 2 3 4 5 6 
#
# 1 144.5855 19.5170 68.9320 0.0000 0.0000 2.7016
# 2 19.5170 144.5855 68.9320 0.0000 0.0000 -2.7016
# 3 68.9320 68.9320 80.3909 0.0000 0.0000 0.0000
# 4 0.0000 0.0000 0.0000 37.6287 0.0000 0.0000
# 5 0.0000 0.0000 0.0000 0.0000 37.6287 0.0000
# 6 2.7016 -2.7016 0.0000 0.0000 0.0000 51.6875
#
#
#
# Elastic Compliance Matrix: (Units=1/GPa)
#
#
# Indices 1 2 3 4 5 6 
#
# 1 0.014903 0.006889 -0.018685 0.000000 0.000000 -0.000419
# 2 0.006889 0.014903 -0.018685 0.000000 0.000000 0.000419
# 3 -0.018685 -0.018685 0.044483 0.000000 0.000000 0.000000
# 4 0.000000 0.000000 0.000000 0.026575 0.000000 0.000000
# 5 0.000000 0.000000 0.000000 0.000000 0.026575 0.000000
# 6 -0.000419 0.000419 0.000000 0.000000 0.000000 0.019391
#
#
# Mechanical properties :
#
#
# Convention : Reuss Voigt Hill
#
# Bulk Modulus (GPa) = 75.04852 76.03600 75.54226
# Shear Modulus (GPa) = 23.55883 39.53437 31.54660
#
# Velocity S-wave (km/s) = 2.84727 3.68841 3.29480
# Velocity P-wave (km/s) = 6.05266 6.65615 6.36157
#
# Compressibility (1/GPa) = 0.01332471
#
# Stress axis : x y z
#
# Youngs Moduli (GPa) = 67.10258 67.10258 22.48054
#
# Poissons Ratio (x) = -0.46226 0.42005
# Poissons Ratio (y) = -0.46226 0.42005
# Poissons Ratio (z) = 1.25383 1.25383
#
# Static dielectric constant tensor:
#      x y z
#    x 2.257040 0.000000 0.000000 
#    y 0.000000 2.257040 0.000000 
#    z 0.000000 0.000000 2.191960 
# 
# From -- ./inp_files/139.got.cif
#   From: 2010.05.17/outbox.cif.g08.bks.cpg/sg76_cif.got.tgz:139.got - 2010.06.03 18:43:17.
