data_PCOD9541589
_publ_section_title
;
Structure prediction by ZEFSAII (Michael W. Deem and Ramdas Pophale) SiO2 
 PCOD9541589
Probable space group: P 43
;
_chemical_formula_sum "Si O2"
_cell_formula_units_Z 32
_cell_length_a 12.841763
_cell_length_b 12.841763
_cell_length_c 7.534020
_cell_angle_alpha 90.000000
_cell_angle_beta 90.000000
_cell_angle_gamma 90.000000
_cell_volume 1242.441845
_symmetry_space_group_name_H-M "P 43"
_symmetry_group_IT_number 78
_symmetry_cell_setting 'tetragonal'
loop_
_space_group_symop_operation_xyz
x,y,z
-y,x,3/4+z
-x,-y,1/2+z
y,-x,1/4+z
loop_
_atom_site_type_symbol
_atom_site_label
_atom_site_fract_x
_atom_site_fract_y
_atom_site_fract_z
Si Si1 0.050228 0.676993 0.949820
Si Si2 0.360645 0.799021 0.351862
Si Si3 0.725881 0.286912 0.349953
Si Si4 0.563372 0.135295 0.247390
Si Si5 0.959531 0.893583 0.027615
Si Si6 0.760457 0.995135 0.825438
Si Si7 0.506273 0.637818 0.204312
Si Si8 0.190503 0.673309 0.479091
O O1 0.172709 0.698717 0.975802
O O2 0.973462 0.772084 0.004407
O O3 0.035804 0.681818 0.737017
O O4 0.989474 0.576863 0.021054
O O5 0.404031 0.833565 0.545320
O O6 0.279087 0.888567 0.288953
O O7 0.458085 0.751319 0.247515
O O8 0.287953 0.696316 0.358211
O O9 0.640294 0.198193 0.379114
O O10 0.663571 0.394414 0.331476
O O11 0.775366 0.265177 0.157514
O O12 0.446183 0.171714 0.265798
O O13 0.072778 0.934363 0.973926
O O14 0.873422 0.958358 0.907727
O O15 0.729162 0.916171 0.669401
O O16 0.423269 0.560348 0.116437
#
# Coordination Sequence:
#
# PCOD9541589 Si02
#       8
#     4   4   4   4   4   4   4   4
#     4   9  18  35  60  89 125 161 206 246 307 373
#     4  10  22  39  60  91 124 161 204 265 309 377
#     4  10  22  39  60  91 124 161 204 265 309 377
#     4  10  19  34  64  90 117 159 208 249 306 381
#     4  10  18  34  60  88 118 162 202 240 296 368
#     4   9  18  35  60  89 125 161 206 246 307 373
#     4  12  28  44  68  88 124 168 218 276 328 380
#     4  10  19  34  64  90 117 159 208 249 306 381
#
# _framework density 25.755732999999999
#
# number of rings (size 3 to 8) (size 9 to 14) (size 15 to 20)
#    0.000    2.000    0.000    6.000    7.000    0.000 
#    2.250    0.000    0.000    0.000    0.000    0.000 
#    0.000    0.000    0.000    0.000    0.000    0.000 
#
# Total GULP energy -178397.714059 kJ/mol
# GULP energy per Si atom -5574.928564 kJ/mol
# Density = 2.569711 g / cm^3
# Si number density = 25.755733 Si / 1000 Ang^3
#
#
#
# Elastic Constant Matrix: (Units=GPa)
#
#
# Indices 1 2 3 4 5 6 
#
# 1 101.2252 26.3829 6.3372 0.0000 0.0000 14.0198
# 2 26.3829 101.2252 6.3372 0.0000 0.0000 -14.0198
# 3 6.3372 6.3372 30.1121 0.0000 0.0000 0.0000
# 4 0.0000 0.0000 0.0000 28.7353 0.0000 0.0000
# 5 0.0000 0.0000 0.0000 0.0000 28.7353 0.0000
# 6 14.0198 -14.0198 0.0000 0.0000 0.0000 24.1053
#
#
#
# Elastic Compliance Matrix: (Units=1/GPa)
#
#
# Indices 1 2 3 4 5 6 
#
# 1 0.012544 -0.004540 -0.001684 0.000000 0.000000 -0.009936
# 2 -0.004540 0.012544 -0.001684 0.000000 0.000000 0.009936
# 3 -0.001684 -0.001684 0.033918 0.000000 0.000000 0.000000
# 4 0.000000 0.000000 0.000000 0.034800 0.000000 0.000000
# 5 0.000000 0.000000 0.000000 0.000000 0.034800 0.000000
# 6 -0.009936 0.009936 0.000000 0.000000 0.000000 0.053042
#
#
# Mechanical properties :
#
#
# Convention : Reuss Voigt Hill
#
# Bulk Modulus (GPa) = 23.15454 34.51971 28.83712
# Shear Modulus (GPa) = 23.60012 29.21551 26.40781
#
# Velocity S-wave (km/s) = 3.03034 3.37164 3.20553
# Velocity P-wave (km/s) = 4.61015 5.34687 4.99212
#
# Compressibility (1/GPa) = 0.04318808
#
# Stress axis : x y z
#
# Youngs Moduli (GPa) = 79.72016 79.72016 29.48266
#
# Poissons Ratio (x) = 0.36194 0.04966
# Poissons Ratio (y) = 0.36194 0.04966
# Poissons Ratio (z) = 0.13428 0.13428
#
# Static dielectric constant tensor:
#      x y z
#    x 2.073180 0.000000 0.000000 
#    y 0.000000 2.073180 0.000000 
#    z 0.000000 0.000000 2.069700 
# 
# From -- ./inp_files/978.got.cif
#   From: 2010.05.17/outbox.cif.g08.bks.cpg/sg78_cif.got.tgz:978.got - 2010.06.03 18:45:56.
