data_PCOD9541372
_publ_section_title
;
Structure prediction by ZEFSAII (Michael W. Deem and Ramdas Pophale) SiO2 
 PCOD9541372
Probable space group: P 41
;
_chemical_formula_sum "Si O2"
_cell_formula_units_Z 24
_cell_length_a 7.488092
_cell_length_b 7.488092
_cell_length_c 16.514384
_cell_angle_alpha 90.000000
_cell_angle_beta 90.000000
_cell_angle_gamma 90.000000
_cell_volume 925.986642
_symmetry_space_group_name_H-M "P 41"
_symmetry_group_IT_number 76
_symmetry_cell_setting 'tetragonal'
loop_
_space_group_symop_operation_xyz
x,y,z
-y,x,1/4+z
-x,-y,1/2+z
y,-x,3/4+z
loop_
_atom_site_type_symbol
_atom_site_label
_atom_site_fract_x
_atom_site_fract_y
_atom_site_fract_z
Si Si1 0.646903 0.754299 0.996100
Si Si2 0.702155 0.211224 0.156714
Si Si3 0.663814 0.999452 0.527394
Si Si4 0.510948 0.550901 0.135870
Si Si5 0.160766 0.770207 0.472051
Si Si6 0.998838 0.163694 0.451495
O O1 0.617460 0.688020 0.905175
O O2 0.856699 0.748413 0.011170
O O3 0.537170 0.929208 0.018792
O O4 0.551343 0.595504 0.043261
O O5 0.536241 0.341916 0.146943
O O6 0.804046 0.213462 0.068978
O O7 0.825771 0.307067 0.223472
O O8 0.663986 0.017399 0.194070
O O9 0.732467 0.981217 0.618096
O O10 0.805215 0.135164 0.487468
O O11 0.662561 0.677093 0.179675
O O12 0.099847 0.969266 0.441642
#
# Coordination Sequence:
#
# PCOD9541372 Si02
#       6
#     4   4   4   4   4   4
#     4  12  25  45  66  99 140 180 228 285 349 417
#     4  11  24  44  72 101 134 183 235 286 355 421
#     4  11  24  44  72 101 134 183 235 286 355 421
#     4  12  25  45  66  99 140 180 228 285 349 417
#     4  11  23  45  70  99 138 178 233 291 350 419
#     4  11  23  45  70  99 138 178 233 291 350 419
#
# _framework density 25.918302000000001
#
# number of rings (size 3 to 8) (size 9 to 14) (size 15 to 20)
#    0.000    0.667    3.333    7.000    0.000    4.000 
#    6.000    0.000    0.000    0.000    0.000    0.000 
#    0.000    0.000    0.000    0.000    0.000    0.000 
#
# Total GULP energy -134297.157649 kJ/mol
# GULP energy per Si atom -5595.714902 kJ/mol
# Density = 2.585931 g / cm^3
# Si number density = 25.918302 Si / 1000 Ang^3
#
#
#
# Elastic Constant Matrix: (Units=GPa)
#
#
# Indices 1 2 3 4 5 6 
#
# 1 94.7683 8.4319 24.5503 0.0000 0.0000 15.8098
# 2 8.4319 94.7683 24.5503 0.0000 0.0000 -15.8098
# 3 24.5503 24.5503 95.2889 0.0000 0.0000 0.0000
# 4 0.0000 0.0000 0.0000 36.6262 0.0000 0.0000
# 5 0.0000 0.0000 0.0000 0.0000 36.6262 0.0000
# 6 15.8098 -15.8098 0.0000 0.0000 0.0000 45.1834
#
#
#
# Elastic Compliance Matrix: (Units=1/GPa)
#
#
# Indices 1 2 3 4 5 6 
#
# 1 0.012164 -0.001121 -0.002845 0.000000 0.000000 -0.004648
# 2 -0.001121 0.012164 -0.002845 0.000000 0.000000 0.004648
# 3 -0.002845 -0.002845 0.011961 0.000000 0.000000 0.000000
# 4 0.000000 0.000000 0.000000 0.027303 0.000000 0.000000
# 5 0.000000 0.000000 0.000000 0.000000 0.027303 0.000000
# 6 -0.004648 0.004648 0.000000 0.000000 0.000000 0.025385
#
#
# Mechanical properties :
#
#
# Convention : Reuss Voigt Hill
#
# Bulk Modulus (GPa) = 44.11771 44.43228 44.27499
# Shear Modulus (GPa) = 36.37474 38.84004 37.60739
#
# Velocity S-wave (km/s) = 3.75031 3.87532 3.81333
# Velocity P-wave (km/s) = 5.98431 6.09955 6.04220
#
# Compressibility (1/GPa) = 0.02266664
#
# Stress axis : x y z
#
# Youngs Moduli (GPa) = 82.20752 82.20752 83.60829
#
# Poissons Ratio (x) = 0.09213 0.23789
# Poissons Ratio (y) = 0.09213 0.23789
# Poissons Ratio (z) = 0.23390 0.23390
#
# Static dielectric constant tensor:
#      x y z
#    x 2.051200 0.000000 0.000000 
#    y 0.000000 2.051200 0.000000 
#    z 0.000000 0.000000 2.034230 
# 
# From -- ./inp_files/1083.got.cif
#   From: 2010.05.17/outbox.cif.g08.bks.cpg/sg76_cif.got.tgz:1083.got - 2010.06.03 18:43:17.
