data_PCOD9541044
_publ_section_title
;
Structure prediction by ZEFSAII (Michael W. Deem and Ramdas Pophale) SiO2 
 PCOD9541044
Probable space group: P 4
;
_chemical_formula_sum "Si O2"
_cell_formula_units_Z 22
_cell_length_a 8.407418
_cell_length_b 8.407418
_cell_length_c 14.786755
_cell_angle_alpha 90.000000
_cell_angle_beta 90.000000
_cell_angle_gamma 90.000000
_cell_volume 1045.197007
_symmetry_space_group_name_H-M "P 4"
_symmetry_group_IT_number 75
_symmetry_cell_setting 'tetragonal'
loop_
_space_group_symop_operation_xyz
x,y,z
-y,x,z
-x,-y,z
y,-x,z
loop_
_atom_site_type_symbol
_atom_site_label
_atom_site_fract_x
_atom_site_fract_y
_atom_site_fract_z
Si Si1 0.500000 0.000000 0.279881
Si Si2 0.237613 0.450728 0.117026
Si Si3 0.411832 0.753286 0.801406
Si Si4 0.737863 0.043562 0.443284
Si Si5 0.756151 0.579336 0.592897
Si Si6 0.741574 0.074259 0.963398
O O1 0.475419 0.851604 0.212235
O O2 0.354326 0.975016 0.348993
O O3 0.380423 0.323758 0.106167
O O4 0.115238 0.378393 0.044466
O O5 0.305698 0.593183 0.815239
O O6 0.398820 0.806185 0.697235
O O7 0.349751 0.883225 0.871064
O O8 0.625024 0.107928 0.522805
O O9 0.876372 0.174212 0.449940
O O10 0.599782 0.690818 0.580484
O O11 0.896621 0.189374 0.967912
#
# Coordination Sequence:
#
# PCOD9541044 Si02
#       6
#     2   4   4   4   4   4
#     4  12  24  44  66  88 120 158 204 262 332 406
#     4  11  24  42  66  93 120 158 212 270 327 395
#     4   9  19  37  62  93 130 175 226 272 315 372
#     4  11  24  40  61  91 126 164 208 265 333 401
#     4   9  19  38  64  94 131 177 226 273 322 383
#     4  11  24  40  60  92 135 178 218 267 329 393
#
# _framework density 21.048662
#
# number of rings (size 3 to 8) (size 9 to 14) (size 15 to 20)
#    0.000    1.636    0.000    5.455    0.000    5.091 
#    0.000    9.091    0.000    0.000    0.000    0.000 
#    0.000    0.000    0.000    0.000    0.000    0.000 
#
# Total GULP energy -122816.153744 kJ/mol
# GULP energy per Si atom -5582.552443 kJ/mol
# Density = 2.100075 g / cm^3
# Si number density = 21.048662 Si / 1000 Ang^3
#
#
#
# Elastic Constant Matrix: (Units=GPa)
#
#
# Indices 1 2 3 4 5 6 
#
# 1 115.7936 72.9041 85.5961 0.0000 0.0000 7.7515
# 2 72.9041 115.7936 85.5961 0.0000 0.0000 -7.7515
# 3 85.5961 85.5961 148.9913 0.0000 0.0000 0.0000
# 4 0.0000 0.0000 0.0000 -343.5824 0.0000 0.0000
# 5 0.0000 0.0000 0.0000 0.0000 -343.5824 0.0000
# 6 7.7515 -7.7515 0.0000 0.0000 0.0000 47.2715
#
#
#
# Elastic Compliance Matrix: (Units=1/GPa)
#
#
# Indices 1 2 3 4 5 6 
#
# 1 0.017927 -0.006858 -0.006359 0.000000 0.000000 -0.004064
# 2 -0.006858 0.017927 -0.006359 0.000000 0.000000 0.004064
# 3 -0.006359 -0.006359 0.014018 0.000000 0.000000 0.000000
# 4 0.000000 0.000000 0.000000 -0.002911 0.000000 0.000000
# 5 0.000000 0.000000 0.000000 0.000000 -0.002911 0.000000
# 6 -0.004064 0.004064 0.000000 0.000000 0.000000 0.022487
#
#
# Mechanical properties :
#
#
# Convention : Reuss Voigt Hill
#
# Bulk Modulus (GPa) = 93.28699 96.53010 94.90855
# Shear Modulus (GPa) = 45.76132 -118.87985 -36.55926
#
# Velocity S-wave (km/s) = 4.66775 -7.52338 -4.17213
# Velocity P-wave (km/s) = 8.57126 5.43215 4.68819
#
# Compressibility (1/GPa) = 0.01071961
#
# Stress axis : x y z
#
# Youngs Moduli (GPa) = 55.78305 55.78305 71.33598
#
# Poissons Ratio (x) = 0.38257 0.45361
# Poissons Ratio (y) = 0.38257 0.45361
# Poissons Ratio (z) = 0.35472 0.35472
#
# Static dielectric constant tensor:
#      x y z
#    x 1.844480 0.000000 0.000000 
#    y 0.000000 1.844480 0.000000 
#    z 0.000000 0.000000 1.722980 
# 
# From -- ./inp_files/657.got.cif
#   From: 2010.05.17/outbox.cif.g08.bks.cpg/sg75_cif.got.tgz:657.got - 2010.06.03 18:42:43.
