data_PCOD9541402
_publ_section_title
;
Structure prediction by ZEFSAII (Michael W. Deem and Ramdas Pophale) SiO2 
 PCOD9541402
Probable space group: P 41
;
_chemical_formula_sum "Si O2"
_cell_formula_units_Z 28
_cell_length_a 11.602859
_cell_length_b 11.602859
_cell_length_c 9.651179
_cell_angle_alpha 90.000000
_cell_angle_beta 90.000000
_cell_angle_gamma 90.000000
_cell_volume 1299.302876
_symmetry_space_group_name_H-M "P 41"
_symmetry_group_IT_number 76
_symmetry_cell_setting 'tetragonal'
loop_
_space_group_symop_operation_xyz
x,y,z
-y,x,1/4+z
-x,-y,1/2+z
y,-x,3/4+z
loop_
_atom_site_type_symbol
_atom_site_label
_atom_site_fract_x
_atom_site_fract_y
_atom_site_fract_z
Si Si1 0.548509 0.406882 0.502650
Si Si2 0.626122 0.302430 0.881785
Si Si3 0.939785 0.106128 0.505878
Si Si4 0.005634 0.445366 0.230266
Si Si5 0.300153 0.785023 0.921168
Si Si6 0.762622 0.358516 0.153733
Si Si7 0.646813 0.052476 0.788308
O O1 0.571492 0.519752 0.592820
O O2 0.427834 0.360181 0.563074
O O3 0.654882 0.321032 0.513672
O O4 0.490488 0.283426 0.916684
O O5 0.654963 0.191112 0.789750
O O6 0.707820 0.307374 0.014990
O O7 0.808587 0.143214 0.474285
O O8 0.009256 0.060884 0.373174
O O9 0.000006 0.226560 0.545989
O O10 0.126025 0.404878 0.166720
O O11 0.012226 0.417975 0.395675
O O12 0.900585 0.372664 0.163781
O O13 0.982292 0.573689 0.174602
O O14 0.270648 0.726441 0.776669
#
# Coordination Sequence:
#
# PCOD9541402 Si02
#       7
#     4   4   4   4   4   4   4
#     4  12  26  42  72 112 156 197 246 308 390 465
#     4  11  25  46  70 112 154 191 250 303 383 469
#     4  12  28  54  78 106 152 200 271 321 378 454
#     4  11  26  47  73 107 150 191 249 314 375 456
#     4  12  26  43  76 104 148 195 250 314 382 439
#     4  11  25  44  71 102 149 192 242 306 372 457
#     4  11  26  50  74 111 149 200 254 314 384 456
#
# _framework density 21.550017
#
# number of rings (size 3 to 8) (size 9 to 14) (size 15 to 20)
#    0.000    0.571    4.286    1.714   10.000    2.286 
#    0.000    0.000    0.000    0.000    0.000    0.000 
#    0.000    0.000    0.000    0.000    0.000    0.000 
#
# Total GULP energy -156530.370984 kJ/mol
# GULP energy per Si atom -5590.370392 kJ/mol
# Density = 2.150097 g / cm^3
# Si number density = 21.550017 Si / 1000 Ang^3
#
#
#
# Elastic Constant Matrix: (Units=GPa)
#
#
# Indices 1 2 3 4 5 6 
#
# 1 59.3206 29.9580 46.2482 0.0000 0.0000 -33.7936
# 2 29.9580 59.3206 46.2482 0.0000 0.0000 33.7936
# 3 46.2482 46.2482 82.3376 0.0000 0.0000 0.0000
# 4 0.0000 0.0000 0.0000 40.7091 0.0000 0.0000
# 5 0.0000 0.0000 0.0000 0.0000 40.7091 0.0000
# 6 -33.7936 33.7936 0.0000 0.0000 0.0000 -2.0665
#
#
#
# Elastic Compliance Matrix: (Units=1/GPa)
#
#
# Indices 1 2 3 4 5 6 
#
# 1 0.013837 0.012955 -0.015049 0.000000 0.000000 -0.014413
# 2 0.012955 0.013837 -0.015049 0.000000 0.000000 0.014413
# 3 -0.015049 -0.015049 0.029051 0.000000 0.000000 0.000000
# 4 0.000000 0.000000 0.000000 0.024565 0.000000 0.000000
# 5 0.000000 0.000000 0.000000 0.000000 0.024565 0.000000
# 6 -0.014413 0.014413 0.000000 0.000000 0.000000 -0.012523
#
#
# Mechanical properties :
#
#
# Convention : Reuss Voigt Hill
#
# Bulk Modulus (GPa) = 44.56423 49.54308 47.05366
# Shear Modulus (GPa) = 37.01091 21.10530 29.05810
#
# Velocity S-wave (km/s) = 4.14870 3.13287 3.67604
# Velocity P-wave (km/s) = 6.60858 6.01051 6.31663
#
# Compressibility (1/GPa) = 0.02243952
#
# Stress axis : x y z
#
# Youngs Moduli (GPa) = 72.27096 72.27096 34.42240
#
# Poissons Ratio (x) = -0.93630 0.51802
# Poissons Ratio (y) = -0.93630 0.51802
# Poissons Ratio (z) = 1.08760 1.08760
#
# Static dielectric constant tensor:
#      x y z
#    x 1.787800 0.000000 0.000000 
#    y 0.000000 1.787800 0.000000 
#    z 0.000000 0.000000 1.810830 
# 
# From -- ./inp_files/595.got.cif
#   From: 2010.05.17/outbox.cif.g08.bks.cpg/sg76_cif.got.tgz:595.got - 2010.06.03 18:43:17.
