data_PCOD9541244
_publ_section_title
;
Structure prediction by ZEFSAII (Michael W. Deem and Ramdas Pophale) SiO2 
 PCOD9541244
Probable space group: P 41
;
_chemical_formula_sum "Si O2"
_cell_formula_units_Z 20
_cell_length_a 11.834013
_cell_length_b 11.834013
_cell_length_c 5.907313
_cell_angle_alpha 90.000000
_cell_angle_beta 90.000000
_cell_angle_gamma 90.000000
_cell_volume 827.282937
_symmetry_space_group_name_H-M "P 41"
_symmetry_group_IT_number 76
_symmetry_cell_setting 'tetragonal'
loop_
_space_group_symop_operation_xyz
x,y,z
-y,x,1/4+z
-x,-y,1/2+z
y,-x,3/4+z
loop_
_atom_site_type_symbol
_atom_site_label
_atom_site_fract_x
_atom_site_fract_y
_atom_site_fract_z
Si Si1 0.815074 0.493466 0.005260
Si Si2 0.710932 0.826985 0.924999
Si Si3 0.156616 0.048462 0.758710
Si Si4 0.376792 0.394244 0.301365
Si Si5 0.623272 0.982112 0.558266
O O1 0.694351 0.553465 0.014222
O O2 0.889730 0.468939 0.225226
O O3 0.797444 0.375786 0.875953
O O4 0.896951 0.567425 0.844182
O O5 0.824909 0.863348 0.050307
O O6 0.691426 0.721859 0.755246
O O7 0.671350 0.937783 0.794084
O O8 0.105362 0.931243 0.676369
O O9 0.275460 0.021488 0.878721
O O10 0.506853 0.371766 0.365352
#
# Coordination Sequence:
#
# PCOD9541244 Si02
#       5
#     4   4   4   4   4
#     4  10  22  42  66 100 136 182 239 277 344 422
#     4  10  24  45  66  99 134 186 234 287 351 425
#     4  11  29  45  68 104 137 181 235 300 370 427
#     4  10  24  42  65  98 139 180 224 285 348 417
#     4  11  23  42  71 101 136 187 232 293 345 429
#
# _framework density 24.175528
#
# number of rings (size 3 to 8) (size 9 to 14) (size 15 to 20)
#    0.000    1.600    2.000    0.000   11.200    0.000 
#    0.000    0.000    0.000    0.000    0.000    0.000 
#    0.000    0.000    0.000    0.000    0.000    0.000 
#
# Total GULP energy -111763.042843 kJ/mol
# GULP energy per Si atom -5588.152142 kJ/mol
# Density = 2.412050 g / cm^3
# Si number density = 24.175528 Si / 1000 Ang^3
#
#
#
# Elastic Constant Matrix: (Units=GPa)
#
#
# Indices 1 2 3 4 5 6 
#
# 1 79.4125 -4.8466 3.4718 0.0000 0.0000 -14.3143
# 2 -4.8466 79.4125 3.4718 0.0000 0.0000 14.3143
# 3 3.4718 3.4718 35.2287 0.0000 0.0000 0.0000
# 4 0.0000 0.0000 0.0000 28.8429 0.0000 0.0000
# 5 0.0000 0.0000 0.0000 0.0000 28.8429 0.0000
# 6 -14.3143 14.3143 0.0000 0.0000 0.0000 53.3511
#
#
#
# Elastic Compliance Matrix: (Units=1/GPa)
#
#
# Indices 1 2 3 4 5 6 
#
# 1 0.013297 0.000238 -0.001334 0.000000 0.000000 0.003504
# 2 0.000238 0.013297 -0.001334 0.000000 0.000000 -0.003504
# 3 -0.001334 -0.001334 0.028649 0.000000 0.000000 0.000000
# 4 0.000000 0.000000 0.000000 0.034671 0.000000 0.000000
# 5 0.000000 0.000000 0.000000 0.000000 0.034671 0.000000
# 6 0.003504 -0.003504 0.000000 0.000000 0.000000 0.020624
#
#
# Mechanical properties :
#
#
# Convention : Reuss Voigt Hill
#
# Bulk Modulus (GPa) = 19.84770 22.02750 20.93760
# Shear Modulus (GPa) = 29.96505 35.00451 32.48478
#
# Velocity S-wave (km/s) = 3.52444 3.80930 3.66964
# Velocity P-wave (km/s) = 4.97895 5.33657 5.16085
#
# Compressibility (1/GPa) = 0.05038367
#
# Stress axis : x y z
#
# Youngs Moduli (GPa) = 75.20559 75.20559 34.90543
#
# Poissons Ratio (x) = -0.01792 0.04656
# Poissons Ratio (y) = -0.01792 0.04656
# Poissons Ratio (z) = 0.10032 0.10032
#
# Static dielectric constant tensor:
#      x y z
#    x 1.949730 0.000000 0.000000 
#    y 0.000000 1.949730 0.000000 
#    z 0.000000 0.000000 1.969600 
# 
# From -- ./inp_files/92.got.cif
#   From: 2010.05.17/outbox.cif.g08.bks.cpg/sg76_cif.got.tgz:92.got - 2010.06.03 18:43:17.
