data_PCOD9541366
_publ_section_title
;
Structure prediction by ZEFSAII (Michael W. Deem and Ramdas Pophale) SiO2 
 PCOD9541366
Probable space group: P 41
;
_chemical_formula_sum "Si O2"
_cell_formula_units_Z 32
_cell_length_a 11.932859
_cell_length_b 11.932859
_cell_length_c 10.381484
_cell_angle_alpha 90.000000
_cell_angle_beta 90.000000
_cell_angle_gamma 90.000000
_cell_volume 1478.251938
_symmetry_space_group_name_H-M "P 41"
_symmetry_group_IT_number 76
_symmetry_cell_setting 'tetragonal'
loop_
_space_group_symop_operation_xyz
x,y,z
-y,x,1/4+z
-x,-y,1/2+z
y,-x,3/4+z
loop_
_atom_site_type_symbol
_atom_site_label
_atom_site_fract_x
_atom_site_fract_y
_atom_site_fract_z
Si Si1 0.681056 0.144399 0.817700
Si Si2 0.728186 0.551200 0.878665
Si Si3 0.559731 0.444560 0.059926
Si Si4 0.682673 0.862431 0.146164
Si Si5 0.360876 0.091429 0.360646
Si Si6 0.205292 0.471605 0.786459
Si Si7 0.697949 0.711894 0.663918
Si Si8 0.384633 0.917680 0.786252
O O1 0.650683 0.195464 0.680455
O O2 0.778946 0.210212 0.892800
O O3 0.695591 0.014542 0.793274
O O4 0.565571 0.155106 0.901195
O O5 0.790638 0.432549 0.883562
O O6 0.684579 0.592211 0.739969
O O7 0.637313 0.537094 0.993023
O O8 0.547043 0.458168 0.210504
O O9 0.600717 0.319091 0.044138
O O10 0.669146 0.959726 0.254836
O O11 0.686148 0.915666 0.004258
O O12 0.324390 0.198828 0.278377
O O13 0.497274 0.081922 0.364645
O O14 0.246861 0.598915 0.815336
O O15 0.124749 0.430372 0.898211
O O16 0.820022 0.695673 0.596245
#
# Coordination Sequence:
#
# PCOD9541366 Si02
#       8
#     4   4   4   4   4   4   4   4
#     4  12  24  43  68 100 133 186 235 281 349 421
#     4  12  22  39  67  99 130 181 231 275 353 423
#     4  12  23  35  55  93 139 179 213 276 349 424
#     4  12  23  42  74  98 133 186 241 287 343 436
#     4  11  24  45  70  98 141 185 230 289 355 427
#     4  11  23  39  63  97 140 174 224 282 354 417
#     4  11  25  43  68 105 140 180 231 294 355 423
#     4  11  24  42  71 104 136 179 233 296 354 419
#
# _framework density 21.647189999999998
#
# number of rings (size 3 to 8) (size 9 to 14) (size 15 to 20)
#    0.000    0.500    7.500    1.500    0.000    1.000 
#    0.000    0.000    2.750    0.000    0.000    0.000 
#    0.000    0.000    0.000    0.000    0.000    0.000 
#
# Total GULP energy -178201.285604 kJ/mol
# GULP energy per Si atom -5568.790175 kJ/mol
# Density = 2.159792 g / cm^3
# Si number density = 21.647190 Si / 1000 Ang^3
#
#
#
# Elastic Constant Matrix: (Units=GPa)
#
#
# Indices 1 2 3 4 5 6 
#
# 1 79.2006 21.8536 -12.1973 0.0000 0.0000 -0.5051
# 2 21.8536 79.2006 -12.1973 0.0000 0.0000 0.5051
# 3 -12.1973 -12.1973 17.7806 0.0000 0.0000 0.0000
# 4 0.0000 0.0000 0.0000 24.4483 0.0000 0.0000
# 5 0.0000 0.0000 0.0000 0.0000 24.4483 0.0000
# 6 -0.5051 0.5051 0.0000 0.0000 0.0000 18.3366
#
#
#
# Elastic Compliance Matrix: (Units=1/GPa)
#
#
# Indices 1 2 3 4 5 6 
#
# 1 0.014653 -0.002793 0.008136 0.000000 0.000000 0.000481
# 2 -0.002793 0.014653 0.008136 0.000000 0.000000 -0.000481
# 3 0.008136 0.008136 0.067403 0.000000 0.000000 0.000000
# 4 0.000000 0.000000 0.000000 0.040903 0.000000 0.000000
# 5 0.000000 0.000000 0.000000 0.000000 0.040903 0.000000
# 6 0.000481 -0.000481 0.000000 0.000000 0.000000 0.054562
#
#
# Mechanical properties :
#
#
# Convention : Reuss Voigt Hill
#
# Bulk Modulus (GPa) = 8.08640 19.01110 13.54875
# Shear Modulus (GPa) = 20.21493 25.36150 22.78821
#
# Velocity S-wave (km/s) = 3.05919 3.42655 3.24807
# Velocity P-wave (km/s) = 4.02763 4.94534 4.50989
#
# Compressibility (1/GPa) = 0.12366442
#
# Stress axis : x y z
#
# Youngs Moduli (GPa) = 68.24600 68.24600 14.83614
#
# Poissons Ratio (x) = 0.19063 -0.12070
# Poissons Ratio (y) = 0.19063 -0.12070
# Poissons Ratio (z) = -0.55522 -0.55522
#
# Static dielectric constant tensor:
#      x y z
#    x 1.868130 0.000000 0.000000 
#    y 0.000000 1.868130 0.000000 
#    z 0.000000 0.000000 1.849620 
# 
# From -- ./inp_files/924.got.cif
#   From: 2010.05.17/outbox.cif.g08.bks.cpg/sg76_cif.got.tgz:924.got - 2010.06.03 18:43:17.
