data_PCOD9541208
_publ_section_title
;
Structure prediction by ZEFSAII (Michael W. Deem and Ramdas Pophale) SiO2 
 PCOD9541208
Probable space group: P 41
;
_chemical_formula_sum "Si O2"
_cell_formula_units_Z 28
_cell_length_a 8.256697
_cell_length_b 8.256697
_cell_length_c 16.533811
_cell_angle_alpha 90.000000
_cell_angle_beta 90.000000
_cell_angle_gamma 90.000000
_cell_volume 1127.160247
_symmetry_space_group_name_H-M "P 41"
_symmetry_group_IT_number 76
_symmetry_cell_setting 'tetragonal'
loop_
_space_group_symop_operation_xyz
x,y,z
-y,x,1/4+z
-x,-y,1/2+z
y,-x,3/4+z
loop_
_atom_site_type_symbol
_atom_site_label
_atom_site_fract_x
_atom_site_fract_y
_atom_site_fract_z
Si Si1 0.964463 0.506900 0.284200
Si Si2 0.798345 0.948028 0.720030
Si Si3 0.158241 0.506540 0.617942
Si Si4 0.913938 0.122981 0.298660
Si Si5 0.326100 0.808273 0.680853
Si Si6 0.219978 0.537477 0.070651
Si Si7 0.689350 0.709693 0.981444
O O1 0.849992 0.563362 0.209508
O O2 0.963734 0.310844 0.279895
O O3 0.897455 0.550302 0.372577
O O4 0.134432 0.598003 0.269447
O O5 0.874239 0.866108 0.641201
O O6 0.686102 0.815536 0.761219
O O7 0.930296 0.986848 0.788248
O O8 0.736526 0.126850 0.697705
O O9 0.226127 0.686152 0.626446
O O10 0.270945 0.413781 0.553880
O O11 0.967651 0.503079 0.594060
O O12 0.789947 0.070985 0.229663
O O13 0.403556 0.715279 0.758700
O O14 0.321291 0.582880 0.150015
#
# Coordination Sequence:
#
# PCOD9541208 Si02
#       7
#     4   4   4   4   4   4   4
#     4  10  23  44  63  97 137 175 217 285 339 394
#     4  11  22  42  68 101 132 171 232 282 335 406
#     4   9  23  43  64 101 135 171 233 276 328 411
#     4  11  25  40  66 100 133 172 228 281 335 407
#     4  11  24  41  69  93 138 176 219 281 335 403
#     4  10  21  43  71  96 137 179 221 283 349 392
#     4  10  22  43  71  98 132 176 222 278 337 405
#
# _framework density 24.841189
#
# number of rings (size 3 to 8) (size 9 to 14) (size 15 to 20)
#    0.000    1.714    2.857    0.000    8.000    1.143 
#    0.000    8.571    0.000    0.000    0.000    0.000 
#    0.000    0.000    0.000    0.000    0.000    0.000 
#
# Total GULP energy -156285.736332 kJ/mol
# GULP energy per Si atom -5581.633440 kJ/mol
# Density = 2.478465 g / cm^3
# Si number density = 24.841189 Si / 1000 Ang^3
#
#
#
# Elastic Constant Matrix: (Units=GPa)
#
#
# Indices 1 2 3 4 5 6 
#
# 1 44.9070 8.1449 26.2445 0.0000 0.0000 8.6239
# 2 8.1449 44.9070 26.2445 0.0000 0.0000 -8.6239
# 3 26.2445 26.2445 150.7870 0.0000 0.0000 0.0000
# 4 0.0000 0.0000 0.0000 38.1031 0.0000 0.0000
# 5 0.0000 0.0000 0.0000 0.0000 38.1031 0.0000
# 6 8.6239 -8.6239 0.0000 0.0000 0.0000 22.4654
#
#
#
# Elastic Compliance Matrix: (Units=1/GPa)
#
#
# Indices 1 2 3 4 5 6 
#
# 1 0.027974 -0.005203 -0.003963 0.000000 0.000000 -0.012736
# 2 -0.005203 0.027974 -0.003963 0.000000 0.000000 0.012736
# 3 -0.003963 -0.003963 0.008011 0.000000 0.000000 0.000000
# 4 0.000000 0.000000 0.000000 0.026245 0.000000 0.000000
# 5 0.000000 0.000000 0.000000 0.000000 0.026245 0.000000
# 6 -0.012736 0.012736 0.000000 0.000000 0.000000 0.054291
#
#
# Mechanical properties :
#
#
# Convention : Reuss Voigt Hill
#
# Bulk Modulus (GPa) = 26.52533 40.20764 33.36648
# Shear Modulus (GPa) = 23.85888 31.73212 27.79550
#
# Velocity S-wave (km/s) = 3.10249 3.57795 3.34867
# Velocity P-wave (km/s) = 4.85129 5.76975 5.33034
#
# Compressibility (1/GPa) = 0.03769981
#
# Stress axis : x y z
#
# Youngs Moduli (GPa) = 35.74756 35.74756 124.82105
#
# Poissons Ratio (x) = 0.18601 0.49469
# Poissons Ratio (y) = 0.18601 0.49469
# Poissons Ratio (z) = 0.14168 0.14168
#
# Static dielectric constant tensor:
#      x y z
#    x 2.016290 0.000000 0.000000 
#    y 0.000000 2.016290 0.000000 
#    z 0.000000 0.000000 1.960470 
# 
# From -- ./inp_files/1271.got.cif
#   From: 2010.05.17/outbox.cif.g08.bks.cpg/sg76_cif.got.tgz:1271.got - 2010.06.03 18:43:17.
