data_PCOD9541117
_publ_section_title
;
Structure prediction by ZEFSAII (Michael W. Deem and Ramdas Pophale) SiO2 
 PCOD9541117
Probable space group: P 41
;
_chemical_formula_sum "Si O2"
_cell_formula_units_Z 24
_cell_length_a 7.634150
_cell_length_b 7.634150
_cell_length_c 16.747159
_cell_angle_alpha 90.000000
_cell_angle_beta 90.000000
_cell_angle_gamma 90.000000
_cell_volume 976.028550
_symmetry_space_group_name_H-M "P 41"
_symmetry_group_IT_number 76
_symmetry_cell_setting 'tetragonal'
loop_
_space_group_symop_operation_xyz
x,y,z
-y,x,1/4+z
-x,-y,1/2+z
y,-x,3/4+z
loop_
_atom_site_type_symbol
_atom_site_label
_atom_site_fract_x
_atom_site_fract_y
_atom_site_fract_z
Si Si1 0.794428 0.687234 0.075390
Si Si2 0.066027 0.082155 0.821980
Si Si3 0.811875 0.392256 0.535132
Si Si4 0.064990 0.711598 0.879118
Si Si5 0.531087 0.287643 0.665108
Si Si6 0.796202 0.773112 0.472184
O O1 0.805303 0.895059 0.054712
O O2 0.670191 0.664729 0.151329
O O3 0.993647 0.617190 0.074334
O O4 0.687967 0.594217 0.004552
O O5 0.988894 0.906182 0.865167
O O6 0.166508 0.993510 0.748592
O O7 0.207598 0.168920 0.880982
O O8 0.815134 0.261799 0.458162
O O9 0.664692 0.372687 0.601767
O O10 0.781209 0.570567 0.487691
O O11 0.145640 0.675615 0.792206
O O12 0.918534 0.570693 0.899214
#
# Coordination Sequence:
#
# PCOD9541117 Si02
#       6
#     4   4   4   4   4   4
#     4  11  24  42  69  97 132 179 227 288 341 422
#     4  10  19  40  65  95 123 168 226 276 338 405
#     4  11  22  41  63  96 140 173 225 281 345 411
#     4   9  20  38  66  92 124 177 221 276 339 406
#     4  11  23  42  68  95 134 180 226 279 353 409
#     4  10  22  37  67  97 129 173 231 282 344 421
#
# _framework density 24.589442999999999
#
# number of rings (size 3 to 8) (size 9 to 14) (size 15 to 20)
#    1.000    0.667    1.667    5.000    2.333    0.000 
#    3.000    1.667    0.000    0.000    0.000    0.000 
#    0.000    0.000    0.000    0.000    0.000    0.000 
#
# Total GULP energy -133921.209785 kJ/mol
# GULP energy per Si atom -5580.050408 kJ/mol
# Density = 2.453348 g / cm^3
# Si number density = 24.589443 Si / 1000 Ang^3
#
#
#
# Elastic Constant Matrix: (Units=GPa)
#
#
# Indices 1 2 3 4 5 6 
#
# 1 36.7733 -2.5620 2.5160 0.0000 0.0000 -5.5376
# 2 -2.5620 36.7733 2.5160 0.0000 0.0000 5.5376
# 3 2.5160 2.5160 51.0366 0.0000 0.0000 0.0000
# 4 0.0000 0.0000 0.0000 30.9162 0.0000 0.0000
# 5 0.0000 0.0000 0.0000 0.0000 30.9162 0.0000
# 6 -5.5376 5.5376 0.0000 0.0000 0.0000 10.3943
#
#
#
# Elastic Compliance Matrix: (Units=1/GPa)
#
#
# Indices 1 2 3 4 5 6 
#
# 1 0.029676 -0.000233 -0.001452 0.000000 0.000000 0.015934
# 2 -0.000233 0.029676 -0.001452 0.000000 0.000000 -0.015934
# 3 -0.001452 -0.001452 0.019737 0.000000 0.000000 0.000000
# 4 0.000000 0.000000 0.000000 0.032345 0.000000 0.000000
# 5 0.000000 0.000000 0.000000 0.000000 0.032345 0.000000
# 6 0.015934 -0.015934 0.000000 0.000000 0.000000 0.113184
#
#
# Mechanical properties :
#
#
# Convention : Reuss Voigt Hill
#
# Bulk Modulus (GPa) = 13.73286 14.39147 14.06216
# Shear Modulus (GPa) = 17.39080 22.58625 19.98853
#
# Velocity S-wave (km/s) = 2.66230 3.03402 2.85422
# Velocity P-wave (km/s) = 3.87910 4.25900 4.07348
#
# Compressibility (1/GPa) = 0.07281806
#
# Stress axis : x y z
#
# Youngs Moduli (GPa) = 33.69701 33.69701 50.66657
#
# Poissons Ratio (x) = 0.00784 0.07354
# Poissons Ratio (y) = 0.00784 0.07354
# Poissons Ratio (z) = 0.04891 0.04891
#
# Static dielectric constant tensor:
#      x y z
#    x 1.984710 0.000000 0.000000 
#    y 0.000000 1.984710 0.000000 
#    z 0.000000 0.000000 2.024470 
# 
# From -- ./inp_files/1210.got.cif
#   From: 2010.05.17/outbox.cif.g08.bks.cpg/sg76_cif.got.tgz:1210.got - 2010.06.03 18:43:17.
