data_PCOD9541087
_publ_section_title
;
Structure prediction by ZEFSAII (Michael W. Deem and Ramdas Pophale) SiO2 
 PCOD9541087
Probable space group: P 41
;
_chemical_formula_sum "Si O2"
_cell_formula_units_Z 28
_cell_length_a 14.945385
_cell_length_b 14.945385
_cell_length_c 6.196171
_cell_angle_alpha 90.000000
_cell_angle_beta 90.000000
_cell_angle_gamma 90.000000
_cell_volume 1384.004841
_symmetry_space_group_name_H-M "P 41"
_symmetry_group_IT_number 76
_symmetry_cell_setting 'tetragonal'
loop_
_space_group_symop_operation_xyz
x,y,z
-y,x,1/4+z
-x,-y,1/2+z
y,-x,3/4+z
loop_
_atom_site_type_symbol
_atom_site_label
_atom_site_fract_x
_atom_site_fract_y
_atom_site_fract_z
Si Si1 0.371033 0.865494 0.048990
Si Si2 0.302886 0.732403 0.406422
Si Si3 0.235534 0.962327 0.733360
Si Si4 0.536309 0.197188 0.153233
Si Si5 0.389576 0.979271 0.426375
Si Si6 0.358601 0.177766 0.331888
Si Si7 0.146223 0.790439 0.728684
O O1 0.320468 0.807077 0.224995
O O2 0.410560 0.947874 0.183687
O O3 0.302311 0.907319 0.884563
O O4 0.435050 0.805016 0.904334
O O5 0.400024 0.733427 0.525266
O O6 0.252225 0.656983 0.266085
O O7 0.232701 0.762904 0.587620
O O8 0.285880 0.967444 0.503607
O O9 0.149893 0.898430 0.744377
O O10 0.230244 0.059100 0.838265
O O11 0.430567 0.211671 0.155288
O O12 0.557424 0.096382 0.063401
O O13 0.398848 0.086131 0.434905
O O14 0.267919 0.151847 0.198945
#
# Coordination Sequence:
#
# PCOD9541087 Si02
#       7
#     4   4   4   4   4   4   4
#     4  10  18  39  59  81 129 165 202 273 322 367
#     4  11  21  41  62  86 132 170 212 265 330 389
#     4  11  21  38  58  87 126 173 225 270 308 389
#     4  10  24  38  59  96 133 165 215 274 330 399
#     4  10  21  35  58  90 128 171 207 273 330 382
#     4  12  24  36  65  96 127 178 217 261 341 402
#     4  12  23  39  61  90 127 178 228 264 319 388
#
# _framework density 20.231141999999998
#
# number of rings (size 3 to 8) (size 9 to 14) (size 15 to 20)
#    0.000    1.143    8.571    0.000    2.000    2.286 
#    0.000    2.857    0.000    0.000    0.000    0.000 
#   60.000    0.000    0.000    0.000    0.000    0.000 
#
# Total GULP energy -155879.661605 kJ/mol
# GULP energy per Si atom -5567.130772 kJ/mol
# Density = 2.018509 g / cm^3
# Si number density = 20.231142 Si / 1000 Ang^3
#
#
#
# Elastic Constant Matrix: (Units=GPa)
#
#
# Indices 1 2 3 4 5 6 
#
# 1 62.8041 28.5373 20.8148 0.0000 0.0000 1.8020
# 2 28.5373 62.8041 20.8148 0.0000 0.0000 -1.8020
# 3 20.8148 20.8148 79.8362 0.0000 0.0000 0.0000
# 4 0.0000 0.0000 0.0000 30.9638 0.0000 0.0000
# 5 0.0000 0.0000 0.0000 0.0000 30.9638 0.0000
# 6 1.8020 -1.8020 0.0000 0.0000 0.0000 19.8304
#
#
#
# Elastic Compliance Matrix: (Units=1/GPa)
#
#
# Indices 1 2 3 4 5 6 
#
# 1 0.020944 -0.008520 -0.003239 0.000000 0.000000 -0.002677
# 2 -0.008520 0.020944 -0.003239 0.000000 0.000000 0.002677
# 3 -0.003239 -0.003239 0.014215 0.000000 0.000000 0.000000
# 4 0.000000 0.000000 0.000000 0.032296 0.000000 0.000000
# 5 0.000000 0.000000 0.000000 0.000000 0.032296 0.000000
# 6 -0.002677 0.002677 0.000000 0.000000 0.000000 0.050914
#
#
# Mechanical properties :
#
#
# Convention : Reuss Voigt Hill
#
# Bulk Modulus (GPa) = 38.30501 38.41982 38.36241
# Shear Modulus (GPa) = 23.77462 25.37008 24.57235
#
# Velocity S-wave (km/s) = 3.43176 3.54504 3.48886
# Velocity P-wave (km/s) = 5.88876 5.98232 5.93572
#
# Compressibility (1/GPa) = 0.02610625
#
# Stress axis : x y z
#
# Youngs Moduli (GPa) = 47.74570 47.74570 70.34963
#
# Poissons Ratio (x) = 0.40680 0.22788
# Poissons Ratio (y) = 0.40680 0.22788
# Poissons Ratio (z) = 0.15466 0.15466
#
# Static dielectric constant tensor:
#      x y z
#    x 1.787610 0.000000 0.000000 
#    y 0.000000 1.787610 0.000000 
#    z 0.000000 0.000000 1.764660 
# 
# From -- ./inp_files/277.got.cif
#   From: 2010.05.17/outbox.cif.g08.bks.cpg/sg76_cif.got.tgz:277.got - 2010.06.03 18:43:17.
