data_PCOD9541146
_publ_section_title
;
Structure prediction by ZEFSAII (Michael W. Deem and Ramdas Pophale) SiO2 
 PCOD9541146
Probable space group: P 41
;
_chemical_formula_sum "Si O2"
_cell_formula_units_Z 28
_cell_length_a 11.544596
_cell_length_b 11.544596
_cell_length_c 10.423425
_cell_angle_alpha 90.000000
_cell_angle_beta 90.000000
_cell_angle_gamma 90.000000
_cell_volume 1389.210077
_symmetry_space_group_name_H-M "P 41"
_symmetry_group_IT_number 76
_symmetry_cell_setting 'tetragonal'
loop_
_space_group_symop_operation_xyz
x,y,z
-y,x,1/4+z
-x,-y,1/2+z
y,-x,3/4+z
loop_
_atom_site_type_symbol
_atom_site_label
_atom_site_fract_x
_atom_site_fract_y
_atom_site_fract_z
Si Si1 0.709169 0.877627 0.301860
Si Si2 0.188198 0.373937 0.164182
Si Si3 0.946954 0.457689 0.832016
Si Si4 0.945239 0.920044 0.588503
Si Si5 0.542203 0.604761 0.634685
Si Si6 0.370188 0.815211 0.610059
Si Si7 0.019359 0.689312 0.808103
O O1 0.810533 0.974926 0.298729
O O2 0.763917 0.751978 0.317166
O O3 0.623673 0.884763 0.183275
O O4 0.644381 0.909668 0.434224
O O5 0.325902 0.364310 0.174187
O O6 0.110025 0.286428 0.250116
O O7 0.139375 0.495046 0.222787
O O8 0.160319 0.364950 0.013696
O O9 0.063531 0.392986 0.790417
O O10 0.996979 0.578005 0.895473
O O11 0.964613 0.008435 0.472692
O O12 0.805167 0.915791 0.597384
O O13 0.478089 0.551279 0.759653
O O14 0.469809 0.718842 0.595881
#
# Coordination Sequence:
#
# PCOD9541146 Si02
#       7
#     4   4   4   4   4   4   4
#     4  11  22  40  67  96 132 174 226 278 337 408
#     4   9  22  40  62  95 132 169 218 277 334 390
#     4  10  20  38  64  97 127 165 218 286 325 388
#     4  10  22  40  66  95 132 177 226 271 338 407
#     4  10  24  42  67  96 133 178 228 274 335 409
#     4  11  23  41  68  96 125 183 230 269 340 418
#     4   9  21  35  66  87 131 172 218 263 341 388
#
# _framework density 20.155338
#
# number of rings (size 3 to 8) (size 9 to 14) (size 15 to 20)
#    0.857    1.143    1.429    1.714   10.000    0.000 
#    0.000   11.429    0.000    0.000    0.000    0.000 
#    0.000    0.000    0.000    0.000    0.000    0.000 
#
# Total GULP energy -155927.448816 kJ/mol
# GULP energy per Si atom -5568.837458 kJ/mol
# Density = 2.010946 g / cm^3
# Si number density = 20.155338 Si / 1000 Ang^3
#
#
#
# Elastic Constant Matrix: (Units=GPa)
#
#
# Indices 1 2 3 4 5 6 
#
# 1 110.6757 47.1229 20.5877 0.0000 0.0000 3.0347
# 2 47.1229 110.6757 20.5877 0.0000 0.0000 -3.0347
# 3 20.5877 20.5877 28.9722 0.0000 0.0000 0.0000
# 4 0.0000 0.0000 0.0000 32.5142 0.0000 0.0000
# 5 0.0000 0.0000 0.0000 0.0000 32.5142 0.0000
# 6 3.0347 -3.0347 0.0000 0.0000 0.0000 37.1370
#
#
#
# Elastic Compliance Matrix: (Units=1/GPa)
#
#
# Indices 1 2 3 4 5 6 
#
# 1 0.011819 -0.004040 -0.005528 0.000000 0.000000 -0.001296
# 2 -0.004040 0.011819 -0.005528 0.000000 0.000000 0.001296
# 3 -0.005528 -0.005528 0.042373 0.000000 0.000000 0.000000
# 4 0.000000 0.000000 0.000000 0.030756 0.000000 0.000000
# 5 0.000000 0.000000 0.000000 0.000000 0.030756 0.000000
# 6 -0.001296 0.001296 0.000000 0.000000 0.000000 0.027139
#
#
# Mechanical properties :
#
#
# Convention : Reuss Voigt Hill
#
# Bulk Modulus (GPa) = 27.91816 47.43556 37.67686
# Shear Modulus (GPa) = 25.40734 31.23477 28.32105
#
# Velocity S-wave (km/s) = 3.55431 3.94090 3.75259
# Velocity P-wave (km/s) = 5.54308 6.65535 6.12451
#
# Compressibility (1/GPa) = 0.03581898
#
# Stress axis : x y z
#
# Youngs Moduli (GPa) = 84.60796 84.60796 23.60014
#
# Poissons Ratio (x) = 0.34177 0.13047
# Poissons Ratio (y) = 0.34177 0.13047
# Poissons Ratio (z) = 0.46774 0.46774
#
# Static dielectric constant tensor:
#      x y z
#    x 1.767620 0.000000 0.000000 
#    y 0.000000 1.767620 0.000000 
#    z 0.000000 0.000000 1.716350 
# 
# From -- ./inp_files/901.got.cif
#   From: 2010.05.17/outbox.cif.g08.bks.cpg/sg76_cif.got.tgz:901.got - 2010.06.03 18:43:17.
