data_PCOD9541500
_publ_section_title
;
Structure prediction by ZEFSAII (Michael W. Deem and Ramdas Pophale) SiO2 
 PCOD9541500
Probable space group: P 42
;
_chemical_formula_sum "Si O2"
_cell_formula_units_Z 32
_cell_length_a 8.710577
_cell_length_b 8.710577
_cell_length_c 23.737064
_cell_angle_alpha 90.000000
_cell_angle_beta 90.000000
_cell_angle_gamma 90.000000
_cell_volume 1801.029594
_symmetry_space_group_name_H-M "P 42"
_symmetry_group_IT_number 77
_symmetry_cell_setting 'tetragonal'
loop_
_space_group_symop_operation_xyz
x,y,z
-y,x,1/2+z
-x,-y,z
y,-x,1/2+z
loop_
_atom_site_type_symbol
_atom_site_label
_atom_site_fract_x
_atom_site_fract_y
_atom_site_fract_z
Si Si1 0.721265 0.688866 0.325470
Si Si2 0.626344 0.730636 0.891966
Si Si3 0.934032 0.843152 0.693147
Si Si4 0.168669 0.563998 0.923368
Si Si5 0.951448 0.177329 0.312314
Si Si6 0.832391 0.576496 0.616873
Si Si7 0.159963 0.590362 0.725179
Si Si8 0.671934 0.566872 0.497449
O O1 0.703884 0.521088 0.352006
O O2 0.680669 0.820781 0.371217
O O3 0.604671 0.721633 0.275089
O O4 0.895717 0.719848 0.307611
O O5 0.725416 0.578635 0.903623
O O6 0.739899 0.849365 0.860514
O O7 0.541023 0.763504 0.952270
O O8 0.837137 0.869315 0.750794
O O9 0.853288 0.743015 0.645266
O O10 0.087553 0.754323 0.712019
O O11 0.000000 0.000000 0.669877
O O12 0.261725 0.649560 0.972720
O O13 0.000000 0.500000 0.935919
O O14 0.000000 0.000000 0.325533
O O15 0.766466 0.478800 0.669122
O O16 0.745110 0.570661 0.558693
O O17 0.000000 0.500000 0.608196
O O18 0.000000 0.500000 0.739429
O O19 0.500000 0.500000 0.500712
#
# Coordination Sequence:
#
# PCOD9541500 Si02
#       8
#     4   4   4   4   4   4   4   4
#     4  11  19  33  54  85 120 145 182 238 293 342
#     4  10  23  37  56  84 118 150 190 234 299 343
#     4   9  17  34  54  84 116 146 191 234 280 336
#     4  10  21  37  60  81 109 152 196 236 288 361
#     4  11  20  33  56  85 120 154 180 238 291 356
#     4   9  20  36  61  81 108 155 197 229 284 339
#     4   9  18  32  54  85 110 153 190 226 282 350
#     4   9  20  42  58  81 114 149 192 253 285 336
#
# _framework density 17.767617000000001
#
# number of rings (size 3 to 8) (size 9 to 14) (size 15 to 20)
#    0.000    2.500    2.500    2.625    3.500    2.000 
#    2.250    5.000    0.000    3.750    0.000    0.000 
#    0.000    0.000    0.000    0.000    0.000    0.000 
#
# Total GULP energy -178135.506866 kJ/mol
# GULP energy per Si atom -5566.734590 kJ/mol
# Density = 1.772718 g / cm^3
# Si number density = 17.767617 Si / 1000 Ang^3
#
#
#
# Elastic Constant Matrix: (Units=GPa)
#
#
# Indices 1 2 3 4 5 6 
#
# 1 78.3241 24.0696 54.3884 0.0000 0.0000 2.9784
# 2 24.0696 78.3241 54.3884 0.0000 0.0000 -2.9784
# 3 54.3884 54.3884 164.5918 0.0000 0.0000 0.0000
# 4 0.0000 0.0000 0.0000 12.3345 0.0000 0.0000
# 5 0.0000 0.0000 0.0000 0.0000 12.3345 0.0000
# 6 2.9784 -2.9784 0.0000 0.0000 0.0000 19.6264
#
#
#
# Elastic Compliance Matrix: (Units=1/GPa)
#
#
# Indices 1 2 3 4 5 6 
#
# 1 0.016897 -0.001847 -0.004973 0.000000 0.000000 -0.002844
# 2 -0.001847 0.016897 -0.004973 0.000000 0.000000 0.002844
# 3 -0.004973 -0.004973 0.009362 0.000000 0.000000 0.000000
# 4 0.000000 0.000000 0.000000 0.081073 0.000000 0.000000
# 5 0.000000 0.000000 0.000000 0.000000 0.081073 0.000000
# 6 -0.002844 0.002844 0.000000 0.000000 0.000000 0.051815
#
#
# Mechanical properties :
#
#
# Convention : Reuss Voigt Hill
#
# Bulk Modulus (GPa) = 51.10167 65.21474 58.15820
# Shear Modulus (GPa) = 17.40786 21.41865 19.41326
#
# Velocity S-wave (km/s) = 3.13349 3.47578 3.30907
# Velocity P-wave (km/s) = 6.47420 7.27269 6.88503
#
# Compressibility (1/GPa) = 0.01956883
#
# Stress axis : x y z
#
# Youngs Moduli (GPa) = 59.18371 59.18371 106.81300
#
# Poissons Ratio (x) = 0.10934 0.53117
# Poissons Ratio (y) = 0.10934 0.53117
# Poissons Ratio (z) = 0.29431 0.29431
#
# Static dielectric constant tensor:
#      x y z
#    x 1.819380 0.000000 0.000000 
#    y 0.000000 1.819380 0.000000 
#    z 0.000000 0.000000 1.619740 
# 
# From -- ./inp_files/1686.got.cif
#   From: 2010.05.17/outbox.cif.g08.bks.cpg/sg77_cif.got.tgz:1686.got - 2010.06.03 18:44:51.
