data_PCOD9541339
_publ_section_title
;
Structure prediction by ZEFSAII (Michael W. Deem and Ramdas Pophale) SiO2 
 PCOD9541339
Probable space group: P 41
;
_chemical_formula_sum "Si O2"
_cell_formula_units_Z 20
_cell_length_a 12.687862
_cell_length_b 12.687862
_cell_length_c 6.365350
_cell_angle_alpha 90.000000
_cell_angle_beta 90.000000
_cell_angle_gamma 90.000000
_cell_volume 1024.705769
_symmetry_space_group_name_H-M "P 41"
_symmetry_group_IT_number 76
_symmetry_cell_setting 'tetragonal'
loop_
_space_group_symop_operation_xyz
x,y,z
-y,x,1/4+z
-x,-y,1/2+z
y,-x,3/4+z
loop_
_atom_site_type_symbol
_atom_site_label
_atom_site_fract_x
_atom_site_fract_y
_atom_site_fract_z
Si Si1 0.616104 0.563490 0.142490
Si Si2 0.103079 0.605919 0.527553
Si Si3 0.118380 0.396184 0.238613
Si Si4 0.755400 0.458930 0.428895
Si Si5 0.734918 0.747542 0.996843
O O1 0.505722 0.618501 0.184565
O O2 0.642224 0.488066 0.335722
O O3 0.706930 0.648735 0.143539
O O4 0.096990 0.498788 0.387397
O O5 0.175560 0.573577 0.725880
O O6 0.152066 0.703862 0.392733
O O7 0.988877 0.632301 0.619199
O O8 0.163202 0.295869 0.370362
O O9 0.197610 0.444650 0.064335
O O10 0.750299 0.357876 0.575760
#
# Coordination Sequence:
#
# PCOD9541339 Si02
#       5
#     4   4   4   4   4
#     4  12  20  32  50  79 123 173 205 240 294 373
#     4  11  22  39  60  88 124 174 220 261 324 381
#     4  11  22  39  63  85 126 172 214 273 316 382
#     4  11  21  37  57  85 123 167 211 257 310 378
#     4  11  23  37  54  91 124 164 218 261 316 380
#
# _framework density 19.517799
#
# number of rings (size 3 to 8) (size 9 to 14) (size 15 to 20)
#    0.000    0.800    6.000    3.600    0.000    0.000 
#    0.000    0.000    0.000    0.000    0.000    0.000 
#    6.000    0.800    0.000    0.000    0.000    0.000 
#
# Total GULP energy -111496.316134 kJ/mol
# GULP energy per Si atom -5574.815807 kJ/mol
# Density = 1.947338 g / cm^3
# Si number density = 19.517799 Si / 1000 Ang^3
#
#
#
# Elastic Constant Matrix: (Units=GPa)
#
#
# Indices 1 2 3 4 5 6 
#
# 1 88.2557 37.4569 39.8506 0.0000 0.0000 -0.2560
# 2 37.4569 88.2557 39.8506 0.0000 0.0000 0.2560
# 3 39.8506 39.8506 98.2345 0.0000 0.0000 0.0000
# 4 0.0000 0.0000 0.0000 46.6831 0.0000 0.0000
# 5 0.0000 0.0000 0.0000 0.0000 46.6831 0.0000
# 6 -0.2560 0.2560 0.0000 0.0000 0.0000 18.6618
#
#
#
# Elastic Compliance Matrix: (Units=1/GPa)
#
#
# Indices 1 2 3 4 5 6 
#
# 1 0.015199 -0.004490 -0.004344 0.000000 0.000000 0.000270
# 2 -0.004490 0.015199 -0.004344 0.000000 0.000000 -0.000270
# 3 -0.004344 -0.004344 0.013704 0.000000 0.000000 0.000000
# 4 0.000000 0.000000 0.000000 0.021421 0.000000 0.000000
# 5 0.000000 0.000000 0.000000 0.000000 0.021421 0.000000
# 6 0.000270 -0.000270 0.000000 0.000000 0.000000 0.053593
#
#
# Mechanical properties :
#
#
# Convention : Reuss Voigt Hill
#
# Bulk Modulus (GPa) = 56.35350 56.56248 56.45799
# Shear Modulus (GPa) = 28.93390 32.91145 30.92267
#
# Velocity S-wave (km/s) = 3.85442 4.11082 3.98468
# Velocity P-wave (km/s) = 6.98171 7.18155 7.08234
#
# Compressibility (1/GPa) = 0.01774513
#
# Stress axis : x y z
#
# Youngs Moduli (GPa) = 65.79576 65.79576 72.96942
#
# Poissons Ratio (x) = 0.29540 0.31700
# Poissons Ratio (y) = 0.29540 0.31700
# Poissons Ratio (z) = 0.28583 0.28583
#
# Static dielectric constant tensor:
#      x y z
#    x 1.723440 0.000000 0.000000 
#    y 0.000000 1.723440 0.000000 
#    z 0.000000 0.000000 1.768390 
# 
# From -- ./inp_files/100.got.cif
#   From: 2010.05.17/outbox.cif.g08.bks.cpg/sg76_cif.got.tgz:100.got - 2010.06.03 18:43:17.
