data_PCOD9541989
_publ_section_title
;
Structure prediction by ZEFSAII (Michael W. Deem and Ramdas Pophale) SiO2 
 PCOD9541989
Probable space group: I 4
;
_chemical_formula_sum "Si O2"
_cell_formula_units_Z 44
_cell_length_a 8.123461
_cell_length_b 8.123461
_cell_length_c 30.838561
_cell_angle_alpha 90.000000
_cell_angle_beta 90.000000
_cell_angle_gamma 90.000000
_cell_volume 2035.055718
_symmetry_space_group_name_H-M "I 4"
_symmetry_group_IT_number 79
_symmetry_cell_setting 'tetragonal'
loop_
_space_group_symop_operation_xyz
x,y,z
-y,x,z
-x,-y,z
y,-x,z
1/2+x,1/2+y,1/2+z
1/2-y,1/2+x,1/2+z
1/2-x,1/2-y,1/2+z
1/2+y,1/2-x,1/2+z
loop_
_atom_site_type_symbol
_atom_site_label
_atom_site_fract_x
_atom_site_fract_y
_atom_site_fract_z
Si Si1 0.263016 0.909094 0.132240
Si Si2 0.736653 0.913192 0.810899
Si Si3 0.262470 0.914057 0.491086
Si Si4 0.762544 0.594519 0.406561
Si Si5 0.000000 0.500000 0.062032
Si Si6 0.086182 0.263503 0.228133
O O1 0.337366 0.884060 0.180325
O O2 0.098773 0.799479 0.129155
O O3 0.391364 0.886927 0.093797
O O4 0.662305 0.881390 0.858565
O O5 0.629455 0.870714 0.769476
O O6 0.900484 0.800842 0.809053
O O7 0.350294 0.877299 0.445583
O O8 0.389593 0.889034 0.530236
O O9 0.101845 0.799803 0.493823
O O10 0.594289 0.701902 0.409669
O O11 0.900023 0.198886 0.230050
#
# Coordination Sequence:
#
# PCOD9541989 Si02
#       6
#     8   8   8   8   4   8
#     4   9  20  38  58  82 111 144 186 231 271 324
#     4   9  19  35  56  84 115 146 183 224 266 321
#     4  11  24  39  56  84 118 145 179 234 289 334
#     4   9  19  38  61  83 111 150 192 228 269 332
#     4  12  22  38  62  82 106 146 190 228 282 340
#     4   9  19  35  54  80 114 147 183 226 270 319
#
# _framework density 21.621027999999999
#
# number of rings (size 3 to 8) (size 9 to 14) (size 15 to 20)
#    0.000    2.364    0.000    4.364    0.000    5.091 
#    0.000    7.273    0.000    2.182    0.000    0.000 
#    0.000    0.000    0.000    0.000    0.000    0.000 
#
# Total GULP energy -123006.234421 kJ/mol
# GULP energy per Si atom -5591.192474 kJ/mol
# Density = 2.157182 g / cm^3
# Si number density = 21.621028 Si / 1000 Ang^3
#
#
#
# Elastic Constant Matrix: (Units=GPa)
#
#
# Indices 1 2 3 4 5 6 
#
# 1 46.8713 15.1776 52.4469 0.0000 0.0000 4.1295
# 2 15.1776 46.8713 52.4469 0.0000 0.0000 -4.1295
# 3 52.4469 52.4469 221.9847 0.0000 0.0000 0.0000
# 4 0.0000 0.0000 0.0000 63.7775 0.0000 0.0000
# 5 0.0000 0.0000 0.0000 0.0000 63.7775 0.0000
# 6 4.1295 -4.1295 0.0000 0.0000 0.0000 31.3672
#
#
#
# Elastic Compliance Matrix: (Units=1/GPa)
#
#
# Indices 1 2 3 4 5 6 
#
# 1 0.029753 -0.002919 -0.006340 0.000000 0.000000 -0.004301
# 2 -0.002919 0.029753 -0.006340 0.000000 0.000000 0.004301
# 3 -0.006340 -0.006340 0.007501 0.000000 0.000000 0.000000
# 4 0.000000 0.000000 0.000000 0.015680 0.000000 0.000000
# 5 0.000000 0.000000 0.000000 0.000000 0.015680 0.000000
# 6 -0.004301 0.004301 0.000000 0.000000 0.000000 0.033013
#
#
# Mechanical properties :
#
#
# Convention : Reuss Voigt Hill
#
# Bulk Modulus (GPa) = 27.92601 61.76332 44.84467
# Shear Modulus (GPa) = 28.65098 44.82816 36.73957
#
# Velocity S-wave (km/s) = 3.64420 4.55836 4.12667
# Velocity P-wave (km/s) = 5.53635 7.50554 6.59486
#
# Compressibility (1/GPa) = 0.03580891
#
# Stress axis : x y z
#
# Youngs Moduli (GPa) = 33.60961 33.60962 133.32304
#
# Poissons Ratio (x) = 0.09812 0.84525
# Poissons Ratio (y) = 0.09812 0.84525
# Poissons Ratio (z) = 0.21308 0.21308
#
# Static dielectric constant tensor:
#      x y z
#    x 1.786760 0.000000 0.000000 
#    y 0.000000 1.786760 0.000000 
#    z 0.000000 0.000000 1.778950 
# 
# From -- ./inp_files/2086.got.cif
#   From: 2010.05.17/outbox.cif.g08.bks.cpg/sg79_cif.got.tgz:2086.got - 2010.06.03 18:47:27.
