data_PCOD9541539
_publ_section_title
;
Structure prediction by ZEFSAII (Michael W. Deem and Ramdas Pophale) SiO2 
 PCOD9541539
Probable space group: P 42
;
_chemical_formula_sum "Si O2"
_cell_formula_units_Z 18
_cell_length_a 5.273649
_cell_length_b 5.273649
_cell_length_c 26.255614
_cell_angle_alpha 90.000000
_cell_angle_beta 90.000000
_cell_angle_gamma 90.000000
_cell_volume 730.204695
_symmetry_space_group_name_H-M "P 42"
_symmetry_group_IT_number 77
_symmetry_cell_setting 'tetragonal'
loop_
_space_group_symop_operation_xyz
x,y,z
-y,x,1/2+z
-x,-y,z
y,-x,1/2+z
loop_
_atom_site_type_symbol
_atom_site_label
_atom_site_fract_x
_atom_site_fract_y
_atom_site_fract_z
Si Si1 0.829636 0.745953 0.996590
Si Si2 0.825991 0.750195 0.887192
Si Si3 0.750195 0.825991 0.217905
Si Si4 0.829636 0.254047 0.608507
Si Si5 0.500000 0.500000 0.302548
O O1 0.685510 0.764709 0.942497
O O2 0.000000 0.500000 0.991840
O O3 0.711709 0.711708 0.052548
O O4 0.000000 0.000000 0.998252
O O5 0.650047 0.689133 0.839821
O O6 0.000000 0.500000 0.888508
O O7 0.000000 0.000000 0.881376
O O8 0.764709 0.685510 0.162600
O O9 0.689133 0.650047 0.265276
O O10 0.500000 0.000000 0.216589
O O11 0.000000 0.000000 0.223721
O O12 0.000000 0.500000 0.613256
O O13 0.000000 0.000000 0.606845
#
# Coordination Sequence:
#
# PCOD9541539 Si02
#       5
#     4   4   4   4   2
#     4   9  19  43  70 100 138 182 229 299 372 439
#     4  10  24  46  70 101 142 184 244 300 361 441
#     4  10  24  46  70 101 142 184 244 300 361 441
#     4   9  19  43  70 100 138 182 229 299 372 439
#     4  12  26  46  74 104 140 210 242 308 368 436
#
# _framework density 24.650624000000001
#
# number of rings (size 3 to 8) (size 9 to 14) (size 15 to 20)
#    0.000    2.222    0.000    0.667    0.000    7.111 
#   40.000    0.000    0.000    0.000    0.000    0.000 
#    0.000    0.000    0.000    0.000    0.000    0.000 
#
# Total GULP energy -100513.656601 kJ/mol
# GULP energy per Si atom -5584.092033 kJ/mol
# Density = 2.459452 g / cm^3
# Si number density = 24.650624 Si / 1000 Ang^3
#
#
#
# Elastic Constant Matrix: (Units=GPa)
#
#
# Indices 1 2 3 4 5 6 
#
# 1 130.3359 46.3057 67.3597 0.0000 0.0000 0.0000
# 2 46.3057 130.3359 67.3597 0.0000 0.0000 0.0000
# 3 67.3597 67.3597 347.7421 0.0000 0.0000 0.0000
# 4 0.0000 0.0000 0.0000 38.1953 0.0000 0.0000
# 5 0.0000 0.0000 0.0000 0.0000 38.1953 0.0000
# 6 0.0000 0.0000 0.0000 0.0000 0.0000 42.5855
#
#
#
# Elastic Compliance Matrix: (Units=1/GPa)
#
#
# Indices 1 2 3 4 5 6 
#
# 1 0.009271 -0.002629 -0.001287 0.000000 0.000000 0.000000
# 2 -0.002629 0.009271 -0.001287 0.000000 0.000000 0.000000
# 3 -0.001287 -0.001287 0.003374 0.000000 0.000000 0.000000
# 4 0.000000 0.000000 0.000000 0.026181 0.000000 0.000000
# 5 0.000000 0.000000 0.000000 0.000000 0.026181 0.000000
# 6 0.000000 0.000000 0.000000 0.000000 0.000000 0.023482
#
#
# Mechanical properties :
#
#
# Convention : Reuss Voigt Hill
#
# Bulk Modulus (GPa) = 86.86277 107.82935 97.34606
# Shear Modulus (GPa) = 44.64125 52.28780 48.46453
#
# Velocity S-wave (km/s) = 4.26015 4.61060 4.43883
# Velocity P-wave (km/s) = 7.71444 8.49597 8.11462
#
# Compressibility (1/GPa) = 0.01151241
#
# Stress axis : x y z
#
# Youngs Moduli (GPa) = 107.85743 107.85743 296.36882
#
# Poissons Ratio (x) = 0.28356 0.38134
# Poissons Ratio (y) = 0.28356 0.38134
# Poissons Ratio (z) = 0.13878 0.13878
#
# Static dielectric constant tensor:
#      x y z
#    x 1.650770 0.000000 0.000000 
#    y 0.000000 1.650770 0.000000 
#    z 0.000000 0.000000 2.131280 
# 
# From -- ./inp_files/1636.got.cif
#   From: 2010.05.17/outbox.cif.g08.bks.cpg/sg77_cif.got.tgz:1636.got - 2010.06.03 18:44:51.
