data_PCOD9541801
_publ_section_title
;
Structure prediction by ZEFSAII (Michael W. Deem and Ramdas Pophale) SiO2 
 PCOD9541801
Probable space group: I 4
;
_chemical_formula_sum "Si O2"
_cell_formula_units_Z 40
_cell_length_a 17.187067
_cell_length_b 17.187067
_cell_length_c 5.553820
_cell_angle_alpha 90.000000
_cell_angle_beta 90.000000
_cell_angle_gamma 90.000000
_cell_volume 1640.572170
_symmetry_space_group_name_H-M "I 4"
_symmetry_group_IT_number 79
_symmetry_cell_setting 'tetragonal'
loop_
_space_group_symop_operation_xyz
x,y,z
-y,x,z
-x,-y,z
y,-x,z
1/2+x,1/2+y,1/2+z
1/2-y,1/2+x,1/2+z
1/2-x,1/2-y,1/2+z
1/2+y,1/2-x,1/2+z
loop_
_atom_site_type_symbol
_atom_site_label
_atom_site_fract_x
_atom_site_fract_y
_atom_site_fract_z
Si Si1 0.370814 0.104764 0.807420
Si Si2 0.201758 0.761660 0.307419
Si Si3 0.738521 0.502541 0.307421
Si Si4 0.395538 0.108275 0.307421
Si Si5 0.067675 0.213992 0.307421
O O1 0.401247 0.067436 0.561980
O O2 0.401097 0.194371 0.807421
O O3 0.277858 0.087730 0.807421
O O4 0.401246 0.067436 0.052862
O O5 0.250001 0.750000 0.557418
O O6 0.138580 0.693783 0.307423
O O7 0.170533 0.849653 0.307420
O O8 0.814445 0.446623 0.307421
O O9 0.699540 0.479932 0.561315
O O10 0.699540 0.479932 0.053527
#
# Coordination Sequence:
#
# PCOD9541801 Si02
#       5
#     8   8   8   8   8
#     4  10  18  29  43  60  85 110 143 180 213 257
#     4  12  16  30  48  64  88 100 144 188 202 262
#     4  10  18  29  43  60  85 110 143 180 213 257
#     4  10  19  30  45  64  80 114 148 172 217 250
#     4  10  19  30  45  64  80 114 148 172 217 250
#
# _framework density 24.381737999999999
#
# number of rings (size 3 to 8) (size 9 to 14) (size 15 to 20)
#    0.000    1.600    8.000    1.200    0.000    0.000 
#    0.000    0.000    0.000   57.600    0.000    0.000 
#    0.000    0.000    0.000    0.000    0.000  195.000 
#
# Total GULP energy -111569.779819 kJ/mol
# GULP energy per Si atom -5578.488991 kJ/mol
# Density = 2.432624 g / cm^3
# Si number density = 24.381738 Si / 1000 Ang^3
#
#
#
# Elastic Constant Matrix: (Units=GPa)
#
#
# Indices 1 2 3 4 5 6 
#
# 1 60.7283 6.9511 19.6137 0.0000 0.0000 -18.8101
# 2 6.9511 60.7283 19.6137 0.0000 0.0000 18.8101
# 3 19.6137 19.6137 277.2418 0.0000 0.0000 0.0000
# 4 0.0000 0.0000 0.0000 14.1999 0.0000 0.0000
# 5 0.0000 0.0000 0.0000 0.0000 14.1999 0.0000
# 6 -18.8101 18.8101 0.0000 0.0000 0.0000 25.2787
#
#
#
# Elastic Compliance Matrix: (Units=1/GPa)
#
#
# Indices 1 2 3 4 5 6 
#
# 1 0.027096 -0.011689 -0.001090 0.000000 0.000000 0.028860
# 2 -0.011689 0.027096 -0.001090 0.000000 0.000000 -0.028860
# 3 -0.001090 -0.001090 0.003761 0.000000 0.000000 0.000000
# 4 0.000000 0.000000 0.000000 0.070423 0.000000 0.000000
# 5 0.000000 0.000000 0.000000 0.000000 0.070423 0.000000
# 6 0.028860 -0.028860 0.000000 0.000000 0.000000 0.082509
#
#
# Mechanical properties :
#
#
# Convention : Reuss Voigt Hill
#
# Bulk Modulus (GPa) = 33.09529 54.56174 43.82852
# Shear Modulus (GPa) = 15.66824 34.23701 24.95262
#
# Velocity S-wave (km/s) = 2.53775 3.75134 3.20256
# Velocity P-wave (km/s) = 4.71064 6.41795 5.62940
#
# Compressibility (1/GPa) = 0.03021578
#
# Stress axis : x y z
#
# Youngs Moduli (GPa) = 36.90607 36.90607 265.87350
#
# Poissons Ratio (x) = 0.43138 0.28980
# Poissons Ratio (y) = 0.43138 0.28980
# Poissons Ratio (z) = 0.04023 0.04023
#
# Static dielectric constant tensor:
#      x y z
#    x 1.957570 0.000000 0.000000 
#    y 0.000000 1.957570 0.000000 
#    z 0.000000 0.000000 2.041490 
# 
# From -- ./inp_files/183.got.cif
#   From: 2010.05.17/outbox.cif.g08.bks.cpg/sg79_cif.got.tgz:183.got - 2010.06.03 18:47:27.
