data_PCOD9541407
_publ_section_title
;
Structure prediction by ZEFSAII (Michael W. Deem and Ramdas Pophale) SiO2 
 PCOD9541407
Probable space group: P 41
;
_chemical_formula_sum "Si O2"
_cell_formula_units_Z 20
_cell_length_a 8.187619
_cell_length_b 8.187619
_cell_length_c 12.618429
_cell_angle_alpha 90.000000
_cell_angle_beta 90.000000
_cell_angle_gamma 90.000000
_cell_volume 845.902948
_symmetry_space_group_name_H-M "P 41"
_symmetry_group_IT_number 76
_symmetry_cell_setting 'tetragonal'
loop_
_space_group_symop_operation_xyz
x,y,z
-y,x,1/4+z
-x,-y,1/2+z
y,-x,3/4+z
loop_
_atom_site_type_symbol
_atom_site_label
_atom_site_fract_x
_atom_site_fract_y
_atom_site_fract_z
Si Si1 0.514431 0.182859 0.358940
Si Si2 0.847062 0.593939 0.034080
Si Si3 0.694714 0.154419 0.555117
Si Si4 0.258100 0.222380 0.743453
Si Si5 0.158957 0.187446 0.976651
O O1 0.529260 0.178339 0.486189
O O2 0.341332 0.243021 0.315145
O O3 0.686504 0.245256 0.310097
O O4 0.515045 0.997286 0.321590
O O5 0.804384 0.694439 0.136764
O O6 0.895847 0.687463 0.928041
O O7 0.728403 0.450463 0.995768
O O8 0.784206 0.000432 0.497555
O O9 0.198110 0.263419 0.861467
O O10 0.193253 0.036224 0.733122
#
# Coordination Sequence:
#
# PCOD9541407 Si02
#       5
#     4   4   4   4   4
#     4  11  27  46  79 114 154 201 260 325 384 476
#     4  11  26  45  74 107 152 194 258 316 388 471
#     4  12  25  51  76 113 154 203 255 323 393 464
#     4  11  27  46  73 109 147 202 250 320 386 468
#     4  11  25  50  76 111 149 198 257 312 395 457
#
# _framework density 23.643377000000001
#
# number of rings (size 3 to 8) (size 9 to 14) (size 15 to 20)
#    0.000    0.800    4.000    2.400   11.200    1.600 
#   10.800    0.000    0.000    0.000    0.000    0.000 
#    0.000    0.000    0.000    0.000    0.000    0.000 
#
# Total GULP energy -111380.555983 kJ/mol
# GULP energy per Si atom -5569.027799 kJ/mol
# Density = 2.358956 g / cm^3
# Si number density = 23.643377 Si / 1000 Ang^3
#
#
#
# Elastic Constant Matrix: (Units=GPa)
#
#
# Indices 1 2 3 4 5 6 
#
# 1 89.0304 17.0298 30.0153 0.0000 0.0000 -43.8719
# 2 17.0298 89.0304 30.0153 0.0000 0.0000 43.8719
# 3 30.0153 30.0153 165.4383 0.0000 0.0000 0.0000
# 4 0.0000 0.0000 0.0000 30.4863 0.0000 0.0000
# 5 0.0000 0.0000 0.0000 0.0000 30.4863 0.0000
# 6 -43.8719 43.8719 0.0000 0.0000 0.0000 82.5704
#
#
#
# Elastic Compliance Matrix: (Units=1/GPa)
#
#
# Indices 1 2 3 4 5 6 
#
# 1 0.024954 -0.014447 -0.001906 0.000000 0.000000 0.020935
# 2 -0.014447 0.024954 -0.001906 0.000000 0.000000 -0.020935
# 3 -0.001906 -0.001906 0.006736 0.000000 0.000000 0.000000
# 4 0.000000 0.000000 0.000000 0.032802 0.000000 0.000000
# 5 0.000000 0.000000 0.000000 0.000000 0.032802 0.000000
# 6 0.020935 -0.020935 0.000000 0.000000 0.000000 0.034357
#
#
# Mechanical properties :
#
#
# Convention : Reuss Voigt Hill
#
# Bulk Modulus (GPa) = 49.68693 55.29109 52.48901
# Shear Modulus (GPa) = 25.02086 46.47119 35.74602
#
# Velocity S-wave (km/s) = 3.25662 4.43821 3.89251
# Velocity P-wave (km/s) = 5.93309 7.04981 6.51542
#
# Compressibility (1/GPa) = 0.02012602
#
# Stress axis : x y z
#
# Youngs Moduli (GPa) = 40.07314 40.07314 148.44945
#
# Poissons Ratio (x) = 0.57893 0.28300
# Poissons Ratio (y) = 0.57893 0.28300
# Poissons Ratio (z) = 0.07640 0.07640
#
# Static dielectric constant tensor:
#      x y z
#    x 2.049950 0.000000 0.000000 
#    y 0.000000 2.049950 0.000000 
#    z 0.000000 0.000000 2.024680 
# 
# From -- ./inp_files/813.got.cif
#   From: 2010.05.17/outbox.cif.g08.bks.cpg/sg76_cif.got.tgz:813.got - 2010.06.03 18:43:17.
