data_PCOD9541941
_publ_section_title
;
Structure prediction by ZEFSAII (Michael W. Deem and Ramdas Pophale) SiO2 
 PCOD9541941
Probable space group: I 4
;
_chemical_formula_sum "Si O2"
_cell_formula_units_Z 48
_cell_length_a 14.127242
_cell_length_b 14.127242
_cell_length_c 10.776919
_cell_angle_alpha 90.000000
_cell_angle_beta 90.000000
_cell_angle_gamma 90.000000
_cell_volume 2150.846356
_symmetry_space_group_name_H-M "I 4"
_symmetry_group_IT_number 79
_symmetry_cell_setting 'tetragonal'
loop_
_space_group_symop_operation_xyz
x,y,z
-y,x,z
-x,-y,z
y,-x,z
1/2+x,1/2+y,1/2+z
1/2-y,1/2+x,1/2+z
1/2-x,1/2-y,1/2+z
1/2+y,1/2-x,1/2+z
loop_
_atom_site_type_symbol
_atom_site_label
_atom_site_fract_x
_atom_site_fract_y
_atom_site_fract_z
Si Si1 0.825627 0.858275 0.690440
Si Si2 0.622741 0.838030 0.079746
Si Si3 0.500000 0.500000 0.247291
Si Si4 0.381284 0.169216 0.795962
Si Si5 0.145111 0.067165 0.432573
Si Si6 0.532798 0.288024 0.665485
Si Si7 0.000000 0.000000 0.086460
Si Si8 0.500000 0.000000 0.198041
O O1 0.868583 0.753291 0.668276
O O2 0.906274 0.928404 0.742281
O O3 0.727563 0.850763 0.763774
O O4 0.799903 0.899368 0.553235
O O5 0.717813 0.900298 0.091406
O O6 0.543384 0.913883 0.118472
O O7 0.612303 0.803179 0.939458
O O8 0.431228 0.242495 0.701529
O O9 0.449472 0.078967 0.780381
O O10 0.193267 0.081108 0.300354
O O11 0.042837 0.116657 0.438692
O O12 0.517972 0.385838 0.596935
#
# Coordination Sequence:
#
# PCOD9541941 Si02
#       8
#     8   8   2   8   8   8   2   4
#     4  12  24  41  69 106 134 173 228 283 340 401
#     4  11  26  45  69 101 138 176 230 279 341 405
#     4  12  24  45  69 100 130 176 229 281 340 390
#     4  11  26  45  68 101 139 179 224 281 340 405
#     4  11  19  37  72 101 130 170 228 285 330 386
#     4  11  23  41  69 105 130 176 226 278 340 394
#     4  12  20  41  73  96 138 164 229 277 328 398
#     4  10  24  50  72  94 130 186 232 278 334 406
#
# _framework density 22.316794000000002
#
# number of rings (size 3 to 8) (size 9 to 14) (size 15 to 20)
#    0.000    0.833    3.333    3.500    4.667    0.000 
#    3.000    7.500    0.000    0.000    0.000    0.000 
#    0.000    0.000    0.000    0.000    0.000    0.000 
#
# Total GULP energy -133717.615482 kJ/mol
# GULP energy per Si atom -5571.567312 kJ/mol
# Density = 2.226600 g / cm^3
# Si number density = 22.316794 Si / 1000 Ang^3
#
#
#
# Elastic Constant Matrix: (Units=GPa)
#
#
# Indices 1 2 3 4 5 6 
#
# 1 116.0944 58.5949 13.9295 0.0000 0.0000 -6.7870
# 2 58.5949 116.0944 13.9295 0.0000 0.0000 6.7870
# 3 13.9295 13.9295 39.0465 0.0000 0.0000 0.0000
# 4 0.0000 0.0000 0.0000 4.0523 0.0000 0.0000
# 5 0.0000 0.0000 0.0000 0.0000 4.0523 0.0000
# 6 -6.7870 6.7870 0.0000 0.0000 0.0000 27.7390
#
#
#
# Elastic Compliance Matrix: (Units=1/GPa)
#
#
# Indices 1 2 3 4 5 6 
#
# 1 0.012264 -0.006194 -0.002165 0.000000 0.000000 0.004516
# 2 -0.006194 0.012264 -0.002165 0.000000 0.000000 -0.004516
# 3 -0.002165 -0.002165 0.027155 0.000000 0.000000 0.000000
# 4 0.000000 0.000000 0.000000 0.246772 0.000000 0.000000
# 5 0.000000 0.000000 0.000000 0.000000 0.246772 0.000000
# 6 0.004516 -0.004516 0.000000 0.000000 0.000000 0.038260
#
#
# Mechanical properties :
#
#
# Convention : Reuss Voigt Hill
#
# Bulk Modulus (GPa) = 32.64386 49.34922 40.99654
# Shear Modulus (GPa) = 8.13343 19.48749 13.81046
#
# Velocity S-wave (km/s) = 1.91114 2.95824 2.49034
# Velocity P-wave (km/s) = 4.41918 5.81629 5.16519
#
# Compressibility (1/GPa) = 0.03063363
#
# Stress axis : x y z
#
# Youngs Moduli (GPa) = 81.54173 81.54173 36.82505
#
# Poissons Ratio (x) = 0.50506 0.07974
# Poissons Ratio (y) = 0.50506 0.07974
# Poissons Ratio (z) = 0.17657 0.17657
#
# Static dielectric constant tensor:
#      x y z
#    x 1.838140 0.000000 0.000000 
#    y 0.000000 1.838140 0.000000 
#    z 0.000000 0.000000 1.934130 
# 
# From -- ./inp_files/1140.got.cif
#   From: 2010.05.17/outbox.cif.g08.bks.cpg/sg79_cif.got.tgz:1140.got - 2010.06.03 18:47:27.
