data_PCOD9541823
_publ_section_title
;
Structure prediction by ZEFSAII (Michael W. Deem and Ramdas Pophale) SiO2 
 PCOD9541823
Probable space group: I 4
;
_chemical_formula_sum "Si O2"
_cell_formula_units_Z 60
_cell_length_a 12.090176
_cell_length_b 12.090176
_cell_length_c 21.809923
_cell_angle_alpha 90.000000
_cell_angle_beta 90.000000
_cell_angle_gamma 90.000000
_cell_volume 3188.007823
_symmetry_space_group_name_H-M "I 4"
_symmetry_group_IT_number 79
_symmetry_cell_setting 'tetragonal'
loop_
_space_group_symop_operation_xyz
x,y,z
-y,x,z
-x,-y,z
y,-x,z
1/2+x,1/2+y,1/2+z
1/2-y,1/2+x,1/2+z
1/2-x,1/2-y,1/2+z
1/2+y,1/2-x,1/2+z
loop_
_atom_site_type_symbol
_atom_site_label
_atom_site_fract_x
_atom_site_fract_y
_atom_site_fract_z
Si Si1 0.260997 0.869282 0.853240
Si Si2 0.942627 0.826055 0.496164
Si Si3 0.402253 0.659238 0.542196
Si Si4 0.500000 0.000000 0.539845
Si Si5 0.911628 0.273952 0.912911
Si Si6 0.140191 0.324241 0.606341
Si Si7 0.863362 0.513453 0.922527
Si Si8 0.565828 0.677633 0.220326
O O1 0.181352 0.767465 0.866971
O O2 0.385564 0.844065 0.876665
O O3 0.238778 0.910374 0.784678
O O4 0.219793 0.971166 0.895777
O O5 0.905015 0.758789 0.554845
O O6 0.067876 0.866564 0.496891
O O7 0.944331 0.748579 0.437090
O O8 0.353796 0.535462 0.543191
O O9 0.379239 0.732334 0.480741
O O10 0.347826 0.730015 0.597022
O O11 0.439667 0.914709 0.584400
O O12 0.590992 0.951839 0.490993
O O13 0.934810 0.405242 0.904040
O O14 0.101849 0.265828 0.668552
O O15 0.437086 0.637520 0.215772
#
# Coordination Sequence:
#
# PCOD9541823 Si02
#       8
#     8   8   8   4   8   8   8   8
#     4  12  23  39  65  91 129 166 216 267 323 382
#     4  10  20  34  57  88 120 163 202 246 314 385
#     4  11  23  38  63  97 132 167 214 267 336 402
#     4  10  20  36  58  90 124 156 202 256 316 384
#     4  12  21  37  64  96 128 167 202 267 331 387
#     4  11  23  40  60  89 126 169 210 269 320 380
#     4  11  21  38  58  93 130 160 197 257 328 389
#     4  11  25  46  65  89 125 169 221 270 324 395
#
# _framework density 18.820530999999999
#
# number of rings (size 3 to 8) (size 9 to 14) (size 15 to 20)
#    0.000    0.933    6.667    1.600    0.000    3.467 
#    2.400    1.333    0.000    0.000    0.000    1.867 
#    0.000    0.000    0.000    0.000    0.000    0.000 
#
# Total GULP energy -167085.732855 kJ/mol
# GULP energy per Si atom -5569.524429 kJ/mol
# Density = 1.877770 g / cm^3
# Si number density = 18.820531 Si / 1000 Ang^3
#
#
#
# Elastic Constant Matrix: (Units=GPa)
#
#
# Indices 1 2 3 4 5 6 
#
# 1 78.0653 16.1086 39.1342 0.0000 0.0000 7.1242
# 2 16.1086 78.0653 39.1342 0.0000 0.0000 -7.1242
# 3 39.1342 39.1342 90.9167 0.0000 0.0000 0.0000
# 4 0.0000 0.0000 0.0000 26.0797 0.0000 0.0000
# 5 0.0000 0.0000 0.0000 0.0000 26.0797 0.0000
# 6 7.1242 -7.1242 0.0000 0.0000 0.0000 42.6565
#
#
#
# Elastic Compliance Matrix: (Units=1/GPa)
#
#
# Indices 1 2 3 4 5 6 
#
# 1 0.016659 -0.000126 -0.007117 0.000000 0.000000 -0.002803
# 2 -0.000126 0.016659 -0.007117 0.000000 0.000000 0.002803
# 3 -0.007117 -0.007117 0.017126 0.000000 0.000000 0.000000
# 4 0.000000 0.000000 0.000000 0.038344 0.000000 0.000000
# 5 0.000000 0.000000 0.000000 0.000000 0.038344 0.000000
# 6 -0.002803 0.002803 0.000000 0.000000 0.000000 0.024379
#
#
# Mechanical properties :
#
#
# Convention : Reuss Voigt Hill
#
# Bulk Modulus (GPa) = 46.02815 48.42234 47.22525
# Shear Modulus (GPa) = 26.67074 29.14120 27.90597
#
# Velocity S-wave (km/s) = 3.76853 3.93921 3.85481
# Velocity P-wave (km/s) = 6.59130 6.81719 6.70520
#
# Compressibility (1/GPa) = 0.02172583
#
# Stress axis : x y z
#
# Youngs Moduli (GPa) = 60.02706 60.02706 58.39206
#
# Poissons Ratio (x) = 0.00756 0.41555
# Poissons Ratio (y) = 0.00756 0.41555
# Poissons Ratio (z) = 0.42719 0.42719
#
# Static dielectric constant tensor:
#      x y z
#    x 1.823410 0.000000 0.000000 
#    y 0.000000 1.823410 0.000000 
#    z 0.000000 0.000000 1.641890 
# 
# From -- ./inp_files/1881.got.cif
#   From: 2010.05.17/outbox.cif.g08.bks.cpg/sg79_cif.got.tgz:1881.got - 2010.06.03 18:47:27.
