data_PCOD9541806
_publ_section_title
;
Structure prediction by ZEFSAII (Michael W. Deem and Ramdas Pophale) SiO2 
 PCOD9541806
Probable space group: I 4
;
_chemical_formula_sum "Si O2"
_cell_formula_units_Z 40
_cell_length_a 16.031221
_cell_length_b 16.031221
_cell_length_c 5.542446
_cell_angle_alpha 90.000000
_cell_angle_beta 90.000000
_cell_angle_gamma 90.000000
_cell_volume 1424.408881
_symmetry_space_group_name_H-M "I 4"
_symmetry_group_IT_number 79
_symmetry_cell_setting 'tetragonal'
loop_
_space_group_symop_operation_xyz
x,y,z
-y,x,z
-x,-y,z
y,-x,z
1/2+x,1/2+y,1/2+z
1/2-y,1/2+x,1/2+z
1/2-x,1/2-y,1/2+z
1/2+y,1/2-x,1/2+z
loop_
_atom_site_type_symbol
_atom_site_label
_atom_site_fract_x
_atom_site_fract_y
_atom_site_fract_z
Si Si1 0.780829 0.714139 0.557190
Si Si2 0.061423 0.328016 0.057196
Si Si3 0.120278 0.135338 0.057190
Si Si4 0.816542 0.527248 0.057196
Si Si5 0.563252 0.661719 0.057190
O O1 0.749999 0.750003 0.307195
O O2 0.722172 0.629294 0.557185
O O3 0.873999 0.754527 0.557189
O O4 0.087270 0.231732 0.057194
O O5 0.146152 0.380706 0.057205
O O6 0.012218 0.348008 0.303714
O O7 0.012222 0.348008 0.810673
O O8 0.082055 0.110336 0.314411
O O9 0.082054 0.110337 0.799970
O O10 0.716444 0.520971 0.057190
#
# Coordination Sequence:
#
# PCOD9541806 Si02
#       5
#     8   8   8   8   8
#     4   8  12  20  34  48  60  72  88 115 152 189
#     4  10  19  28  36  46  61  82 109 137 160 181
#     4   8  14  23  34  47  60  74  94 122 154 186
#     4  10  19  28  36  46  61  82 109 137 160 181
#     4   8  14  23  34  47  60  74  94 122 154 186
#
# _framework density 28.081823
#
# number of rings (size 3 to 8) (size 9 to 14) (size 15 to 20)
#    0.000    3.200    0.000    1.200    0.000    2.400 
#    0.000    0.000    0.000    0.000    0.000    0.000 
#    0.000    0.000    0.000    0.000    0.000    1.000 
#
# Total GULP energy -111548.419958 kJ/mol
# GULP energy per Si atom -5577.420998 kJ/mol
# Density = 2.801791 g / cm^3
# Si number density = 28.081823 Si / 1000 Ang^3
#
#
#
# Elastic Constant Matrix: (Units=GPa)
#
#
# Indices 1 2 3 4 5 6 
#
# 1 93.0024 36.7954 36.6774 0.0000 0.0000 4.7810
# 2 36.7954 93.0024 36.6774 0.0000 0.0000 -4.7810
# 3 36.6774 36.6774 302.5636 0.0000 0.0000 0.0000
# 4 0.0000 0.0000 0.0000 17.3789 0.0000 0.0000
# 5 0.0000 0.0000 0.0000 0.0000 17.3789 0.0000
# 6 4.7810 -4.7810 0.0000 0.0000 0.0000 36.3921
#
#
#
# Elastic Compliance Matrix: (Units=1/GPa)
#
#
# Indices 1 2 3 4 5 6 
#
# 1 0.013235 -0.004964 -0.001003 0.000000 0.000000 -0.002391
# 2 -0.004964 0.013235 -0.001003 0.000000 0.000000 0.002391
# 3 -0.001003 -0.001003 0.003548 0.000000 0.000000 0.000000
# 4 0.000000 0.000000 0.000000 0.057541 0.000000 0.000000
# 5 0.000000 0.000000 0.000000 0.000000 0.057541 0.000000
# 6 -0.002391 0.002391 0.000000 0.000000 0.000000 0.028107
#
#
# Mechanical properties :
#
#
# Convention : Reuss Voigt Hill
#
# Bulk Modulus (GPa) = 62.19085 78.76321 70.47703
# Shear Modulus (GPa) = 25.97358 39.45787 32.71572
#
# Velocity S-wave (km/s) = 3.04456 3.75254 3.41693
# Velocity P-wave (km/s) = 5.87822 6.84719 6.38113
#
# Compressibility (1/GPa) = 0.01607954
#
# Stress axis : x y z
#
# Youngs Moduli (GPa) = 75.56006 75.56006 281.83545
#
# Poissons Ratio (x) = 0.37505 0.28257
# Poissons Ratio (y) = 0.37505 0.28257
# Poissons Ratio (z) = 0.07576 0.07576
#
# Static dielectric constant tensor:
#      x y z
#    x 2.346120 0.000000 0.000000 
#    y 0.000000 2.346120 0.000000 
#    z 0.000000 0.000000 2.351550 
# 
# From -- ./inp_files/181.got.cif
#   From: 2010.05.17/outbox.cif.g08.bks.cpg/sg79_cif.got.tgz:181.got - 2010.06.03 18:47:27.
