data_PCOD9541071
_publ_section_title
;
Structure prediction by ZEFSAII (Michael W. Deem and Ramdas Pophale) SiO2 
 PCOD9541071
Probable space group: P 41
;
_chemical_formula_sum "Si O2"
_cell_formula_units_Z 32
_cell_length_a 18.377362
_cell_length_b 18.377362
_cell_length_c 5.619293
_cell_angle_alpha 90.000000
_cell_angle_beta 90.000000
_cell_angle_gamma 90.000000
_cell_volume 1897.789406
_symmetry_space_group_name_H-M "P 41"
_symmetry_group_IT_number 76
_symmetry_cell_setting 'tetragonal'
loop_
_space_group_symop_operation_xyz
x,y,z
-y,x,1/4+z
-x,-y,1/2+z
y,-x,3/4+z
loop_
_atom_site_type_symbol
_atom_site_label
_atom_site_fract_x
_atom_site_fract_y
_atom_site_fract_z
Si Si1 0.067779 0.414609 0.051100
Si Si2 0.195296 0.354711 0.832721
Si Si3 0.478027 0.822995 0.191726
Si Si4 0.430839 0.581933 0.533824
Si Si5 0.561392 0.921350 0.519045
Si Si6 0.291015 0.467734 0.089777
Si Si7 0.613471 0.779199 0.685934
Si Si8 0.717052 0.330496 0.935256
O O1 0.124718 0.449609 0.234826
O O2 0.992703 0.397663 0.181407
O O3 0.114438 0.348342 0.940335
O O4 0.053673 0.481965 0.868420
O O5 0.183497 0.416638 0.637414
O O6 0.243379 0.293994 0.708647
O O7 0.249992 0.392380 0.024118
O O8 0.544726 0.866310 0.302775
O O9 0.490160 0.741971 0.093348
O O10 0.415148 0.499121 0.605652
O O11 0.455782 0.625837 0.773550
O O12 0.361125 0.626693 0.437303
O O13 0.601166 0.866377 0.697682
O O14 0.259168 0.533712 0.931634
O O15 0.649576 0.755552 0.436818
O O16 0.650883 0.753157 0.931005
#
# Coordination Sequence:
#
# PCOD9541071 Si02
#       8
#     4   4   4   4   4   4   4   4
#     4  10  19  31  54  79 108 129 164 223 284 353
#     4   9  21  36  52  72  95 140 179 220 272 341
#     4  10  17  32  54  73 102 132 161 217 277 356
#     4  11  25  40  49  73  88 129 187 260 306 345
#     4  11  20  32  52  86 106 131 168 218 302 349
#     4  10  20  34  51  66  96 125 170 222 296 338
#     4  12  23  39  55  76 104 137 174 224 283 348
#     4  11  27  40  57  71 101 143 187 230 286 344
#
# _framework density 16.861723000000001
#
# number of rings (size 3 to 8) (size 9 to 14) (size 15 to 20)
#    0.000    1.500    6.250    0.750    7.000    0.000 
#    0.000    0.000    0.000    0.000    0.000    0.000 
#    0.000    0.000    0.000    0.000    0.000    0.000 
#
# Total GULP energy -178335.732214 kJ/mol
# GULP energy per Si atom -5572.991632 kJ/mol
# Density = 1.682335 g / cm^3
# Si number density = 16.861723 Si / 1000 Ang^3
#
#
#
# Elastic Constant Matrix: (Units=GPa)
#
#
# Indices 1 2 3 4 5 6 
#
# 1 79.2761 25.5379 24.9232 0.0000 0.0000 -2.5457
# 2 25.5379 79.2761 24.9232 0.0000 0.0000 2.5457
# 3 24.9232 24.9232 68.5205 0.0000 0.0000 0.0000
# 4 0.0000 0.0000 0.0000 21.9381 0.0000 0.0000
# 5 0.0000 0.0000 0.0000 0.0000 21.9381 0.0000
# 6 -2.5457 2.5457 0.0000 0.0000 0.0000 12.8528
#
#
#
# Elastic Compliance Matrix: (Units=1/GPa)
#
#
# Indices 1 2 3 4 5 6 
#
# 1 0.015250 -0.003714 -0.004196 0.000000 0.000000 0.003756
# 2 -0.003714 0.015250 -0.004196 0.000000 0.000000 -0.003756
# 3 -0.004196 -0.004196 0.017647 0.000000 0.000000 0.000000
# 4 0.000000 0.000000 0.000000 0.045583 0.000000 0.000000
# 5 0.000000 0.000000 0.000000 0.000000 0.045583 0.000000
# 6 0.003756 -0.003756 0.000000 0.000000 0.000000 0.079292
#
#
# Mechanical properties :
#
#
# Convention : Reuss Voigt Hill
#
# Bulk Modulus (GPa) = 41.78027 41.98236 41.88131
# Shear Modulus (GPa) = 19.93651 21.45837 20.69744
#
# Velocity S-wave (km/s) = 3.44227 3.57123 3.50734
# Velocity P-wave (km/s) = 6.37424 6.47742 6.42604
#
# Compressibility (1/GPa) = 0.02393474
#
# Stress axis : x y z
#
# Youngs Moduli (GPa) = 65.57186 65.57186 56.66775
#
# Poissons Ratio (x) = 0.24355 0.23778
# Poissons Ratio (y) = 0.24355 0.23778
# Poissons Ratio (z) = 0.27515 0.27515
#
# Static dielectric constant tensor:
#      x y z
#    x 1.607350 0.000000 0.000000 
#    y 0.000000 1.607350 0.000000 
#    z 0.000000 0.000000 1.694640 
# 
# From -- ./inp_files/328.got.cif
#   From: 2010.05.17/outbox.cif.g08.bks.cpg/sg76_cif.got.tgz:328.got - 2010.06.03 18:43:17.
