data_PCOD9541798
_publ_section_title
;
Structure prediction by ZEFSAII (Michael W. Deem and Ramdas Pophale) SiO2 
 PCOD9541798
Probable space group: I 4
;
_chemical_formula_sum "Si O2"
_cell_formula_units_Z 64
_cell_length_a 20.584815
_cell_length_b 20.584815
_cell_length_c 7.445160
_cell_angle_alpha 90.000000
_cell_angle_beta 90.000000
_cell_angle_gamma 90.000000
_cell_volume 3154.771958
_symmetry_space_group_name_H-M "I 4"
_symmetry_group_IT_number 79
_symmetry_cell_setting 'tetragonal'
loop_
_space_group_symop_operation_xyz
x,y,z
-y,x,z
-x,-y,z
y,-x,z
1/2+x,1/2+y,1/2+z
1/2-y,1/2+x,1/2+z
1/2-x,1/2-y,1/2+z
1/2+y,1/2-x,1/2+z
loop_
_atom_site_type_symbol
_atom_site_label
_atom_site_fract_x
_atom_site_fract_y
_atom_site_fract_z
Si Si1 0.566610 0.241561 0.813770
Si Si2 0.238789 0.571390 0.841076
Si Si3 0.694621 0.301651 0.843409
Si Si4 0.907756 0.438584 0.828626
Si Si5 0.902573 0.584088 0.731565
Si Si6 0.700672 0.692342 0.270963
Si Si7 0.729929 0.075829 0.777312
Si Si8 0.931804 0.288634 0.742773
O O1 0.496157 0.272112 0.794660
O O2 0.625225 0.286974 0.762452
O O3 0.574956 0.174413 0.709182
O O4 0.570555 0.221038 0.025716
O O5 0.274212 0.633637 0.769379
O O6 0.166545 0.566414 0.764835
O O7 0.232208 0.579110 0.057483
O O8 0.744321 0.243810 0.808886
O O9 0.685118 0.307772 0.056830
O O10 0.928610 0.513533 0.794751
O O11 0.935345 0.367595 0.770043
O O12 0.907516 0.435471 0.041705
O O13 0.909520 0.654129 0.830327
O O14 0.628932 0.716307 0.338814
O O15 0.747101 0.629932 0.319407
O O16 0.740090 0.999673 0.817186
#
# Coordination Sequence:
#
# PCOD9541798 Si02
#       8
#     8   8   8   8   8   8   8   8
#     4   9  18  31  51  76 100 138 176 216 266 309
#     4   8  16  31  48  71 103 131 167 213 260 305
#     4  10  17  30  53  73  99 133 174 219 258 311
#     4  10  20  34  52  74 105 141 177 215 254 310
#     4  10  20  36  53  72 106 142 176 211 260 308
#     4  10  19  32  52  74  98 133 174 215 262 311
#     4   9  18  33  50  70 102 134 164 215 261 302
#     4  10  20  33  51  76 101 134 180 216 257 316
#
# _framework density 20.286726000000002
#
# number of rings (size 3 to 8) (size 9 to 14) (size 15 to 20)
#    0.000    2.500    2.500    0.750    0.000    1.500 
#    0.000    3.750    0.000    0.750    0.000    5.250 
#    0.000    0.000    0.000    5.500    0.000    6.750 
#
# Total GULP energy -178186.761240 kJ/mol
# GULP energy per Si atom -5568.336289 kJ/mol
# Density = 2.024055 g / cm^3
# Si number density = 20.286726 Si / 1000 Ang^3
#
#
#
# Elastic Constant Matrix: (Units=GPa)
#
#
# Indices 1 2 3 4 5 6 
#
# 1 105.9218 43.5058 2.5638 0.0000 0.0000 -2.6678
# 2 43.5058 105.9218 2.5638 0.0000 0.0000 2.6678
# 3 2.5638 2.5638 44.9375 0.0000 0.0000 0.0000
# 4 0.0000 0.0000 0.0000 10.3844 0.0000 0.0000
# 5 0.0000 0.0000 0.0000 0.0000 10.3844 0.0000
# 6 -2.6678 2.6678 0.0000 0.0000 0.0000 22.1107
#
#
#
# Elastic Compliance Matrix: (Units=1/GPa)
#
#
# Indices 1 2 3 4 5 6 
#
# 1 0.011447 -0.004742 -0.000383 0.000000 0.000000 0.001953
# 2 -0.004742 0.011447 -0.000383 0.000000 0.000000 -0.001953
# 3 -0.000383 -0.000383 0.022297 0.000000 0.000000 0.000000
# 4 0.000000 0.000000 0.000000 0.096299 0.000000 0.000000
# 5 0.000000 0.000000 0.000000 0.000000 0.096299 0.000000
# 6 0.001953 -0.001953 0.000000 0.000000 0.000000 0.045698
#
#
# Mechanical properties :
#
#
# Convention : Reuss Voigt Hill
#
# Bulk Modulus (GPa) = 29.25926 39.33867 34.29897
# Shear Modulus (GPa) = 16.34565 22.45240 19.39902
#
# Velocity S-wave (km/s) = 2.84162 3.33040 3.09567
# Velocity P-wave (km/s) = 5.02201 5.84997 5.45173
#
# Compressibility (1/GPa) = 0.03417721
#
# Stress axis : x y z
#
# Youngs Moduli (GPa) = 87.35979 87.35979 44.84949
#
# Poissons Ratio (x) = 0.41422 0.01716
# Poissons Ratio (y) = 0.41422 0.01716
# Poissons Ratio (z) = 0.03342 0.03342
#
# Static dielectric constant tensor:
#      x y z
#    x 1.743390 0.000000 0.000000 
#    y 0.000000 1.743390 0.000000 
#    z 0.000000 0.000000 1.786970 
# 
# From -- ./inp_files/789.got.cif
#   From: 2010.05.17/outbox.cif.g08.bks.cpg/sg79_cif.got.tgz:789.got - 2010.06.03 18:47:27.
