data_PCOD9541337
_publ_section_title
;
Structure prediction by ZEFSAII (Michael W. Deem and Ramdas Pophale) SiO2 
 PCOD9541337
Probable space group: P 41
;
_chemical_formula_sum "Si O2"
_cell_formula_units_Z 16
_cell_length_a 5.092134
_cell_length_b 5.092134
_cell_length_c 23.854070
_cell_angle_alpha 90.000000
_cell_angle_beta 90.000000
_cell_angle_gamma 90.000000
_cell_volume 618.531948
_symmetry_space_group_name_H-M "P 41"
_symmetry_group_IT_number 76
_symmetry_cell_setting 'tetragonal'
loop_
_space_group_symop_operation_xyz
x,y,z
-y,x,1/4+z
-x,-y,1/2+z
y,-x,3/4+z
loop_
_atom_site_type_symbol
_atom_site_label
_atom_site_fract_x
_atom_site_fract_y
_atom_site_fract_z
Si Si1 0.268067 0.001289 0.854910
Si Si2 0.369337 0.907951 0.459141
Si Si3 0.040144 0.477947 0.324910
Si Si4 0.594966 0.195968 0.759491
O O1 0.047196 0.777539 0.857529
O O2 0.447505 0.990395 0.798736
O O3 0.470825 0.003700 0.905759
O O4 0.105616 0.272314 0.851865
O O5 0.559972 0.918513 0.512870
O O6 0.269644 0.610635 0.460888
O O7 0.154777 0.123933 0.479978
O O8 0.328891 0.577874 0.306235
#
# Coordination Sequence:
#
# PCOD9541337 Si02
#       4
#     4   4   4   4
#     4  11  20  44  72 101 140 192 232 293 368 422
#     4   9  20  42  69  99 140 189 230 298 360 421
#     4   9  23  39  66 101 139 175 236 290 345 432
#     4   9  21  43  63 105 139 178 236 299 337 439
#
# _framework density 25.867704
#
# number of rings (size 3 to 8) (size 9 to 14) (size 15 to 20)
#    1.500    1.000    0.000    1.500    0.000    4.000 
#    9.000    2.500    0.000    0.000    0.000    0.000 
#    0.000    0.000    0.000    0.000    0.000    0.000 
#
# Total GULP energy -89250.930985 kJ/mol
# GULP energy per Si atom -5578.183187 kJ/mol
# Density = 2.580883 g / cm^3
# Si number density = 25.867704 Si / 1000 Ang^3
#
#
#
# Elastic Constant Matrix: (Units=GPa)
#
#
# Indices 1 2 3 4 5 6 
#
# 1 96.8585 90.1009 16.7015 0.0000 0.0000 -31.4518
# 2 90.1009 96.8585 16.7015 0.0000 0.0000 31.4518
# 3 16.7015 16.7015 57.0819 0.0000 0.0000 0.0000
# 4 0.0000 0.0000 0.0000 26.0296 0.0000 0.0000
# 5 0.0000 0.0000 0.0000 0.0000 26.0296 0.0000
# 6 -31.4518 31.4518 0.0000 0.0000 0.0000 8.5901
#
#
#
# Elastic Compliance Matrix: (Units=1/GPa)
#
#
# Indices 1 2 3 4 5 6 
#
# 1 0.000585 0.005058 -0.001651 0.000000 0.000000 -0.016378
# 2 0.005058 0.000585 -0.001651 0.000000 0.000000 0.016378
# 3 -0.001651 -0.001651 0.018485 0.000000 0.000000 0.000000
# 4 0.000000 0.000000 0.000000 0.038418 0.000000 0.000000
# 5 0.000000 0.000000 0.000000 0.000000 0.038418 0.000000
# 6 -0.016378 0.016378 0.000000 0.000000 0.000000 -0.003519
#
#
# Mechanical properties :
#
#
# Convention : Reuss Voigt Hill
#
# Bulk Modulus (GPa) = 43.16418 55.31185 49.23802
# Shear Modulus (GPa) = 51.44920 20.61619 36.03269
#
# Velocity S-wave (km/s) = 4.46459 2.82616 3.73629
# Velocity P-wave (km/s) = 6.58023 5.66379 6.13914
#
# Compressibility (1/GPa) = 0.02316736
#
# Stress axis : x y z
#
# Youngs Moduli (GPa) = 1708.42823 1708.42823 54.09790
#
# Poissons Ratio (x) = -8.64200 0.08933
# Poissons Ratio (y) = -8.64200 0.08933
# Poissons Ratio (z) = 2.82114 2.82114
#
# Static dielectric constant tensor:
#      x y z
#    x 2.053170 0.000000 0.000000 
#    y 0.000000 2.053170 0.000000 
#    z 0.000000 0.000000 2.043650 
# 
# From -- ./inp_files/1332.got.cif
#   From: 2010.05.17/outbox.cif.g08.bks.cpg/sg76_cif.got.tgz:1332.got - 2010.06.03 18:43:17.
