data_PCOD9541976
_publ_section_title
;
Structure prediction by ZEFSAII (Michael W. Deem and Ramdas Pophale) SiO2 
 PCOD9541976
Probable space group: I 4
;
_chemical_formula_sum "Si O2"
_cell_formula_units_Z 32
_cell_length_a 9.792940
_cell_length_b 9.792940
_cell_length_c 12.783575
_cell_angle_alpha 90.000000
_cell_angle_beta 90.000000
_cell_angle_gamma 90.000000
_cell_volume 1225.966240
_symmetry_space_group_name_H-M "I 4"
_symmetry_group_IT_number 79
_symmetry_cell_setting 'tetragonal'
loop_
_space_group_symop_operation_xyz
x,y,z
-y,x,z
-x,-y,z
y,-x,z
1/2+x,1/2+y,1/2+z
1/2-y,1/2+x,1/2+z
1/2-x,1/2-y,1/2+z
1/2+y,1/2-x,1/2+z
loop_
_atom_site_type_symbol
_atom_site_label
_atom_site_fract_x
_atom_site_fract_y
_atom_site_fract_z
Si Si1 0.492725 0.164141 0.741840
Si Si2 0.906759 0.203292 0.030564
Si Si3 0.007275 0.335859 0.474618
Si Si4 0.203292 0.093241 0.685894
O O1 0.566691 0.250249 0.651732
O O2 0.540076 0.197533 0.858229
O O3 0.500000 0.000000 0.724399
O O4 0.328885 0.172734 0.735284
O O5 0.827561 0.064638 0.002514
O O6 0.827266 0.328885 0.981174
O O7 0.933309 0.249751 0.564726
O O8 0.000000 0.500000 0.492059
O O9 0.172439 0.935362 0.713944
#
# Coordination Sequence:
#
# PCOD9541976 Si02
#       4
#     8   8   8   8
#     4  11  23  40  64  93 126 166 210 258 316 376
#     4  11  23  42  66  92 127 167 210 260 316 377
#     4  11  23  40  64  93 126 166 210 258 316 376
#     4  11  23  42  66  92 127 167 210 260 316 377
#
# _framework density 26.101861
#
# number of rings (size 3 to 8) (size 9 to 14) (size 15 to 20)
#    0.000    1.000    5.000    1.500    0.000    4.000 
#    0.000    5.000    0.000    0.000    0.000    0.000 
#    0.000    0.000    0.000    0.000    0.000    0.000 
#
# Total GULP energy -89443.221401 kJ/mol
# GULP energy per Si atom -5590.201338 kJ/mol
# Density = 2.604245 g / cm^3
# Si number density = 26.101861 Si / 1000 Ang^3
#
#
#
# Elastic Constant Matrix: (Units=GPa)
#
#
# Indices 1 2 3 4 5 6 
#
# 1 93.5789 20.8057 -7.2673 0.0000 0.0000 0.2758
# 2 20.8057 93.5789 -7.2673 0.0000 0.0000 -0.2758
# 3 -7.2673 -7.2673 136.6888 0.0000 0.0000 0.0000
# 4 0.0000 0.0000 0.0000 3.9047 0.0000 0.0000
# 5 0.0000 0.0000 0.0000 0.0000 3.9047 0.0000
# 6 0.2758 -0.2758 0.0000 0.0000 0.0000 39.2822
#
#
#
# Elastic Compliance Matrix: (Units=1/GPa)
#
#
# Indices 1 2 3 4 5 6 
#
# 1 0.011272 -0.002470 0.000468 0.000000 0.000000 -0.000096
# 2 -0.002470 0.011272 0.000468 0.000000 0.000000 0.000096
# 3 0.000468 0.000468 0.007366 0.000000 0.000000 0.000000
# 4 0.000000 0.000000 0.000000 0.256104 0.000000 0.000000
# 5 0.000000 0.000000 0.000000 0.000000 0.256104 0.000000
# 6 -0.000096 0.000096 0.000000 0.000000 0.000000 0.025458
#
#
# Mechanical properties :
#
#
# Convention : Reuss Voigt Hill
#
# Bulk Modulus (GPa) = 37.25597 37.37651 37.31624
# Shear Modulus (GPa) = 8.62677 30.59001 19.60839
#
# Velocity S-wave (km/s) = 1.81995 3.42709 2.74382
# Velocity P-wave (km/s) = 4.32673 5.47818 4.93614
#
# Compressibility (1/GPa) = 0.02684134
#
# Stress axis : x y z
#
# Youngs Moduli (GPa) = 88.71552 88.71552 135.76533
#
# Poissons Ratio (x) = 0.21913 -0.06353
# Poissons Ratio (y) = 0.21913 -0.06353
# Poissons Ratio (z) = -0.04152 -0.04152
#
# Static dielectric constant tensor:
#      x y z
#    x 2.119540 0.000000 0.000000 
#    y 0.000000 2.119540 0.000000 
#    z 0.000000 0.000000 2.065240 
# 
# From -- ./inp_files/900.got.cif
#   From: 2010.05.17/outbox.cif.g08.bks.cpg/sg79_cif.got.tgz:900.got - 2010.06.03 18:47:27.
