data_PCOD9541834
_publ_section_title
;
Structure prediction by ZEFSAII (Michael W. Deem and Ramdas Pophale) SiO2 
 PCOD9541834
Probable space group: I 4
;
_chemical_formula_sum "Si O2"
_cell_formula_units_Z 48
_cell_length_a 13.866954
_cell_length_b 13.866954
_cell_length_c 12.971918
_cell_angle_alpha 90.000000
_cell_angle_beta 90.000000
_cell_angle_gamma 90.000000
_cell_volume 2494.401417
_symmetry_space_group_name_H-M "I 4"
_symmetry_group_IT_number 79
_symmetry_cell_setting 'tetragonal'
loop_
_space_group_symop_operation_xyz
x,y,z
-y,x,z
-x,-y,z
y,-x,z
1/2+x,1/2+y,1/2+z
1/2-y,1/2+x,1/2+z
1/2-x,1/2-y,1/2+z
1/2+y,1/2-x,1/2+z
loop_
_atom_site_type_symbol
_atom_site_label
_atom_site_fract_x
_atom_site_fract_y
_atom_site_fract_z
Si Si1 0.058958 0.732705 0.182450
Si Si2 0.112280 0.535264 0.265802
Si Si3 0.381461 0.779030 0.137529
Si Si4 0.112460 0.530291 0.505392
Si Si5 0.121305 0.108566 0.474298
Si Si6 0.647546 0.710523 0.762791
O O1 0.112964 0.648192 0.243666
O O2 0.126013 0.825381 0.182787
O O3 0.961925 0.757290 0.244064
O O4 0.033765 0.683925 0.074145
O O5 0.187783 0.480266 0.193056
O O6 0.132892 0.518262 0.385366
O O7 0.000000 0.500000 0.247335
O O8 0.302142 0.791530 0.226619
O O9 0.371841 0.861836 0.049109
O O10 0.368601 0.678159 0.079306
O O11 0.000000 0.500000 0.520107
O O12 0.162836 0.166508 0.376051
O O13 0.007468 0.130972 0.468730
#
# Coordination Sequence:
#
# PCOD9541834 Si02
#       6
#     8   8   8   8   8   8
#     4  11  21  40  60  93 129 170 217 271 320 389
#     4  11  20  39  63  92 131 168 214 279 332 378
#     4  11  23  39  62 101 123 170 226 269 330 392
#     4  10  20  35  61  91 128 164 210 274 340 372
#     4  11  25  44  65  93 134 179 214 265 332 398
#     4  11  23  39  65  92 130 173 221 263 324 388
#
# _framework density 19.243093999999999
#
# number of rings (size 3 to 8) (size 9 to 14) (size 15 to 20)
#    0.000    1.167    6.667    1.000    2.333    1.667 
#    0.000    0.000    0.000    0.000    0.000    0.000 
#    0.000    0.000    0.000    0.000    0.000    0.000 
#
# Total GULP energy -133872.536532 kJ/mol
# GULP energy per Si atom -5578.022355 kJ/mol
# Density = 1.919930 g / cm^3
# Si number density = 19.243094 Si / 1000 Ang^3
#
#
#
# Elastic Constant Matrix: (Units=GPa)
#
#
# Indices 1 2 3 4 5 6 
#
# 1 66.2755 45.8624 46.7841 0.0000 0.0000 14.0163
# 2 45.8624 66.2755 46.7841 0.0000 0.0000 -14.0163
# 3 46.7841 46.7841 117.0705 0.0000 0.0000 0.0000
# 4 0.0000 0.0000 0.0000 26.6896 0.0000 0.0000
# 5 0.0000 0.0000 0.0000 0.0000 26.6896 0.0000
# 6 14.0163 -14.0163 0.0000 0.0000 0.0000 27.3274
#
#
#
# Elastic Compliance Matrix: (Units=1/GPa)
#
#
# Indices 1 2 3 4 5 6 
#
# 1 0.089539 -0.076160 -0.005346 0.000000 0.000000 -0.084988
# 2 -0.076160 0.089539 -0.005346 0.000000 0.000000 0.084988
# 3 -0.005346 -0.005346 0.012815 0.000000 0.000000 0.000000
# 4 0.000000 0.000000 0.000000 0.037468 0.000000 0.000000
# 5 0.000000 0.000000 0.000000 0.000000 0.037468 0.000000
# 6 -0.084988 0.084988 0.000000 0.000000 0.000000 0.123774
#
#
# Mechanical properties :
#
#
# Convention : Reuss Voigt Hill
#
# Bulk Modulus (GPa) = 54.98552 58.72030 56.85291
# Shear Modulus (GPa) = 8.76623 23.48736 16.12680
#
# Velocity S-wave (km/s) = 2.13668 3.49744 2.89806
# Velocity P-wave (km/s) = 5.89266 6.84768 6.38804
#
# Compressibility (1/GPa) = 0.01818661
#
# Stress axis : x y z
#
# Youngs Moduli (GPa) = 11.16835 11.16835 78.03367
#
# Poissons Ratio (x) = 0.85058 0.41720
# Poissons Ratio (y) = 0.85058 0.41720
# Poissons Ratio (z) = 0.05971 0.05971
#
# Static dielectric constant tensor:
#      x y z
#    x 1.711770 0.000000 0.000000 
#    y 0.000000 1.711770 0.000000 
#    z 0.000000 0.000000 1.666500 
# 
# From -- ./inp_files/1072.got.cif
#   From: 2010.05.17/outbox.cif.g08.bks.cpg/sg79_cif.got.tgz:1072.got - 2010.06.03 18:47:27.
