data_PCOD9541638
_publ_section_title
;
Structure prediction by ZEFSAII (Michael W. Deem and Ramdas Pophale) SiO2 
 PCOD9541638
Probable space group: P 43
;
_chemical_formula_sum "Si O2"
_cell_formula_units_Z 28
_cell_length_a 8.604552
_cell_length_b 8.604552
_cell_length_c 14.318233
_cell_angle_alpha 90.000000
_cell_angle_beta 90.000000
_cell_angle_gamma 90.000000
_cell_volume 1060.097847
_symmetry_space_group_name_H-M "P 43"
_symmetry_group_IT_number 78
_symmetry_cell_setting 'tetragonal'
loop_
_space_group_symop_operation_xyz
x,y,z
-y,x,3/4+z
-x,-y,1/2+z
y,-x,1/4+z
loop_
_atom_site_type_symbol
_atom_site_label
_atom_site_fract_x
_atom_site_fract_y
_atom_site_fract_z
Si Si1 0.993567 0.860924 0.995580
Si Si2 0.900687 0.455659 0.428090
Si Si3 0.768141 0.143223 0.969317
Si Si4 0.854678 0.591476 0.067913
Si Si5 0.039999 0.709783 0.316011
Si Si6 0.349971 0.645499 0.640600
Si Si7 0.687115 0.616352 0.558199
O O1 0.909619 0.232387 0.919090
O O2 0.142039 0.957816 0.023918
O O3 0.944694 0.750773 0.082933
O O4 0.845201 0.970841 0.972886
O O5 0.941466 0.554637 0.336587
O O6 0.738749 0.498908 0.477159
O O7 0.021529 0.505782 0.509321
O O8 0.947056 0.274211 0.424099
O O9 0.715858 0.229158 0.064492
O O10 0.634016 0.187817 0.893558
O O11 0.771721 0.493888 0.145482
O O12 0.724083 0.628421 0.990129
O O13 0.206694 0.679926 0.268162
O O14 0.518220 0.590791 0.603170
#
# Coordination Sequence:
#
# PCOD9541638 Si02
#       7
#     4   4   4   4   4   4   4
#     4  10  23  38  68 108 136 180 242 296 358 428
#     4  10  21  42  61 107 136 184 233 295 353 438
#     4  10  22  38  70 102 135 190 233 306 346 439
#     4  10  24  41  72 100 143 190 243 297 367 450
#     4  10  20  41  63 101 134 183 231 294 352 431
#     4  12  20  47  68 106 141 196 241 291 385 438
#     4  10  22  39  70 100 137 185 237 293 365 442
#
# _framework density 26.412659000000001
#
# number of rings (size 3 to 8) (size 9 to 14) (size 15 to 20)
#    1.714    0.000    4.286    0.857    4.000    1.143 
#    0.000    4.286    0.000    0.000    0.000    0.000 
#    0.000    0.000    0.000    0.000    0.000    0.000 
#
# Total GULP energy -156166.152049 kJ/mol
# GULP energy per Si atom -5577.362573 kJ/mol
# Density = 2.635254 g / cm^3
# Si number density = 26.412659 Si / 1000 Ang^3
#
#
#
# Elastic Constant Matrix: (Units=GPa)
#
#
# Indices 1 2 3 4 5 6 
#
# 1 85.7905 54.2093 30.3298 0.0000 0.0000 -2.4922
# 2 54.2093 85.7905 30.3298 0.0000 0.0000 2.4922
# 3 30.3298 30.3298 79.2858 0.0000 0.0000 0.0000
# 4 0.0000 0.0000 0.0000 26.3379 0.0000 0.0000
# 5 0.0000 0.0000 0.0000 0.0000 26.3379 0.0000
# 6 -2.4922 2.4922 0.0000 0.0000 0.0000 26.4482
#
#
#
# Elastic Compliance Matrix: (Units=1/GPa)
#
#
# Indices 1 2 3 4 5 6 
#
# 1 0.020352 -0.011790 -0.003275 0.000000 0.000000 0.003029
# 2 -0.011790 0.020352 -0.003275 0.000000 0.000000 -0.003029
# 3 -0.003275 -0.003275 0.015118 0.000000 0.000000 0.000000
# 4 0.000000 0.000000 0.000000 0.037968 0.000000 0.000000
# 5 0.000000 0.000000 0.000000 0.000000 0.037968 0.000000
# 6 0.003029 -0.003029 0.000000 0.000000 0.000000 0.038381
#
#
# Mechanical properties :
#
#
# Convention : Reuss Voigt Hill
#
# Bulk Modulus (GPa) = 52.24308 53.40050 52.82179
# Shear Modulus (GPa) = 23.45197 24.89131 24.17164
#
# Velocity S-wave (km/s) = 2.98301 3.07319 3.02843
# Velocity P-wave (km/s) = 5.62912 5.73187 5.68072
#
# Compressibility (1/GPa) = 0.01914129
#
# Stress axis : x y z
#
# Youngs Moduli (GPa) = 49.13468 49.13468 66.14446
#
# Poissons Ratio (x) = 0.57931 0.21664
# Poissons Ratio (y) = 0.57931 0.21664
# Poissons Ratio (z) = 0.16093 0.16093
#
# Static dielectric constant tensor:
#      x y z
#    x 2.105320 0.000000 0.000000 
#    y 0.000000 2.105320 0.000000 
#    z 0.000000 0.000000 2.110890 
# 
# From -- ./inp_files/1428.got.cif
#   From: 2010.05.17/outbox.cif.g08.bks.cpg/sg78_cif.got.tgz:1428.got - 2010.06.03 18:45:56.
