data_PCOD9541194
_publ_section_title
;
Structure prediction by ZEFSAII (Michael W. Deem and Ramdas Pophale) SiO2 
 PCOD9541194
Probable space group: P 41
;
_chemical_formula_sum "Si O2"
_cell_formula_units_Z 28
_cell_length_a 8.250521
_cell_length_b 8.250521
_cell_length_c 18.821291
_cell_angle_alpha 90.000000
_cell_angle_beta 90.000000
_cell_angle_gamma 90.000000
_cell_volume 1281.185921
_symmetry_space_group_name_H-M "P 41"
_symmetry_group_IT_number 76
_symmetry_cell_setting 'tetragonal'
loop_
_space_group_symop_operation_xyz
x,y,z
-y,x,1/4+z
-x,-y,1/2+z
y,-x,3/4+z
loop_
_atom_site_type_symbol
_atom_site_label
_atom_site_fract_x
_atom_site_fract_y
_atom_site_fract_z
Si Si1 0.868481 0.159788 0.875000
Si Si2 0.254492 0.700438 0.509400
Si Si3 0.160428 0.029080 0.137624
Si Si4 0.580834 0.841092 0.532105
Si Si5 0.213517 0.136831 0.902889
Si Si6 0.453979 0.206866 0.529936
Si Si7 0.625365 0.270514 0.669240
O O1 0.772785 0.160711 0.949400
O O2 0.788427 0.277565 0.818660
O O3 0.045068 0.234661 0.895445
O O4 0.919392 0.980978 0.849294
O O5 0.430037 0.723722 0.545078
O O6 0.128331 0.715979 0.573559
O O7 0.245227 0.536689 0.465234
O O8 0.040135 0.151154 0.179013
O O9 0.268296 0.893252 0.174904
O O10 0.278069 0.136527 0.089566
O O11 0.662614 0.791621 0.458021
O O12 0.509273 0.022093 0.523986
O O13 0.574716 0.288715 0.586781
O O14 0.423464 0.285436 0.453872
#
# Coordination Sequence:
#
# PCOD9541194 Si02
#       7
#     4   4   4   4   4   4   4
#     4   9  20  38  68  85 117 163 221 270 300 381
#     4  11  22  39  62  93 124 170 205 254 331 393
#     4   9  21  38  62  95 118 158 216 270 308 365
#     4  11  21  39  61  92 127 159 209 269 322 382
#     4  10  22  37  65  93 117 160 216 270 312 363
#     4  10  21  42  63  93 126 171 218 269 328 389
#     4  10  23  39  65  89 133 173 213 262 327 397
#
# _framework density 21.854749999999999
#
# number of rings (size 3 to 8) (size 9 to 14) (size 15 to 20)
#    0.857    1.143    1.429    1.714    6.000    0.000 
#    2.571    0.000    0.000    0.000    0.000    0.000 
#    0.000    0.000    0.000    0.000    0.000    0.000 
#
# Total GULP energy -156034.400502 kJ/mol
# GULP energy per Si atom -5572.657161 kJ/mol
# Density = 2.180501 g / cm^3
# Si number density = 21.854750 Si / 1000 Ang^3
#
#
#
# Elastic Constant Matrix: (Units=GPa)
#
#
# Indices 1 2 3 4 5 6 
#
# 1 55.8917 3.9928 1.5181 0.0000 0.0000 3.3502
# 2 3.9928 55.8917 1.5181 0.0000 0.0000 -3.3502
# 3 1.5181 1.5181 43.1052 0.0000 0.0000 0.0000
# 4 0.0000 0.0000 0.0000 29.3169 0.0000 0.0000
# 5 0.0000 0.0000 0.0000 0.0000 29.3169 0.0000
# 6 3.3502 -3.3502 0.0000 0.0000 0.0000 16.0449
#
#
#
# Elastic Compliance Matrix: (Units=1/GPa)
#
#
# Indices 1 2 3 4 5 6 
#
# 1 0.018265 -0.001537 -0.000589 0.000000 0.000000 -0.004135
# 2 -0.001537 0.018265 -0.000589 0.000000 0.000000 0.004135
# 3 -0.000589 -0.000589 0.023241 0.000000 0.000000 0.000000
# 4 0.000000 0.000000 0.000000 0.034110 0.000000 0.000000
# 5 0.000000 0.000000 0.000000 0.000000 0.034110 0.000000
# 6 -0.004135 0.004135 0.000000 0.000000 0.000000 0.064052
#
#
# Mechanical properties :
#
#
# Convention : Reuss Voigt Hill
#
# Bulk Modulus (GPa) = 18.40222 18.77185 18.58703
# Shear Modulus (GPa) = 23.19252 24.79306 23.99279
#
# Velocity S-wave (km/s) = 3.26116 3.37181 3.31695
# Velocity P-wave (km/s) = 4.75591 4.87512 4.81589
#
# Compressibility (1/GPa) = 0.05434128
#
# Stress axis : x y z
#
# Youngs Moduli (GPa) = 54.74848 54.74848 43.02818
#
# Poissons Ratio (x) = 0.08413 0.02535
# Poissons Ratio (y) = 0.08413 0.02535
# Poissons Ratio (z) = 0.03226 0.03226
#
# Static dielectric constant tensor:
#      x y z
#    x 1.835450 0.000000 0.000000 
#    y 0.000000 1.835450 0.000000 
#    z 0.000000 0.000000 1.823240 
# 
# From -- ./inp_files/1297.got.cif
#   From: 2010.05.17/outbox.cif.g08.bks.cpg/sg76_cif.got.tgz:1297.got - 2010.06.03 18:43:17.
