data_PCOD9541301
_publ_section_title
;
Structure prediction by ZEFSAII (Michael W. Deem and Ramdas Pophale) SiO2 
 PCOD9541301
Probable space group: P 41
;
_chemical_formula_sum "Si O2"
_cell_formula_units_Z 24
_cell_length_a 9.418114
_cell_length_b 9.418114
_cell_length_c 11.335229
_cell_angle_alpha 90.000000
_cell_angle_beta 90.000000
_cell_angle_gamma 90.000000
_cell_volume 1005.444689
_symmetry_space_group_name_H-M "P 41"
_symmetry_group_IT_number 76
_symmetry_cell_setting 'tetragonal'
loop_
_space_group_symop_operation_xyz
x,y,z
-y,x,1/4+z
-x,-y,1/2+z
y,-x,3/4+z
loop_
_atom_site_type_symbol
_atom_site_label
_atom_site_fract_x
_atom_site_fract_y
_atom_site_fract_z
Si Si1 0.675972 0.134953 0.689390
Si Si2 0.814763 0.982596 0.052234
Si Si3 0.791118 0.609352 0.181237
Si Si4 0.018563 0.222026 0.061640
Si Si5 0.855761 0.327211 0.290164
Si Si6 0.607002 0.519975 0.848811
O O1 0.575485 0.142834 0.803777
O O2 0.663493 0.981281 0.633758
O O3 0.627902 0.261548 0.603960
O O4 0.835654 0.167154 0.734845
O O5 0.740299 0.972716 0.179317
O O6 0.968232 0.056472 0.072516
O O7 0.722319 0.100084 0.984637
O O8 0.634542 0.658145 0.144845
O O9 0.778853 0.475669 0.268080
O O10 0.934628 0.294975 0.166158
O O11 0.187877 0.235792 0.068455
O O12 0.561466 0.497290 0.710826
#
# Coordination Sequence:
#
# PCOD9541301 Si02
#       6
#     4   4   4   4   4   4
#     4  11  25  45  70 103 141 185 234 290 354 426
#     4  11  22  44  72  98 134 186 223 285 354 417
#     4  11  27  43  70  97 140 188 231 286 355 421
#     4  10  24  43  71 101 137 176 225 295 346 413
#     4  11  26  42  69 107 139 172 240 291 346 416
#     4  10  26  49  70  98 145 191 239 289 355 425
#
# _framework density 23.870037
#
# number of rings (size 3 to 8) (size 9 to 14) (size 15 to 20)
#    0.000    1.333    1.667    2.000   18.667    1.333 
#    0.000    0.000    0.000    0.000    0.000    0.000 
#    0.000    0.000    0.000    0.000    0.000    0.000 
#
# Total GULP energy -134077.561096 kJ/mol
# GULP energy per Si atom -5586.565046 kJ/mol
# Density = 2.381571 g / cm^3
# Si number density = 23.870037 Si / 1000 Ang^3
#
#
#
# Elastic Constant Matrix: (Units=GPa)
#
#
# Indices 1 2 3 4 5 6 
#
# 1 47.2704 22.0952 -9.2727 0.0000 0.0000 2.6781
# 2 22.0952 47.2704 -9.2727 0.0000 0.0000 -2.6781
# 3 -9.2727 -9.2727 75.3123 0.0000 0.0000 0.0000
# 4 0.0000 0.0000 0.0000 39.7469 0.0000 0.0000
# 5 0.0000 0.0000 0.0000 0.0000 39.7469 0.0000
# 6 2.6781 -2.6781 0.0000 0.0000 0.0000 22.1922
#
#
#
# Elastic Compliance Matrix: (Units=1/GPa)
#
#
# Indices 1 2 3 4 5 6 
#
# 1 0.027838 -0.012931 0.001835 0.000000 0.000000 -0.004920
# 2 -0.012931 0.027838 0.001835 0.000000 0.000000 0.004920
# 3 0.001835 0.001835 0.013730 0.000000 0.000000 0.000000
# 4 0.000000 0.000000 0.000000 0.025159 0.000000 0.000000
# 5 0.000000 0.000000 0.000000 0.000000 0.025159 0.000000
# 6 -0.004920 0.004920 0.000000 0.000000 0.000000 0.046248
#
#
# Mechanical properties :
#
#
# Convention : Reuss Voigt Hill
#
# Bulk Modulus (GPa) = 19.65184 19.66140 19.65662
# Shear Modulus (GPa) = 24.81963 31.42410 28.12187
#
# Velocity S-wave (km/s) = 3.22806 3.63225 3.43611
# Velocity P-wave (km/s) = 4.70580 5.08387 4.89848
#
# Compressibility (1/GPa) = 0.05088583
#
# Stress axis : x y z
#
# Youngs Moduli (GPa) = 35.92257 35.92257 72.83321
#
# Poissons Ratio (x) = 0.46450 -0.13368
# Poissons Ratio (y) = 0.46450 -0.13368
# Poissons Ratio (z) = -0.06593 -0.06593
#
# Static dielectric constant tensor:
#      x y z
#    x 1.938580 0.000000 0.000000 
#    y 0.000000 1.938580 0.000000 
#    z 0.000000 0.000000 1.975280 
# 
# From -- ./inp_files/841.got.cif
#   From: 2010.05.17/outbox.cif.g08.bks.cpg/sg76_cif.got.tgz:841.got - 2010.06.03 18:43:17.
