data_PCOD9541864
_publ_section_title
;
Structure prediction by ZEFSAII (Michael W. Deem and Ramdas Pophale) SiO2 
 PCOD9541864
Probable space group: I 4
;
_chemical_formula_sum "Si O2"
_cell_formula_units_Z 56
_cell_length_a 14.905489
_cell_length_b 14.905489
_cell_length_c 11.639800
_cell_angle_alpha 90.000000
_cell_angle_beta 90.000000
_cell_angle_gamma 90.000000
_cell_volume 2586.056296
_symmetry_space_group_name_H-M "I 4"
_symmetry_group_IT_number 79
_symmetry_cell_setting 'tetragonal'
loop_
_space_group_symop_operation_xyz
x,y,z
-y,x,z
-x,-y,z
y,-x,z
1/2+x,1/2+y,1/2+z
1/2-y,1/2+x,1/2+z
1/2-x,1/2-y,1/2+z
1/2+y,1/2-x,1/2+z
loop_
_atom_site_type_symbol
_atom_site_label
_atom_site_fract_x
_atom_site_fract_y
_atom_site_fract_z
Si Si1 0.855618 0.325068 0.671400
Si Si2 0.798667 0.682195 0.647376
Si Si3 0.305917 0.033730 0.454432
Si Si4 0.735980 0.487092 0.725099
Si Si5 0.364615 0.090296 0.919071
Si Si6 0.128581 0.931141 0.020056
Si Si7 0.894302 0.703534 0.872969
O O1 0.769051 0.264627 0.643114
O O2 0.940868 0.303576 0.589674
O O3 0.820967 0.429179 0.675350
O O4 0.877845 0.313980 0.804706
O O5 0.750301 0.590039 0.688288
O O6 0.833784 0.652414 0.523855
O O7 0.878321 0.706550 0.736788
O O8 0.234673 0.987799 0.364938
O O9 0.317671 0.134878 0.410507
O O10 0.391185 0.971439 0.422807
O O11 0.655633 0.440214 0.654899
O O12 0.340315 0.986234 0.918381
O O13 0.036039 0.883299 0.992443
O O14 0.204031 0.888800 0.940492
#
# Coordination Sequence:
#
# PCOD9541864 Si02
#       7
#     8   8   8   8   8   8   8
#     4  11  23  39  64  93 134 175 218 278 335 424
#     4  11  24  38  63  98 129 176 223 279 344 408
#     4  10  22  39  61  97 127 172 212 276 343 409
#     4  10  21  37  61  93 130 165 220 274 330 403
#     4  11  23  40  62  91 131 173 214 270 347 409
#     4  11  23  40  66  97 130 178 232 280 332 402
#     4  11  23  39  65  93 132 166 221 280 333 417
#
# _framework density 21.654595
#
# number of rings (size 3 to 8) (size 9 to 14) (size 15 to 20)
#    0.000    1.286    2.857    2.143    6.000    0.000 
#    0.000    4.286    0.000    0.000    0.000    0.000 
#    0.000    0.000    0.000    0.000    0.000    0.000 
#
# Total GULP energy -155919.275769 kJ/mol
# GULP energy per Si atom -5568.545563 kJ/mol
# Density = 2.160531 g / cm^3
# Si number density = 21.654595 Si / 1000 Ang^3
#
#
#
# Elastic Constant Matrix: (Units=GPa)
#
#
# Indices 1 2 3 4 5 6 
#
# 1 51.3069 22.2525 38.7091 0.0000 0.0000 -3.5522
# 2 22.2525 51.3069 38.7091 0.0000 0.0000 3.5522
# 3 38.7091 38.7091 185.2119 0.0000 0.0000 0.0000
# 4 0.0000 0.0000 0.0000 25.4783 0.0000 0.0000
# 5 0.0000 0.0000 0.0000 0.0000 25.4783 0.0000
# 6 -3.5522 3.5522 0.0000 0.0000 0.0000 24.3449
#
#
#
# Elastic Compliance Matrix: (Units=1/GPa)
#
#
# Indices 1 2 3 4 5 6 
#
# 1 0.026560 -0.009132 -0.003642 0.000000 0.000000 0.005208
# 2 -0.009132 0.026560 -0.003642 0.000000 0.000000 -0.005208
# 3 -0.003642 -0.003642 0.006922 0.000000 0.000000 0.000000
# 4 0.000000 0.000000 0.000000 0.039249 0.000000 0.000000
# 5 0.000000 0.000000 0.000000 0.000000 0.039249 0.000000
# 6 0.005208 -0.005208 0.000000 0.000000 0.000000 0.042596
#
#
# Mechanical properties :
#
#
# Convention : Reuss Voigt Hill
#
# Bulk Modulus (GPa) = 36.75396 54.12970 45.44183
# Shear Modulus (GPa) = 22.41769 27.60398 25.01084
#
# Velocity S-wave (km/s) = 3.22100 3.57422 3.40220
# Velocity P-wave (km/s) = 5.55363 6.48726 6.03852
#
# Compressibility (1/GPa) = 0.02720795
#
# Stress axis : x y z
#
# Youngs Moduli (GPa) = 37.65091 37.65091 144.47210
#
# Poissons Ratio (x) = 0.34382 0.52623
# Poissons Ratio (y) = 0.34382 0.52623
# Poissons Ratio (z) = 0.13714 0.13714
#
# Static dielectric constant tensor:
#      x y z
#    x 1.827370 0.000000 0.000000 
#    y 0.000000 1.827370 0.000000 
#    z 0.000000 0.000000 1.922590 
# 
# From -- ./inp_files/1157.got.cif
#   From: 2010.05.17/outbox.cif.g08.bks.cpg/sg79_cif.got.tgz:1157.got - 2010.06.03 18:47:27.
