data_PCOD9541931
_publ_section_title
;
Structure prediction by ZEFSAII (Michael W. Deem and Ramdas Pophale) SiO2 
 PCOD9541931
Probable space group: I 4
;
_chemical_formula_sum "Si O2"
_cell_formula_units_Z 48
_cell_length_a 16.423760
_cell_length_b 16.423760
_cell_length_c 7.698196
_cell_angle_alpha 90.000000
_cell_angle_beta 90.000000
_cell_angle_gamma 90.000000
_cell_volume 2076.510562
_symmetry_space_group_name_H-M "I 4"
_symmetry_group_IT_number 79
_symmetry_cell_setting 'tetragonal'
loop_
_space_group_symop_operation_xyz
x,y,z
-y,x,z
-x,-y,z
y,-x,z
1/2+x,1/2+y,1/2+z
1/2-y,1/2+x,1/2+z
1/2-x,1/2-y,1/2+z
1/2+y,1/2-x,1/2+z
loop_
_atom_site_type_symbol
_atom_site_label
_atom_site_fract_x
_atom_site_fract_y
_atom_site_fract_z
Si Si1 0.806634 0.005106 0.375000
Si Si2 0.052585 0.879973 0.063332
Si Si3 0.690580 0.900696 0.990558
Si Si4 0.717492 0.067655 0.032117
Si Si5 0.379227 0.264218 0.164837
Si Si6 0.224146 0.370581 0.111982
O O1 0.876433 0.955829 0.273364
O O2 0.751179 0.937535 0.472257
O O3 0.767121 0.055385 0.212629
O O4 0.816561 0.068941 0.527284
O O5 0.089596 0.790295 0.021506
O O6 0.959435 0.898521 0.003641
O O7 0.247243 0.934299 0.835214
O O8 0.650207 0.822953 0.083250
O O9 0.678628 0.899035 0.785133
O O10 0.658690 0.989293 0.049301
O O11 0.686426 0.158750 0.023495
O O12 0.298363 0.317279 0.184936
#
# Coordination Sequence:
#
# PCOD9541931 Si02
#       6
#     8   8   8   8   8   8
#     4  11  24  44  68 107 144 187 245 302 368 445
#     4  10  23  41  66 101 147 194 232 295 372 443
#     4  11  25  42  72 104 143 186 246 306 368 442
#     4  11  24  44  70 100 148 183 241 303 374 439
#     4  12  25  45  75 109 141 192 251 309 369 446
#     4  12  25  44  74 105 143 195 246 309 370 453
#
# _framework density 23.115704999999998
#
# number of rings (size 3 to 8) (size 9 to 14) (size 15 to 20)
#    0.000    0.833    3.333    4.000    9.333    0.000 
#    0.000    0.833    0.000    2.000    0.000    0.000 
#    0.000    0.000    0.000    0.000    0.000    0.000 
#
# Total GULP energy -133607.265692 kJ/mol
# GULP energy per Si atom -5566.969404 kJ/mol
# Density = 2.306309 g / cm^3
# Si number density = 23.115705 Si / 1000 Ang^3
#
#
#
# Elastic Constant Matrix: (Units=GPa)
#
#
# Indices 1 2 3 4 5 6 
#
# 1 68.4854 3.4112 15.5644 0.0000 0.0000 -3.9264
# 2 3.4112 68.4854 15.5644 0.0000 0.0000 3.9264
# 3 15.5644 15.5644 98.4546 0.0000 0.0000 0.0000
# 4 0.0000 0.0000 0.0000 30.4004 0.0000 0.0000
# 5 0.0000 0.0000 0.0000 0.0000 30.4004 0.0000
# 6 -3.9264 3.9264 0.0000 0.0000 0.0000 7.9499
#
#
#
# Elastic Compliance Matrix: (Units=1/GPa)
#
#
# Indices 1 2 3 4 5 6 
#
# 1 0.015636 -0.000705 -0.002360 0.000000 0.000000 0.008071
# 2 -0.000705 0.015636 -0.002360 0.000000 0.000000 -0.008071
# 3 -0.002360 -0.002360 0.010903 0.000000 0.000000 0.000000
# 4 0.000000 0.000000 0.000000 0.032894 0.000000 0.000000
# 5 0.000000 0.000000 0.000000 0.000000 0.032894 0.000000
# 6 0.008071 -0.008071 0.000000 0.000000 0.000000 0.133759
#
#
# Mechanical properties :
#
#
# Convention : Reuss Voigt Hill
#
# Bulk Modulus (GPa) = 31.92497 33.83391 32.87944
# Shear Modulus (GPa) = 19.01029 27.14250 23.07639
#
# Velocity S-wave (km/s) = 2.87086 3.43038 3.16302
# Velocity P-wave (km/s) = 4.98297 5.50986 5.25303
#
# Compressibility (1/GPa) = 0.03132344
#
# Stress axis : x y z
#
# Youngs Moduli (GPa) = 63.95535 63.95535 91.71575
#
# Poissons Ratio (x) = 0.04509 0.21648
# Poissons Ratio (y) = 0.04509 0.21648
# Poissons Ratio (z) = 0.15096 0.15096
#
# Static dielectric constant tensor:
#      x y z
#    x 1.945860 0.000000 0.000000 
#    y 0.000000 1.945860 0.000000 
#    z 0.000000 0.000000 1.863050 
# 
# From -- ./inp_files/1092.got.cif
#   From: 2010.05.17/outbox.cif.g08.bks.cpg/sg79_cif.got.tgz:1092.got - 2010.06.03 18:47:27.
