data_PCOD9541435
_publ_section_title
;
Structure prediction by ZEFSAII (Michael W. Deem and Ramdas Pophale) SiO2 
 PCOD9541435
Probable space group: P 41
;
_chemical_formula_sum "Si O2"
_cell_formula_units_Z 24
_cell_length_a 9.070281
_cell_length_b 9.070281
_cell_length_c 11.404010
_cell_angle_alpha 90.000000
_cell_angle_beta 90.000000
_cell_angle_gamma 90.000000
_cell_volume 938.207873
_symmetry_space_group_name_H-M "P 41"
_symmetry_group_IT_number 76
_symmetry_cell_setting 'tetragonal'
loop_
_space_group_symop_operation_xyz
x,y,z
-y,x,1/4+z
-x,-y,1/2+z
y,-x,3/4+z
loop_
_atom_site_type_symbol
_atom_site_label
_atom_site_fract_x
_atom_site_fract_y
_atom_site_fract_z
Si Si1 0.797562 0.933402 0.855140
Si Si2 0.436331 0.175321 0.540764
Si Si3 0.177240 0.306000 0.989986
Si Si4 0.471526 0.416268 0.233906
Si Si5 0.689003 0.970704 0.604863
Si Si6 0.849878 0.225288 0.995408
O O1 0.924592 0.823197 0.811158
O O2 0.705531 0.987102 0.744110
O O3 0.866123 0.074398 0.921239
O O4 0.688739 0.851600 0.944581
O O5 0.551360 0.300180 0.504311
O O6 0.533079 0.030051 0.561648
O O7 0.349443 0.215690 0.659522
O O8 0.252102 0.464822 0.996017
O O9 0.187722 0.247665 0.856981
O O10 0.010024 0.287523 0.031142
O O11 0.278030 0.193059 0.062884
O O12 0.537753 0.501935 0.348597
#
# Coordination Sequence:
#
# PCOD9541435 Si02
#       6
#     4   4   4   4   4   4
#     4  12  25  54  82 116 164 208 275 339 407 475
#     4  12  29  47  81 114 165 217 267 328 411 491
#     4  12  28  47  85 120 163 203 276 341 401 482
#     4  12  31  54  78 116 169 220 265 335 411 495
#     4  12  28  47  81 120 157 218 267 335 408 486
#     4  12  25  53  83 120 156 214 272 342 402 475
#
# _framework density 25.580684000000002
#
# number of rings (size 3 to 8) (size 9 to 14) (size 15 to 20)
#    0.000    0.000    3.333    5.000   11.667    1.333 
#    0.000    0.000    0.000    0.000    0.000    0.000 
#    0.000    0.000    0.000    0.000    0.000    0.000 
#
# Total GULP energy -134671.589678 kJ/mol
# GULP energy per Si atom -5611.316237 kJ/mol
# Density = 2.552246 g / cm^3
# Si number density = 25.580684 Si / 1000 Ang^3
#
#
#
# Elastic Constant Matrix: (Units=GPa)
#
#
# Indices 1 2 3 4 5 6 
#
# 1 114.4197 46.4978 14.7703 0.0000 0.0000 -8.0572
# 2 46.4978 114.4197 14.7703 0.0000 0.0000 8.0572
# 3 14.7703 14.7703 119.9954 0.0000 0.0000 0.0000
# 4 0.0000 0.0000 0.0000 38.2261 0.0000 0.0000
# 5 0.0000 0.0000 0.0000 0.0000 38.2261 0.0000
# 6 -8.0572 8.0572 0.0000 0.0000 0.0000 56.0859
#
#
#
# Elastic Compliance Matrix: (Units=1/GPa)
#
#
# Indices 1 2 3 4 5 6 
#
# 1 0.010800 -0.004442 -0.000783 0.000000 0.000000 0.002190
# 2 -0.004442 0.010800 -0.000783 0.000000 0.000000 -0.002190
# 3 -0.000783 -0.000783 0.008526 0.000000 0.000000 0.000000
# 4 0.000000 0.000000 0.000000 0.026160 0.000000 0.000000
# 5 0.000000 0.000000 0.000000 0.000000 0.026160 0.000000
# 6 0.002190 -0.002190 0.000000 0.000000 0.000000 0.018459
#
#
# Mechanical properties :
#
#
# Convention : Reuss Voigt Hill
#
# Bulk Modulus (GPa) = 55.21222 55.65684 55.43453
# Shear Modulus (GPa) = 42.03169 44.69406 43.36287
#
# Velocity S-wave (km/s) = 4.05792 4.18446 4.12168
# Velocity P-wave (km/s) = 6.60197 6.71944 6.66097
#
# Compressibility (1/GPa) = 0.01811193
#
# Stress axis : x y z
#
# Youngs Moduli (GPa) = 92.59114 92.59114 117.28392
#
# Poissons Ratio (x) = 0.41130 0.09179
# Poissons Ratio (y) = 0.41130 0.09179
# Poissons Ratio (z) = 0.07246 0.07246
#
# Static dielectric constant tensor:
#      x y z
#    x 1.967100 0.000000 0.000000 
#    y 0.000000 1.967100 0.000000 
#    z 0.000000 0.000000 2.028550 
# 
# From -- ./inp_files/838.got.cif
#   From: 2010.05.17/outbox.cif.g08.bks.cpg/sg76_cif.got.tgz:838.got - 2010.06.03 18:43:17.
