data_PCOD9541919
_publ_section_title
;
Structure prediction by ZEFSAII (Michael W. Deem and Ramdas Pophale) SiO2 
 PCOD9541919
Probable space group: I 4
;
_chemical_formula_sum "Si O2"
_cell_formula_units_Z 48
_cell_length_a 16.466611
_cell_length_b 16.466611
_cell_length_c 8.497836
_cell_angle_alpha 90.000000
_cell_angle_beta 90.000000
_cell_angle_gamma 90.000000
_cell_volume 2304.182094
_symmetry_space_group_name_H-M "I 4"
_symmetry_group_IT_number 79
_symmetry_cell_setting 'tetragonal'
loop_
_space_group_symop_operation_xyz
x,y,z
-y,x,z
-x,-y,z
y,-x,z
1/2+x,1/2+y,1/2+z
1/2-y,1/2+x,1/2+z
1/2-x,1/2-y,1/2+z
1/2+y,1/2-x,1/2+z
loop_
_atom_site_type_symbol
_atom_site_label
_atom_site_fract_x
_atom_site_fract_y
_atom_site_fract_z
Si Si1 0.715378 0.854312 0.241010
Si Si2 0.756269 0.033279 0.203691
Si Si3 0.264247 0.316594 0.386157
Si Si4 0.888397 0.078438 0.006912
Si Si5 0.121143 0.399006 0.259805
Si Si6 0.128337 0.556446 0.437754
O O1 0.760145 0.940839 0.259245
O O2 0.745346 0.776734 0.338319
O O3 0.622736 0.866361 0.300279
O O4 0.726351 0.832159 0.058221
O O5 0.892086 0.981106 0.989077
O O6 0.839915 0.080835 0.174856
O O7 0.686418 0.078074 0.302027
O O8 0.359025 0.339820 0.396899
O O9 0.215658 0.375797 0.269525
O O10 0.713448 0.036215 0.028827
O O11 0.098144 0.471751 0.372179
O O12 0.094779 0.420376 0.083075
#
# Coordination Sequence:
#
# PCOD9541919 Si02
#       6
#     8   8   8   8   8   8
#     4  12  23  40  68  95 146 184 234 308 359 461
#     4  10  22  43  64 100 138 177 237 290 369 445
#     4  12  22  41  68 102 137 186 241 295 384 440
#     4  11  21  39  70  99 131 181 242 312 348 431
#     4  10  22  44  67  98 141 186 234 302 357 461
#     4  10  22  43  64  99 136 190 233 288 365 440
#
# _framework density 20.831686999999999
#
# number of rings (size 3 to 8) (size 9 to 14) (size 15 to 20)
#    1.000    0.167    5.000    2.000    0.000    2.000 
#    3.000    0.000    0.000    0.000    0.000    0.000 
#   10.000    0.000    0.000    0.000    0.000    0.000 
#
# Total GULP energy -133675.149905 kJ/mol
# GULP energy per Si atom -5569.797913 kJ/mol
# Density = 2.078427 g / cm^3
# Si number density = 20.831687 Si / 1000 Ang^3
#
#
#
# Elastic Constant Matrix: (Units=GPa)
#
#
# Indices 1 2 3 4 5 6 
#
# 1 128.6805 33.8337 35.9602 0.0000 0.0000 -0.0295
# 2 33.8337 128.6805 35.9602 0.0000 0.0000 0.0295
# 3 35.9602 35.9602 49.2466 0.0000 0.0000 0.0000
# 4 0.0000 0.0000 0.0000 41.5737 0.0000 0.0000
# 5 0.0000 0.0000 0.0000 0.0000 41.5737 0.0000
# 6 -0.0295 0.0295 0.0000 0.0000 0.0000 24.3166
#
#
#
# Elastic Compliance Matrix: (Units=1/GPa)
#
#
# Indices 1 2 3 4 5 6 
#
# 1 0.009817 -0.000726 -0.006638 0.000000 0.000000 0.000013
# 2 -0.000726 0.009817 -0.006638 0.000000 0.000000 -0.000013
# 3 -0.006638 -0.006638 0.030001 0.000000 0.000000 0.000000
# 4 0.000000 0.000000 0.000000 0.024054 0.000000 0.000000
# 5 0.000000 0.000000 0.000000 0.000000 0.024054 0.000000
# 6 0.000013 -0.000013 0.000000 0.000000 0.000000 0.041124
#
#
# Mechanical properties :
#
#
# Convention : Reuss Voigt Hill
#
# Bulk Modulus (GPa) = 46.23333 57.56843 51.90088
# Shear Modulus (GPa) = 28.72203 34.88304 31.80253
#
# Velocity S-wave (km/s) = 3.71720 4.09653 3.91147
# Velocity P-wave (km/s) = 6.37694 7.07604 6.73557
#
# Compressibility (1/GPa) = 0.02162942
#
# Stress axis : x y z
#
# Youngs Moduli (GPa) = 101.86171 101.86171 33.33244
#
# Poissons Ratio (x) = 0.07396 0.22127
# Poissons Ratio (y) = 0.07396 0.22127
# Poissons Ratio (z) = 0.67620 0.67620
#
# Static dielectric constant tensor:
#      x y z
#    x 1.804330 0.000000 0.000000 
#    y 0.000000 1.804330 0.000000 
#    z 0.000000 0.000000 1.739040 
# 
# From -- ./inp_files/657.got.cif
#   From: 2010.05.17/outbox.cif.g08.bks.cpg/sg79_cif.got.tgz:657.got - 2010.06.03 18:47:27.
