data_PCOD9541889
_publ_section_title
;
Structure prediction by ZEFSAII (Michael W. Deem and Ramdas Pophale) SiO2 
 PCOD9541889
Probable space group: I 4
;
_chemical_formula_sum "Si O2"
_cell_formula_units_Z 40
_cell_length_a 16.134928
_cell_length_b 16.134928
_cell_length_c 8.762172
_cell_angle_alpha 90.000000
_cell_angle_beta 90.000000
_cell_angle_gamma 90.000000
_cell_volume 2281.107947
_symmetry_space_group_name_H-M "I 4"
_symmetry_group_IT_number 79
_symmetry_cell_setting 'tetragonal'
loop_
_space_group_symop_operation_xyz
x,y,z
-y,x,z
-x,-y,z
y,-x,z
1/2+x,1/2+y,1/2+z
1/2-y,1/2+x,1/2+z
1/2-x,1/2-y,1/2+z
1/2+y,1/2-x,1/2+z
loop_
_atom_site_type_symbol
_atom_site_label
_atom_site_fract_x
_atom_site_fract_y
_atom_site_fract_z
Si Si1 0.617184 0.951402 0.423380
Si Si2 0.160581 0.753271 0.568623
Si Si3 0.253271 0.339419 0.415784
Si Si4 0.117184 0.451402 0.561027
Si Si5 0.406945 0.602512 0.242203
O O1 0.700102 0.904951 0.474171
O O2 0.538890 0.895719 0.476378
O O3 0.613927 0.963500 0.242203
O O4 0.604281 0.038890 0.508029
O O5 0.250000 0.750000 0.492204
O O6 0.164473 0.718190 0.742204
O O7 0.130956 0.847491 0.598712
O O8 0.200102 0.404951 0.510236
O O9 0.347491 0.369045 0.385694
O O10 0.386944 0.505981 0.242203
#
# Coordination Sequence:
#
# PCOD9541889 Si02
#       5
#     8   8   8   8   8
#     4  11  22  37  58  87 126 164 202 251 322 391
#     4  10  22  35  61  89 122 157 206 262 310 369
#     4  10  22  35  61  89 122 157 206 262 310 369
#     4  11  22  37  58  87 126 164 202 251 322 391
#     4   9  22  42  64  87 121 172 217 252 306 377
#
# _framework density 17.535337999999999
#
# number of rings (size 3 to 8) (size 9 to 14) (size 15 to 20)
#    1.200    0.600    0.000    6.000    5.600    0.000 
#    0.000    0.000    0.000    0.000    0.000   11.200 
#    0.000    0.000    0.000    0.000    0.000    0.000 
#
# Total GULP energy -111489.494547 kJ/mol
# GULP energy per Si atom -5574.474727 kJ/mol
# Density = 1.749543 g / cm^3
# Si number density = 17.535338 Si / 1000 Ang^3
#
#
#
# Elastic Constant Matrix: (Units=GPa)
#
#
# Indices 1 2 3 4 5 6 
#
# 1 67.3108 38.9350 10.8860 0.0000 0.0000 -4.5387
# 2 38.9350 67.3108 10.8860 0.0000 0.0000 4.5387
# 3 10.8860 10.8860 90.4791 0.0000 0.0000 0.0000
# 4 0.0000 0.0000 0.0000 33.3119 0.0000 0.0000
# 5 0.0000 0.0000 0.0000 0.0000 33.3119 0.0000
# 6 -4.5387 4.5387 0.0000 0.0000 0.0000 24.3629
#
#
#
# Elastic Compliance Matrix: (Units=1/GPa)
#
#
# Indices 1 2 3 4 5 6 
#
# 1 0.023562 -0.013912 -0.001161 0.000000 0.000000 0.006981
# 2 -0.013912 0.023562 -0.001161 0.000000 0.000000 -0.006981
# 3 -0.001161 -0.001161 0.011332 0.000000 0.000000 0.000000
# 4 0.000000 0.000000 0.000000 0.030019 0.000000 0.000000
# 5 0.000000 0.000000 0.000000 0.000000 0.030019 0.000000
# 6 0.006981 -0.006981 0.000000 0.000000 0.000000 0.043647
#
#
# Mechanical properties :
#
#
# Convention : Reuss Voigt Hill
#
# Bulk Modulus (GPa) = 38.47991 38.50164 38.49078
# Shear Modulus (GPa) = 24.59744 29.15696 26.87720
#
# Velocity S-wave (km/s) = 3.74937 4.08211 3.91928
# Velocity P-wave (km/s) = 6.38244 6.65000 6.51759
#
# Compressibility (1/GPa) = 0.02598758
#
# Stress axis : x y z
#
# Youngs Moduli (GPa) = 42.44065 42.44065 88.24838
#
# Poissons Ratio (x) = 0.59045 0.10246
# Poissons Ratio (y) = 0.59045 0.10246
# Poissons Ratio (z) = 0.04928 0.04928
#
# Static dielectric constant tensor:
#      x y z
#    x 1.587790 0.000000 0.000000 
#    y 0.000000 1.587790 0.000000 
#    z 0.000000 0.000000 1.584710 
# 
# From -- ./inp_files/625.got.cif
#   From: 2010.05.17/outbox.cif.g08.bks.cpg/sg79_cif.got.tgz:625.got - 2010.06.03 18:47:27.
