data_PCOD9541629
_publ_section_title
;
Structure prediction by ZEFSAII (Michael W. Deem and Ramdas Pophale) SiO2 
 PCOD9541629
Probable space group: P 43
;
_chemical_formula_sum "Si O2"
_cell_formula_units_Z 32
_cell_length_a 13.151756
_cell_length_b 13.151756
_cell_length_c 10.156594
_cell_angle_alpha 90.000000
_cell_angle_beta 90.000000
_cell_angle_gamma 90.000000
_cell_volume 1756.772717
_symmetry_space_group_name_H-M "P 43"
_symmetry_group_IT_number 78
_symmetry_cell_setting 'tetragonal'
loop_
_space_group_symop_operation_xyz
x,y,z
-y,x,3/4+z
-x,-y,1/2+z
y,-x,1/4+z
loop_
_atom_site_type_symbol
_atom_site_label
_atom_site_fract_x
_atom_site_fract_y
_atom_site_fract_z
Si Si1 0.199167 0.116868 0.675620
Si Si2 0.216708 0.878655 0.678295
Si Si3 0.604128 0.281614 0.756028
Si Si4 0.634176 0.718721 0.248126
Si Si5 0.295626 0.609127 0.473846
Si Si6 0.906996 0.988292 0.534459
Si Si7 0.284423 0.373761 0.485321
Si Si8 0.206590 0.800241 0.382944
O O1 0.180043 0.134667 0.519569
O O2 0.292227 0.183551 0.729344
O O3 0.092296 0.148776 0.742926
O O4 0.212895 0.998117 0.703481
O O5 0.319779 0.824842 0.726964
O O6 0.207337 0.857542 0.522870
O O7 0.485698 0.254067 0.745514
O O8 0.655052 0.331048 0.626531
O O9 0.613157 0.363972 0.873767
O O10 0.684630 0.194832 0.806450
O O11 0.659841 0.650806 0.121017
O O12 0.272130 0.492557 0.469613
O O13 0.326517 0.649688 0.616704
O O14 0.204915 0.680672 0.420100
O O15 0.836931 0.889947 0.552028
O O16 0.987515 0.963507 0.420476
#
# Coordination Sequence:
#
# PCOD9541629 Si02
#       8
#     4   4   4   4   4   4   4   4
#     4  11  23  40  64  90 127 162 210 255 328 366
#     4  10  22  39  61  91 120 166 199 265 311 380
#     4  10  22  39  63  90 128 161 203 260 311 372
#     4  11  23  39  64  92 129 162 207 262 310 376
#     4   9  20  37  60  86 124 162 203 257 307 375
#     4  12  23  38  64  94 121 164 213 268 317 377
#     4  10  20  38  60  90 124 160 213 248 312 378
#     4   9  23  38  60  91 127 153 216 255 320 368
#
# _framework density 18.215219000000001
#
# number of rings (size 3 to 8) (size 9 to 14) (size 15 to 20)
#    0.750    1.000    1.250    3.000    1.750    3.000 
#    0.000    2.500    5.500    0.000    0.000    0.000 
#    0.000    0.000    0.000    0.000    0.000    0.000 
#
# Total GULP energy -178313.585191 kJ/mol
# GULP energy per Si atom -5572.299537 kJ/mol
# Density = 1.817376 g / cm^3
# Si number density = 18.215219 Si / 1000 Ang^3
#
#
#
# Elastic Constant Matrix: (Units=GPa)
#
#
# Indices 1 2 3 4 5 6 
#
# 1 84.2437 76.4271 27.2312 0.0000 0.0000 -5.9621
# 2 76.4271 84.2437 27.2312 0.0000 0.0000 5.9621
# 3 27.2312 27.2312 108.3873 0.0000 0.0000 0.0000
# 4 0.0000 0.0000 0.0000 9.0286 0.0000 0.0000
# 5 0.0000 0.0000 0.0000 0.0000 9.0286 0.0000
# 6 -5.9621 5.9621 0.0000 0.0000 0.0000 6.4241
#
#
#
# Elastic Compliance Matrix: (Units=1/GPa)
#
#
# Indices 1 2 3 4 5 6 
#
# 1 -0.150450 0.157253 -0.001709 0.000000 0.000000 -0.285571
# 2 0.157253 -0.150450 -0.001709 0.000000 0.000000 0.285571
# 3 -0.001709 -0.001709 0.010085 0.000000 0.000000 0.000000
# 4 0.000000 0.000000 0.000000 0.110759 0.000000 0.000000
# 5 0.000000 0.000000 0.000000 0.000000 0.110759 0.000000
# 6 -0.285571 0.285571 0.000000 0.000000 0.000000 -0.374398
#
#
# Mechanical properties :
#
#
# Convention : Reuss Voigt Hill
#
# Bulk Modulus (GPa) = 59.33101 59.85042 59.59072
# Shear Modulus (GPa) = -6.70471 14.62860 3.96194
#
# Velocity S-wave (km/s) = -1.92063 2.83697 1.47641
# Velocity P-wave (km/s) = 5.26541 6.60756 5.97430
#
# Compressibility (1/GPa) = 0.01685459
#
# Stress axis : x y z
#
# Youngs Moduli (GPa) = -6.64674 -6.64674 99.15671
#
# Poissons Ratio (x) = 1.04522 0.16948
# Poissons Ratio (y) = 1.04522 0.16948
# Poissons Ratio (z) = -0.01136 -0.01136
#
# Static dielectric constant tensor:
#      x y z
#    x 1.626690 0.000000 0.000000 
#    y 0.000000 1.626690 0.000000 
#    z 0.000000 0.000000 1.673290 
# 
# From -- ./inp_files/981.got.cif
#   From: 2010.05.17/outbox.cif.g08.bks.cpg/sg78_cif.got.tgz:981.got - 2010.06.03 18:45:56.
