data_PCOD9541744
_publ_section_title
;
Structure prediction by ZEFSAII (Michael W. Deem and Ramdas Pophale) SiO2 
 PCOD9541744
Probable space group: P 43
;
_chemical_formula_sum "Si O2"
_cell_formula_units_Z 28
_cell_length_a 12.567736
_cell_length_b 12.567736
_cell_length_c 8.895783
_cell_angle_alpha 90.000000
_cell_angle_beta 90.000000
_cell_angle_gamma 90.000000
_cell_volume 1405.071028
_symmetry_space_group_name_H-M "P 43"
_symmetry_group_IT_number 78
_symmetry_cell_setting 'tetragonal'
loop_
_space_group_symop_operation_xyz
x,y,z
-y,x,3/4+z
-x,-y,1/2+z
y,-x,1/4+z
loop_
_atom_site_type_symbol
_atom_site_label
_atom_site_fract_x
_atom_site_fract_y
_atom_site_fract_z
Si Si1 0.293209 0.152548 0.118800
Si Si2 0.979936 0.869099 0.267450
Si Si3 0.167524 0.609173 0.048447
Si Si4 0.595163 0.999302 0.034187
Si Si5 0.641707 0.160760 0.812320
Si Si6 0.194048 0.305163 0.728376
Si Si7 0.495440 0.864011 0.792551
O O1 0.200015 0.064103 0.118371
O O2 0.246814 0.271415 0.107879
O O3 0.382481 0.159743 0.248706
O O4 0.346542 0.127038 0.957262
O O5 0.923318 0.952351 0.382070
O O6 0.887560 0.792534 0.194448
O O7 0.189035 0.483696 0.072718
O O8 0.264650 0.687164 0.011111
O O9 0.089261 0.626422 0.905895
O O10 0.551457 0.090873 0.140162
O O11 0.669890 0.058567 0.914751
O O12 0.507836 0.951340 0.922708
O O13 0.655711 0.143642 0.635595
O O14 0.206647 0.402069 0.612141
#
# Coordination Sequence:
#
# PCOD9541744 Si02
#       7
#     4   4   4   4   4   4   4
#     4  11  25  46  68  98 143 180 231 293 358 413
#     4  12  25  47  66 100 150 192 222 286 366 428
#     4  11  22  44  71  96 133 181 227 291 351 411
#     4  12  21  35  68  98 122 172 232 272 334 410
#     4  11  22  44  71  96 133 181 227 291 351 411
#     4  11  25  46  68  98 143 180 231 293 358 413
#     4  12  22  40  70  96 134 176 236 290 336 424
#
# _framework density 19.927819
#
# number of rings (size 3 to 8) (size 9 to 14) (size 15 to 20)
#    0.000    0.571    7.143    2.571    0.000    2.286 
#    0.000    0.000   12.571    0.000    0.000    0.000 
#    0.000    0.000    0.000    0.000    0.000    0.000 
#
# Total GULP energy -155868.545514 kJ/mol
# GULP energy per Si atom -5566.733768 kJ/mol
# Density = 1.988246 g / cm^3
# Si number density = 19.927819 Si / 1000 Ang^3
#
#
#
# Elastic Constant Matrix: (Units=GPa)
#
#
# Indices 1 2 3 4 5 6 
#
# 1 84.7850 41.5461 30.5102 0.0000 0.0000 0.8098
# 2 41.5461 84.7850 30.5102 0.0000 0.0000 -0.8098
# 3 30.5102 30.5102 89.4924 0.0000 0.0000 0.0000
# 4 0.0000 0.0000 0.0000 33.5419 0.0000 0.0000
# 5 0.0000 0.0000 0.0000 0.0000 33.5419 0.0000
# 6 0.8098 -0.8098 0.0000 0.0000 0.0000 24.8484
#
#
#
# Elastic Compliance Matrix: (Units=1/GPa)
#
#
# Indices 1 2 3 4 5 6 
#
# 1 0.016316 -0.006840 -0.003231 0.000000 0.000000 -0.000755
# 2 -0.006840 0.016316 -0.003231 0.000000 0.000000 0.000755
# 3 -0.003231 -0.003231 0.013377 0.000000 0.000000 0.000000
# 4 0.000000 0.000000 0.000000 0.029813 0.000000 0.000000
# 5 0.000000 0.000000 0.000000 0.000000 0.029813 0.000000
# 6 -0.000755 0.000755 0.000000 0.000000 0.000000 0.040293
#
#
# Mechanical properties :
#
#
# Convention : Reuss Voigt Hill
#
# Bulk Modulus (GPa) = 51.52872 51.57728 51.55300
# Shear Modulus (GPa) = 27.93300 28.81952 28.37626
#
# Velocity S-wave (km/s) = 3.74800 3.80701 3.77762
# Velocity P-wave (km/s) = 6.68160 6.72776 6.70472
#
# Compressibility (1/GPa) = 0.01940665
#
# Stress axis : x y z
#
# Youngs Moduli (GPa) = 61.28996 61.28996 74.75535
#
# Poissons Ratio (x) = 0.41921 0.24151
# Poissons Ratio (y) = 0.41921 0.24151
# Poissons Ratio (z) = 0.19801 0.19801
#
# Static dielectric constant tensor:
#      x y z
#    x 1.761960 0.000000 0.000000 
#    y 0.000000 1.761960 0.000000 
#    z 0.000000 0.000000 1.720570 
# 
# From -- ./inp_files/650.got.cif
#   From: 2010.05.17/outbox.cif.g08.bks.cpg/sg78_cif.got.tgz:650.got - 2010.06.03 18:45:56.
