data_PCOD9541893
_publ_section_title
;
Structure prediction by ZEFSAII (Michael W. Deem and Ramdas Pophale) SiO2 
 PCOD9541893
Probable space group: I 4
;
_chemical_formula_sum "Si O2"
_cell_formula_units_Z 56
_cell_length_a 12.733158
_cell_length_b 12.733158
_cell_length_c 18.519113
_cell_angle_alpha 90.000000
_cell_angle_beta 90.000000
_cell_angle_gamma 90.000000
_cell_volume 3002.565138
_symmetry_space_group_name_H-M "I 4"
_symmetry_group_IT_number 79
_symmetry_cell_setting 'tetragonal'
loop_
_space_group_symop_operation_xyz
x,y,z
-y,x,z
-x,-y,z
y,-x,z
1/2+x,1/2+y,1/2+z
1/2-y,1/2+x,1/2+z
1/2-x,1/2-y,1/2+z
1/2+y,1/2-x,1/2+z
loop_
_atom_site_type_symbol
_atom_site_label
_atom_site_fract_x
_atom_site_fract_y
_atom_site_fract_z
Si Si1 0.216360 0.773676 0.677120
Si Si2 0.892998 0.365594 0.278257
Si Si3 0.404122 0.360573 0.445840
Si Si4 0.095879 0.139427 0.119762
Si Si5 0.377225 0.374173 0.032801
Si Si6 0.134406 0.392998 0.287346
Si Si7 0.273676 0.283640 0.888483
O O1 0.306036 0.842976 0.716461
O O2 0.272684 0.666467 0.653544
O O3 0.173870 0.829008 0.605689
O O4 0.127729 0.731199 0.732140
O O5 0.869188 0.483633 0.308122
O O6 0.872271 0.268801 0.333463
O O7 0.016367 0.369188 0.257481
O O8 0.525591 0.359108 0.424604
O O9 0.400161 0.354243 0.532801
O O10 0.333533 0.272684 0.412059
O O11 0.974409 0.140892 0.140998
O O12 0.501669 0.356606 0.032801
O O13 0.329008 0.326129 0.959914
O O14 0.157024 0.306036 0.349142
#
# Coordination Sequence:
#
# PCOD9541893 Si02
#       7
#     8   8   8   8   8   8   8
#     4  11  20  37  60  80 111 149 184 225 278 329
#     4  10  22  38  56  82 114 148 188 228 268 324
#     4   9  17  30  51  81 113 142 177 221 265 315
#     4   9  17  30  51  81 113 142 177 221 265 315
#     4  11  24  40  58  83 110 138 182 235 284 336
#     4  10  22  38  56  82 114 148 188 228 268 324
#     4  11  20  37  60  80 111 149 184 225 278 329
#
# _framework density 18.65072
#
# number of rings (size 3 to 8) (size 9 to 14) (size 15 to 20)
#    0.000    1.857    1.429    4.286    0.000    0.000 
#    0.000    0.000    0.000   20.571    0.000    0.000 
#    0.000    0.000    0.000    0.000    0.000    0.000 
#
# Total GULP energy -156140.622728 kJ/mol
# GULP energy per Si atom -5576.450812 kJ/mol
# Density = 1.860827 g / cm^3
# Si number density = 18.650720 Si / 1000 Ang^3
#
#
#
# Elastic Constant Matrix: (Units=GPa)
#
#
# Indices 1 2 3 4 5 6 
#
# 1 132.8681 -31.0278 39.3294 0.0000 0.0000 -4.7998
# 2 -31.0278 132.8681 39.3294 0.0000 0.0000 4.7998
# 3 39.3294 39.3294 91.4325 0.0000 0.0000 0.0000
# 4 0.0000 0.0000 0.0000 18.0244 0.0000 0.0000
# 5 0.0000 0.0000 0.0000 0.0000 18.0244 0.0000
# 6 -4.7998 4.7998 0.0000 0.0000 0.0000 29.2282
#
#
#
# Elastic Compliance Matrix: (Units=1/GPa)
#
#
# Indices 1 2 3 4 5 6 
#
# 1 0.010433 0.004272 -0.006325 0.000000 0.000000 0.001012
# 2 0.004272 0.010433 -0.006325 0.000000 0.000000 -0.001012
# 3 -0.006325 -0.006325 0.016379 0.000000 0.000000 0.000000
# 4 0.000000 0.000000 0.000000 0.055480 0.000000 0.000000
# 5 0.000000 0.000000 0.000000 0.000000 0.055480 0.000000
# 6 0.001012 -0.001012 0.000000 0.000000 0.000000 0.034546
#
#
# Mechanical properties :
#
#
# Convention : Reuss Voigt Hill
#
# Bulk Modulus (GPa) = 48.81089 50.27005 49.54047
# Shear Modulus (GPa) = 24.23230 33.69127 28.96178
#
# Velocity S-wave (km/s) = 3.60845 4.25483 3.94490
# Velocity P-wave (km/s) = 6.60220 7.15192 6.88255
#
# Compressibility (1/GPa) = 0.02048723
#
# Stress axis : x y z
#
# Youngs Moduli (GPa) = 95.85256 95.85257 61.05554
#
# Poissons Ratio (x) = -0.40948 0.38619
# Poissons Ratio (y) = -0.40948 0.38619
# Poissons Ratio (z) = 0.60628 0.60628
#
# Static dielectric constant tensor:
#      x y z
#    x 1.629670 0.000000 0.000000 
#    y 0.000000 1.629670 0.000000 
#    z 0.000000 0.000000 1.689780 
# 
# From -- ./inp_files/1823.got.cif
#   From: 2010.05.17/outbox.cif.g08.bks.cpg/sg79_cif.got.tgz:1823.got - 2010.06.03 18:47:27.
