data_PCOD9541165
_publ_section_title
;
Structure prediction by ZEFSAII (Michael W. Deem and Ramdas Pophale) SiO2 
 PCOD9541165
Probable space group: P 41
;
_chemical_formula_sum "Si O2"
_cell_formula_units_Z 28
_cell_length_a 7.862377
_cell_length_b 7.862377
_cell_length_c 18.404646
_cell_angle_alpha 90.000000
_cell_angle_beta 90.000000
_cell_angle_gamma 90.000000
_cell_volume 1137.719488
_symmetry_space_group_name_H-M "P 41"
_symmetry_group_IT_number 76
_symmetry_cell_setting 'tetragonal'
loop_
_space_group_symop_operation_xyz
x,y,z
-y,x,1/4+z
-x,-y,1/2+z
y,-x,3/4+z
loop_
_atom_site_type_symbol
_atom_site_label
_atom_site_fract_x
_atom_site_fract_y
_atom_site_fract_z
Si Si1 0.958863 0.223534 0.979240
Si Si2 0.769473 0.746935 0.708665
Si Si3 0.607018 0.463490 0.096687
Si Si4 0.032952 0.332549 0.345825
Si Si5 0.721164 0.096175 0.085594
Si Si6 0.429880 0.763184 0.813538
Si Si7 0.543633 0.283600 0.705040
O O1 0.023342 0.469734 0.832339
O O2 0.253047 0.919603 0.017967
O O3 0.117619 0.289399 0.026352
O O4 0.831472 0.089549 0.013700
O O5 0.751029 0.897936 0.650454
O O6 0.598411 0.765475 0.760538
O O7 0.794696 0.584610 0.652448
O O8 0.174207 0.990830 0.649040
O O9 0.434914 0.385128 0.063923
O O10 0.670030 0.599164 0.036437
O O11 0.555760 0.561088 0.168198
O O12 0.336262 0.794760 0.144554
O O13 0.144488 0.600480 0.469947
O O14 0.718961 0.297341 0.107249
#
# Coordination Sequence:
#
# PCOD9541165 Si02
#       7
#     4   4   4   4   4   4   4
#     4  10  22  41  69 102 147 187 248 309 374 452
#     4  12  26  46  79 109 157 196 266 306 399 453
#     4  11  20  37  71 109 137 188 250 309 363 444
#     4  11  24  47  74 109 148 199 252 321 378 472
#     4  10  21  44  72 107 144 193 256 309 387 448
#     4  12  22  43  76 108 144 202 245 318 368 469
#     4  10  21  36  69 106 137 177 245 314 359 422
#
# _framework density 24.610633
#
# number of rings (size 3 to 8) (size 9 to 14) (size 15 to 20)
#    0.000    1.143    5.714    1.714    0.000    1.143 
#   10.286    0.000   25.143    0.000    0.000    0.000 
#    0.000    0.000    0.000    0.000    0.000    0.000 
#
# Total GULP energy -156141.097271 kJ/mol
# GULP energy per Si atom -5576.467760 kJ/mol
# Density = 2.455462 g / cm^3
# Si number density = 24.610633 Si / 1000 Ang^3
#
#
#
# Elastic Constant Matrix: (Units=GPa)
#
#
# Indices 1 2 3 4 5 6 
#
# 1 64.3562 26.8625 52.6330 0.0000 0.0000 -1.5676
# 2 26.8625 64.3562 52.6330 0.0000 0.0000 1.5676
# 3 52.6330 52.6330 192.6945 0.0000 0.0000 0.0000
# 4 0.0000 0.0000 0.0000 41.0953 0.0000 0.0000
# 5 0.0000 0.0000 0.0000 0.0000 41.0953 0.0000
# 6 -1.5676 1.5676 0.0000 0.0000 0.0000 12.2369
#
#
#
# Elastic Compliance Matrix: (Units=1/GPa)
#
#
# Indices 1 2 3 4 5 6 
#
# 1 0.021484 -0.005476 -0.004373 0.000000 0.000000 0.003454
# 2 -0.005476 0.021484 -0.004373 0.000000 0.000000 -0.003454
# 3 -0.004373 -0.004373 0.007578 0.000000 0.000000 0.000000
# 4 0.000000 0.000000 0.000000 0.024334 0.000000 0.000000
# 5 0.000000 0.000000 0.000000 0.000000 0.024334 0.000000
# 6 0.003454 -0.003454 0.000000 0.000000 0.000000 0.082605
#
#
# Mechanical properties :
#
#
# Convention : Reuss Voigt Hill
#
# Bulk Modulus (GPa) = 45.23857 65.07377 55.15617
# Shear Modulus (GPa) = 22.97482 31.50406 27.23944
#
# Velocity S-wave (km/s) = 3.05869 3.58173 3.33049
# Velocity P-wave (km/s) = 5.55839 6.60332 6.10326
#
# Compressibility (1/GPa) = 0.02210503
#
# Stress axis : x y z
#
# Youngs Moduli (GPa) = 46.54561 46.54561 131.95624
#
# Poissons Ratio (x) = 0.25487 0.57700
# Poissons Ratio (y) = 0.25487 0.57700
# Poissons Ratio (z) = 0.20353 0.20353
#
# Static dielectric constant tensor:
#      x y z
#    x 2.022720 0.000000 0.000000 
#    y 0.000000 2.022720 0.000000 
#    z 0.000000 0.000000 1.997140 
# 
# From -- ./inp_files/1305.got.cif
#   From: 2010.05.17/outbox.cif.g08.bks.cpg/sg76_cif.got.tgz:1305.got - 2010.06.03 18:43:17.
