data_PCOD9541318
_publ_section_title
;
Structure prediction by ZEFSAII (Michael W. Deem and Ramdas Pophale) SiO2 
 PCOD9541318
Probable space group: P 41
;
_chemical_formula_sum "Si O2"
_cell_formula_units_Z 16
_cell_length_a 9.524489
_cell_length_b 9.524489
_cell_length_c 7.354037
_cell_angle_alpha 90.000000
_cell_angle_beta 90.000000
_cell_angle_gamma 90.000000
_cell_volume 667.128017
_symmetry_space_group_name_H-M "P 41"
_symmetry_group_IT_number 76
_symmetry_cell_setting 'tetragonal'
loop_
_space_group_symop_operation_xyz
x,y,z
-y,x,1/4+z
-x,-y,1/2+z
y,-x,3/4+z
loop_
_atom_site_type_symbol
_atom_site_label
_atom_site_fract_x
_atom_site_fract_y
_atom_site_fract_z
Si Si1 0.420485 0.155629 0.758760
Si Si2 0.679442 0.439910 0.333716
Si Si3 0.389836 0.093132 0.351046
Si Si4 0.896813 0.846734 0.264891
O O1 0.424525 0.170009 0.541688
O O2 0.261237 0.194539 0.812027
O O3 0.473774 0.996911 0.792249
O O4 0.507166 0.247544 0.903323
O O5 0.632859 0.546711 0.491514
O O6 0.798098 0.352773 0.442514
O O7 0.263968 0.981887 0.388351
O O8 0.002637 0.870911 0.426577
#
# Coordination Sequence:
#
# PCOD9541318 Si02
#       4
#     4   4   4   4
#     4  11  24  48  78 113 155 205 265 323 404 479
#     4  12  30  49  76 115 158 212 269 330 405 496
#     4  11  25  48  78 113 159 207 262 332 409 482
#     4  10  25  43  72 115 152 202 262 325 396 475
#
# _framework density 23.983405000000001
#
# number of rings (size 3 to 8) (size 9 to 14) (size 15 to 20)
#    0.000    1.000    2.500    1.500   10.500    4.000 
#    0.000    0.000    0.000    0.000    0.000    0.000 
#    0.000    0.000    0.000    0.000    0.000    0.000 
#
# Total GULP energy -89306.376457 kJ/mol
# GULP energy per Si atom -5581.648529 kJ/mol
# Density = 2.392882 g / cm^3
# Si number density = 23.983405 Si / 1000 Ang^3
#
#
#
# Elastic Constant Matrix: (Units=GPa)
#
#
# Indices 1 2 3 4 5 6 
#
# 1 79.7400 16.7327 40.4768 0.0000 0.0000 -16.7122
# 2 16.7327 79.7400 40.4768 0.0000 0.0000 16.7122
# 3 40.4768 40.4768 170.5860 0.0000 0.0000 0.0000
# 4 0.0000 0.0000 0.0000 36.5504 0.0000 0.0000
# 5 0.0000 0.0000 0.0000 0.0000 36.5504 0.0000
# 6 -16.7122 16.7122 0.0000 0.0000 0.0000 -1.7248
#
#
#
# Elastic Compliance Matrix: (Units=1/GPa)
#
#
# Indices 1 2 3 4 5 6 
#
# 1 0.007764 0.005179 -0.003071 0.000000 0.000000 -0.025046
# 2 0.005179 0.007764 -0.003071 0.000000 0.000000 0.025046
# 3 -0.003071 -0.003071 0.007320 0.000000 0.000000 0.000000
# 4 0.000000 0.000000 0.000000 0.027359 0.000000 0.000000
# 5 0.000000 0.000000 0.000000 0.000000 0.027359 0.000000
# 6 -0.025046 0.025046 0.000000 0.000000 0.000000 -0.094425
#
#
# Mechanical properties :
#
#
# Convention : Reuss Voigt Hill
#
# Bulk Modulus (GPa) = 47.79964 58.38209 53.09086
# Shear Modulus (GPa) = -628.19926 29.76717 -299.21604
#
# Velocity S-wave (km/s) = -16.20183 3.52683 -11.18170
# Velocity P-wave (km/s) = 18.16661 6.40158 12.02176
#
# Compressibility (1/GPa) = 0.02092066
#
# Stress axis : x y z
#
# Youngs Moduli (GPa) = 128.80328 128.80328 136.62043
#
# Poissons Ratio (x) = -0.66706 0.41957
# Poissons Ratio (y) = -0.66706 0.41957
# Poissons Ratio (z) = 0.39556 0.39556
#
# Static dielectric constant tensor:
#      x y z
#    x 2.072710 0.000000 0.000000 
#    y 0.000000 2.072710 0.000000 
#    z 0.000000 0.000000 1.896860 
# 
# From -- ./inp_files/399.got.cif
#   From: 2010.05.17/outbox.cif.g08.bks.cpg/sg76_cif.got.tgz:399.got - 2010.06.03 18:43:17.
