data_PCOD9541234
_publ_section_title
;
Structure prediction by ZEFSAII (Michael W. Deem and Ramdas Pophale) SiO2 
 PCOD9541234
Probable space group: P 41
;
_chemical_formula_sum "Si O2"
_cell_formula_units_Z 20
_cell_length_a 7.513280
_cell_length_b 7.513280
_cell_length_c 12.302891
_cell_angle_alpha 90.000000
_cell_angle_beta 90.000000
_cell_angle_gamma 90.000000
_cell_volume 694.490524
_symmetry_space_group_name_H-M "P 41"
_symmetry_group_IT_number 76
_symmetry_cell_setting 'tetragonal'
loop_
_space_group_symop_operation_xyz
x,y,z
-y,x,1/4+z
-x,-y,1/2+z
y,-x,3/4+z
loop_
_atom_site_type_symbol
_atom_site_label
_atom_site_fract_x
_atom_site_fract_y
_atom_site_fract_z
Si Si1 0.218231 0.380499 0.795440
Si Si2 0.120151 0.521103 0.580534
Si Si3 0.838704 0.556007 0.850653
Si Si4 0.384174 0.738573 0.871273
Si Si5 0.070127 0.003445 0.128807
O O1 0.179959 0.374749 0.666051
O O2 0.287407 0.208655 0.863326
O O3 0.349951 0.546029 0.822148
O O4 0.023904 0.451485 0.832164
O O5 0.220290 0.506857 0.467504
O O6 0.907387 0.514524 0.566616
O O7 0.726775 0.537464 0.742206
O O8 0.868416 0.765717 0.866942
O O9 0.192443 0.830965 0.881182
O O10 0.001553 0.977318 0.255906
#
# Coordination Sequence:
#
# PCOD9541234 Si02
#       5
#     4   4   4   4   4
#     4  10  22  40  66  96 129 173 220 269 334 399
#     4  11  22  39  63  94 129 171 224 273 325 397
#     4   9  20  39  60  91 133 171 217 277 334 395
#     4   9  20  41  63  87 129 174 211 271 341 394
#     4   9  18  35  62  92 126 171 220 272 336 401
#
# _framework density 28.798086999999999
#
# number of rings (size 3 to 8) (size 9 to 14) (size 15 to 20)
#    0.000    2.400    0.000    2.400    0.000    3.200 
#    0.000   16.000    0.000    0.000    0.000    0.000 
#    0.000    0.000    0.000    0.000    0.000    0.000 
#
# Total GULP energy -111740.360578 kJ/mol
# GULP energy per Si atom -5587.018029 kJ/mol
# Density = 2.873254 g / cm^3
# Si number density = 28.798087 Si / 1000 Ang^3
#
#
#
# Elastic Constant Matrix: (Units=GPa)
#
#
# Indices 1 2 3 4 5 6 
#
# 1 114.7204 12.1419 -4.6762 0.0000 0.0000 -9.0731
# 2 12.1419 114.7204 -4.6762 0.0000 0.0000 9.0731
# 3 -4.6762 -4.6762 169.4251 0.0000 0.0000 0.0000
# 4 0.0000 0.0000 0.0000 32.5061 0.0000 0.0000
# 5 0.0000 0.0000 0.0000 0.0000 32.5061 0.0000
# 6 -9.0731 9.0731 0.0000 0.0000 0.0000 23.6529
#
#
#
# Elastic Compliance Matrix: (Units=1/GPa)
#
#
# Indices 1 2 3 4 5 6 
#
# 1 0.009178 -0.001280 0.000218 0.000000 0.000000 0.004012
# 2 -0.001280 0.009178 0.000218 0.000000 0.000000 -0.004012
# 3 0.000218 0.000218 0.005914 0.000000 0.000000 0.000000
# 4 0.000000 0.000000 0.000000 0.030764 0.000000 0.000000
# 5 0.000000 0.000000 0.000000 0.000000 0.030764 0.000000
# 6 0.004012 -0.004012 0.000000 0.000000 0.000000 0.045356
#
#
# Mechanical properties :
#
#
# Convention : Reuss Voigt Hill
#
# Bulk Modulus (GPa) = 44.27986 44.93834 44.60910
# Shear Modulus (GPa) = 35.62021 44.13810 39.87915
#
# Velocity S-wave (km/s) = 3.52077 3.91919 3.72531
# Velocity P-wave (km/s) = 5.65129 6.00987 5.83334
#
# Compressibility (1/GPa) = 0.02258363
#
# Stress axis : x y z
#
# Youngs Moduli (GPa) = 108.95057 108.95057 169.08037
#
# Poissons Ratio (x) = 0.13944 -0.03686
# Poissons Ratio (y) = 0.13944 -0.03686
# Poissons Ratio (z) = -0.02375 -0.02375
#
# Static dielectric constant tensor:
#      x y z
#    x 2.343360 0.000000 0.000000 
#    y 0.000000 2.343360 0.000000 
#    z 0.000000 0.000000 2.331420 
# 
# From -- ./inp_files/774.got.cif
#   From: 2010.05.17/outbox.cif.g08.bks.cpg/sg76_cif.got.tgz:774.got - 2010.06.03 18:43:17.
