data_PCOD9541041
_publ_section_title
;
Structure prediction by ZEFSAII (Michael W. Deem and Ramdas Pophale) SiO2 
 PCOD9541041
Probable space group: P 4
;
_chemical_formula_sum "Si O2"
_cell_formula_units_Z 26
_cell_length_a 8.495123
_cell_length_b 8.495123
_cell_length_c 17.658519
_cell_angle_alpha 90.000000
_cell_angle_beta 90.000000
_cell_angle_gamma 90.000000
_cell_volume 1274.364368
_symmetry_space_group_name_H-M "P 4"
_symmetry_group_IT_number 75
_symmetry_cell_setting 'tetragonal'
loop_
_space_group_symop_operation_xyz
x,y,z
-y,x,z
-x,-y,z
y,-x,z
loop_
_atom_site_type_symbol
_atom_site_label
_atom_site_fract_x
_atom_site_fract_y
_atom_site_fract_z
Si Si1 0.755549 0.423438 0.116090
Si Si2 0.531153 0.760800 0.717941
Si Si3 0.750085 0.909932 0.250450
Si Si4 0.440460 0.240204 0.551901
Si Si5 0.500000 0.000000 0.853564
Si Si6 0.949314 0.260244 0.988419
Si Si7 0.919729 0.252314 0.425236
O O1 0.688846 0.600367 0.111821
O O2 0.845708 0.379942 0.193395
O O3 0.876884 0.381087 0.049310
O O4 0.368182 0.667372 0.718680
O O5 0.561722 0.836885 0.635511
O O6 0.520564 0.859791 0.793631
O O7 0.698481 0.897863 0.337836
O O8 0.909779 0.806553 0.238320
O O9 0.611858 0.319636 0.546664
O O10 0.383746 0.128814 0.484889
O O11 0.352788 0.027370 0.909659
O O12 0.117428 0.175495 0.996856
O O13 0.097332 0.189838 0.435447
#
# Coordination Sequence:
#
# PCOD9541041 Si02
#       7
#     4   4   4   4   2   4   4
#     4  11  24  40  59  87 122 160 205 254 302 358
#     4   9  20  38  58  83 116 152 189 235 294 356
#     4   9  19  37  59  83 116 160 207 256 309 360
#     4   9  19  35  54  79 113 152 195 241 292 353
#     4  12  22  38  64  90 112 146 192 240 290 358
#     4  11  24  41  61  87 119 153 192 243 304 367
#     4   9  19  35  55  83 119 158 204 256 306 356
#
# _framework density 20.402329999999999
#
# number of rings (size 3 to 8) (size 9 to 14) (size 15 to 20)
#    0.000    2.154    0.000    4.615    0.000    7.385 
#    0.000    6.154    0.000    1.846    0.000    0.000 
#    0.000    0.000    0.000    0.000    0.000    0.000 
#
# Total GULP energy -145017.590343 kJ/mol
# GULP energy per Si atom -5577.599629 kJ/mol
# Density = 2.035589 g / cm^3
# Si number density = 20.402330 Si / 1000 Ang^3
#
#
#
# Elastic Constant Matrix: (Units=GPa)
#
#
# Indices 1 2 3 4 5 6 
#
# 1 72.9756 55.8300 77.1477 0.0000 0.0000 5.0787
# 2 55.8300 72.9756 77.1477 0.0000 0.0000 -5.0787
# 3 77.1477 77.1477 162.9129 0.0000 0.0000 0.0000
# 4 0.0000 0.0000 0.0000 52.6348 0.0000 0.0000
# 5 0.0000 0.0000 0.0000 0.0000 52.6348 0.0000
# 6 5.0787 -5.0787 0.0000 0.0000 0.0000 38.5629
#
#
#
# Elastic Compliance Matrix: (Units=1/GPa)
#
#
# Indices 1 2 3 4 5 6 
#
# 1 0.040600 -0.022659 -0.008496 0.000000 0.000000 -0.008331
# 2 -0.022659 0.040600 -0.008496 0.000000 0.000000 0.008331
# 3 -0.008496 -0.008496 0.014185 0.000000 0.000000 0.000000
# 4 0.000000 0.000000 0.000000 0.018999 0.000000 0.000000
# 5 0.000000 0.000000 0.000000 0.000000 0.018999 0.000000
# 6 -0.008331 0.008331 0.000000 0.000000 0.000000 0.028126
#
#
# Mechanical properties :
#
#
# Convention : Reuss Voigt Hill
#
# Bulk Modulus (GPa) = 62.17833 81.01278 71.59555
# Shear Modulus (GPa) = 20.31099 35.34910 27.83004
#
# Velocity S-wave (km/s) = 3.15861 4.16697 3.69733
# Velocity P-wave (km/s) = 6.62153 7.93381 7.30719
#
# Compressibility (1/GPa) = 0.01608277
#
# Stress axis : x y z
#
# Youngs Moduli (GPa) = 24.63043 24.63043 70.49818
#
# Poissons Ratio (x) = 0.55811 0.59895
# Poissons Ratio (y) = 0.55811 0.59895
# Poissons Ratio (z) = 0.20926 0.20926
#
# Static dielectric constant tensor:
#      x y z
#    x 1.702540 0.000000 0.000000 
#    y 0.000000 1.702540 0.000000 
#    z 0.000000 0.000000 1.720250 
# 
# From -- ./inp_files/734.got.cif
#   From: 2010.05.17/outbox.cif.g08.bks.cpg/sg75_cif.got.tgz:734.got - 2010.06.03 18:42:43.
