data_PCOD9541530
_publ_section_title
;
Structure prediction by ZEFSAII (Michael W. Deem and Ramdas Pophale) SiO2 
 PCOD9541530
Probable space group: P 42
;
_chemical_formula_sum "Si O2"
_cell_formula_units_Z 24
_cell_length_a 9.193660
_cell_length_b 9.193660
_cell_length_c 13.680754
_cell_angle_alpha 90.000000
_cell_angle_beta 90.000000
_cell_angle_gamma 90.000000
_cell_volume 1156.343626
_symmetry_space_group_name_H-M "P 42"
_symmetry_group_IT_number 77
_symmetry_cell_setting 'tetragonal'
loop_
_space_group_symop_operation_xyz
x,y,z
-y,x,1/2+z
-x,-y,z
y,-x,1/2+z
loop_
_atom_site_type_symbol
_atom_site_label
_atom_site_fract_x
_atom_site_fract_y
_atom_site_fract_z
Si Si1 0.500000 0.500000 0.118570
Si Si2 0.000000 0.000000 0.945285
Si Si3 0.847395 0.222198 0.807425
Si Si4 0.500000 0.000000 0.375061
Si Si5 0.500000 0.000000 0.688925
Si Si6 0.524055 0.294747 0.797735
Si Si7 0.228658 0.852877 0.589859
Si Si8 0.687458 0.571070 0.961689
O O1 0.611524 0.558623 0.200433
O O2 0.615640 0.450077 0.034064
O O3 0.107748 0.912620 0.874305
O O4 0.926921 0.881122 0.015197
O O5 0.685096 0.270759 0.840444
O O6 0.842369 0.182022 0.693700
O O7 0.961548 0.353050 0.818104
O O8 0.470469 0.849499 0.430907
O O9 0.467960 0.139487 0.757641
O O10 0.636564 0.043604 0.621824
O O11 0.409392 0.374136 0.869688
O O12 0.291605 0.711661 0.533853
#
# Coordination Sequence:
#
# PCOD9541530 Si02
#       8
#     2   2   4   2   2   4   4   4
#     4  12  22  44  68 100 142 174 238 294 346 424
#     4  12  26  44  74 102 152 188 232 302 350 442
#     4  11  25  49  69 105 145 188 244 292 361 427
#     4  12  25  46  73 100 146 192 233 300 367 434
#     4  10  23  48  75  96 148 186 235 288 367 430
#     4  11  26  44  73 105 141 187 240 303 354 422
#     4  11  25  45  70 106 136 191 237 281 365 425
#     4  12  25  42  73 104 136 186 240 290 364 426
#
# _framework density 20.755075999999999
#
# number of rings (size 3 to 8) (size 9 to 14) (size 15 to 20)
#    0.000    0.667    5.000    3.500    4.667    2.667 
#    3.000    0.000    0.000    0.000    0.000    0.000 
#    0.000    0.000    0.000    0.000    0.000    0.000 
#
# Total GULP energy -133649.325091 kJ/mol
# GULP energy per Si atom -5568.721879 kJ/mol
# Density = 2.070784 g / cm^3
# Si number density = 20.755076 Si / 1000 Ang^3
#
#
#
# Elastic Constant Matrix: (Units=GPa)
#
#
# Indices 1 2 3 4 5 6 
#
# 1 110.3634 45.6377 72.4632 0.0000 0.0000 2.6121
# 2 45.6377 110.3634 72.4632 0.0000 0.0000 -2.6121
# 3 72.4632 72.4632 173.4955 0.0000 0.0000 0.0000
# 4 0.0000 0.0000 0.0000 17.1685 0.0000 0.0000
# 5 0.0000 0.0000 0.0000 0.0000 17.1685 0.0000
# 6 2.6121 -2.6121 0.0000 0.0000 0.0000 28.4431
#
#
#
# Elastic Compliance Matrix: (Units=1/GPa)
#
#
# Indices 1 2 3 4 5 6 
#
# 1 0.013020 -0.002545 -0.004375 0.000000 0.000000 -0.001429
# 2 -0.002545 0.013020 -0.004375 0.000000 0.000000 0.001429
# 3 -0.004375 -0.004375 0.009418 0.000000 0.000000 0.000000
# 4 0.000000 0.000000 0.000000 0.058246 0.000000 0.000000
# 5 0.000000 0.000000 0.000000 0.000000 0.058246 0.000000
# 6 -0.001429 0.001429 0.000000 0.000000 0.000000 0.035420
#
#
# Mechanical properties :
#
#
# Convention : Reuss Voigt Hill
#
# Bulk Modulus (GPa) = 77.71284 86.15004 81.93144
# Shear Modulus (GPa) = 23.33724 26.13325 24.73525
#
# Velocity S-wave (km/s) = 3.35686 3.55227 3.45595
# Velocity P-wave (km/s) = 7.24905 7.64348 7.44888
#
# Compressibility (1/GPa) = 0.01286789
#
# Stress axis : x y z
#
# Youngs Moduli (GPa) = 76.80592 76.80592 106.17663
#
# Poissons Ratio (x) = 0.19550 0.46450
# Poissons Ratio (y) = 0.19550 0.46450
# Poissons Ratio (z) = 0.33601 0.33601
#
# Static dielectric constant tensor:
#      x y z
#    x 1.800510 0.000000 0.000000 
#    y 0.000000 1.800510 0.000000 
#    z 0.000000 0.000000 1.758300 
# 
# From -- ./inp_files/1155.got.cif
#   From: 2010.05.17/outbox.cif.g08.bks.cpg/sg77_cif.got.tgz:1155.got - 2010.06.03 18:44:51.
