data_PCOD9541448
_publ_section_title
;
Structure prediction by ZEFSAII (Michael W. Deem and Ramdas Pophale) SiO2 
 PCOD9541448
Probable space group: P 41
;
_chemical_formula_sum "Si O2"
_cell_formula_units_Z 24
_cell_length_a 9.493352
_cell_length_b 9.493352
_cell_length_c 10.842555
_cell_angle_alpha 90.000000
_cell_angle_beta 90.000000
_cell_angle_gamma 90.000000
_cell_volume 977.171523
_symmetry_space_group_name_H-M "P 41"
_symmetry_group_IT_number 76
_symmetry_cell_setting 'tetragonal'
loop_
_space_group_symop_operation_xyz
x,y,z
-y,x,1/4+z
-x,-y,1/2+z
y,-x,3/4+z
loop_
_atom_site_type_symbol
_atom_site_label
_atom_site_fract_x
_atom_site_fract_y
_atom_site_fract_z
Si Si1 0.254537 0.545197 0.497170
Si Si2 0.229404 0.700663 0.241746
Si Si3 0.299337 0.770596 0.906895
Si Si4 1.000000 0.890545 0.949321
Si Si5 0.012768 0.500000 0.699321
Si Si6 0.745463 0.545197 0.401471
O O1 0.218319 0.640073 0.379747
O O2 0.315922 0.393283 0.458070
O O3 0.117767 0.526220 0.584834
O O4 0.371964 0.628036 0.574321
O O5 0.200930 0.863817 0.226653
O O6 0.098674 0.625264 0.173701
O O7 0.359927 0.781681 0.768894
O O8 0.315922 0.606717 0.940571
O O9 0.136183 0.799070 0.921989
O O10 0.374736 0.901326 0.974940
O O11 0.978508 0.978508 0.824321
O O12 0.117767 0.473780 0.813807
#
# Coordination Sequence:
#
# PCOD9541448 Si02
#       6
#     4   4   4   4   4   4
#     4  12  27  53  82 121 166 229 290 376 459 537
#     4  12  30  50  84 120 173 221 300 364 451 549
#     4  12  30  50  84 120 173 221 300 364 451 549
#     4  12  32  56  86 126 174 236 296 366 456 544
#     4  12  28  48  82 126 166 226 288 372 450 540
#     4  12  27  53  82 121 166 229 290 376 459 537
#
# _framework density 24.560684999999999
#
# number of rings (size 3 to 8) (size 9 to 14) (size 15 to 20)
#    0.000    0.000    3.333    3.000   18.667    0.000 
#    0.000    0.000    0.000    0.000    0.000    0.000 
#    0.000    0.000    0.000    0.000    0.000    0.000 
#
# Total GULP energy -134552.652072 kJ/mol
# GULP energy per Si atom -5606.360503 kJ/mol
# Density = 2.450478 g / cm^3
# Si number density = 24.560685 Si / 1000 Ang^3
#
#
#
# Elastic Constant Matrix: (Units=GPa)
#
#
# Indices 1 2 3 4 5 6 
#
# 1 186.4211 103.3921 66.4545 0.0000 0.0000 0.0001
# 2 103.3921 186.4211 66.4545 0.0000 0.0000 -0.0001
# 3 66.4545 66.4545 190.1791 0.0000 0.0000 0.0000
# 4 0.0000 0.0000 0.0000 36.2423 0.0000 0.0000
# 5 0.0000 0.0000 0.0000 0.0000 36.2423 0.0000
# 6 0.0001 -0.0001 0.0000 0.0000 0.0000 -138.3283
#
#
#
# Elastic Compliance Matrix: (Units=1/GPa)
#
#
# Indices 1 2 3 4 5 6 
#
# 1 0.008076 -0.003968 -0.001436 0.000000 0.000000 0.000000
# 2 -0.003968 0.008076 -0.001436 0.000000 0.000000 0.000000
# 3 -0.001436 -0.001436 0.006262 0.000000 0.000000 0.000000
# 4 0.000000 0.000000 0.000000 0.027592 0.000000 0.000000
# 5 0.000000 0.000000 0.000000 0.000000 0.027592 0.000000
# 6 0.000000 0.000000 0.000000 0.000000 0.000000 -0.007229
#
#
# Mechanical properties :
#
#
# Convention : Reuss Voigt Hill
#
# Bulk Modulus (GPa) = 114.46426 115.06927 114.76676
# Shear Modulus (GPa) = 57.49776 8.61260 33.05518
#
# Velocity S-wave (km/s) = 4.84369 1.87464 3.67257
# Velocity P-wave (km/s) = 8.83106 7.18599 8.05065
#
# Compressibility (1/GPa) = 0.00873635
#
# Stress axis : x y z
#
# Youngs Moduli (GPa) = 123.81642 123.81642 159.70294
#
# Poissons Ratio (x) = 0.49124 0.22930
# Poissons Ratio (y) = 0.49124 0.22930
# Poissons Ratio (z) = 0.17778 0.17778
#
# Static dielectric constant tensor:
#      x y z
#    x 1.933010 0.000000 0.000000 
#    y 0.000000 1.933010 0.000000 
#    z 0.000000 0.000000 2.005480 
# 
# From -- ./inp_files/853.got.cif
#   From: 2010.05.17/outbox.cif.g08.bks.cpg/sg76_cif.got.tgz:853.got - 2010.06.03 18:43:17.
