data_PCOD9541892
_publ_section_title
;
Structure prediction by ZEFSAII (Michael W. Deem and Ramdas Pophale) SiO2 
 PCOD9541892
Probable space group: I 4
;
_chemical_formula_sum "Si O2"
_cell_formula_units_Z 60
_cell_length_a 17.588738
_cell_length_b 17.588738
_cell_length_c 8.939278
_cell_angle_alpha 90.000000
_cell_angle_beta 90.000000
_cell_angle_gamma 90.000000
_cell_volume 2765.488157
_symmetry_space_group_name_H-M "I 4"
_symmetry_group_IT_number 79
_symmetry_cell_setting 'tetragonal'
loop_
_space_group_symop_operation_xyz
x,y,z
-y,x,z
-x,-y,z
y,-x,z
1/2+x,1/2+y,1/2+z
1/2-y,1/2+x,1/2+z
1/2-x,1/2-y,1/2+z
1/2+y,1/2-x,1/2+z
loop_
_atom_site_type_symbol
_atom_site_label
_atom_site_fract_x
_atom_site_fract_y
_atom_site_fract_z
Si Si1 0.962472 0.876451 0.494450
Si Si2 0.883199 0.456762 0.489087
Si Si3 0.886212 0.299937 0.027623
Si Si4 0.264433 0.647735 0.852213
Si Si5 0.172768 0.693769 0.360845
Si Si6 0.000000 0.500000 0.738483
Si Si7 0.377542 0.532662 0.333881
Si Si8 0.646299 0.690943 0.512951
O O1 0.930108 0.807569 0.395521
O O2 0.958070 0.846905 0.665835
O O3 0.048266 0.908865 0.472396
O O4 0.825570 0.528439 0.490312
O O5 0.859066 0.369224 0.473853
O O6 0.934517 0.469997 0.344362
O O7 0.934025 0.467988 0.634563
O O8 0.865396 0.316833 0.200629
O O9 0.874446 0.209495 0.016942
O O10 0.818889 0.339644 0.926661
O O11 0.319590 0.717768 0.905785
O O12 0.266637 0.653695 0.671877
O O13 0.261158 0.670343 0.366227
O O14 0.410998 0.449411 0.341044
O O15 0.330303 0.560461 0.475414
#
# Coordination Sequence:
#
# PCOD9541892 Si02
#       8
#     8   8   8   8   8   4   8   8
#     4   9  19  40  63  88 124 162 205 251 308 383
#     4  11  22  44  64  92 122 172 205 272 320 380
#     4  10  22  42  63  86 124 165 209 253 323 378
#     4  10  22  41  61  96 125 163 207 266 317 384
#     4  10  22  42  63  85 127 164 204 262 316 379
#     4  10  24  42  64  90 128 152 216 270 314 378
#     4   9  19  36  57  84 119 158 198 242 298 370
#     4  10  22  37  61  91 122 153 206 262 310 382
#
# _framework density 21.695986999999999
#
# number of rings (size 3 to 8) (size 9 to 14) (size 15 to 20)
#    0.000    2.133    1.333    1.600    3.733    2.133 
#    7.200    1.333    0.000    0.000    0.000    0.000 
#    0.000    0.000    0.000    0.000    0.000    0.000 
#
# Total GULP energy -167112.568657 kJ/mol
# GULP energy per Si atom -5570.418955 kJ/mol
# Density = 2.164661 g / cm^3
# Si number density = 21.695987 Si / 1000 Ang^3
#
#
#
# Elastic Constant Matrix: (Units=GPa)
#
#
# Indices 1 2 3 4 5 6 
#
# 1 33.9572 8.0752 21.7107 0.0000 0.0000 7.2478
# 2 8.0752 33.9572 21.7107 0.0000 0.0000 -7.2478
# 3 21.7107 21.7107 57.3804 0.0000 0.0000 0.0000
# 4 0.0000 0.0000 0.0000 44.7782 0.0000 0.0000
# 5 0.0000 0.0000 0.0000 0.0000 44.7782 0.0000
# 6 7.2478 -7.2478 0.0000 0.0000 0.0000 34.9631
#
#
#
# Elastic Compliance Matrix: (Units=1/GPa)
#
#
# Indices 1 2 3 4 5 6 
#
# 1 0.041385 -0.002327 -0.014778 0.000000 0.000000 -0.009061
# 2 -0.002327 0.041385 -0.014778 0.000000 0.000000 0.009061
# 3 -0.014778 -0.014778 0.028611 0.000000 0.000000 0.000000
# 4 0.000000 0.000000 0.000000 0.022332 0.000000 0.000000
# 5 0.000000 0.000000 0.000000 0.000000 0.022332 0.000000
# 6 -0.009061 0.009061 0.000000 0.000000 0.000000 0.032358
#
#
# Mechanical properties :
#
#
# Convention : Reuss Voigt Hill
#
# Bulk Modulus (GPa) = 21.00238 25.36534 23.18386
# Shear Modulus (GPa) = 18.65390 29.82379 24.23884
#
# Velocity S-wave (km/s) = 2.93539 3.71161 3.34609
# Velocity P-wave (km/s) = 4.60326 5.48495 5.06334
#
# Compressibility (1/GPa) = 0.04761366
#
# Stress axis : x y z
#
# Youngs Moduli (GPa) = 24.16350 24.16350 34.95217
#
# Poissons Ratio (x) = 0.05623 0.51652
# Poissons Ratio (y) = 0.05623 0.51652
# Poissons Ratio (z) = 0.35709 0.35709
#
# Static dielectric constant tensor:
#      x y z
#    x 1.916010 0.000000 0.000000 
#    y 0.000000 1.916010 0.000000 
#    z 0.000000 0.000000 1.780950 
# 
# From -- ./inp_files/746.got.cif
#   From: 2010.05.17/outbox.cif.g08.bks.cpg/sg79_cif.got.tgz:746.got - 2010.06.03 18:47:27.
