data_PCOD9541380
_publ_section_title
;
Structure prediction by ZEFSAII (Michael W. Deem and Ramdas Pophale) SiO2 
 PCOD9541380
Probable space group: P 41
;
_chemical_formula_sum "Si O2"
_cell_formula_units_Z 28
_cell_length_a 14.033549
_cell_length_b 14.033549
_cell_length_c 6.434606
_cell_angle_alpha 90.000000
_cell_angle_beta 90.000000
_cell_angle_gamma 90.000000
_cell_volume 1267.234507
_symmetry_space_group_name_H-M "P 41"
_symmetry_group_IT_number 76
_symmetry_cell_setting 'tetragonal'
loop_
_space_group_symop_operation_xyz
x,y,z
-y,x,1/4+z
-x,-y,1/2+z
y,-x,3/4+z
loop_
_atom_site_type_symbol
_atom_site_label
_atom_site_fract_x
_atom_site_fract_y
_atom_site_fract_z
Si Si1 0.861578 0.556359 0.607380
Si Si2 0.402808 0.063026 0.035816
Si Si3 0.623827 0.266164 0.994379
Si Si4 0.901596 0.915644 0.395187
Si Si5 0.231784 0.556253 0.485994
Si Si6 0.228717 0.863313 0.355124
Si Si7 0.217696 0.077773 0.282915
O O1 0.917977 0.492767 0.435353
O O2 0.784479 0.615224 0.470454
O O3 0.951243 0.607974 0.723446
O O4 0.800290 0.492429 0.768853
O O5 0.314222 0.102787 0.166569
O O6 0.412649 0.131172 0.837430
O O7 0.694266 0.356048 0.975894
O O8 0.520175 0.279698 0.893879
O O9 0.671226 0.186393 0.847359
O O10 0.840062 0.826491 0.319414
O O11 0.857626 0.951819 0.607038
O O12 0.009973 0.897393 0.458583
O O13 0.161554 0.824927 0.171693
O O14 0.239452 0.976001 0.383656
#
# Coordination Sequence:
#
# PCOD9541380 Si02
#       7
#     4   4   4   4   4   4   4
#     4  11  24  46  76 106 150 186 245 298 372 440
#     4  11  24  41  73 106 143 194 232 305 368 430
#     4  11  28  46  75 106 140 190 243 306 377 447
#     4  12  23  39  58  88 137 194 238 288 352 423
#     4  11  25  51  72 108 147 187 245 306 372 444
#     4  12  25  42  64 100 143 193 247 299 360 436
#     4  12  25  39  64  98 144 190 246 296 359 432
#
# _framework density 22.095358000000001
#
# number of rings (size 3 to 8) (size 9 to 14) (size 15 to 20)
#    0.000    0.571    4.286    3.429    4.000    6.857 
#    2.571    0.000    0.000    0.000    0.000    0.000 
#    0.000    0.000    0.000    0.000    0.000    0.000 
#
# Total GULP energy -156338.153891 kJ/mol
# GULP energy per Si atom -5583.505496 kJ/mol
# Density = 2.204507 g / cm^3
# Si number density = 22.095358 Si / 1000 Ang^3
#
#
#
# Elastic Constant Matrix: (Units=GPa)
#
#
# Indices 1 2 3 4 5 6 
#
# 1 217.5461 -119.2002 32.9135 0.0000 0.0000 -20.0599
# 2 -119.2002 217.5461 32.9135 0.0000 0.0000 20.0599
# 3 32.9135 32.9135 84.2958 0.0000 0.0000 0.0000
# 4 0.0000 0.0000 0.0000 30.7886 0.0000 0.0000
# 5 0.0000 0.0000 0.0000 0.0000 30.7886 0.0000
# 6 -20.0599 20.0599 0.0000 0.0000 0.0000 37.6351
#
#
#
# Elastic Compliance Matrix: (Units=1/GPa)
#
#
# Indices 1 2 3 4 5 6 
#
# 1 0.008468 0.005297 -0.005375 0.000000 0.000000 0.001690
# 2 0.005297 0.008468 -0.005375 0.000000 0.000000 -0.001690
# 3 -0.005375 -0.005375 0.016060 0.000000 0.000000 0.000000
# 4 0.000000 0.000000 0.000000 0.032480 0.000000 0.000000
# 5 0.000000 0.000000 0.000000 0.000000 0.032480 0.000000
# 6 0.001690 -0.001690 0.000000 0.000000 0.000000 0.028373
#
#
# Mechanical properties :
#
#
# Convention : Reuss Voigt Hill
#
# Bulk Modulus (GPa) = 45.26457 45.84908 45.55682
# Shear Modulus (GPa) = 34.57867 58.02653 46.30260
#
# Velocity S-wave (km/s) = 3.96027 5.13019 4.58272
# Velocity P-wave (km/s) = 6.43755 7.47579 6.97601
#
# Compressibility (1/GPa) = 0.02209233
#
# Stress axis : x y z
#
# Youngs Moduli (GPa) = 118.08594 118.08594 62.26537
#
# Poissons Ratio (x) = -0.62555 0.33467
# Poissons Ratio (y) = -0.62555 0.33467
# Poissons Ratio (z) = 0.63470 0.63470
#
# Static dielectric constant tensor:
#      x y z
#    x 1.877650 0.000000 0.000000 
#    y 0.000000 1.877650 0.000000 
#    z 0.000000 0.000000 1.851920 
# 
# From -- ./inp_files/268.got.cif
#   From: 2010.05.17/outbox.cif.g08.bks.cpg/sg76_cif.got.tgz:268.got - 2010.06.03 18:43:17.
