data_PCOD9541794
_publ_section_title
;
Structure prediction by ZEFSAII (Michael W. Deem and Ramdas Pophale) SiO2 
 PCOD9541794
Probable space group: P 43
;
_chemical_formula_sum "Si O2"
_cell_formula_units_Z 28
_cell_length_a 12.000000
_cell_length_b 12.000000
_cell_length_c 9.000000
_cell_angle_alpha 90.000000
_cell_angle_beta 90.000000
_cell_angle_gamma 90.000000
_cell_volume 1296.000000
_symmetry_space_group_name_H-M "P 43"
_symmetry_group_IT_number 78
_symmetry_cell_setting 'tetragonal'
loop_
_space_group_symop_operation_xyz
x,y,z
-y,x,3/4+z
-x,-y,1/2+z
y,-x,1/4+z
loop_
_atom_site_type_symbol
_atom_site_label
_atom_site_fract_x
_atom_site_fract_y
_atom_site_fract_z
Si Si1 0.244923 0.174698 0.085900
Si Si2 0.496888 0.990324 0.695914
Si Si3 0.845740 0.476475 0.678789
Si Si4 0.822201 0.649122 0.126417
Si Si5 0.743070 0.051688 0.639115
Si Si6 0.388274 0.465846 0.753461
Si Si7 0.346570 0.693353 0.578803
O O1 0.297650 0.244269 0.218715
O O2 0.184419 0.058730 0.129319
O O3 0.347211 0.163244 0.970966
O O4 0.147457 0.240346 0.005562
O O5 0.473828 0.113769 0.758573
O O6 0.628612 0.991871 0.685526
O O7 0.465826 0.942732 0.533302
O O8 0.446069 0.905419 0.815375
O O9 0.740309 0.546462 0.737440
O O10 0.894399 0.731761 0.226055
O O11 0.723308 0.604901 0.231063
O O12 0.765585 0.685809 0.973593
O O13 0.491586 0.405474 0.670846
O O14 0.371485 0.572673 0.645084
#
# Coordination Sequence:
#
# PCOD9541794 Si02
#       7
#     4   4   4   4   4   4   4
#     4  11  22  41  63  90 121 163 200 260 302 367
#     4  10  17  37  60  88 113 151 199 256 295 350
#     4  10  20  35  63  90 118 154 197 251 304 360
#     4  10  21  39  59  89 121 157 207 253 292 362
#     4  11  23  41  62  88 124 157 212 254 310 361
#     4  10  21  37  54  84 125 161 190 236 299 370
#     4  10  20  38  61  89 124 159 199 238 310 368
#
# _framework density 21.604938000000001
#
# number of rings (size 3 to 8) (size 9 to 14) (size 15 to 20)
#    0.000    1.714    4.286    3.429    0.000    2.286 
#    5.143    2.857    0.000    0.000    0.000    0.000 
#    0.000    0.000    0.000    0.000    0.000    0.000 
#
# Total GULP energy -155941.878878 kJ/mol
# GULP energy per Si atom -5569.352817 kJ/mol
# Density = 2.155576 g / cm^3
# Si number density = 21.604938 Si / 1000 Ang^3
#
#
#
# Elastic Constant Matrix: (Units=GPa)
#
#
# Indices 1 2 3 4 5 6 
#
# 1 4.5313 14.6545 -5.4314 0.0000 0.0000 31.7056
# 2 14.6545 4.5313 -5.4314 0.0000 0.0000 -31.7056
# 3 -5.4314 -5.4314 25.6370 0.0000 0.0000 0.0000
# 4 0.0000 0.0000 0.0000 11.5615 0.0000 0.0000
# 5 0.0000 0.0000 0.0000 0.0000 11.5615 0.0000
# 6 31.7056 -31.7056 0.0000 0.0000 0.0000 -24.0639
#
#
#
# Elastic Compliance Matrix: (Units=1/GPa)
#
#
# Indices 1 2 3 4 5 6 
#
# 1 0.036423 0.022803 0.012547 0.000000 0.000000 0.017944
# 2 0.022803 0.036423 0.012547 0.000000 0.000000 -0.017944
# 3 0.012547 0.012547 0.044323 0.000000 0.000000 0.000000
# 4 0.000000 0.000000 0.000000 0.086494 0.000000 0.000000
# 5 0.000000 0.000000 0.000000 0.000000 0.086494 0.000000
# 6 0.017944 -0.017944 0.000000 0.000000 0.000000 0.005729
#
#
# Mechanical properties :
#
#
# Convention : Reuss Voigt Hill
#
# Bulk Modulus (GPa) = 4.69561 4.69812 4.69687
# Shear Modulus (GPa) = 18.44494 1.87234 10.15864
#
# Velocity S-wave (km/s) = 2.92505 0.93194 2.17076
# Velocity P-wave (km/s) = 3.68592 1.82682 2.90889
#
# Compressibility (1/GPa) = 0.21296475
#
# Stress axis : x y z
#
# Youngs Moduli (GPa) = 27.45535 27.45535 22.56187
#
# Poissons Ratio (x) = -0.62608 -0.28309
# Poissons Ratio (y) = -0.62608 -0.28309
# Poissons Ratio (z) = -0.34449 -0.34449
#
# Static dielectric constant tensor:
#      x y z
#    x 1.910800 0.000000 0.000000 
#    y 0.000000 1.910800 0.000000 
#    z 0.000000 0.000000 1.819500 
# 
# From -- ./inp_files/625.got.cif
#   From: 2010.05.17/outbox.ucp.g08.bks.cvg/sg78_cif.got.tgz:625.got - 2010.06.11 16:42:09.
