data_PCOD9541782
_publ_section_title
;
Structure prediction by ZEFSAII (Michael W. Deem and Ramdas Pophale) SiO2 
 PCOD9541782
Probable space group: P 43
;
_chemical_formula_sum "Si O2"
_cell_formula_units_Z 28
_cell_length_a 13.867822
_cell_length_b 13.867822
_cell_length_c 5.227420
_cell_angle_alpha 90.000000
_cell_angle_beta 90.000000
_cell_angle_gamma 90.000000
_cell_volume 1005.319051
_symmetry_space_group_name_H-M "P 43"
_symmetry_group_IT_number 78
_symmetry_cell_setting 'tetragonal'
loop_
_space_group_symop_operation_xyz
x,y,z
-y,x,3/4+z
-x,-y,1/2+z
y,-x,1/4+z
loop_
_atom_site_type_symbol
_atom_site_label
_atom_site_fract_x
_atom_site_fract_y
_atom_site_fract_z
Si Si1 0.857754 0.021325 0.282670
Si Si2 0.686247 0.779350 0.371601
Si Si3 0.404779 0.762676 0.826944
Si Si4 0.707309 0.958301 0.622938
Si Si5 0.061991 0.530429 0.697876
Si Si6 0.475223 0.361793 0.010490
Si Si7 0.286848 0.860169 0.429573
O O1 0.938135 0.097666 0.360243
O O2 0.819517 0.971797 0.544272
O O3 0.773028 0.074953 0.129065
O O4 0.673787 0.894554 0.378085
O O5 0.585548 0.731273 0.437498
O O6 0.766800 0.772910 0.596143
O O7 0.732720 0.701783 0.176655
O O8 0.474526 0.836403 0.972994
O O9 0.464371 0.667172 0.761384
O O10 0.380515 0.817399 0.562436
O O11 0.640521 0.916682 0.851385
O O12 0.690016 0.071825 0.688204
O O13 0.996386 0.512062 0.948280
O O14 0.554388 0.399320 0.815740
#
# Coordination Sequence:
#
# PCOD9541782 Si02
#       7
#     4   4   4   4   4   4   4
#     4  12  29  48  77 115 162 219 280 351 442 538
#     4  12  27  48  81 117 164 218 284 353 444 531
#     4  12  26  49  78 119 164 222 289 367 438 543
#     4  12  26  48  78 114 165 217 286 347 441 526
#     4  12  26  49  80 122 168 222 284 356 440 524
#     4  12  26  52  78 117 161 217 285 363 450 538
#     4  12  24  50  76 114 164 209 276 351 431 530
#
# _framework density 27.851859000000001
#
# number of rings (size 3 to 8) (size 9 to 14) (size 15 to 20)
#    0.000    0.000    4.286    6.000    4.000    0.000 
#    2.571    0.000    0.000    0.000    0.000    0.000 
#    0.000    0.000    0.000    0.000    0.000    0.000 
#
# Total GULP energy -156588.378961 kJ/mol
# GULP energy per Si atom -5592.442106 kJ/mol
# Density = 2.778847 g / cm^3
# Si number density = 27.851859 Si / 1000 Ang^3
#
#
#
# Elastic Constant Matrix: (Units=GPa)
#
#
# Indices 1 2 3 4 5 6 
#
# 1 128.4010 54.6033 63.7013 0.0000 0.0000 7.8419
# 2 54.6033 128.4010 63.7013 0.0000 0.0000 -7.8419
# 3 63.7013 63.7013 125.0526 0.0000 0.0000 0.0000
# 4 0.0000 0.0000 0.0000 43.9707 0.0000 0.0000
# 5 0.0000 0.0000 0.0000 0.0000 43.9707 0.0000
# 6 7.8419 -7.8419 0.0000 0.0000 0.0000 46.9158
#
#
#
# Elastic Compliance Matrix: (Units=1/GPa)
#
#
# Indices 1 2 3 4 5 6 
#
# 1 0.011258 -0.002791 -0.004313 0.000000 0.000000 -0.002348
# 2 -0.002791 0.011258 -0.004313 0.000000 0.000000 0.002348
# 3 -0.004313 -0.004313 0.012391 0.000000 0.000000 0.000000
# 4 0.000000 0.000000 0.000000 0.022742 0.000000 0.000000
# 5 0.000000 0.000000 0.000000 0.000000 0.022742 0.000000
# 6 -0.002348 0.002348 0.000000 0.000000 0.000000 0.022100
#
#
# Mechanical properties :
#
#
# Convention : Reuss Voigt Hill
#
# Bulk Modulus (GPa) = 82.83284 82.87404 82.85344
# Shear Modulus (GPa) = 38.65451 40.29469 39.47460
#
# Velocity S-wave (km/s) = 3.72944 3.80774 3.76880
# Velocity P-wave (km/s) = 6.95342 7.01083 6.98219
#
# Compressibility (1/GPa) = 0.01207251
#
# Stress axis : x y z
#
# Youngs Moduli (GPa) = 88.82328 88.82328 80.70555
#
# Poissons Ratio (x) = 0.24794 0.34809
# Poissons Ratio (y) = 0.24794 0.34809
# Poissons Ratio (z) = 0.38310 0.38310
#
# Static dielectric constant tensor:
#      x y z
#    x 2.184760 0.000000 0.000000 
#    y 0.000000 2.184760 0.000000 
#    z 0.000000 0.000000 2.181400 
# 
# From -- ./inp_files/223.got.cif
#   From: 2010.05.17/outbox.cif.g08.bks.cpg/sg78_cif.got.tgz:223.got - 2010.06.03 18:45:56.
