data_PCOD9541967
_publ_section_title
;
Structure prediction by ZEFSAII (Michael W. Deem and Ramdas Pophale) SiO2 
 PCOD9541967
Probable space group: I 4
;
_chemical_formula_sum "Si O2"
_cell_formula_units_Z 50
_cell_length_a 9.530115
_cell_length_b 9.530115
_cell_length_c 23.742348
_cell_angle_alpha 90.000000
_cell_angle_beta 90.000000
_cell_angle_gamma 90.000000
_cell_volume 2156.353455
_symmetry_space_group_name_H-M "I 4"
_symmetry_group_IT_number 79
_symmetry_cell_setting 'tetragonal'
loop_
_space_group_symop_operation_xyz
x,y,z
-y,x,z
-x,-y,z
y,-x,z
1/2+x,1/2+y,1/2+z
1/2-y,1/2+x,1/2+z
1/2-x,1/2-y,1/2+z
1/2+y,1/2-x,1/2+z
loop_
_atom_site_type_symbol
_atom_site_label
_atom_site_fract_x
_atom_site_fract_y
_atom_site_fract_z
Si Si1 0.579718 0.291683 0.859280
Si Si2 0.812723 0.218410 0.235741
Si Si3 0.426446 0.287147 0.395864
Si Si4 0.783678 0.925277 0.577765
Si Si5 0.500000 0.500000 0.678634
Si Si6 0.287045 0.576684 0.531393
Si Si7 0.657563 0.973298 0.696384
O O1 0.675449 0.423085 0.879747
O O2 0.597065 0.302989 0.791950
O O3 0.644247 0.144098 0.876447
O O4 0.893973 0.136714 0.186436
O O5 0.656242 0.157384 0.239233
O O6 0.797286 0.382692 0.224608
O O7 0.582929 0.327007 0.376934
O O8 0.426958 0.287638 0.463706
O O9 0.645779 0.856207 0.551444
O O10 0.756073 0.930489 0.644575
O O11 0.916610 0.827512 0.562065
O O12 0.327419 0.419744 0.550612
O O13 0.500000 0.000000 0.674841
#
# Coordination Sequence:
#
# PCOD9541967 Si02
#       7
#     8   8   8   8   2   8   8
#     4  11  22  40  63  94 132 171 217 269 320 382
#     4  12  24  43  65  91 134 177 220 275 323 385
#     4   9  21  42  65  95 133 166 211 268 326 391
#     4  11  25  42  61  91 130 166 209 270 330 386
#     4  12  20  48  64  88 128 176 216 272 320 376
#     4   9  21  44  69  95 127 169 217 270 326 396
#     4  12  25  41  66  95 126 176 224 272 327 392
#
# _framework density 23.187290999999998
#
# number of rings (size 3 to 8) (size 9 to 14) (size 15 to 20)
#    0.000    1.280    4.800    0.960    4.480    2.240 
#    0.000    4.800    0.000    0.000    0.000    0.000 
#    0.000    0.000    0.000    0.000    0.000    0.000 
#
# Total GULP energy -139525.185178 kJ/mol
# GULP energy per Si atom -5581.007407 kJ/mol
# Density = 2.313452 g / cm^3
# Si number density = 23.187291 Si / 1000 Ang^3
#
#
#
# Elastic Constant Matrix: (Units=GPa)
#
#
# Indices 1 2 3 4 5 6 
#
# 1 77.4493 18.7736 -1.2377 0.0000 0.0000 -2.9873
# 2 18.7736 77.4493 -1.2377 0.0000 0.0000 2.9873
# 3 -1.2377 -1.2377 21.0961 0.0000 0.0000 0.0000
# 4 0.0000 0.0000 0.0000 18.7639 0.0000 0.0000
# 5 0.0000 0.0000 0.0000 0.0000 18.7639 0.0000
# 6 -2.9873 2.9873 0.0000 0.0000 0.0000 43.3337
#
#
#
# Elastic Compliance Matrix: (Units=1/GPa)
#
#
# Indices 1 2 3 4 5 6 
#
# 1 0.013786 -0.003378 0.000611 0.000000 0.000000 0.001183
# 2 -0.003378 0.013786 0.000611 0.000000 0.000000 -0.001183
# 3 0.000611 0.000611 0.047474 0.000000 0.000000 0.000000
# 4 0.000000 0.000000 0.000000 0.053294 0.000000 0.000000
# 5 0.000000 0.000000 0.000000 0.000000 0.053294 0.000000
# 6 0.001183 -0.001183 0.000000 0.000000 0.000000 0.023240
#
#
# Mechanical properties :
#
#
# Convention : Reuss Voigt Hill
#
# Bulk Modulus (GPa) = 14.13769 23.17677 18.65723
# Shear Modulus (GPa) = 21.48107 26.81872 24.14990
#
# Velocity S-wave (km/s) = 3.04701 3.40459 3.23075
# Velocity P-wave (km/s) = 4.29993 5.04699 4.68837
#
# Compressibility (1/GPa) = 0.07073289
#
# Stress axis : x y z
#
# Youngs Moduli (GPa) = 72.53848 72.53849 21.06429
#
# Poissons Ratio (x) = 0.24500 -0.01286
# Poissons Ratio (y) = 0.24500 -0.01286
# Poissons Ratio (z) = -0.04430 -0.04430
#
# Static dielectric constant tensor:
#      x y z
#    x 1.876800 0.000000 0.000000 
#    y 0.000000 1.876800 0.000000 
#    z 0.000000 0.000000 1.895760 
# 
# From -- ./inp_files/2144.got.cif
#   From: 2010.05.17/outbox.cif.g08.bks.cpg/sg79_cif.got.tgz:2144.got - 2010.06.03 18:47:27.
