data_PCOD9541287
_publ_section_title
;
Structure prediction by ZEFSAII (Michael W. Deem and Ramdas Pophale) SiO2 
 PCOD9541287
Probable space group: P 41
;
_chemical_formula_sum "Si O2"
_cell_formula_units_Z 16
_cell_length_a 7.412472
_cell_length_b 7.412472
_cell_length_c 11.296121
_cell_angle_alpha 90.000000
_cell_angle_beta 90.000000
_cell_angle_gamma 90.000000
_cell_volume 620.662444
_symmetry_space_group_name_H-M "P 41"
_symmetry_group_IT_number 76
_symmetry_cell_setting 'tetragonal'
loop_
_space_group_symop_operation_xyz
x,y,z
-y,x,1/4+z
-x,-y,1/2+z
y,-x,3/4+z
loop_
_atom_site_type_symbol
_atom_site_label
_atom_site_fract_x
_atom_site_fract_y
_atom_site_fract_z
Si Si1 0.212416 0.124390 0.642260
Si Si2 0.539540 0.104331 0.010159
Si Si3 0.419050 0.380117 0.178966
Si Si4 0.213266 0.970146 0.889398
O O1 0.356786 0.078990 0.542744
O O2 0.033356 0.996383 0.630188
O O3 0.177889 0.335127 0.655043
O O4 0.288153 0.047415 0.765662
O O5 0.331385 0.082957 0.982968
O O6 0.558049 0.236442 0.121528
O O7 0.476059 0.417429 0.316523
O O8 0.227718 0.276744 0.176215
#
# Coordination Sequence:
#
# PCOD9541287 Si02
#       4
#     4   4   4   4
#     4  10  23  45  72 100 144 201 249 316 384 453
#     4  11  23  46  71 105 146 197 252 317 382 458
#     4  12  26  47  75 114 160 205 261 329 389 471
#     4  11  22  46  70 105 152 197 252 316 387 456
#
# _framework density 25.778905999999999
#
# number of rings (size 3 to 8) (size 9 to 14) (size 15 to 20)
#    0.000    1.000    5.000    1.500    3.500    4.000 
#    0.000    0.000    0.000    0.000    0.000    0.000 
#    0.000    0.000    0.000    0.000    0.000    0.000 
#
# Total GULP energy -89131.316699 kJ/mol
# GULP energy per Si atom -5570.707294 kJ/mol
# Density = 2.572023 g / cm^3
# Si number density = 25.778906 Si / 1000 Ang^3
#
#
#
# Elastic Constant Matrix: (Units=GPa)
#
#
# Indices 1 2 3 4 5 6 
#
# 1 83.4625 33.2943 -0.2241 0.0000 0.0000 10.5285
# 2 33.2943 83.4625 -0.2241 0.0000 0.0000 -10.5285
# 3 -0.2241 -0.2241 54.8384 0.0000 0.0000 0.0000
# 4 0.0000 0.0000 0.0000 49.8886 0.0000 0.0000
# 5 0.0000 0.0000 0.0000 0.0000 49.8886 0.0000
# 6 10.5285 -10.5285 0.0000 0.0000 0.0000 28.6741
#
#
#
# Elastic Compliance Matrix: (Units=1/GPa)
#
#
# Indices 1 2 3 4 5 6 
#
# 1 0.016065 -0.007500 0.000035 0.000000 0.000000 -0.008652
# 2 -0.007500 0.016065 0.000035 0.000000 0.000000 0.008652
# 3 0.000035 0.000035 0.018236 0.000000 0.000000 0.000000
# 4 0.000000 0.000000 0.000000 0.020045 0.000000 0.000000
# 5 0.000000 0.000000 0.000000 0.000000 0.020045 0.000000
# 6 -0.008652 0.008652 0.000000 0.000000 0.000000 0.041229
#
#
# Mechanical properties :
#
#
# Convention : Reuss Voigt Hill
#
# Bulk Modulus (GPa) = 28.16461 31.93953 30.05207
# Shear Modulus (GPa) = 31.57004 38.28477 34.92740
#
# Velocity S-wave (km/s) = 3.50329 3.85791 3.68487
# Velocity P-wave (km/s) = 5.22621 5.67990 5.45777
#
# Compressibility (1/GPa) = 0.03550554
#
# Stress axis : x y z
#
# Youngs Moduli (GPa) = 62.24799 62.24799 54.83759
#
# Poissons Ratio (x) = 0.46685 -0.00192
# Poissons Ratio (y) = 0.46685 -0.00192
# Poissons Ratio (z) = -0.00218 -0.00218
#
# Static dielectric constant tensor:
#      x y z
#    x 2.046350 0.000000 0.000000 
#    y 0.000000 2.046350 0.000000 
#    z 0.000000 0.000000 2.159310 
# 
# From -- ./inp_files/746.got.cif
#   From: 2010.05.17/outbox.cif.g08.bks.cpg/sg76_cif.got.tgz:746.got - 2010.06.03 18:43:17.
