data_PCOD9541567
_publ_section_title
;
Structure prediction by ZEFSAII (Michael W. Deem and Ramdas Pophale) SiO2 
 PCOD9541567
Probable space group: P 42
;
_chemical_formula_sum "Si O2"
_cell_formula_units_Z 14
_cell_length_a 5.129329
_cell_length_b 5.129329
_cell_length_c 21.010843
_cell_angle_alpha 90.000000
_cell_angle_beta 90.000000
_cell_angle_gamma 90.000000
_cell_volume 552.795615
_symmetry_space_group_name_H-M "P 42"
_symmetry_group_IT_number 77
_symmetry_cell_setting 'tetragonal'
loop_
_space_group_symop_operation_xyz
x,y,z
-y,x,1/2+z
-x,-y,z
y,-x,1/2+z
loop_
_atom_site_type_symbol
_atom_site_label
_atom_site_fract_x
_atom_site_fract_y
_atom_site_fract_z
Si Si1 0.000000 0.000000 0.955791
Si Si2 0.500000 0.000000 0.377320
Si Si3 0.333255 0.264483 0.765910
Si Si4 0.242981 0.673734 0.568483
Si Si5 0.000000 0.000000 0.666875
O O1 0.891767 0.247841 0.915941
O O2 0.203763 0.149919 0.001530
O O3 0.632673 0.214499 0.331921
O O4 0.500000 0.500000 0.738881
O O5 0.107788 0.209625 0.715936
O O6 0.500000 0.000000 0.774105
O O7 0.500000 0.500000 0.563977
O O8 0.000000 0.500000 0.589107
O O9 0.229660 0.901744 0.620675
#
# Coordination Sequence:
#
# PCOD9541567 Si02
#       5
#     2   2   4   4   2
#     4  11  25  50  76 110 165 205 288 342 416 497
#     4  12  26  50  78 116 160 216 272 346 410 506
#     4  12  28  48  77 116 163 214 269 337 417 499
#     4  11  27  48  78 115 156 215 275 350 418 491
#     4  11  29  46  74 114 161 203 274 342 412 505
#
# _framework density 25.325811000000002
#
# number of rings (size 3 to 8) (size 9 to 14) (size 15 to 20)
#    0.000    0.571    0.000    6.000   10.000    6.857 
#    0.000    2.857    0.000    0.000    0.000    0.000 
#    0.000    0.000    0.000    0.000    0.000    0.000 
#
# Total GULP energy -78448.027462 kJ/mol
# GULP energy per Si atom -5603.430533 kJ/mol
# Density = 2.526817 g / cm^3
# Si number density = 25.325811 Si / 1000 Ang^3
#
#
#
# Elastic Constant Matrix: (Units=GPa)
#
#
# Indices 1 2 3 4 5 6 
#
# 1 182.1192 86.1540 70.4765 0.0000 0.0000 -2.4402
# 2 86.1540 182.1192 70.4765 0.0000 0.0000 2.4402
# 3 70.4765 70.4765 146.9597 0.0000 0.0000 0.0000
# 4 0.0000 0.0000 0.0000 24.9405 0.0000 0.0000
# 5 0.0000 0.0000 0.0000 0.0000 24.9405 0.0000
# 6 -2.4402 2.4402 0.0000 0.0000 0.0000 79.1641
#
#
#
# Elastic Compliance Matrix: (Units=1/GPa)
#
#
# Indices 1 2 3 4 5 6 
#
# 1 0.007710 -0.002727 -0.002390 0.000000 0.000000 0.000322
# 2 -0.002727 0.007710 -0.002390 0.000000 0.000000 -0.000322
# 3 -0.002390 -0.002390 0.009097 0.000000 0.000000 0.000000
# 4 0.000000 0.000000 0.000000 0.040095 0.000000 0.000000
# 5 0.000000 0.000000 0.000000 0.000000 0.040095 0.000000
# 6 0.000322 -0.000322 0.000000 0.000000 0.000000 0.012652
#
#
# Mechanical properties :
#
#
# Convention : Reuss Voigt Hill
#
# Bulk Modulus (GPa) = 105.21903 107.26804 106.24354
# Shear Modulus (GPa) = 36.88953 44.74841 40.81897
#
# Velocity S-wave (km/s) = 3.82068 4.20802 4.01902
# Velocity P-wave (km/s) = 7.81664 8.12755 7.97361
#
# Compressibility (1/GPa) = 0.00950398
#
# Stress axis : x y z
#
# Youngs Moduli (GPa) = 129.70220 129.70220 109.93075
#
# Poissons Ratio (x) = 0.35368 0.26270
# Poissons Ratio (y) = 0.35368 0.26270
# Poissons Ratio (z) = 0.30995 0.30995
#
# Static dielectric constant tensor:
#      x y z
#    x 2.087790 0.000000 0.000000 
#    y 0.000000 2.087790 0.000000 
#    z 0.000000 0.000000 2.019770 
# 
# From -- ./inp_files/1492.got.cif
#   From: 2010.05.17/outbox.cif.g08.bks.cpg/sg77_cif.got.tgz:1492.got - 2010.06.03 18:44:51.
