data_PCOD9541349
_publ_section_title
;
Structure prediction by ZEFSAII (Michael W. Deem and Ramdas Pophale) SiO2 
 PCOD9541349
Probable space group: P 41
;
_chemical_formula_sum "Si O2"
_cell_formula_units_Z 24
_cell_length_a 16.022631
_cell_length_b 16.022631
_cell_length_c 4.941418
_cell_angle_alpha 90.000000
_cell_angle_beta 90.000000
_cell_angle_gamma 90.000000
_cell_volume 1268.584074
_symmetry_space_group_name_H-M "P 41"
_symmetry_group_IT_number 76
_symmetry_cell_setting 'tetragonal'
loop_
_space_group_symop_operation_xyz
x,y,z
-y,x,1/4+z
-x,-y,1/2+z
y,-x,3/4+z
loop_
_atom_site_type_symbol
_atom_site_label
_atom_site_fract_x
_atom_site_fract_y
_atom_site_fract_z
Si Si1 0.248772 0.805206 0.058480
Si Si2 0.488267 0.060042 0.929182
Si Si3 0.885471 0.053957 0.388856
Si Si4 0.860217 0.654269 0.323592
Si Si5 0.024493 0.755952 0.278720
Si Si6 0.118993 0.698892 0.770408
O O1 0.286250 0.813385 0.357414
O O2 0.178921 0.878732 0.014622
O O3 0.327496 0.822115 0.864232
O O4 0.202729 0.724730 0.929508
O O5 0.559706 0.128580 0.982728
O O6 0.398168 0.101655 0.973456
O O7 0.499289 0.983204 0.139117
O O8 0.973050 0.095106 0.315634
O O9 0.841827 0.018600 0.116289
O O10 0.955100 0.687433 0.348967
O O11 0.103075 0.743403 0.481246
O O12 0.049072 0.734870 0.974827
#
# Coordination Sequence:
#
# PCOD9541349 Si02
#       6
#     4   4   4   4   4   4
#     4  11  25  39  55  77 116 153 192 241 300 340
#     4  12  22  37  62  89 111 143 197 253 301 356
#     4  11  25  34  50  76 105 160 212 253 269 318
#     4  11  22  39  58  79 110 148 187 242 294 357
#     4  11  22  37  53  74 110 143 197 242 292 325
#     4  12  22  40  56  81 110 147 189 241 300 350
#
# _framework density 18.918731000000001
#
# number of rings (size 3 to 8) (size 9 to 14) (size 15 to 20)
#    0.000    0.667    5.000    4.000    4.667    0.000 
#    0.000    0.000    0.000    0.000    0.000    0.000 
#    0.000    2.667    0.000    0.000    0.000    0.000 
#
# Total GULP energy -134160.193354 kJ/mol
# GULP energy per Si atom -5590.008056 kJ/mol
# Density = 1.887567 g / cm^3
# Si number density = 18.918731 Si / 1000 Ang^3
#
#
#
# Elastic Constant Matrix: (Units=GPa)
#
#
# Indices 1 2 3 4 5 6 
#
# 1 81.7956 20.1948 -0.5334 0.0000 0.0000 1.6426
# 2 20.1948 81.7956 -0.5334 0.0000 0.0000 -1.6426
# 3 -0.5334 -0.5334 68.2088 0.0000 0.0000 0.0000
# 4 0.0000 0.0000 0.0000 17.5912 0.0000 0.0000
# 5 0.0000 0.0000 0.0000 0.0000 17.5912 0.0000
# 6 1.6426 -1.6426 0.0000 0.0000 0.0000 14.1220
#
#
#
# Elastic Compliance Matrix: (Units=1/GPa)
#
#
# Indices 1 2 3 4 5 6 
#
# 1 0.013070 -0.003265 0.000077 0.000000 0.000000 -0.001900
# 2 -0.003265 0.013070 0.000077 0.000000 0.000000 0.001900
# 3 0.000077 0.000077 0.014662 0.000000 0.000000 0.000000
# 4 0.000000 0.000000 0.000000 0.056847 0.000000 0.000000
# 5 0.000000 0.000000 0.000000 0.000000 0.056847 0.000000
# 6 -0.001900 0.001900 0.000000 0.000000 0.000000 0.071254
#
#
# Mechanical properties :
#
#
# Convention : Reuss Voigt Hill
#
# Bulk Modulus (GPa) = 28.91838 30.00622 29.46230
# Shear Modulus (GPa) = 20.53399 24.03901 22.28650
#
# Velocity S-wave (km/s) = 3.29808 3.56848 3.43594
# Velocity P-wave (km/s) = 5.46094 5.73356 5.59891
#
# Compressibility (1/GPa) = 0.03458009
#
# Stress axis : x y z
#
# Youngs Moduli (GPa) = 76.50957 76.50957 68.20324
#
# Poissons Ratio (x) = 0.24977 -0.00523
# Poissons Ratio (y) = 0.24977 -0.00523
# Poissons Ratio (z) = -0.00587 -0.00587
#
# Static dielectric constant tensor:
#      x y z
#    x 1.679580 0.000000 0.000000 
#    y 0.000000 1.679580 0.000000 
#    z 0.000000 0.000000 1.713730 
# 
# From -- ./inp_files/174.got.cif
#   From: 2010.05.17/outbox.cif.g08.bks.cpg/sg76_cif.got.tgz:174.got - 2010.06.03 18:43:17.
