data_PCOD9541547
_publ_section_title
;
Structure prediction by ZEFSAII (Michael W. Deem and Ramdas Pophale) SiO2 
 PCOD9541547
Probable space group: P 42
;
_chemical_formula_sum "Si O2"
_cell_formula_units_Z 16
_cell_length_a 5.286459
_cell_length_b 5.286459
_cell_length_c 22.864622
_cell_angle_alpha 90.000000
_cell_angle_beta 90.000000
_cell_angle_gamma 90.000000
_cell_volume 638.989560
_symmetry_space_group_name_H-M "P 42"
_symmetry_group_IT_number 77
_symmetry_cell_setting 'tetragonal'
loop_
_space_group_symop_operation_xyz
x,y,z
-y,x,1/2+z
-x,-y,z
y,-x,1/2+z
loop_
_atom_site_type_symbol
_atom_site_label
_atom_site_fract_x
_atom_site_fract_y
_atom_site_fract_z
Si Si1 0.168320 0.746735 0.893310
Si Si2 0.241449 0.362677 0.056872
Si Si3 0.333474 0.250659 0.257559
Si Si4 0.000000 0.500000 0.175843
Si Si5 0.000000 0.500000 0.483232
O O1 0.261147 0.723026 0.826527
O O2 0.393800 0.790221 0.938827
O O3 0.000000 0.500000 0.903860
O O4 0.000000 0.000000 0.897696
O O5 0.500000 0.500000 0.043427
O O6 0.201272 0.402401 0.126269
O O7 0.000000 0.500000 0.030677
O O8 0.281982 0.091861 0.027801
O O9 0.500000 0.500000 0.241770
O O10 0.069507 0.280430 0.222702
O O11 0.500000 0.000000 0.245020
#
# Coordination Sequence:
#
# PCOD9541547 Si02
#       5
#     4   4   4   2   2
#     4  11  30  50  81 123 161 215 277 345 427 496
#     4  10  27  50  74 118 159 220 281 327 414 490
#     4  11  27  50  81 121 162 210 274 346 427 493
#     4  10  25  48  84 114 168 217 274 346 408 510
#     4  12  29  48  84 112 174 221 280 358 406 516
#
# _framework density 25.039532000000001
#
# number of rings (size 3 to 8) (size 9 to 14) (size 15 to 20)
#    0.750    0.500    0.000    1.500   22.750    0.000 
#    4.500    0.000    0.000    0.000    0.000    0.000 
#    0.000    0.000    0.000    0.000    0.000    0.000 
#
# Total GULP energy -89257.801424 kJ/mol
# GULP energy per Si atom -5578.612589 kJ/mol
# Density = 2.498254 g / cm^3
# Si number density = 25.039532 Si / 1000 Ang^3
#
#
#
# Elastic Constant Matrix: (Units=GPa)
#
#
# Indices 1 2 3 4 5 6 
#
# 1 138.1520 60.4271 64.8590 0.0000 0.0000 -3.8339
# 2 60.4271 138.1520 64.8590 0.0000 0.0000 3.8339
# 3 64.8590 64.8590 202.9380 0.0000 0.0000 0.0000
# 4 0.0000 0.0000 0.0000 -294.7118 0.0000 0.0000
# 5 0.0000 0.0000 0.0000 0.0000 -294.7118 0.0000
# 6 -3.8339 3.8339 0.0000 0.0000 0.0000 45.6762
#
#
#
# Elastic Compliance Matrix: (Units=1/GPa)
#
#
# Indices 1 2 3 4 5 6 
#
# 1 0.009669 -0.003304 -0.002034 0.000000 0.000000 0.001089
# 2 -0.003304 0.009669 -0.002034 0.000000 0.000000 -0.001089
# 3 -0.002034 -0.002034 0.006228 0.000000 0.000000 0.000000
# 4 0.000000 0.000000 0.000000 -0.003393 0.000000 0.000000
# 5 0.000000 0.000000 0.000000 0.000000 -0.003393 0.000000
# 6 0.001089 -0.001089 0.000000 0.000000 0.000000 0.022076
#
#
# Mechanical properties :
#
#
# Convention : Reuss Voigt Hill
#
# Bulk Modulus (GPa) = 92.41768 95.50358 93.96063
# Shear Modulus (GPa) = 84.44890 -89.47635 -2.51372
#
# Velocity S-wave (km/s) = 5.81373 -5.98428 -1.00304
# Velocity P-wave (km/s) = 9.05841 3.08624 6.02204
#
# Compressibility (1/GPa) = 0.01082044
#
# Stress axis : x y z
#
# Youngs Moduli (GPa) = 103.42424 103.42424 160.57009
#
# Poissons Ratio (x) = 0.34175 0.32662
# Poissons Ratio (y) = 0.34175 0.32662
# Poissons Ratio (z) = 0.21038 0.21038
#
# Static dielectric constant tensor:
#      x y z
#    x 3.947820 0.000000 0.000000 
#    y 0.000000 3.947820 0.000000 
#    z 0.000000 0.000000 1.941850 
# 
# From -- ./inp_files/1476.got.cif
#   From: 2010.05.17/outbox.cif.g08.bks.cpg/sg77_cif.got.tgz:1476.got - 2010.06.03 18:44:51.
