data_PCOD9541052
_publ_section_title
;
Structure prediction by ZEFSAII (Michael W. Deem and Ramdas Pophale) SiO2 
 PCOD9541052
Probable space group: P 4
;
_chemical_formula_sum "Si O2"
_cell_formula_units_Z 21
_cell_length_a 8.494354
_cell_length_b 8.494354
_cell_length_c 12.825782
_cell_angle_alpha 90.000000
_cell_angle_beta 90.000000
_cell_angle_gamma 90.000000
_cell_volume 925.432114
_symmetry_space_group_name_H-M "P 4"
_symmetry_group_IT_number 75
_symmetry_cell_setting 'tetragonal'
loop_
_space_group_symop_operation_xyz
x,y,z
-y,x,z
-x,-y,z
y,-x,z
loop_
_atom_site_type_symbol
_atom_site_label
_atom_site_fract_x
_atom_site_fract_y
_atom_site_fract_z
Si Si1 0.599635 0.840803 0.157620
Si Si2 0.384716 0.260294 0.391302
Si Si3 0.750683 0.911383 0.585906
Si Si4 0.584113 0.749991 0.772176
Si Si5 0.107859 0.767139 0.950903
Si Si6 0.500000 0.500000 0.111981
O O1 0.649765 0.800174 0.275199
O O2 0.494488 0.693244 0.119413
O O3 0.500000 0.000000 0.161145
O O4 0.733338 0.870809 0.072441
O O5 0.570661 0.298416 0.402546
O O6 0.331333 0.137624 0.478175
O O7 0.638120 0.865205 0.680907
O O8 0.909300 0.806279 0.592006
O O9 0.406731 0.691196 0.763196
O O10 0.623624 0.826169 0.883303
O O11 0.926497 0.799248 0.923840
#
# Coordination Sequence:
#
# PCOD9541052 Si02
#       6
#     4   4   4   4   4   1
#     4  12  26  44  74 106 146 196 244 307 383 436
#     4  11  24  44  70 103 140 184 245 304 359 440
#     4  11  26  45  68 102 146 191 240 302 370 445
#     4  11  26  45  72 104 138 185 245 307 370 448
#     4  11  27  46  68 103 144 187 243 305 369 450
#     4  12  24  48  68 104 146 192 248 312 356 470
#
# _framework density 22.692104
#
# number of rings (size 3 to 8) (size 9 to 14) (size 15 to 20)
#    0.000    0.762    1.905    3.429    8.000    6.857 
#    0.000    1.905    0.000    0.000    0.000    0.000 
#    0.000    0.000    0.000    0.000    0.000    0.000 
#
# Total GULP energy -117443.547943 kJ/mol
# GULP energy per Si atom -5592.549902 kJ/mol
# Density = 2.264046 g / cm^3
# Si number density = 22.692104 Si / 1000 Ang^3
#
#
#
# Elastic Constant Matrix: (Units=GPa)
#
#
# Indices 1 2 3 4 5 6 
#
# 1 82.2800 30.6726 11.2104 0.0000 0.0000 3.8949
# 2 30.6726 82.2800 11.2104 0.0000 0.0000 -3.8949
# 3 11.2104 11.2104 79.4393 0.0000 0.0000 0.0000
# 4 0.0000 0.0000 0.0000 93.8733 0.0000 0.0000
# 5 0.0000 0.0000 0.0000 0.0000 93.8733 0.0000
# 6 3.8949 -3.8949 0.0000 0.0000 0.0000 34.0138
#
#
#
# Elastic Compliance Matrix: (Units=1/GPa)
#
#
# Indices 1 2 3 4 5 6 
#
# 1 0.014413 -0.005305 -0.001285 0.000000 0.000000 -0.002258
# 2 -0.005305 0.014413 -0.001285 0.000000 0.000000 0.002258
# 3 -0.001285 -0.001285 0.012951 0.000000 0.000000 0.000000
# 4 0.000000 0.000000 0.000000 0.010653 0.000000 0.000000
# 5 0.000000 0.000000 0.000000 0.000000 0.010653 0.000000
# 6 -0.002258 0.002258 0.000000 0.000000 0.000000 0.029917
#
#
# Mechanical properties :
#
#
# Convention : Reuss Voigt Hill
#
# Bulk Modulus (GPa) = 38.42258 38.90955 38.66606
# Shear Modulus (GPa) = 42.58004 57.07916 49.82960
#
# Velocity S-wave (km/s) = 4.33647 5.02079 4.69113
# Velocity P-wave (km/s) = 6.48400 7.12707 6.81312
#
# Compressibility (1/GPa) = 0.02602636
#
# Stress axis : x y z
#
# Youngs Moduli (GPa) = 69.38109 69.38109 77.21406
#
# Poissons Ratio (x) = 0.36805 0.09925
# Poissons Ratio (y) = 0.36805 0.09925
# Poissons Ratio (z) = 0.08918 0.08918
#
# Static dielectric constant tensor:
#      x y z
#    x 1.811470 0.000000 0.000000 
#    y 0.000000 1.811470 0.000000 
#    z 0.000000 0.000000 1.815910 
# 
# From -- ./inp_files/514.got.cif
#   From: 2010.05.17/outbox.cif.g08.bks.cpg/sg75_cif.got.tgz:514.got - 2010.06.03 18:42:43.
