data_PCOD9541602
_publ_section_title
;
Structure prediction by ZEFSAII (Michael W. Deem and Ramdas Pophale) SiO2 
 PCOD9541602
Probable space group: P 43
;
_chemical_formula_sum "Si O2"
_cell_formula_units_Z 32
_cell_length_a 7.640762
_cell_length_b 7.640762
_cell_length_c 25.873816
_cell_angle_alpha 90.000000
_cell_angle_beta 90.000000
_cell_angle_gamma 90.000000
_cell_volume 1510.545564
_symmetry_space_group_name_H-M "P 43"
_symmetry_group_IT_number 78
_symmetry_cell_setting 'tetragonal'
loop_
_space_group_symop_operation_xyz
x,y,z
-y,x,3/4+z
-x,-y,1/2+z
y,-x,1/4+z
loop_
_atom_site_type_symbol
_atom_site_label
_atom_site_fract_x
_atom_site_fract_y
_atom_site_fract_z
Si Si1 0.127656 0.538795 0.963840
Si Si2 0.632987 0.274932 0.201965
Si Si3 0.744531 0.164875 0.095640
Si Si4 0.354316 0.207322 0.926189
Si Si5 0.539477 0.672722 0.317579
Si Si6 0.416981 0.689788 0.509836
Si Si7 0.374198 0.182770 0.551077
Si Si8 0.139082 0.173108 0.638838
O O1 0.222109 0.364820 0.941983
O O2 0.192209 0.707037 0.931034
O O3 0.920229 0.554737 0.956826
O O4 0.180635 0.551906 0.023595
O O5 0.689318 0.289063 0.142550
O O6 0.477291 0.396545 0.222247
O O7 0.790136 0.311436 0.242352
O O8 0.884014 0.031349 0.121114
O O9 0.759462 0.265326 0.041324
O O10 0.609742 0.012010 0.075084
O O11 0.461537 0.259155 0.875249
O O12 0.487569 0.172538 0.973244
O O13 0.248005 0.036372 0.911115
O O14 0.373539 0.553124 0.303375
O O15 0.708203 0.547817 0.310847
O O16 0.217401 0.260730 0.586965
#
# Coordination Sequence:
#
# PCOD9541602 Si02
#       8
#     4   4   4   4   4   4   4   4
#     4  10  21  37  60  88 128 166 207 267 321 381
#     4  10  19  40  60  82 130 165 201 268 327 386
#     4   9  20  40  56  90 124 162 207 264 323 383
#     4  11  20  38  61  95 121 161 227 253 321 397
#     4  10  19  35  61  88 119 165 210 271 311 384
#     4  10  22  35  62  88 125 163 210 266 325 386
#     4   9  19  37  62  86 115 171 206 256 326 377
#     4   9  20  36  62  85 124 167 206 267 318 384
#
# _framework density 21.184398999999999
#
# number of rings (size 3 to 8) (size 9 to 14) (size 15 to 20)
#    0.750    1.500    1.250    1.500    1.750    0.000 
#    4.500    1.250    5.500    0.000    0.000    0.000 
#    0.000    0.000    0.000    0.000    0.000    0.000 
#
# Total GULP energy -178205.887909 kJ/mol
# GULP energy per Si atom -5568.933997 kJ/mol
# Density = 2.113618 g / cm^3
# Si number density = 21.184399 Si / 1000 Ang^3
#
#
#
# Elastic Constant Matrix: (Units=GPa)
#
#
# Indices 1 2 3 4 5 6 
#
# 1 46.1347 7.5837 17.5247 0.0000 0.0000 -6.6704
# 2 7.5837 46.1347 17.5247 0.0000 0.0000 6.6704
# 3 17.5247 17.5247 127.6043 0.0000 0.0000 0.0000
# 4 0.0000 0.0000 0.0000 26.4260 0.0000 0.0000
# 5 0.0000 0.0000 0.0000 0.0000 26.4260 0.0000
# 6 -6.6704 6.6704 0.0000 0.0000 0.0000 15.3739
#
#
#
# Elastic Compliance Matrix: (Units=1/GPa)
#
#
# Indices 1 2 3 4 5 6 
#
# 1 0.025485 -0.005037 -0.002808 0.000000 0.000000 0.013243
# 2 -0.005037 0.025485 -0.002808 0.000000 0.000000 -0.013243
# 3 -0.002808 -0.002808 0.008608 0.000000 0.000000 0.000000
# 4 0.000000 0.000000 0.000000 0.037842 0.000000 0.000000
# 5 0.000000 0.000000 0.000000 0.000000 0.037842 0.000000
# 6 0.013243 -0.013243 0.000000 0.000000 0.000000 0.076537
#
#
# Mechanical properties :
#
#
# Convention : Reuss Voigt Hill
#
# Bulk Modulus (GPa) = 26.12956 33.90446 30.01701
# Shear Modulus (GPa) = 20.33651 25.46120 22.89886
#
# Velocity S-wave (km/s) = 3.10171 3.47058 3.29132
# Velocity P-wave (km/s) = 5.01882 5.66561 5.35199
#
# Compressibility (1/GPa) = 0.03827083
#
# Stress axis : x y z
#
# Youngs Moduli (GPa) = 39.23846 39.23846 116.17000
#
# Poissons Ratio (x) = 0.19766 0.32623
# Poissons Ratio (y) = 0.19766 0.32623
# Poissons Ratio (z) = 0.11019 0.11019
#
# Static dielectric constant tensor:
#      x y z
#    x 1.824970 0.000000 0.000000 
#    y 0.000000 1.824970 0.000000 
#    z 0.000000 0.000000 1.805990 
# 
# From -- ./inp_files/1585.got.cif
#   From: 2010.05.17/outbox.cif.g08.bks.cpg/sg78_cif.got.tgz:1585.got - 2010.06.03 18:45:56.
