data_PCOD9541648
_publ_section_title
;
Structure prediction by ZEFSAII (Michael W. Deem and Ramdas Pophale) SiO2 
 PCOD9541648
Probable space group: P 43
;
_chemical_formula_sum "Si O2"
_cell_formula_units_Z 24
_cell_length_a 11.514359
_cell_length_b 11.514359
_cell_length_c 7.519158
_cell_angle_alpha 90.000000
_cell_angle_beta 90.000000
_cell_angle_gamma 90.000000
_cell_volume 996.893450
_symmetry_space_group_name_H-M "P 43"
_symmetry_group_IT_number 78
_symmetry_cell_setting 'tetragonal'
loop_
_space_group_symop_operation_xyz
x,y,z
-y,x,3/4+z
-x,-y,1/2+z
y,-x,1/4+z
loop_
_atom_site_type_symbol
_atom_site_label
_atom_site_fract_x
_atom_site_fract_y
_atom_site_fract_z
Si Si1 0.476011 0.822780 0.060380
Si Si2 0.798950 0.737495 0.104529
Si Si3 0.008483 0.242702 0.365481
Si Si4 0.023510 0.607876 0.542650
Si Si5 0.601035 0.612691 0.964218
Si Si6 0.953409 0.136887 0.893951
O O1 0.471488 0.930251 0.193019
O O2 0.543336 0.704918 0.104363
O O3 0.343628 0.786195 0.024107
O O4 0.534376 0.870694 0.876517
O O5 0.763977 0.870208 0.122028
O O6 0.725941 0.673682 0.948340
O O7 0.933130 0.732360 0.051819
O O8 0.036402 0.337680 0.216618
O O9 0.073064 0.128654 0.290358
O O10 0.055585 0.724268 0.428230
O O11 0.610413 0.485887 0.049343
O O12 0.081115 0.091368 0.958223
#
# Coordination Sequence:
#
# PCOD9541648 Si02
#       6
#     4   4   4   4   4   4
#     4  11  24  42  64  97 133 176 226 285 327 404
#     4  11  23  41  69  95 137 181 220 277 347 396
#     4  11  20  40  63  96 137 177 215 268 335 412
#     4  11  23  41  61  95 135 174 224 266 335 402
#     4  10  23  46  72  96 128 175 233 287 338 394
#     4  10  21  36  61  93 134 167 212 263 328 414
#
# _framework density 24.074788999999999
#
# number of rings (size 3 to 8) (size 9 to 14) (size 15 to 20)
#    0.000    1.333    5.000    1.000    2.333    1.333 
#    3.000    1.667    0.000    0.000    0.000    0.000 
#    0.000    0.000    0.000    0.000    0.000    0.000 
#
# Total GULP energy -134028.604026 kJ/mol
# GULP energy per Si atom -5584.525168 kJ/mol
# Density = 2.401999 g / cm^3
# Si number density = 24.074789 Si / 1000 Ang^3
#
#
#
# Elastic Constant Matrix: (Units=GPa)
#
#
# Indices 1 2 3 4 5 6 
#
# 1 103.4130 14.5567 16.6758 0.0000 0.0000 2.9562
# 2 14.5567 103.4130 16.6758 0.0000 0.0000 -2.9562
# 3 16.6758 16.6758 31.3941 0.0000 0.0000 0.0000
# 4 0.0000 0.0000 0.0000 30.9028 0.0000 0.0000
# 5 0.0000 0.0000 0.0000 0.0000 30.9028 0.0000
# 6 2.9562 -2.9562 0.0000 0.0000 0.0000 43.5834
#
#
#
# Elastic Compliance Matrix: (Units=1/GPa)
#
#
# Indices 1 2 3 4 5 6 
#
# 1 0.010640 -0.000665 -0.005298 0.000000 0.000000 -0.000767
# 2 -0.000665 0.010640 -0.005298 0.000000 0.000000 0.000767
# 3 -0.005298 -0.005298 0.037482 0.000000 0.000000 0.000000
# 4 0.000000 0.000000 0.000000 0.032360 0.000000 0.000000
# 5 0.000000 0.000000 0.000000 0.000000 0.032360 0.000000
# 6 -0.000767 0.000767 0.000000 0.000000 0.000000 0.023049
#
#
# Mechanical properties :
#
#
# Convention : Reuss Voigt Hill
#
# Bulk Modulus (GPa) = 27.59542 37.11519 32.35531
# Shear Modulus (GPa) = 27.60416 33.76526 30.68471
#
# Velocity S-wave (km/s) = 3.38982 3.74908 3.57397
# Velocity P-wave (km/s) = 5.17769 5.84730 5.52265
#
# Compressibility (1/GPa) = 0.03623790
#
# Stress axis : x y z
#
# Youngs Moduli (GPa) = 93.98585 93.98585 26.67963
#
# Poissons Ratio (x) = 0.06252 0.14136
# Poissons Ratio (y) = 0.06252 0.14136
# Poissons Ratio (z) = 0.49796 0.49796
#
# Static dielectric constant tensor:
#      x y z
#    x 1.984990 0.000000 0.000000 
#    y 0.000000 1.984990 0.000000 
#    z 0.000000 0.000000 1.951190 
# 
# From -- ./inp_files/576.got.cif
#   From: 2010.05.17/outbox.cif.g08.bks.cpg/sg78_cif.got.tgz:576.got - 2010.06.03 18:45:56.
