data_PCOD9541089
_publ_section_title
;
Structure prediction by ZEFSAII (Michael W. Deem and Ramdas Pophale) SiO2 
 PCOD9541089
Probable space group: P 41
;
_chemical_formula_sum "Si O2"
_cell_formula_units_Z 32
_cell_length_a 7.300707
_cell_length_b 7.300707
_cell_length_c 22.712836
_cell_angle_alpha 90.000000
_cell_angle_beta 90.000000
_cell_angle_gamma 90.000000
_cell_volume 1210.601488
_symmetry_space_group_name_H-M "P 41"
_symmetry_group_IT_number 76
_symmetry_cell_setting 'tetragonal'
loop_
_space_group_symop_operation_xyz
x,y,z
-y,x,1/4+z
-x,-y,1/2+z
y,-x,3/4+z
loop_
_atom_site_type_symbol
_atom_site_label
_atom_site_fract_x
_atom_site_fract_y
_atom_site_fract_z
Si Si1 0.249948 0.220379 0.484210
Si Si2 0.792643 0.703484 0.611319
Si Si3 0.730337 0.691478 0.735418
Si Si4 0.297399 0.277342 0.358741
Si Si5 0.367749 0.819689 0.607029
Si Si6 0.713279 0.260772 0.234734
Si Si7 0.808210 0.683924 0.234912
Si Si8 0.673452 0.751210 0.104443
O O1 0.470444 0.255518 0.482506
O O2 0.186312 0.284844 0.419836
O O3 0.196261 0.294359 0.548749
O O4 0.224037 0.005122 0.483028
O O5 0.834105 0.769003 0.678048
O O6 0.835190 0.485058 0.613876
O O7 0.572756 0.742788 0.612139
O O8 0.843865 0.766574 0.545168
O O9 0.804050 0.764861 0.797873
O O10 0.510973 0.728133 0.737386
O O11 0.361239 0.486776 0.349671
O O12 0.259448 0.805365 0.668078
O O13 0.273664 0.728041 0.549752
O O14 0.378210 0.036269 0.594355
O O15 0.803301 0.462145 0.236435
O O16 0.726800 0.731933 0.171939
#
# Coordination Sequence:
#
# PCOD9541089 Si02
#       8
#     4   4   4   4   4   4   4   4
#     4   9  18  31  47  70  98 121 152 197 236 272
#     4   8  14  27  48  70  93 118 148 189 234 272
#     4   8  14  27  48  70  93 118 148 189 234 272
#     4   9  16  29  50  71  91 119 155 193 231 278
#     4   9  18  31  47  70  98 121 152 197 236 272
#     4   9  16  29  50  71  91 119 155 193 231 278
#     4  10  19  31  49  69  93 126 158 191 234 278
#     4  10  19  31  49  69  93 126 158 191 234 278
#
# _framework density 26.433140000000002
#
# number of rings (size 3 to 8) (size 9 to 14) (size 15 to 20)
#    0.000    3.000    0.000    2.250    0.000    3.000 
#    0.000   10.000    0.000   16.500    0.000    0.000 
#    0.000    0.000    0.000    0.000    0.000    0.000 
#
# Total GULP energy -178262.262217 kJ/mol
# GULP energy per Si atom -5570.695694 kJ/mol
# Density = 2.637298 g / cm^3
# Si number density = 26.433140 Si / 1000 Ang^3
#
#
#
# Elastic Constant Matrix: (Units=GPa)
#
#
# Indices 1 2 3 4 5 6 
#
# 1 68.1840 -10.6031 11.3293 0.0000 0.0000 10.0222
# 2 -10.6031 68.1840 11.3293 0.0000 0.0000 -10.0222
# 3 11.3293 11.3293 318.6152 0.0000 0.0000 0.0000
# 4 0.0000 0.0000 0.0000 364.6941 0.0000 0.0000
# 5 0.0000 0.0000 0.0000 0.0000 364.6941 0.0000
# 6 10.0222 -10.0222 0.0000 0.0000 0.0000 -0.5431
#
#
#
# Elastic Compliance Matrix: (Units=1/GPa)
#
#
# Indices 1 2 3 4 5 6 
#
# 1 0.009921 0.007692 -0.000626 0.000000 0.000000 0.041128
# 2 0.007692 0.009921 -0.000626 0.000000 0.000000 -0.041128
# 3 -0.000626 -0.000626 0.003183 0.000000 0.000000 0.000000
# 4 0.000000 0.000000 0.000000 0.002742 0.000000 0.000000
# 5 0.000000 0.000000 0.000000 0.000000 0.002742 0.000000
# 6 0.041128 -0.041128 0.000000 0.000000 0.000000 -0.323318
#
#
# Mechanical properties :
#
#
# Convention : Reuss Voigt Hill
#
# Bulk Modulus (GPa) = 27.85157 53.23268 40.54213
# Shear Modulus (GPa) = -16.90791 175.29752 79.19481
#
# Velocity S-wave (km/s) = -2.53187 8.15238 5.47955
# Velocity P-wave (km/s) = 1.41857 10.43060 7.44344
#
# Compressibility (1/GPa) = 0.03590461
#
# Stress axis : x y z
#
# Youngs Moduli (GPa) = 100.79512 100.79512 314.15696
#
# Poissons Ratio (x) = -0.77534 0.19675
# Poissons Ratio (y) = -0.77534 0.19675
# Poissons Ratio (z) = 0.06313 0.06313
#
# Static dielectric constant tensor:
#      x y z
#    x 1.978190 0.000000 0.000000 
#    y 0.000000 1.978190 0.000000 
#    z 0.000000 0.000000 2.271680 
# 
# From -- ./inp_files/1558.got.cif
#   From: 2010.05.17/outbox.cif.g08.bks.cpg/sg76_cif.got.tgz:1558.got - 2010.06.03 18:43:17.
