data_PCOD9541187
_publ_section_title
;
Structure prediction by ZEFSAII (Michael W. Deem and Ramdas Pophale) SiO2 
 PCOD9541187
Probable space group: P 41
;
_chemical_formula_sum "Si O2"
_cell_formula_units_Z 24
_cell_length_a 14.616589
_cell_length_b 14.616589
_cell_length_c 4.913501
_cell_angle_alpha 90.000000
_cell_angle_beta 90.000000
_cell_angle_gamma 90.000000
_cell_volume 1049.743319
_symmetry_space_group_name_H-M "P 41"
_symmetry_group_IT_number 76
_symmetry_cell_setting 'tetragonal'
loop_
_space_group_symop_operation_xyz
x,y,z
-y,x,1/4+z
-x,-y,1/2+z
y,-x,3/4+z
loop_
_atom_site_type_symbol
_atom_site_label
_atom_site_fract_x
_atom_site_fract_y
_atom_site_fract_z
Si Si1 0.303193 0.704637 0.606650
Si Si2 0.012618 0.437602 0.189244
Si Si3 0.096555 0.744343 0.547431
Si Si4 0.638129 0.474354 0.866033
Si Si5 0.045568 0.863650 0.053409
Si Si6 0.393709 0.785047 0.095988
O O1 0.202185 0.721400 0.493154
O O2 0.331788 0.598073 0.596538
O O3 0.371926 0.758299 0.405423
O O4 0.314162 0.744721 0.905885
O O5 0.108688 0.403530 0.305272
O O6 0.972167 0.507096 0.410943
O O7 0.950298 0.349711 0.138119
O O8 0.092432 0.818651 0.790089
O O9 0.044346 0.786718 0.287729
O O10 0.565510 0.416891 0.695160
O O11 0.732081 0.514384 0.749429
O O12 0.099202 0.948460 0.192149
#
# Coordination Sequence:
#
# PCOD9541187 Si02
#       6
#     4   4   4   4   4   4
#     4  11  25  43  66 104 139 182 236 300 355 431
#     4  12  27  48  71 103 145 197 244 298 367 445
#     4  12  27  45  78 104 150 197 249 308 372 453
#     4  10  21  40  69 100 138 183 232 291 357 416
#     4  12  27  49  75 111 147 190 245 314 381 448
#     4  11  25  43  71 100 141 183 236 297 354 433
#
# _framework density 22.862731
#
# number of rings (size 3 to 8) (size 9 to 14) (size 15 to 20)
#    0.000    0.667    0.000    7.000    7.000    8.000 
#    0.000    0.000    0.000    0.000    0.000    0.000 
#    0.000    0.000    0.000    0.000    0.000    0.000 
#
# Total GULP energy -134313.879134 kJ/mol
# GULP energy per Si atom -5596.411631 kJ/mol
# Density = 2.281069 g / cm^3
# Si number density = 22.862731 Si / 1000 Ang^3
#
#
#
# Elastic Constant Matrix: (Units=GPa)
#
#
# Indices 1 2 3 4 5 6 
#
# 1 73.7186 43.6136 17.0103 0.0000 0.0000 -4.7739
# 2 43.6136 73.7186 17.0103 0.0000 0.0000 4.7739
# 3 17.0103 17.0103 103.6635 0.0000 0.0000 0.0000
# 4 0.0000 0.0000 0.0000 25.7931 0.0000 0.0000
# 5 0.0000 0.0000 0.0000 0.0000 25.7931 0.0000
# 6 -4.7739 4.7739 0.0000 0.0000 0.0000 15.1296
#
#
#
# Elastic Compliance Matrix: (Units=1/GPa)
#
#
# Indices 1 2 3 4 5 6 
#
# 1 0.022930 -0.013981 -0.001468 0.000000 0.000000 0.011646
# 2 -0.013981 0.022930 -0.001468 0.000000 0.000000 -0.011646
# 3 -0.001468 -0.001468 0.010128 0.000000 0.000000 0.000000
# 4 0.000000 0.000000 0.000000 0.038770 0.000000 0.000000
# 5 0.000000 0.000000 0.000000 0.000000 0.038770 0.000000
# 6 0.011646 -0.011646 0.000000 0.000000 0.000000 0.073445
#
#
# Mechanical properties :
#
#
# Convention : Reuss Voigt Hill
#
# Bulk Modulus (GPa) = 45.14246 45.15213 45.14730
# Shear Modulus (GPa) = 20.14561 24.90759 22.52660
#
# Velocity S-wave (km/s) = 2.97165 3.30425 3.14235
# Velocity P-wave (km/s) = 5.61802 5.86085 5.74072
#
# Compressibility (1/GPa) = 0.02215209
#
# Stress axis : x y z
#
# Youngs Moduli (GPa) = 43.61171 43.61171 98.73133
#
# Poissons Ratio (x) = 0.60974 0.14498
# Poissons Ratio (y) = 0.60974 0.14498
# Poissons Ratio (z) = 0.06404 0.06404
#
# Static dielectric constant tensor:
#      x y z
#    x 1.834610 0.000000 0.000000 
#    y 0.000000 1.834610 0.000000 
#    z 0.000000 0.000000 1.856960 
# 
# From -- ./inp_files/159.got.cif
#   From: 2010.05.17/outbox.cif.g08.bks.cpg/sg76_cif.got.tgz:159.got - 2010.06.03 18:43:17.
