data_PCOD9541462
_publ_section_title
;
Structure prediction by ZEFSAII (Michael W. Deem and Ramdas Pophale) SiO2 
 PCOD9541462
Probable space group: P 42
;
_chemical_formula_sum "Si O2"
_cell_formula_units_Z 30
_cell_length_a 7.915731
_cell_length_b 7.915731
_cell_length_c 22.990229
_cell_angle_alpha 90.000000
_cell_angle_beta 90.000000
_cell_angle_gamma 90.000000
_cell_volume 1440.540098
_symmetry_space_group_name_H-M "P 42"
_symmetry_group_IT_number 77
_symmetry_cell_setting 'tetragonal'
loop_
_space_group_symop_operation_xyz
x,y,z
-y,x,1/2+z
-x,-y,z
y,-x,1/2+z
loop_
_atom_site_type_symbol
_atom_site_label
_atom_site_fract_x
_atom_site_fract_y
_atom_site_fract_z
Si Si1 0.844672 0.686321 0.862060
Si Si2 0.707321 0.510377 0.329578
Si Si3 0.043343 0.323375 0.730348
Si Si4 0.190674 0.064489 0.649857
Si Si5 0.245110 0.333466 0.207490
Si Si6 0.812986 0.308252 0.911251
Si Si7 0.827549 0.383449 0.043375
Si Si8 0.500000 0.500000 0.119179
O O1 0.663840 0.773781 0.856966
O O2 0.821247 0.507137 0.893738
O O3 0.890924 0.650201 0.795070
O O4 0.005883 0.768863 0.892954
O O5 0.500000 0.500000 0.328792
O O6 0.758201 0.544848 0.263063
O O7 0.760447 0.663689 0.371119
O O8 0.856595 0.244792 0.733886
O O9 0.000000 0.500000 0.700469
O O10 0.180211 0.218529 0.694870
O O11 0.233726 0.121060 0.585926
O O12 0.324204 0.923563 0.669196
O O13 0.000000 0.000000 0.650758
O O14 0.403875 0.373783 0.165201
O O15 0.784103 0.313273 0.979760
O O16 0.658768 0.455347 0.076178
O O17 0.000000 0.500000 0.038270
#
# Coordination Sequence:
#
# PCOD9541462 Si02
#       8
#     4   4   4   4   4   4   4   2
#     4  10  18  31  57  90 117 160 211 266 334 387
#     4  10  19  31  58  89 124 158 211 272 326 406
#     4  11  19  36  63  88 120 164 216 263 336 407
#     4  10  25  42  62  91 132 178 215 275 341 407
#     4  11  21  38  58  94 132 159 214 275 341 403
#     4  10  20  35  56  88 126 167 216 274 329 388
#     4  12  24  40  63  91 134 170 227 283 327 406
#     4  12  26  36  64 102 126 178 218 280 350 394
#
# _framework density 20.825523
#
# number of rings (size 3 to 8) (size 9 to 14) (size 15 to 20)
#    0.000    1.333    6.000    1.600    4.667    0.000 
#    0.000    0.000    2.933    0.000    0.000    0.000 
#    0.000    0.000    0.000    0.000    0.000    0.000 
#
# Total GULP energy -167220.788504 kJ/mol
# GULP energy per Si atom -5574.026283 kJ/mol
# Density = 2.077812 g / cm^3
# Si number density = 20.825523 Si / 1000 Ang^3
#
#
#
# Elastic Constant Matrix: (Units=GPa)
#
#
# Indices 1 2 3 4 5 6 
#
# 1 95.5827 25.9881 43.4989 0.0000 0.0000 6.8789
# 2 25.9881 95.5827 43.4989 0.0000 0.0000 -6.8789
# 3 43.4989 43.4989 164.3703 0.0000 0.0000 0.0000
# 4 0.0000 0.0000 0.0000 23.1014 0.0000 0.0000
# 5 0.0000 0.0000 0.0000 0.0000 23.1014 0.0000
# 6 6.8789 -6.8789 0.0000 0.0000 0.0000 15.2384
#
#
#
# Elastic Compliance Matrix: (Units=1/GPa)
#
#
# Indices 1 2 3 4 5 6 
#
# 1 0.012962 -0.002815 -0.002685 0.000000 0.000000 -0.007122
# 2 -0.002815 0.012962 -0.002685 0.000000 0.000000 0.007122
# 3 -0.002685 -0.002685 0.007505 0.000000 0.000000 0.000000
# 4 0.000000 0.000000 0.000000 0.043287 0.000000 0.000000
# 5 0.000000 0.000000 0.000000 0.000000 0.043287 0.000000
# 6 -0.007122 0.007122 0.000000 0.000000 0.000000 0.072054
#
#
# Mechanical properties :
#
#
# Convention : Reuss Voigt Hill
#
# Bulk Modulus (GPa) = 58.62248 64.61194 61.61721
# Shear Modulus (GPa) = 23.35194 28.45823 25.90508
#
# Velocity S-wave (km/s) = 3.35223 3.70064 3.53074
# Velocity P-wave (km/s) = 6.57220 7.02512 6.80243
#
# Compressibility (1/GPa) = 0.01705830
#
# Stress axis : x y z
#
# Youngs Moduli (GPa) = 77.14791 77.14791 133.24178
#
# Poissons Ratio (x) = 0.21715 0.35781
# Poissons Ratio (y) = 0.21715 0.35781
# Poissons Ratio (z) = 0.20717 0.20717
#
# Static dielectric constant tensor:
#      x y z
#    x 1.808620 0.000000 0.000000 
#    y 0.000000 1.808620 0.000000 
#    z 0.000000 0.000000 1.690180 
# 
# From -- ./inp_files/1569.got.cif
#   From: 2010.05.17/outbox.cif.g08.bks.cpg/sg77_cif.got.tgz:1569.got - 2010.06.03 18:44:51.
