data_PCOD9541280
_publ_section_title
;
Structure prediction by ZEFSAII (Michael W. Deem and Ramdas Pophale) SiO2 
 PCOD9541280
Probable space group: P 41
;
_chemical_formula_sum "Si O2"
_cell_formula_units_Z 28
_cell_length_a 12.123637
_cell_length_b 12.123637
_cell_length_c 7.449665
_cell_angle_alpha 90.000000
_cell_angle_beta 90.000000
_cell_angle_gamma 90.000000
_cell_volume 1094.970938
_symmetry_space_group_name_H-M "P 41"
_symmetry_group_IT_number 76
_symmetry_cell_setting 'tetragonal'
loop_
_space_group_symop_operation_xyz
x,y,z
-y,x,1/4+z
-x,-y,1/2+z
y,-x,3/4+z
loop_
_atom_site_type_symbol
_atom_site_label
_atom_site_fract_x
_atom_site_fract_y
_atom_site_fract_z
Si Si1 0.501641 0.865691 0.512970
Si Si2 0.605944 0.806603 0.902228
Si Si3 0.030405 0.322904 0.233658
Si Si4 0.265746 0.376273 0.209056
Si Si5 0.632432 0.447926 0.147561
Si Si6 0.116011 0.071860 0.867604
Si Si7 0.034520 0.281842 0.659005
O O1 0.551700 0.839869 0.708754
O O2 0.539360 0.763205 0.394016
O O3 0.372041 0.884512 0.497042
O O4 0.555718 0.981470 0.457203
O O5 0.678341 0.698279 0.861132
O O6 0.498067 0.773674 0.014108
O O7 0.682389 0.909055 0.960273
O O8 0.152474 0.314902 0.153481
O O9 0.041916 0.293260 0.443916
O O10 0.936551 0.245072 0.151264
O O11 0.352624 0.389354 0.047629
O O12 0.585281 0.562211 0.226250
O O13 0.070892 0.163050 0.730741
O O14 0.088477 0.950189 0.798599
#
# Coordination Sequence:
#
# PCOD9541280 Si02
#       7
#     4   4   4   4   4   4   4
#     4  10  23  43  72 102 143 188 245 299 361 451
#     4  10  23  41  74 102 146 194 245 303 375 440
#     4  11  27  45  76 105 144 198 242 306 376 440
#     4  11  21  43  71 101 141 195 242 297 371 445
#     4  11  24  42  71 103 147 192 245 306 379 442
#     4  12  30  47  74 103 148 187 248 305 378 438
#     4  11  26  47  70 112 141 194 255 304 368 458
#
# _framework density 25.571453000000002
#
# number of rings (size 3 to 8) (size 9 to 14) (size 15 to 20)
#    0.000    1.143    4.286    0.857   14.000    1.143 
#    0.000    0.000    0.000    0.000    0.000    0.000 
#    0.000    0.000    0.000    0.000    0.000    0.000 
#
# Total GULP energy -156922.608826 kJ/mol
# GULP energy per Si atom -5604.378887 kJ/mol
# Density = 2.551325 g / cm^3
# Si number density = 25.571453 Si / 1000 Ang^3
#
#
#
# Elastic Constant Matrix: (Units=GPa)
#
#
# Indices 1 2 3 4 5 6 
#
# 1 134.0945 51.9506 18.4537 0.0000 0.0000 2.0995
# 2 51.9506 134.0945 18.4537 0.0000 0.0000 -2.0995
# 3 18.4537 18.4537 79.3267 0.0000 0.0000 0.0000
# 4 0.0000 0.0000 0.0000 18.1842 0.0000 0.0000
# 5 0.0000 0.0000 0.0000 0.0000 18.1842 0.0000
# 6 2.0995 -2.0995 0.0000 0.0000 0.0000 46.6557
#
#
#
# Elastic Compliance Matrix: (Units=1/GPa)
#
#
# Indices 1 2 3 4 5 6 
#
# 1 0.008918 -0.003283 -0.001311 0.000000 0.000000 -0.000549
# 2 -0.003283 0.008918 -0.001311 0.000000 0.000000 0.000549
# 3 -0.001311 -0.001311 0.013216 0.000000 0.000000 0.000000
# 4 0.000000 0.000000 0.000000 0.054993 0.000000 0.000000
# 5 0.000000 0.000000 0.000000 0.000000 0.054993 0.000000
# 6 -0.000549 0.000549 0.000000 0.000000 0.000000 0.021483
#
#
# Mechanical properties :
#
#
# Convention : Reuss Voigt Hill
#
# Bulk Modulus (GPa) = 51.96792 58.35907 55.16350
# Shear Modulus (GPa) = 27.66310 33.84865 30.75587
#
# Velocity S-wave (km/s) = 3.29264 3.64220 3.47182
# Velocity P-wave (km/s) = 5.90102 6.36860 6.13926
#
# Compressibility (1/GPa) = 0.01924264
#
# Stress axis : x y z
#
# Youngs Moduli (GPa) = 112.12696 112.12696 75.66586
#
# Poissons Ratio (x) = 0.36815 0.09919
# Poissons Ratio (y) = 0.36815 0.09919
# Poissons Ratio (z) = 0.14699 0.14699
#
# Static dielectric constant tensor:
#      x y z
#    x 2.006590 0.000000 0.000000 
#    y 0.000000 2.006590 0.000000 
#    z 0.000000 0.000000 2.036330 
# 
# From -- ./inp_files/590.got.cif
#   From: 2010.05.17/outbox.cif.g08.bks.cpg/sg76_cif.got.tgz:590.got - 2010.06.03 18:43:17.
