data_PCOD9541113
_publ_section_title
;
Structure prediction by ZEFSAII (Michael W. Deem and Ramdas Pophale) SiO2 
 PCOD9541113
Probable space group: P 41
;
_chemical_formula_sum "Si O2"
_cell_formula_units_Z 28
_cell_length_a 9.938655
_cell_length_b 9.938655
_cell_length_c 11.496594
_cell_angle_alpha 90.000000
_cell_angle_beta 90.000000
_cell_angle_gamma 90.000000
_cell_volume 1135.597493
_symmetry_space_group_name_H-M "P 41"
_symmetry_group_IT_number 76
_symmetry_cell_setting 'tetragonal'
loop_
_space_group_symop_operation_xyz
x,y,z
-y,x,1/4+z
-x,-y,1/2+z
y,-x,3/4+z
loop_
_atom_site_type_symbol
_atom_site_label
_atom_site_fract_x
_atom_site_fract_y
_atom_site_fract_z
Si Si1 0.864674 0.738183 0.569390
Si Si2 0.969373 0.937265 0.880947
Si Si3 0.691451 0.306829 0.116620
Si Si4 0.099920 0.529285 0.175945
Si Si5 0.597855 0.783908 0.701476
Si Si6 0.360742 0.899600 0.141540
Si Si7 0.398403 0.807820 0.394564
O O1 0.933772 0.871400 0.610511
O O2 0.816813 0.756474 0.437341
O O3 0.944037 0.603359 0.599523
O O4 0.725124 0.720036 0.639569
O O5 0.932791 0.040566 0.774472
O O6 0.905855 0.792688 0.847834
O O7 0.536210 0.289950 0.158356
O O8 0.753809 0.448516 0.152656
O O9 0.692661 0.281205 0.979201
O O10 0.146870 0.470010 0.297715
O O11 0.962661 0.612077 0.189003
O O12 0.207656 0.598479 0.091595
O O13 0.603748 0.941973 0.664669
O O14 0.365190 0.816704 0.259617
#
# Coordination Sequence:
#
# PCOD9541113 Si02
#       7
#     4   4   4   4   4   4   4
#     4  10  20  38  68  90 121 166 209 259 317 381
#     4  11  23  40  63  93 134 171 213 266 317 383
#     4  11  20  39  63  90 125 159 208 263 312 376
#     4  10  19  39  67  88 122 165 211 251 314 387
#     4   9  19  36  66  90 114 166 209 252 308 374
#     4  10  20  41  59  88 129 164 208 256 313 378
#     4  11  23  39  64  93 125 165 208 267 323 373
#
# _framework density 24.656621999999999
#
# number of rings (size 3 to 8) (size 9 to 14) (size 15 to 20)
#    0.000    1.714    4.286    0.857    0.000    1.143 
#    2.571    1.429    0.000    0.000    0.000    0.000 
#    0.000    0.000    0.000    0.000    0.000    0.000 
#
# Total GULP energy -156383.758537 kJ/mol
# GULP energy per Si atom -5585.134233 kJ/mol
# Density = 2.460050 g / cm^3
# Si number density = 24.656622 Si / 1000 Ang^3
#
#
#
# Elastic Constant Matrix: (Units=GPa)
#
#
# Indices 1 2 3 4 5 6 
#
# 1 45.8924 4.4577 16.4421 0.0000 0.0000 -3.9405
# 2 4.4577 45.8924 16.4421 0.0000 0.0000 3.9405
# 3 16.4421 16.4421 187.0478 0.0000 0.0000 0.0000
# 4 0.0000 0.0000 0.0000 35.3850 0.0000 0.0000
# 5 0.0000 0.0000 0.0000 0.0000 35.3850 0.0000
# 6 -3.9405 3.9405 0.0000 0.0000 0.0000 12.3059
#
#
#
# Elastic Compliance Matrix: (Units=1/GPa)
#
#
# Indices 1 2 3 4 5 6 
#
# 1 0.023385 -0.002315 -0.001852 0.000000 0.000000 0.008229
# 2 -0.002315 0.023385 -0.001852 0.000000 0.000000 -0.008229
# 3 -0.001852 -0.001852 0.005672 0.000000 0.000000 0.000000
# 4 0.000000 0.000000 0.000000 0.028261 0.000000 0.000000
# 5 0.000000 0.000000 0.000000 0.000000 0.028261 0.000000
# 6 0.008229 -0.008229 0.000000 0.000000 0.000000 0.086532
#
#
# Mechanical properties :
#
#
# Convention : Reuss Voigt Hill
#
# Bulk Modulus (GPa) = 24.74980 39.27959 32.01470
# Shear Modulus (GPa) = 22.62434 32.71458 27.66946
#
# Velocity S-wave (km/s) = 3.03244 3.64649 3.35355
# Velocity P-wave (km/s) = 4.72446 5.80469 5.29221
#
# Compressibility (1/GPa) = 0.04040437
#
# Stress axis : x y z
#
# Youngs Moduli (GPa) = 42.76227 42.76227 176.30933
#
# Poissons Ratio (x) = 0.09897 0.32655
# Poissons Ratio (y) = 0.09897 0.32655
# Poissons Ratio (z) = 0.07920 0.07920
#
# Static dielectric constant tensor:
#      x y z
#    x 1.940730 0.000000 0.000000 
#    y 0.000000 1.940730 0.000000 
#    z 0.000000 0.000000 2.069490 
# 
# From -- ./inp_files/914.got.cif
#   From: 2010.05.17/outbox.cif.g08.bks.cpg/sg76_cif.got.tgz:914.got - 2010.06.03 18:43:17.
