data_PCOD9541430
_publ_section_title
;
Structure prediction by ZEFSAII (Michael W. Deem and Ramdas Pophale) SiO2 
 PCOD9541430
Probable space group: P 41
;
_chemical_formula_sum "Si O2"
_cell_formula_units_Z 20
_cell_length_a 9.944652
_cell_length_b 9.944652
_cell_length_c 7.868082
_cell_angle_alpha 90.000000
_cell_angle_beta 90.000000
_cell_angle_gamma 90.000000
_cell_volume 778.122651
_symmetry_space_group_name_H-M "P 41"
_symmetry_group_IT_number 76
_symmetry_cell_setting 'tetragonal'
loop_
_space_group_symop_operation_xyz
x,y,z
-y,x,1/4+z
-x,-y,1/2+z
y,-x,3/4+z
loop_
_atom_site_type_symbol
_atom_site_label
_atom_site_fract_x
_atom_site_fract_y
_atom_site_fract_z
Si Si1 0.296888 0.892340 0.857400
Si Si2 0.392855 0.162168 0.825596
Si Si3 0.476979 0.679703 0.028352
Si Si4 0.018801 0.838570 0.038337
Si Si5 0.142636 0.348285 0.746020
O O1 0.344007 0.939513 0.669718
O O2 0.353313 0.029255 0.937602
O O3 0.373721 0.758603 0.908581
O O4 0.143961 0.864978 0.911979
O O5 0.456013 0.202777 0.641578
O O6 0.252526 0.238488 0.800339
O O7 0.513805 0.214809 0.947981
O O8 0.400144 0.580827 0.158748
O O9 0.951636 0.697007 0.089175
O O10 0.072575 0.898511 0.214630
#
# Coordination Sequence:
#
# PCOD9541430 Si02
#       5
#     4   4   4   4   4
#     4  12  29  46  82 119 164 224 288 358 431 521
#     4  12  26  52  78 122 161 231 282 356 433 517
#     4  12  30  52  81 121 174 232 292 361 439 524
#     4  12  25  48  76 116 163 218 282 357 435 499
#     4  12  28  48  83 114 168 217 288 358 432 523
#
# _framework density 25.702887
#
# number of rings (size 3 to 8) (size 9 to 14) (size 15 to 20)
#    0.000    0.000    2.000    7.200   11.200    0.000 
#    0.000    0.000    0.000    0.000    0.000    0.000 
#    0.000    0.000    0.000    0.000    0.000    0.000 
#
# Total GULP energy -111591.976331 kJ/mol
# GULP energy per Si atom -5579.598817 kJ/mol
# Density = 2.564439 g / cm^3
# Si number density = 25.702887 Si / 1000 Ang^3
#
#
#
# Elastic Constant Matrix: (Units=GPa)
#
#
# Indices 1 2 3 4 5 6 
#
# 1 150.2572 30.7533 38.0325 0.0000 0.0000 -16.3749
# 2 30.7533 150.2572 38.0325 0.0000 0.0000 16.3749
# 3 38.0325 38.0325 105.0885 0.0000 0.0000 0.0000
# 4 0.0000 0.0000 0.0000 20.0240 0.0000 0.0000
# 5 0.0000 0.0000 0.0000 0.0000 20.0240 0.0000
# 6 -16.3749 16.3749 0.0000 0.0000 0.0000 33.7859
#
#
#
# Elastic Compliance Matrix: (Units=1/GPa)
#
#
# Indices 1 2 3 4 5 6 
#
# 1 0.008083 -0.001567 -0.002358 0.000000 0.000000 0.004677
# 2 -0.001567 0.008083 -0.002358 0.000000 0.000000 -0.004677
# 3 -0.002358 -0.002358 0.011223 0.000000 0.000000 0.000000
# 4 0.000000 0.000000 0.000000 0.049940 0.000000 0.000000
# 5 0.000000 0.000000 0.000000 0.000000 0.049940 0.000000
# 6 0.004677 -0.004677 0.000000 0.000000 0.000000 0.034132
#
#
# Mechanical properties :
#
#
# Convention : Reuss Voigt Hill
#
# Bulk Modulus (GPa) = 67.46987 68.80438 68.13713
# Shear Modulus (GPa) = 27.94766 34.68576 31.31671
#
# Velocity S-wave (km/s) = 3.30105 3.67752 3.49436
# Velocity P-wave (km/s) = 6.39032 6.69772 6.54583
#
# Compressibility (1/GPa) = 0.01482143
#
# Stress axis : x y z
#
# Youngs Moduli (GPa) = 123.72377 123.72377 89.10631
#
# Poissons Ratio (x) = 0.19389 0.21011
# Poissons Ratio (y) = 0.19389 0.21011
# Poissons Ratio (z) = 0.29174 0.29174
#
# Static dielectric constant tensor:
#      x y z
#    x 2.639520 0.000000 0.000000 
#    y 0.000000 2.639520 0.000000 
#    z 0.000000 0.000000 2.270090 
# 
# From -- ./inp_files/436.got.cif
#   From: 2010.05.17/outbox.cif.g08.bks.cpg/sg76_cif.got.tgz:436.got - 2010.06.03 18:43:17.
