data_PCOD9541064
_publ_section_title
;
Structure prediction by ZEFSAII (Michael W. Deem and Ramdas Pophale) SiO2 
 PCOD9541064
Probable space group: P 4
;
_chemical_formula_sum "Si O2"
_cell_formula_units_Z 28
_cell_length_a 7.806438
_cell_length_b 7.806438
_cell_length_c 19.782671
_cell_angle_alpha 90.000000
_cell_angle_beta 90.000000
_cell_angle_gamma 90.000000
_cell_volume 1205.565353
_symmetry_space_group_name_H-M "P 4"
_symmetry_group_IT_number 75
_symmetry_cell_setting 'tetragonal'
loop_
_space_group_symop_operation_xyz
x,y,z
-y,x,z
-x,-y,z
y,-x,z
loop_
_atom_site_type_symbol
_atom_site_label
_atom_site_fract_x
_atom_site_fract_y
_atom_site_fract_z
Si Si1 0.768527 0.614651 0.792280
Si Si2 0.771216 0.597996 0.502994
Si Si3 0.905900 0.727715 0.364859
Si Si4 0.402003 0.771216 0.081566
Si Si5 0.769697 0.611500 0.936822
Si Si6 0.388500 0.769697 0.647738
Si Si7 0.905900 0.727715 0.219701
O O1 0.586211 0.714401 0.792280
O O2 0.856438 0.650530 0.864568
O O3 0.856438 0.650530 0.719992
O O4 0.597811 0.709860 0.502417
O O5 0.867998 0.633201 0.434056
O O6 0.858229 0.641614 0.575355
O O7 0.869507 0.639826 0.292280
O O8 0.100731 0.791455 0.365380
O O9 0.290140 0.597811 0.082143
O O10 0.366799 0.867997 0.150504
O O11 0.358386 0.858229 0.009205
O O12 0.588600 0.713222 0.936775
O O13 0.286778 0.588600 0.647785
O O14 0.100730 0.791455 0.219180
#
# Coordination Sequence:
#
# PCOD9541064 Si02
#       7
#     4   4   4   4   4   4   4
#     4   7   8  12  26  48  76 111 142 162 188 231
#     4   9  17  28  43  67  96 117 135 168 214 258
#     4   9  19  35  50  62  79 107 145 184 216 250
#     4   9  17  28  43  67  96 117 135 168 214 258
#     4   7  10  17  30  52  83 113 137 163 197 238
#     4   7  10  17  30  52  83 113 137 163 197 238
#     4   9  19  35  50  62  79 107 145 184 216 250
#
# _framework density 23.225617
#
# number of rings (size 3 to 8) (size 9 to 14) (size 15 to 20)
#    0.000    3.857    0.000    4.286    0.000    2.286 
#    0.000    4.286    0.000    0.000    0.000    2.000 
#    0.000   13.714    0.000    0.000    0.000    0.000 
#
# Total GULP energy -156130.929014 kJ/mol
# GULP energy per Si atom -5576.104608 kJ/mol
# Density = 2.317275 g / cm^3
# Si number density = 23.225617 Si / 1000 Ang^3
#
#
#
# Elastic Constant Matrix: (Units=GPa)
#
#
# Indices 1 2 3 4 5 6 
#
# 1 29.1468 9.0628 46.5967 0.0000 0.0000 -1.5542
# 2 9.0628 29.1468 46.5967 0.0000 0.0000 1.5542
# 3 46.5967 46.5967 339.9598 0.0000 0.0000 0.0000
# 4 0.0000 0.0000 0.0000 294.6531 0.0000 0.0000
# 5 0.0000 0.0000 0.0000 0.0000 294.6531 0.0000
# 6 -1.5542 1.5542 0.0000 0.0000 0.0000 17.8515
#
#
#
# Elastic Compliance Matrix: (Units=1/GPa)
#
#
# Indices 1 2 3 4 5 6 
#
# 1 0.044893 -0.005578 -0.005389 0.000000 0.000000 0.004394
# 2 -0.005578 0.044893 -0.005389 0.000000 0.000000 -0.004394
# 3 -0.005389 -0.005389 0.004419 0.000000 0.000000 0.000000
# 4 0.000000 0.000000 0.000000 0.003394 0.000000 0.000000
# 5 0.000000 0.000000 0.000000 0.000000 0.003394 0.000000
# 6 0.004394 -0.004394 0.000000 0.000000 0.000000 0.056783
#
#
# Mechanical properties :
#
#
# Convention : Reuss Voigt Hill
#
# Bulk Modulus (GPa) = 16.26208 66.97399 41.61803
# Shear Modulus (GPa) = 23.69856 141.16469 82.43162
#
# Velocity S-wave (km/s) = 3.19778 7.80459 5.96395
# Velocity P-wave (km/s) = 4.54438 10.49354 8.08597
#
# Compressibility (1/GPa) = 0.06149276
#
# Stress axis : x y z
#
# Youngs Moduli (GPa) = 22.27536 22.27536 226.31024
#
# Poissons Ratio (x) = 0.12426 1.21950
# Poissons Ratio (y) = 0.12426 1.21950
# Poissons Ratio (z) = 0.12003 0.12003
#
# Static dielectric constant tensor:
#      x y z
#    x 1.857430 0.000000 0.000000 
#    y 0.000000 1.857430 0.000000 
#    z 0.000000 0.000000 1.977030 
# 
# From -- ./inp_files/758.got.cif
#   From: 2010.05.17/outbox.cif.g08.bks.cpg/sg75_cif.got.tgz:758.got - 2010.06.03 18:42:43.
