data_PCOD9541761
_publ_section_title
;
Structure prediction by ZEFSAII (Michael W. Deem and Ramdas Pophale) SiO2 
 PCOD9541761
Probable space group: P 43
;
_chemical_formula_sum "Si O2"
_cell_formula_units_Z 20
_cell_length_a 9.656519
_cell_length_b 9.656519
_cell_length_c 8.859773
_cell_angle_alpha 90.000000
_cell_angle_beta 90.000000
_cell_angle_gamma 90.000000
_cell_volume 826.159295
_symmetry_space_group_name_H-M "P 43"
_symmetry_group_IT_number 78
_symmetry_cell_setting 'tetragonal'
loop_
_space_group_symop_operation_xyz
x,y,z
-y,x,3/4+z
-x,-y,1/2+z
y,-x,1/4+z
loop_
_atom_site_type_symbol
_atom_site_label
_atom_site_fract_x
_atom_site_fract_y
_atom_site_fract_z
Si Si1 0.541369 0.655991 0.881680
Si Si2 0.139611 0.041514 0.112859
Si Si3 0.117397 0.338627 0.689927
Si Si4 0.637929 0.830112 0.309523
Si Si5 0.755257 0.676800 0.610078
O O1 0.425561 0.576071 0.783297
O O2 0.663898 0.658378 0.760175
O O3 0.485456 0.806863 0.927282
O O4 0.140422 0.200931 0.162024
O O5 0.049903 0.936403 0.205382
O O6 0.289613 0.970856 0.087317
O O7 0.249291 0.234402 0.694298
O O8 0.995138 0.339289 0.567622
O O9 0.678410 0.751845 0.468473
O O10 0.473623 0.802195 0.302144
#
# Coordination Sequence:
#
# PCOD9541761 Si02
#       5
#     4   4   4   4   4
#     4  12  27  46  72 111 148 197 253 319 385 454
#     4  11  25  49  76 109 154 206 248 315 386 460
#     4  11  25  44  73 108 147 199 251 297 389 445
#     4  11  25  47  76 108 152 198 249 315 375 454
#     4  11  24  46  75 106 151 198 249 312 385 443
#
# _framework density 24.208407000000001
#
# number of rings (size 3 to 8) (size 9 to 14) (size 15 to 20)
#    0.000    0.800    6.000    1.200    5.600    1.600 
#    0.000    0.000    0.000    0.000    0.000    0.000 
#    0.000    0.000    0.000    0.000    0.000    0.000 
#
# Total GULP energy -111517.997996 kJ/mol
# GULP energy per Si atom -5575.899900 kJ/mol
# Density = 2.415331 g / cm^3
# Si number density = 24.208407 Si / 1000 Ang^3
#
#
#
# Elastic Constant Matrix: (Units=GPa)
#
#
# Indices 1 2 3 4 5 6 
#
# 1 143.2349 50.4837 36.0318 0.0000 0.0000 2.8344
# 2 50.4837 143.2349 36.0318 0.0000 0.0000 -2.8344
# 3 36.0318 36.0318 51.1928 0.0000 0.0000 0.0000
# 4 0.0000 0.0000 0.0000 27.9269 0.0000 0.0000
# 5 0.0000 0.0000 0.0000 0.0000 27.9269 0.0000
# 6 2.8344 -2.8344 0.0000 0.0000 0.0000 38.7242
#
#
#
# Elastic Compliance Matrix: (Units=1/GPa)
#
#
# Indices 1 2 3 4 5 6 
#
# 1 0.008912 -0.001918 -0.004922 0.000000 0.000000 -0.000793
# 2 -0.001918 0.008912 -0.004922 0.000000 0.000000 0.000793
# 3 -0.004922 -0.004922 0.026463 0.000000 0.000000 0.000000
# 4 0.000000 0.000000 0.000000 0.035808 0.000000 0.000000
# 5 0.000000 0.000000 0.000000 0.000000 0.035808 0.000000
# 6 -0.000793 0.000793 0.000000 0.000000 0.000000 0.025940
#
#
# Mechanical properties :
#
#
# Convention : Reuss Voigt Hill
#
# Bulk Modulus (GPa) = 48.16791 64.75081 56.45936
# Shear Modulus (GPa) = 29.02139 33.25660 31.13900
#
# Velocity S-wave (km/s) = 3.46615 3.71045 3.59038
# Velocity P-wave (km/s) = 5.99661 6.72026 6.36872
#
# Compressibility (1/GPa) = 0.02076071
#
# Stress axis : x y z
#
# Youngs Moduli (GPa) = 112.21361 112.21361 37.78886
#
# Poissons Ratio (x) = 0.21527 0.18600
# Poissons Ratio (y) = 0.21527 0.18600
# Poissons Ratio (z) = 0.55233 0.55233
#
# Static dielectric constant tensor:
#      x y z
#    x 1.976540 0.000000 0.000000 
#    y 0.000000 1.976540 0.000000 
#    z 0.000000 0.000000 1.949260 
# 
# From -- ./inp_files/836.got.cif
#   From: 2010.05.17/outbox.cif.g08.bks.cpg/sg78_cif.got.tgz:836.got - 2010.06.03 18:45:56.
