data_PCOD9541978
_publ_section_title
;
Structure prediction by ZEFSAII (Michael W. Deem and Ramdas Pophale) SiO2 
 PCOD9541978
Probable space group: I 4
;
_chemical_formula_sum "Si O2"
_cell_formula_units_Z 40
_cell_length_a 20.053237
_cell_length_b 20.053237
_cell_length_c 5.107422
_cell_angle_alpha 90.000000
_cell_angle_beta 90.000000
_cell_angle_gamma 90.000000
_cell_volume 2053.859428
_symmetry_space_group_name_H-M "I 4"
_symmetry_group_IT_number 79
_symmetry_cell_setting 'tetragonal'
loop_
_space_group_symop_operation_xyz
x,y,z
-y,x,z
-x,-y,z
y,-x,z
1/2+x,1/2+y,1/2+z
1/2-y,1/2+x,1/2+z
1/2-x,1/2-y,1/2+z
1/2+y,1/2-x,1/2+z
loop_
_atom_site_type_symbol
_atom_site_label
_atom_site_fract_x
_atom_site_fract_y
_atom_site_fract_z
Si Si1 0.028936 0.660419 0.998920
Si Si2 0.075976 0.808861 0.124239
Si Si3 0.793086 0.257136 0.316814
Si Si4 0.538509 0.394620 0.122435
Si Si5 0.388565 0.879054 0.978077
O O1 0.068989 0.642083 0.733838
O O2 0.042281 0.737445 0.070616
O O3 0.061602 0.618734 0.233261
O O4 0.950836 0.645456 0.995427
O O5 0.152852 0.793102 0.192266
O O6 0.048209 0.848157 0.372110
O O7 0.061826 0.853348 0.872983
O O8 0.756796 0.228566 0.575133
O O9 0.833850 0.322119 0.413082
O O10 0.582002 0.461934 0.122112
#
# Coordination Sequence:
#
# PCOD9541978 Si02
#       5
#     8   8   8   8   8
#     4  11  24  42  63  92 126 161 207 257 309 370
#     4  11  23  42  64  92 126 161 206 258 307 369
#     4  11  23  41  63  90 125 162 205 254 308 370
#     4  11  24  42  64  92 125 162 207 257 310 370
#     4  11  24  42  64  92 126 163 207 259 310 371
#
# _framework density 19.475529000000002
#
# number of rings (size 3 to 8) (size 9 to 14) (size 15 to 20)
#    0.000    1.000    0.000    8.400    0.000    8.800 
#    0.000    4.000    0.000    0.000    0.000    0.000 
#    0.000    0.000    0.000    0.000    0.000    0.000 
#
# Total GULP energy -111812.776452 kJ/mol
# GULP energy per Si atom -5590.638823 kJ/mol
# Density = 1.943120 g / cm^3
# Si number density = 19.475529 Si / 1000 Ang^3
#
#
#
# Elastic Constant Matrix: (Units=GPa)
#
#
# Indices 1 2 3 4 5 6 
#
# 1 111.0070 76.9608 71.8851 0.0000 0.0000 10.3694
# 2 76.9608 111.0070 71.8851 0.0000 0.0000 -10.3694
# 3 71.8851 71.8851 196.0665 0.0000 0.0000 0.0000
# 4 0.0000 0.0000 0.0000 20.5895 0.0000 0.0000
# 5 0.0000 0.0000 0.0000 0.0000 20.5895 0.0000
# 6 10.3694 -10.3694 0.0000 0.0000 0.0000 12.0523
#
#
#
# Elastic Compliance Matrix: (Units=1/GPa)
#
#
# Indices 1 2 3 4 5 6 
#
# 1 0.034555 -0.027162 -0.002711 0.000000 0.000000 -0.053100
# 2 -0.027162 0.034555 -0.002711 0.000000 0.000000 0.053100
# 3 -0.002711 -0.002711 0.007088 0.000000 0.000000 0.000000
# 4 0.000000 0.000000 0.000000 0.048568 0.000000 0.000000
# 5 0.000000 0.000000 0.000000 0.000000 0.048568 0.000000
# 6 -0.053100 0.053100 0.000000 0.000000 0.000000 0.174343
#
#
# Mechanical properties :
#
#
# Convention : Reuss Voigt Hill
#
# Bulk Modulus (GPa) = 90.64540 95.50473 93.07506
# Shear Modulus (GPa) = 12.00418 23.80290 17.90354
#
# Velocity S-wave (km/s) = 2.48538 3.49978 3.03526
# Velocity P-wave (km/s) = 7.40813 8.09173 7.75746
#
# Compressibility (1/GPa) = 0.01103200
#
# Stress axis : x y z
#
# Youngs Moduli (GPa) = 28.93921 28.93921 141.08407
#
# Poissons Ratio (x) = 0.78604 0.38243
# Poissons Ratio (y) = 0.78604 0.38243
# Poissons Ratio (z) = 0.07844 0.07844
#
# Static dielectric constant tensor:
#      x y z
#    x 1.689590 0.000000 0.000000 
#    y 0.000000 1.689590 0.000000 
#    z 0.000000 0.000000 1.658680 
# 
# From -- ./inp_files/143.got.cif
#   From: 2010.05.17/outbox.cif.g08.bks.cpg/sg79_cif.got.tgz:143.got - 2010.06.03 18:47:27.
