data_PCOD9541645
_publ_section_title
;
Structure prediction by ZEFSAII (Michael W. Deem and Ramdas Pophale) SiO2 
 PCOD9541645
Probable space group: P 43
;
_chemical_formula_sum "Si O2"
_cell_formula_units_Z 20
_cell_length_a 9.107299
_cell_length_b 9.107299
_cell_length_c 10.566688
_cell_angle_alpha 90.000000
_cell_angle_beta 90.000000
_cell_angle_gamma 90.000000
_cell_volume 876.431694
_symmetry_space_group_name_H-M "P 43"
_symmetry_group_IT_number 78
_symmetry_cell_setting 'tetragonal'
loop_
_space_group_symop_operation_xyz
x,y,z
-y,x,3/4+z
-x,-y,1/2+z
y,-x,1/4+z
loop_
_atom_site_type_symbol
_atom_site_label
_atom_site_fract_x
_atom_site_fract_y
_atom_site_fract_z
Si Si1 0.986473 0.609539 0.953700
Si Si2 0.245710 0.809413 0.930571
Si Si3 0.388056 0.235140 0.086287
Si Si4 0.272313 0.539542 0.060286
Si Si5 0.965485 0.131491 0.880588
O O1 0.093205 0.317294 0.573457
O O2 0.859477 0.527244 0.878753
O O3 0.088345 0.736602 0.891717
O O4 0.116755 0.496018 0.995470
O O5 0.338735 0.664995 0.969974
O O6 0.218877 0.906554 0.055056
O O7 0.377842 0.409850 0.101761
O O8 0.244283 0.167292 0.149535
O O9 0.379165 0.219211 0.935981
O O10 0.923630 0.017137 0.767948
#
# Coordination Sequence:
#
# PCOD9541645 Si02
#       5
#     4   4   4   4   4
#     4  10  23  42  75 104 142 192 251 301 380 436
#     4  10  20  44  72 105 138 193 247 314 367 436
#     4  12  24  46  64 110 147 196 244 301 381 454
#     4  10  25  43  70  99 146 187 240 307 371 439
#     4  12  22  43  81 108 151 194 256 319 371 437
#
# _framework density 22.819801999999999
#
# number of rings (size 3 to 8) (size 9 to 14) (size 15 to 20)
#    1.200    0.000    6.000    1.200    0.000    3.200 
#    3.600    0.000    0.000    0.000    0.000    0.000 
#    0.000    0.000    0.000    0.000    0.000    0.000 
#
# Total GULP energy -111439.921870 kJ/mol
# GULP energy per Si atom -5571.996094 kJ/mol
# Density = 2.276786 g / cm^3
# Si number density = 22.819802 Si / 1000 Ang^3
#
#
#
# Elastic Constant Matrix: (Units=GPa)
#
#
# Indices 1 2 3 4 5 6 
#
# 1 56.2968 -1.4148 5.9256 0.0000 0.0000 9.6889
# 2 -1.4148 56.2968 5.9256 0.0000 0.0000 -9.6889
# 3 5.9256 5.9256 40.3948 0.0000 0.0000 0.0000
# 4 0.0000 0.0000 0.0000 36.5044 0.0000 0.0000
# 5 0.0000 0.0000 0.0000 0.0000 36.5044 0.0000
# 6 9.6889 -9.6889 0.0000 0.0000 0.0000 47.8701
#
#
#
# Elastic Compliance Matrix: (Units=1/GPa)
#
#
# Indices 1 2 3 4 5 6 
#
# 1 0.018704 0.000113 -0.002760 0.000000 0.000000 -0.003763
# 2 0.000113 0.018704 -0.002760 0.000000 0.000000 0.003763
# 3 -0.002760 -0.002760 0.025565 0.000000 0.000000 0.000000
# 4 0.000000 0.000000 0.000000 0.027394 0.000000 0.000000
# 5 0.000000 0.000000 0.000000 0.000000 0.027394 0.000000
# 6 -0.003763 0.003763 0.000000 0.000000 0.000000 0.022413
#
#
# Mechanical properties :
#
#
# Convention : Reuss Voigt Hill
#
# Bulk Modulus (GPa) = 19.17241 19.31788 19.24515
# Shear Modulus (GPa) = 29.69550 33.67924 31.68737
#
# Velocity S-wave (km/s) = 3.61127 3.84588 3.73042
# Velocity P-wave (km/s) = 5.08019 5.31083 5.19679
#
# Compressibility (1/GPa) = 0.05215829
#
# Stress axis : x y z
#
# Youngs Moduli (GPa) = 53.46456 53.46456 39.11525
#
# Poissons Ratio (x) = -0.00604 0.10797
# Poissons Ratio (y) = -0.00604 0.10797
# Poissons Ratio (z) = 0.14758 0.14758
#
# Static dielectric constant tensor:
#      x y z
#    x 1.917310 0.000000 0.000000 
#    y 0.000000 1.917310 0.000000 
#    z 0.000000 0.000000 1.843010 
# 
# From -- ./inp_files/816.got.cif
#   From: 2010.05.17/outbox.cif.g08.bks.cpg/sg78_cif.got.tgz:816.got - 2010.06.03 18:45:56.
