data_PCOD9541056
_publ_section_title
;
Structure prediction by ZEFSAII (Michael W. Deem and Ramdas Pophale) SiO2 
 PCOD9541056
Probable space group: P 4
;
_chemical_formula_sum "Si O2"
_cell_formula_units_Z 24
_cell_length_a 10.588373
_cell_length_b 10.588373
_cell_length_c 10.431357
_cell_angle_alpha 90.000000
_cell_angle_beta 90.000000
_cell_angle_gamma 90.000000
_cell_volume 1169.497432
_symmetry_space_group_name_H-M "P 4"
_symmetry_group_IT_number 75
_symmetry_cell_setting 'tetragonal'
loop_
_space_group_symop_operation_xyz
x,y,z
-y,x,z
-x,-y,z
y,-x,z
loop_
_atom_site_type_symbol
_atom_site_label
_atom_site_fract_x
_atom_site_fract_y
_atom_site_fract_z
Si Si1 0.024124 0.209484 0.664510
Si Si2 0.642726 0.959587 0.912376
Si Si3 0.313215 0.593735 0.515602
Si Si4 0.003316 0.210539 0.164068
Si Si5 0.357674 0.039522 0.421676
Si Si6 0.313921 0.595009 0.822986
O O1 0.023903 0.270582 0.804337
O O2 0.026720 0.312606 0.552985
O O3 0.133697 0.107222 0.649757
O O4 0.648483 0.808290 0.893071
O O5 0.500000 0.000000 0.887061
O O6 0.686245 0.999381 0.052764
O O7 0.336207 0.445093 0.486397
O O8 0.190421 0.644576 0.444508
O O9 0.293309 0.603921 0.669325
O O10 0.999880 0.269368 0.304963
O O11 0.122865 0.119769 0.148235
O O12 0.500000 0.000000 0.393731
O O13 0.335667 0.446201 0.852285
#
# Coordination Sequence:
#
# PCOD9541056 Si02
#       6
#     4   4   4   4   4   4
#     4  11  25  42  66 101 136 174 216 269 319 376
#     4  12  25  40  69  99 128 165 222 270 322 379
#     4   9  20  38  62  96 137 174 203 255 329 384
#     4  11  27  50  68  87 128 180 214 265 333 394
#     4  12  25  40  69  99 128 165 222 270 322 379
#     4   9  20  38  62  96 137 174 203 255 329 384
#
# _framework density 20.521636999999998
#
# number of rings (size 3 to 8) (size 9 to 14) (size 15 to 20)
#    0.000    1.333    1.667    4.000    9.333    2.667 
#    0.000    0.000    0.000    2.000    0.000    0.000 
#    0.000    0.000    0.000    0.000    0.000    0.000 
#
# Total GULP energy -134367.490069 kJ/mol
# GULP energy per Si atom -5598.645420 kJ/mol
# Density = 2.047493 g / cm^3
# Si number density = 20.521637 Si / 1000 Ang^3
#
#
#
# Elastic Constant Matrix: (Units=GPa)
#
#
# Indices 1 2 3 4 5 6 
#
# 1 37.8720 4.0631 -8.1483 0.0000 0.0000 -1.2439
# 2 4.0631 37.8720 -8.1483 0.0000 0.0000 1.2439
# 3 -8.1483 -8.1483 45.6457 0.0000 0.0000 0.0000
# 4 0.0000 0.0000 0.0000 19.5031 0.0000 0.0000
# 5 0.0000 0.0000 0.0000 0.0000 19.5031 0.0000
# 6 -1.2439 1.2439 0.0000 0.0000 0.0000 20.0598
#
#
#
# Elastic Compliance Matrix: (Units=1/GPa)
#
#
# Indices 1 2 3 4 5 6 
#
# 1 0.027669 -0.002045 0.004574 0.000000 0.000000 0.001843
# 2 -0.002045 0.027669 0.004574 0.000000 0.000000 -0.001843
# 3 0.004574 0.004574 0.023541 0.000000 0.000000 0.000000
# 4 0.000000 0.000000 0.000000 0.051274 0.000000 0.000000
# 5 0.000000 0.000000 0.000000 0.000000 0.051274 0.000000
# 6 0.001843 -0.001843 0.000000 0.000000 0.000000 0.050080
#
#
# Mechanical properties :
#
#
# Convention : Reuss Voigt Hill
#
# Bulk Modulus (GPa) = 10.74281 10.76921 10.75601
# Shear Modulus (GPa) = 20.13473 20.72142 20.42808
#
# Velocity S-wave (km/s) = 3.13572 3.18108 3.15848
# Velocity P-wave (km/s) = 4.28446 4.33030 4.30744
#
# Compressibility (1/GPa) = 0.09308548
#
# Stress axis : x y z
#
# Youngs Moduli (GPa) = 36.14183 36.14183 42.47920
#
# Poissons Ratio (x) = 0.07390 -0.19431
# Poissons Ratio (y) = 0.07390 -0.19431
# Poissons Ratio (z) = -0.16532 -0.16532
#
# Static dielectric constant tensor:
#      x y z
#    x 1.730820 0.000000 0.000000 
#    y 0.000000 1.730820 0.000000 
#    z 0.000000 0.000000 1.657690 
# 
# From -- ./inp_files/345.got.cif
#   From: 2010.05.17/outbox.cif.g08.bks.cpg/sg75_cif.got.tgz:345.got - 2010.06.03 18:42:43.
