data_PCOD9541200
_publ_section_title
;
Structure prediction by ZEFSAII (Michael W. Deem and Ramdas Pophale) SiO2 
 PCOD9541200
Probable space group: P 41
;
_chemical_formula_sum "Si O2"
_cell_formula_units_Z 28
_cell_length_a 8.392325
_cell_length_b 8.392325
_cell_length_c 17.726042
_cell_angle_alpha 90.000000
_cell_angle_beta 90.000000
_cell_angle_gamma 90.000000
_cell_volume 1248.464972
_symmetry_space_group_name_H-M "P 41"
_symmetry_group_IT_number 76
_symmetry_cell_setting 'tetragonal'
loop_
_space_group_symop_operation_xyz
x,y,z
-y,x,1/4+z
-x,-y,1/2+z
y,-x,3/4+z
loop_
_atom_site_type_symbol
_atom_site_label
_atom_site_fract_x
_atom_site_fract_y
_atom_site_fract_z
Si Si1 0.986320 0.941405 0.036370
Si Si2 0.663067 0.405953 0.361113
Si Si3 0.066851 0.507424 0.123590
Si Si4 0.155183 0.217237 0.394546
Si Si5 0.134859 0.792487 0.436101
Si Si6 0.478449 0.015895 0.195891
Si Si7 0.494798 0.283735 0.938624
O O1 0.891280 0.876210 0.108527
O O2 0.165594 0.922469 0.065620
O O3 0.959290 0.840060 0.961778
O O4 0.915743 0.108647 0.010229
O O5 0.596688 0.228001 0.377359
O O6 0.828817 0.416001 0.404919
O O7 0.687935 0.424175 0.271666
O O8 0.560958 0.562244 0.389110
O O9 0.133156 0.675710 0.156354
O O10 0.897538 0.452652 0.159436
O O11 0.027031 0.537750 0.035677
O O12 0.143582 0.403442 0.408448
O O13 0.312679 0.726393 0.444016
O O14 0.998802 0.663012 0.428823
#
# Coordination Sequence:
#
# PCOD9541200 Si02
#       7
#     4   4   4   4   4   4   4
#     4  10  21  42  69 106 141 181 264 313 371 484
#     4  12  29  50  75 119 160 210 269 327 412 488
#     4  12  26  50  77 112 156 205 268 329 405 490
#     4  11  22  45  72 105 143 194 257 320 391 468
#     4  11  23  43  74 108 147 202 255 318 408 467
#     4  12  26  46  70 109 156 202 257 329 399 478
#     4  12  25  52  81 111 165 208 262 342 406 489
#
# _framework density 22.427541999999999
#
# number of rings (size 3 to 8) (size 9 to 14) (size 15 to 20)
#    0.000    0.571    5.714    2.571    2.000    2.286 
#    2.571    0.000    0.000    0.000    0.000    0.000 
#    0.000    0.000    0.000    0.000    0.000    0.000 
#
# Total GULP energy -156261.186324 kJ/mol
# GULP energy per Si atom -5580.756654 kJ/mol
# Density = 2.237650 g / cm^3
# Si number density = 22.427542 Si / 1000 Ang^3
#
#
#
# Elastic Constant Matrix: (Units=GPa)
#
#
# Indices 1 2 3 4 5 6 
#
# 1 107.7952 53.1224 32.4746 0.0000 0.0000 -10.1657
# 2 53.1224 107.7952 32.4746 0.0000 0.0000 10.1657
# 3 32.4746 32.4746 102.3150 0.0000 0.0000 0.0000
# 4 0.0000 0.0000 0.0000 28.7096 0.0000 0.0000
# 5 0.0000 0.0000 0.0000 0.0000 28.7096 0.0000
# 6 -10.1657 10.1657 0.0000 0.0000 0.0000 3.1784
#
#
#
# Elastic Compliance Matrix: (Units=1/GPa)
#
#
# Indices 1 2 3 4 5 6 
#
# 1 -0.044723 0.051851 -0.002262 0.000000 0.000000 -0.308881
# 2 0.051851 -0.044723 -0.002262 0.000000 0.000000 0.308881
# 3 -0.002262 -0.002262 0.011210 0.000000 0.000000 0.000000
# 4 0.000000 0.000000 0.000000 0.034832 0.000000 0.000000
# 5 0.000000 0.000000 0.000000 0.000000 0.034832 0.000000
# 6 -0.308881 0.308881 0.000000 0.000000 0.000000 -1.661217
#
#
# Mechanical properties :
#
#
# Convention : Reuss Voigt Hill
#
# Bulk Modulus (GPa) = 60.91719 61.56096 61.23908
# Shear Modulus (GPa) = -2.84257 25.44178 11.29960
#
# Velocity S-wave (km/s) = -1.12703 3.37174 2.24704
# Velocity P-wave (km/s) = 5.05244 6.53196 5.83925
#
# Compressibility (1/GPa) = 0.01641573
#
# Stress axis : x y z
#
# Youngs Moduli (GPa) = -22.35982 -22.35982 89.20768
#
# Poissons Ratio (x) = 1.15937 0.20181
# Poissons Ratio (y) = 1.15937 0.20181
# Poissons Ratio (z) = -0.05058 -0.05058
#
# Static dielectric constant tensor:
#      x y z
#    x 1.931750 0.000000 0.000000 
#    y 0.000000 1.931750 0.000000 
#    z 0.000000 0.000000 1.772120 
# 
# From -- ./inp_files/1311.got.cif
#   From: 2010.05.17/outbox.cif.g08.bks.cpg/sg76_cif.got.tgz:1311.got - 2010.06.03 18:43:17.
