data_PCOD9541333
_publ_section_title
;
Structure prediction by ZEFSAII (Michael W. Deem and Ramdas Pophale) SiO2 
 PCOD9541333
Probable space group: P 41
;
_chemical_formula_sum "Si O2"
_cell_formula_units_Z 28
_cell_length_a 7.990134
_cell_length_b 7.990134
_cell_length_c 21.419608
_cell_angle_alpha 90.000000
_cell_angle_beta 90.000000
_cell_angle_gamma 90.000000
_cell_volume 1367.475783
_symmetry_space_group_name_H-M "P 41"
_symmetry_group_IT_number 76
_symmetry_cell_setting 'tetragonal'
loop_
_space_group_symop_operation_xyz
x,y,z
-y,x,1/4+z
-x,-y,1/2+z
y,-x,3/4+z
loop_
_atom_site_type_symbol
_atom_site_label
_atom_site_fract_x
_atom_site_fract_y
_atom_site_fract_z
Si Si1 0.576548 0.635773 0.716930
Si Si2 0.962664 0.089417 0.770826
Si Si3 0.232325 0.215496 0.326530
Si Si4 0.924019 0.089986 0.155803
Si Si5 0.206800 0.596576 0.730660
Si Si6 0.117667 0.612395 0.199906
Si Si7 0.685868 0.891546 0.619126
O O1 0.627330 0.695833 0.786065
O O2 0.397434 0.546799 0.716985
O O3 0.732321 0.519519 0.698379
O O4 0.576850 0.796154 0.670674
O O5 0.843023 0.235304 0.746563
O O6 0.040066 0.141580 0.837283
O O7 0.869226 0.913998 0.783241
O O8 0.082752 0.047693 0.711656
O O9 0.312485 0.107897 0.381137
O O10 0.090631 0.336902 0.356199
O O11 0.839400 0.253096 0.183891
O O12 0.121485 0.121405 0.141880
O O13 0.194091 0.660404 0.801996
O O14 0.058496 0.464032 0.721194
#
# Coordination Sequence:
#
# PCOD9541333 Si02
#       7
#     4   4   4   4   4   4   4
#     4  12  25  42  69 101 139 187 227 293 358 427
#     4  11  21  40  72  97 124 182 234 287 350 419
#     4  11  21  44  76  92 128 188 234 287 357 416
#     4  11  20  42  70  94 123 174 243 276 339 422
#     4  12  26  42  64 102 138 182 230 286 355 419
#     4  12  24  45  66 100 149 176 228 300 349 425
#     4  11  19  45  71  94 125 185 238 279 354 412
#
# _framework density 20.475681000000002
#
# number of rings (size 3 to 8) (size 9 to 14) (size 15 to 20)
#    0.000    0.571   10.000    0.857    2.000    0.000 
#    5.143    2.857    0.000    0.000    0.000    0.000 
#    0.000    0.000    0.000    0.000    0.000    0.000 
#
# Total GULP energy -156265.130739 kJ/mol
# GULP energy per Si atom -5580.897526 kJ/mol
# Density = 2.042908 g / cm^3
# Si number density = 20.475681 Si / 1000 Ang^3
#
#
#
# Elastic Constant Matrix: (Units=GPa)
#
#
# Indices 1 2 3 4 5 6 
#
# 1 69.6830 12.4288 17.9538 0.0000 0.0000 5.7738
# 2 12.4288 69.6830 17.9538 0.0000 0.0000 -5.7738
# 3 17.9538 17.9538 124.2809 0.0000 0.0000 0.0000
# 4 0.0000 0.0000 0.0000 17.5408 0.0000 0.0000
# 5 0.0000 0.0000 0.0000 0.0000 17.5408 0.0000
# 6 5.7738 -5.7738 0.0000 0.0000 0.0000 4.5231
#
#
#
# Elastic Compliance Matrix: (Units=1/GPa)
#
#
# Indices 1 2 3 4 5 6 
#
# 1 0.018261 -0.005261 -0.001878 0.000000 0.000000 -0.030026
# 2 -0.005261 0.018261 -0.001878 0.000000 0.000000 0.030026
# 3 -0.001878 -0.001878 0.008589 0.000000 0.000000 0.000000
# 4 0.000000 0.000000 0.000000 0.057010 0.000000 0.000000
# 5 0.000000 0.000000 0.000000 0.000000 0.057010 0.000000
# 6 -0.030026 0.030026 0.000000 0.000000 0.000000 0.297747
#
#
# Mechanical properties :
#
#
# Convention : Reuss Voigt Hill
#
# Bulk Modulus (GPa) = 36.93235 40.03551 38.48393
# Shear Modulus (GPa) = 10.33191 22.27498 16.30344
#
# Velocity S-wave (km/s) = 2.24875 3.30187 2.82482
# Velocity P-wave (km/s) = 4.98185 5.84223 5.42911
#
# Compressibility (1/GPa) = 0.02707654
#
# Stress axis : x y z
#
# Youngs Moduli (GPa) = 54.76189 54.76189 116.42970
#
# Poissons Ratio (x) = 0.28811 0.21865
# Poissons Ratio (y) = 0.28811 0.21865
# Poissons Ratio (z) = 0.10284 0.10284
#
# Static dielectric constant tensor:
#      x y z
#    x 1.756470 0.000000 0.000000 
#    y 0.000000 1.756470 0.000000 
#    z 0.000000 0.000000 1.768090 
# 
# From -- ./inp_files/1364.got.cif
#   From: 2010.05.17/outbox.cif.g08.bks.cpg/sg76_cif.got.tgz:1364.got - 2010.06.03 18:43:17.
