data_PCOD9541309
_publ_section_title
;
Structure prediction by ZEFSAII (Michael W. Deem and Ramdas Pophale) SiO2 
 PCOD9541309
Probable space group: P 41
;
_chemical_formula_sum "Si O2"
_cell_formula_units_Z 16
_cell_length_a 6.948991
_cell_length_b 6.948991
_cell_length_c 12.174331
_cell_angle_alpha 90.000000
_cell_angle_beta 90.000000
_cell_angle_gamma 90.000000
_cell_volume 587.879889
_symmetry_space_group_name_H-M "P 41"
_symmetry_group_IT_number 76
_symmetry_cell_setting 'tetragonal'
loop_
_space_group_symop_operation_xyz
x,y,z
-y,x,1/4+z
-x,-y,1/2+z
y,-x,3/4+z
loop_
_atom_site_type_symbol
_atom_site_label
_atom_site_fract_x
_atom_site_fract_y
_atom_site_fract_z
Si Si1 0.958366 0.918317 0.159060
Si Si2 0.323277 0.603798 0.897696
Si Si3 0.614426 0.684585 0.225148
Si Si4 0.486040 0.050239 0.347782
O O1 0.739223 0.838794 0.158986
O O2 0.989592 0.994852 0.286171
O O3 0.072277 0.717124 0.156943
O O4 0.519980 0.265122 0.041002
O O5 0.174836 0.535785 0.987383
O O6 0.546493 0.536975 0.915015
O O7 0.523386 0.830028 0.315199
O O8 0.339094 0.834190 0.902919
#
# Coordination Sequence:
#
# PCOD9541309 Si02
#       4
#     4   4   4   4
#     4  12  28  49  78 119 163 210 271 330 397 482
#     4  10  24  45  76 109 152 207 265 322 395 466
#     4  11  22  49  72 110 155 206 260 332 387 470
#     4  11  24  45  74 108 156 209 260 326 397 466
#
# _framework density 27.216443999999999
#
# number of rings (size 3 to 8) (size 9 to 14) (size 15 to 20)
#    0.000    1.000    2.500    3.000    7.000    0.000 
#    4.500    0.000    0.000    0.000    0.000    0.000 
#    0.000    0.000    0.000    0.000    0.000    0.000 
#
# Total GULP energy -89168.377079 kJ/mol
# GULP energy per Si atom -5573.023567 kJ/mol
# Density = 2.715450 g / cm^3
# Si number density = 27.216444 Si / 1000 Ang^3
#
#
#
# Elastic Constant Matrix: (Units=GPa)
#
#
# Indices 1 2 3 4 5 6 
#
# 1 94.4257 29.0799 36.6912 0.0000 0.0000 -12.8459
# 2 29.0799 94.4257 36.6912 0.0000 0.0000 12.8459
# 3 36.6912 36.6912 169.3620 0.0000 0.0000 0.0000
# 4 0.0000 0.0000 0.0000 43.0177 0.0000 0.0000
# 5 0.0000 0.0000 0.0000 0.0000 43.0177 0.0000
# 6 -12.8459 12.8459 0.0000 0.0000 0.0000 13.5656
#
#
#
# Elastic Compliance Matrix: (Units=1/GPa)
#
#
# Indices 1 2 3 4 5 6 
#
# 1 0.016837 -0.007544 -0.002013 0.000000 0.000000 0.023087
# 2 -0.007544 0.016837 -0.002013 0.000000 0.000000 -0.023087
# 3 -0.002013 -0.002013 0.006777 0.000000 0.000000 0.000000
# 4 0.000000 0.000000 0.000000 0.023246 0.000000 0.000000
# 5 0.000000 0.000000 0.000000 0.000000 0.023246 0.000000
# 6 0.023087 -0.023087 0.000000 0.000000 0.000000 0.117440
#
#
# Mechanical properties :
#
#
# Convention : Reuss Voigt Hill
#
# Bulk Modulus (GPa) = 57.77085 62.57090 60.17087
# Shear Modulus (GPa) = 21.43237 36.97028 29.20132
#
# Velocity S-wave (km/s) = 2.80925 3.68962 3.27911
# Velocity P-wave (km/s) = 5.63871 6.41803 6.04095
#
# Compressibility (1/GPa) = 0.01730977
#
# Stress axis : x y z
#
# Youngs Moduli (GPa) = 59.39466 59.39466 147.56150
#
# Poissons Ratio (x) = 0.44804 0.29708
# Poissons Ratio (y) = 0.44804 0.29708
# Poissons Ratio (z) = 0.11958 0.11958
#
# Static dielectric constant tensor:
#      x y z
#    x 2.185970 0.000000 0.000000 
#    y 0.000000 2.185970 0.000000 
#    z 0.000000 0.000000 2.320970 
# 
# From -- ./inp_files/786.got.cif
#   From: 2010.05.17/outbox.cif.g08.bks.cpg/sg76_cif.got.tgz:786.got - 2010.06.03 18:43:17.
