data_PCOD9541031
_publ_section_title
;
Structure prediction by ZEFSAII (Michael W. Deem and Ramdas Pophale) SiO2 
 PCOD9541031
Probable space group: P 4
;
_chemical_formula_sum "Si O2"
_cell_formula_units_Z 26
_cell_length_a 8.283532
_cell_length_b 8.283532
_cell_length_c 18.092403
_cell_angle_alpha 90.000000
_cell_angle_beta 90.000000
_cell_angle_gamma 90.000000
_cell_volume 1241.444651
_symmetry_space_group_name_H-M "P 4"
_symmetry_group_IT_number 75
_symmetry_cell_setting 'tetragonal'
loop_
_space_group_symop_operation_xyz
x,y,z
-y,x,z
-x,-y,z
y,-x,z
loop_
_atom_site_type_symbol
_atom_site_label
_atom_site_fract_x
_atom_site_fract_y
_atom_site_fract_z
Si Si1 0.585887 0.240955 0.732720
Si Si2 0.262478 0.921376 0.430586
Si Si3 0.922540 0.737970 0.872529
Si Si4 0.500000 0.000000 0.137780
Si Si5 0.946120 0.734908 0.272351
Si Si6 0.765708 0.549904 0.001747
Si Si7 0.090330 0.259639 0.592065
O O1 0.696675 0.402614 0.736634
O O2 0.637676 0.127571 0.800345
O O3 0.625245 0.148444 0.657016
O O4 0.349297 0.906476 0.351427
O O5 0.338225 0.889267 0.510563
O O6 0.103228 0.808286 0.430832
O O7 0.889779 0.626125 0.943213
O O8 0.103471 0.807224 0.872622
O O9 0.636943 0.047429 0.197328
O O10 0.521935 0.147707 0.080313
O O11 0.120886 0.818193 0.272460
O O12 0.621030 0.678646 0.991763
O O13 0.905489 0.197037 0.597971
#
# Coordination Sequence:
#
# PCOD9541031 Si02
#       7
#     4   4   4   2   4   4   4
#     4  11  24  39  55  81 120 163 203 246 300 360
#     4   7  12  27  51  78 109 144 184 235 291 342
#     4  11  24  42  65  91 116 148 198 256 307 360
#     4  12  22  36  58  88 116 148 192 240 290 356
#     4   9  18  34  56  82 114 151 191 239 293 348
#     4  11  24  41  60  84 118 157 194 239 300 366
#     4   9  17  32  56  84 112 146 194 249 298 347
#
# _framework density 20.943342999999999
#
# number of rings (size 3 to 8) (size 9 to 14) (size 15 to 20)
#    0.000    2.154    0.000    5.538    0.000    6.154 
#    0.000    6.154    0.000    0.000    0.000    2.154 
#    0.000    0.000    0.000    0.000    0.000    0.000 
#
# Total GULP energy -144903.542396 kJ/mol
# GULP energy per Si atom -5573.213169 kJ/mol
# Density = 2.089568 g / cm^3
# Si number density = 20.943343 Si / 1000 Ang^3
#
#
#
# Elastic Constant Matrix: (Units=GPa)
#
#
# Indices 1 2 3 4 5 6 
#
# 1 67.1436 38.7155 51.1488 0.0000 0.0000 3.7055
# 2 38.7155 67.1436 51.1488 0.0000 0.0000 -3.7055
# 3 51.1488 51.1488 171.8720 0.0000 0.0000 0.0000
# 4 0.0000 0.0000 0.0000 115.7438 0.0000 0.0000
# 5 0.0000 0.0000 0.0000 0.0000 115.7438 0.0000
# 6 3.7055 -3.7055 0.0000 0.0000 0.0000 29.6575
#
#
#
# Elastic Compliance Matrix: (Units=1/GPa)
#
#
# Indices 1 2 3 4 5 6 
#
# 1 0.024810 -0.011550 -0.003946 0.000000 0.000000 -0.004543
# 2 -0.011550 0.024810 -0.003946 0.000000 0.000000 0.004543
# 3 -0.003946 -0.003946 0.008167 0.000000 0.000000 0.000000
# 4 0.000000 0.000000 0.000000 0.008640 0.000000 0.000000
# 5 0.000000 0.000000 0.000000 0.000000 0.008640 0.000000
# 6 -0.004543 0.004543 0.000000 0.000000 0.000000 0.034853
#
#
# Mechanical properties :
#
#
# Convention : Reuss Voigt Hill
#
# Bulk Modulus (GPa) = 52.90370 65.35395 59.12883
# Shear Modulus (GPa) = 32.23589 63.23877 47.73733
#
# Velocity S-wave (km/s) = 3.92751 5.50097 4.77944
# Velocity P-wave (km/s) = 6.77365 8.46289 7.66495
#
# Compressibility (1/GPa) = 0.01890227
#
# Stress axis : x y z
#
# Youngs Moduli (GPa) = 40.30585 40.30585 122.44409
#
# Poissons Ratio (x) = 0.46555 0.48318
# Poissons Ratio (y) = 0.46555 0.48318
# Poissons Ratio (z) = 0.15905 0.15905
#
# Static dielectric constant tensor:
#      x y z
#    x 1.662000 0.000000 0.000000 
#    y 0.000000 1.662000 0.000000 
#    z 0.000000 0.000000 1.777690 
# 
# From -- ./inp_files/729.got.cif
#   From: 2010.05.17/outbox.cif.g08.bks.cpg/sg75_cif.got.tgz:729.got - 2010.06.03 18:42:43.
