data_PCOD9541741
_publ_section_title
;
Structure prediction by ZEFSAII (Michael W. Deem and Ramdas Pophale) SiO2 
 PCOD9541741
Probable space group: P 43
;
_chemical_formula_sum "Si O2"
_cell_formula_units_Z 32
_cell_length_a 12.104983
_cell_length_b 12.104983
_cell_length_c 11.117884
_cell_angle_alpha 90.000000
_cell_angle_beta 90.000000
_cell_angle_gamma 90.000000
_cell_volume 1629.110363
_symmetry_space_group_name_H-M "P 43"
_symmetry_group_IT_number 78
_symmetry_cell_setting 'tetragonal'
loop_
_space_group_symop_operation_xyz
x,y,z
-y,x,3/4+z
-x,-y,1/2+z
y,-x,1/4+z
loop_
_atom_site_type_symbol
_atom_site_label
_atom_site_fract_x
_atom_site_fract_y
_atom_site_fract_z
Si Si1 0.799811 0.859002 0.602990
Si Si2 0.208161 0.526333 0.077323
Si Si3 0.275623 0.321214 0.926180
Si Si4 0.002753 0.678198 0.998386
Si Si5 0.963146 0.562773 0.756635
Si Si6 0.984452 0.923520 0.992206
Si Si7 0.234876 0.047600 0.364940
Si Si8 0.068446 0.322635 0.756825
O O1 0.727317 0.768992 0.533151
O O2 0.774787 0.881230 0.743499
O O3 0.922862 0.809349 0.589486
O O4 0.767476 0.975009 0.540729
O O5 0.305840 0.606709 0.115640
O O6 0.150782 0.462593 0.188469
O O7 0.248905 0.439014 0.981379
O O8 0.108036 0.602452 0.028540
O O9 0.177760 0.298531 0.831226
O O10 0.949204 0.632297 0.877682
O O11 0.039326 0.804458 0.985879
O O12 0.922063 0.676334 0.113112
O O13 0.034789 0.642197 0.668033
O O14 0.020627 0.445376 0.786329
O O15 0.854130 0.908474 0.961147
O O16 0.027486 0.992194 0.876275
#
# Coordination Sequence:
#
# PCOD9541741 Si02
#       8
#     4   4   4   4   4   4   4   4
#     4  12  22  38  66  98 134 172 219 265 340 413
#     4  11  25  43  74  93 126 180 229 291 329 404
#     4  12  24  46  72  96 132 176 236 283 343 406
#     4  11  24  40  65  99 134 177 221 274 338 402
#     4  11  21  43  64  97 132 171 227 270 335 396
#     4  12  27  40  59  97 148 187 216 271 338 423
#     4  12  24  38  63  97 136 182 213 276 329 409
#     4  11  25  38  67  99 130 173 221 282 330 413
#
# _framework density 19.642621999999999
#
# number of rings (size 3 to 8) (size 9 to 14) (size 15 to 20)
#    0.000    0.500    8.750    0.000    5.250    0.000 
#    0.000    0.000    5.500    0.000    0.000    0.000 
#    0.000    0.000    0.000    0.000    0.000    0.000 
#
# Total GULP energy -178855.582901 kJ/mol
# GULP energy per Si atom -5589.236966 kJ/mol
# Density = 1.959791 g / cm^3
# Si number density = 19.642622 Si / 1000 Ang^3
#
#
#
# Elastic Constant Matrix: (Units=GPa)
#
#
# Indices 1 2 3 4 5 6 
#
# 1 91.9808 21.5484 44.9613 0.0000 0.0000 -3.2368
# 2 21.5484 91.9808 44.9613 0.0000 0.0000 3.2368
# 3 44.9613 44.9613 120.4187 0.0000 0.0000 0.0000
# 4 0.0000 0.0000 0.0000 30.4949 0.0000 0.0000
# 5 0.0000 0.0000 0.0000 0.0000 30.4949 0.0000
# 6 -3.2368 3.2368 0.0000 0.0000 0.0000 23.3921
#
#
#
# Elastic Compliance Matrix: (Units=1/GPa)
#
#
# Indices 1 2 3 4 5 6 
#
# 1 0.013444 -0.000937 -0.004670 0.000000 0.000000 0.001990
# 2 -0.000937 0.013444 -0.004670 0.000000 0.000000 -0.001990
# 3 -0.004670 -0.004670 0.011792 0.000000 0.000000 0.000000
# 4 0.000000 0.000000 0.000000 0.032792 0.000000 0.000000
# 5 0.000000 0.000000 0.000000 0.000000 0.032792 0.000000
# 6 0.001990 -0.001990 0.000000 0.000000 0.000000 0.043300
#
#
# Mechanical properties :
#
#
# Convention : Reuss Voigt Hill
#
# Bulk Modulus (GPa) = 55.16806 58.59140 56.87973
# Shear Modulus (GPa) = 28.70928 29.73702 29.22315
#
# Velocity S-wave (km/s) = 3.82721 3.89511 3.86131
# Velocity P-wave (km/s) = 6.90485 7.07974 6.99284
#
# Compressibility (1/GPa) = 0.01812643
#
# Stress axis : x y z
#
# Youngs Moduli (GPa) = 74.38250 74.38250 84.80635
#
# Poissons Ratio (x) = 0.06969 0.39603
# Poissons Ratio (y) = 0.06969 0.39603
# Poissons Ratio (z) = 0.34736 0.34736
#
# Static dielectric constant tensor:
#      x y z
#    x 1.705370 0.000000 0.000000 
#    y 0.000000 1.705370 0.000000 
#    z 0.000000 0.000000 1.713770 
# 
# From -- ./inp_files/1007.got.cif
#   From: 2010.05.17/outbox.cif.g08.bks.cpg/sg78_cif.got.tgz:1007.got - 2010.06.03 18:45:56.
