data_PCOD9541029
_publ_section_title
;
Structure prediction by ZEFSAII (Michael W. Deem and Ramdas Pophale) SiO2 
 PCOD9541029
Probable space group: P 4
;
_chemical_formula_sum "Si O2"
_cell_formula_units_Z 30
_cell_length_a 8.081699
_cell_length_b 8.081699
_cell_length_c 20.477052
_cell_angle_alpha 90.000000
_cell_angle_beta 90.000000
_cell_angle_gamma 90.000000
_cell_volume 1337.435281
_symmetry_space_group_name_H-M "P 4"
_symmetry_group_IT_number 75
_symmetry_cell_setting 'tetragonal'
loop_
_space_group_symop_operation_xyz
x,y,z
-y,x,z
-x,-y,z
y,-x,z
loop_
_atom_site_type_symbol
_atom_site_label
_atom_site_fract_x
_atom_site_fract_y
_atom_site_fract_z
Si Si1 0.180120 0.216890 0.468850
Si Si2 0.765678 0.417284 0.983614
Si Si3 0.253030 0.611180 0.741642
Si Si4 0.924542 0.263525 0.861651
Si Si5 0.825467 0.221669 0.608432
Si Si6 0.764563 0.407872 0.128038
Si Si7 0.748728 0.129483 0.329450
Si Si8 0.500000 0.000000 0.233437
O O1 0.261126 0.259671 0.538254
O O2 0.206065 0.306347 0.399775
O O3 0.979399 0.221125 0.468880
O O4 0.697890 0.603031 0.980948
O O5 0.874155 0.378987 0.921165
O O6 0.839383 0.385158 0.055531
O O7 0.290751 0.421543 0.756391
O O8 0.109150 0.667158 0.789691
O O9 0.224018 0.656537 0.666308
O O10 0.107156 0.196555 0.867791
O O11 0.026521 0.221134 0.613536
O O12 0.701875 0.598828 0.132953
O O13 0.896259 0.381281 0.185027
O O14 0.930915 0.211141 0.324708
O O15 0.601626 0.132462 0.277192
#
# Coordination Sequence:
#
# PCOD9541029 Si02
#       8
#     4   4   4   4   4   4   4   2
#     4   7  12  27  50  73 101 137 174 218 272 326
#     4   9  19  37  59  80 104 140 183 221 264 325
#     4  11  24  39  54  77 111 148 182 216 260 317
#     4  11  24  39  57  84 113 138 172 221 269 315
#     4   9  17  32  56  82 105 135 180 229 273 320
#     4   9  20  37  54  76 109 145 182 226 277 334
#     4   9  18  33  51  75 109 144 181 229 283 335
#     4  12  20  30  54  84 108 142 190 236 284 338
#
# _framework density 22.430993000000001
#
# number of rings (size 3 to 8) (size 9 to 14) (size 15 to 20)
#    0.000    2.533    0.000    4.800    0.000    8.000 
#    0.000    4.000    0.000    1.600    0.000    1.867 
#    0.000    0.000    0.000    0.000    0.000    0.000 
#
# Total GULP energy -167217.459183 kJ/mol
# GULP energy per Si atom -5573.915306 kJ/mol
# Density = 2.237994 g / cm^3
# Si number density = 22.430993 Si / 1000 Ang^3
#
#
#
# Elastic Constant Matrix: (Units=GPa)
#
#
# Indices 1 2 3 4 5 6 
#
# 1 25.4120 28.8735 31.5931 0.0000 0.0000 4.3705
# 2 28.8735 25.4120 31.5931 0.0000 0.0000 -4.3705
# 3 31.5931 31.5931 175.2047 0.0000 0.0000 0.0000
# 4 0.0000 0.0000 0.0000 -7.6220 0.0000 0.0000
# 5 0.0000 0.0000 0.0000 0.0000 -7.6220 0.0000
# 6 4.3705 -4.3705 0.0000 0.0000 0.0000 17.7837
#
#
#
# Elastic Compliance Matrix: (Units=1/GPa)
#
#
# Indices 1 2 3 4 5 6 
#
# 1 -0.077475 0.100790 -0.004204 0.000000 0.000000 0.043810
# 2 0.100790 -0.077475 -0.004204 0.000000 0.000000 -0.043810
# 3 -0.004204 -0.004204 0.007224 0.000000 0.000000 0.000000
# 4 0.000000 0.000000 0.000000 -0.131200 0.000000 0.000000
# 5 0.000000 0.000000 0.000000 0.000000 -0.131200 0.000000
# 6 0.043810 -0.043810 0.000000 0.000000 0.000000 0.034698
#
#
# Mechanical properties :
#
#
# Convention : Reuss Voigt Hill
#
# Bulk Modulus (GPa) = 27.00042 45.57201 36.28621
# Shear Modulus (GPa) = -9.12664 9.43922 0.15629
#
# Velocity S-wave (km/s) = -2.01931 2.05359 0.26424
# Velocity P-wave (km/s) = 2.57419 5.09742 4.03795
#
# Compressibility (1/GPa) = 0.03703647
#
# Stress axis : x y z
#
# Youngs Moduli (GPa) = -12.90733 -12.90733 138.43150
#
# Poissons Ratio (x) = 1.30093 0.58198
# Poissons Ratio (y) = 1.30093 0.58198
# Poissons Ratio (z) = -0.05426 -0.05426
#
# Static dielectric constant tensor:
#      x y z
#    x 1.923750 0.000000 0.000000 
#    y 0.000000 1.923750 0.000000 
#    z 0.000000 0.000000 1.911910 
# 
# From -- ./inp_files/771.got.cif
#   From: 2010.05.17/outbox.cif.g08.bks.cpg/sg75_cif.got.tgz:771.got - 2010.06.03 18:42:43.
