data_PCOD9541378
_publ_section_title
;
Structure prediction by ZEFSAII (Michael W. Deem and Ramdas Pophale) SiO2 
 PCOD9541378
Probable space group: P 41
;
_chemical_formula_sum "Si O2"
_cell_formula_units_Z 24
_cell_length_a 11.224521
_cell_length_b 11.224521
_cell_length_c 8.341959
_cell_angle_alpha 90.000000
_cell_angle_beta 90.000000
_cell_angle_gamma 90.000000
_cell_volume 1051.002344
_symmetry_space_group_name_H-M "P 41"
_symmetry_group_IT_number 76
_symmetry_cell_setting 'tetragonal'
loop_
_space_group_symop_operation_xyz
x,y,z
-y,x,1/4+z
-x,-y,1/2+z
y,-x,3/4+z
loop_
_atom_site_type_symbol
_atom_site_label
_atom_site_fract_x
_atom_site_fract_y
_atom_site_fract_z
Si Si1 0.400824 0.615832 0.625000
Si Si2 0.774096 0.518250 0.653547
Si Si3 0.467675 0.158080 0.836833
Si Si4 0.858502 0.058261 0.696438
Si Si5 0.413532 0.038475 0.172641
Si Si6 0.310423 0.735405 0.209307
O O1 0.401986 0.505783 0.750289
O O2 0.422236 0.726498 0.740834
O O3 0.268978 0.616174 0.551760
O O4 0.886396 0.444432 0.582057
O O5 0.692648 0.407183 0.707176
O O6 0.769882 0.622465 0.788197
O O7 0.600491 0.211827 0.841302
O O8 0.484875 0.063388 0.695192
O O9 0.433303 0.104524 0.006118
O O10 0.725034 0.002459 0.664741
O O11 0.917982 0.962090 0.815791
O O12 0.812742 0.193567 0.734533
#
# Coordination Sequence:
#
# PCOD9541378 Si02
#       6
#     4   4   4   4   4   4
#     4  12  24  41  69 109 151 187 231 284 365 456
#     4  12  22  44  75 107 154 194 224 298 370 443
#     4  11  25  43  67 106 143 188 239 287 361 444
#     4  11  25  52  74  98 134 190 252 309 355 412
#     4  11  23  48  69 101 146 187 243 305 362 426
#     4  11  25  42  76 107 150 190 231 295 371 447
#
# _framework density 22.835346000000001
#
# number of rings (size 3 to 8) (size 9 to 14) (size 15 to 20)
#    0.000    0.667    5.000    3.000    2.333    0.000 
#    3.000    3.333    0.000    0.000    0.000    0.000 
#    0.000    0.000    0.000    0.000    0.000    0.000 
#
# Total GULP energy -133721.696615 kJ/mol
# GULP energy per Si atom -5571.737359 kJ/mol
# Density = 2.278337 g / cm^3
# Si number density = 22.835346 Si / 1000 Ang^3
#
#
#
# Elastic Constant Matrix: (Units=GPa)
#
#
# Indices 1 2 3 4 5 6 
#
# 1 86.1405 41.5974 30.2868 0.0000 0.0000 -2.2502
# 2 41.5974 86.1405 30.2868 0.0000 0.0000 2.2502
# 3 30.2868 30.2868 84.3716 0.0000 0.0000 0.0000
# 4 0.0000 0.0000 0.0000 47.4742 0.0000 0.0000
# 5 0.0000 0.0000 0.0000 0.0000 47.4742 0.0000
# 6 -2.2502 2.2502 0.0000 0.0000 0.0000 42.5557
#
#
#
# Elastic Compliance Matrix: (Units=1/GPa)
#
#
# Indices 1 2 3 4 5 6 
#
# 1 0.016003 -0.006568 -0.003387 0.000000 0.000000 0.001193
# 2 -0.006568 0.016003 -0.003387 0.000000 0.000000 -0.001193
# 3 -0.003387 -0.003387 0.014284 0.000000 0.000000 0.000000
# 4 0.000000 0.000000 0.000000 0.021064 0.000000 0.000000
# 5 0.000000 0.000000 0.000000 0.000000 0.021064 0.000000
# 6 0.001193 -0.001193 0.000000 0.000000 0.000000 0.023625
#
#
# Mechanical properties :
#
#
# Convention : Reuss Voigt Hill
#
# Bulk Modulus (GPa) = 51.00478 51.22160 51.11319
# Shear Modulus (GPa) = 34.42093 37.79958 36.11025
#
# Velocity S-wave (km/s) = 3.88668 4.07296 3.98091
# Velocity P-wave (km/s) = 6.52120 6.67819 6.60016
#
# Compressibility (1/GPa) = 0.01960601
#
# Stress axis : x y z
#
# Youngs Moduli (GPa) = 62.48967 62.48967 70.00952
#
# Poissons Ratio (x) = 0.41044 0.23710
# Poissons Ratio (y) = 0.41044 0.23710
# Poissons Ratio (z) = 0.21163 0.21163
#
# Static dielectric constant tensor:
#      x y z
#    x 1.981700 0.000000 0.000000 
#    y 0.000000 1.981700 0.000000 
#    z 0.000000 0.000000 1.901660 
# 
# From -- ./inp_files/571.got.cif
#   From: 2010.05.17/outbox.cif.g08.bks.cpg/sg76_cif.got.tgz:571.got - 2010.06.03 18:43:17.
