data_PCOD9541763
_publ_section_title
;
Structure prediction by ZEFSAII (Michael W. Deem and Ramdas Pophale) SiO2 
 PCOD9541763
Probable space group: P 43
;
_chemical_formula_sum "Si O2"
_cell_formula_units_Z 28
_cell_length_a 12.003100
_cell_length_b 12.003100
_cell_length_c 8.163800
_cell_angle_alpha 90.000000
_cell_angle_beta 90.000000
_cell_angle_gamma 90.000000
_cell_volume 1176.194665
_symmetry_space_group_name_H-M "P 43"
_symmetry_group_IT_number 78
_symmetry_cell_setting 'tetragonal'
loop_
_space_group_symop_operation_xyz
x,y,z
-y,x,3/4+z
-x,-y,1/2+z
y,-x,1/4+z
loop_
_atom_site_type_symbol
_atom_site_label
_atom_site_fract_x
_atom_site_fract_y
_atom_site_fract_z
Si Si1 0.256930 0.279773 0.585840
Si Si2 0.868369 0.538124 0.614832
Si Si3 0.454245 0.919304 0.723869
Si Si4 0.905202 0.105496 0.451597
Si Si5 0.855971 0.286103 0.024271
Si Si6 0.903141 0.769432 0.525961
Si Si7 0.450336 0.366797 0.817200
O O1 0.158154 0.369857 0.572513
O O2 0.217666 0.161610 0.659962
O O3 0.291089 0.245243 0.402210
O O4 0.352352 0.334918 0.692479
O O5 0.915713 0.581334 0.786079
O O6 0.862399 0.643434 0.494187
O O7 0.748658 0.488913 0.645124
O O8 0.956620 0.452442 0.543430
O O9 0.585019 0.881237 0.726040
O O10 0.831923 0.069010 0.608372
O O11 0.026389 0.105340 0.540202
O O12 0.972782 0.241475 0.101203
O O13 0.822727 0.195955 0.883867
O O14 0.549064 0.415250 0.707343
#
# Coordination Sequence:
#
# PCOD9541763 Si02
#       7
#     4   4   4   4   4   4   4
#     4  12  29  48  79 113 155 202 265 322 396 461
#     4  11  28  47  77 111 152 199 260 317 404 457
#     4  11  28  48  78 109 152 199 261 318 386 473
#     4  12  30  46  75 111 164 204 262 314 395 468
#     4  11  26  45  77 106 156 198 259 312 390 467
#     4  11  24  47  71 109 148 207 247 320 378 471
#     4  12  31  51  83 113 161 205 272 331 407 469
#
# _framework density 23.805582999999999
#
# number of rings (size 3 to 8) (size 9 to 14) (size 15 to 20)
#    0.000    0.571    2.857    1.714   22.000    0.000 
#    0.000    0.000    0.000    0.000    0.000    0.000 
#    0.000    0.000    0.000    0.000    0.000    0.000 
#
# Total GULP energy -156586.245941 kJ/mol
# GULP energy per Si atom -5592.365926 kJ/mol
# Density = 2.375140 g / cm^3
# Si number density = 23.805583 Si / 1000 Ang^3
#
#
#
# Elastic Constant Matrix: (Units=GPa)
#
#
# Indices 1 2 3 4 5 6 
#
# 1 88.7632 15.1845 13.0199 0.0000 0.0000 28.3686
# 2 15.1845 88.7632 13.0199 0.0000 0.0000 -28.3686
# 3 13.0199 13.0199 53.7440 0.0000 0.0000 0.0000
# 4 0.0000 0.0000 0.0000 22.9007 0.0000 0.0000
# 5 0.0000 0.0000 0.0000 0.0000 22.9007 0.0000
# 6 28.3686 -28.3686 0.0000 0.0000 0.0000 72.5168
#
#
#
# Elastic Compliance Matrix: (Units=1/GPa)
#
#
# Indices 1 2 3 4 5 6 
#
# 1 0.014852 -0.004610 -0.002481 0.000000 0.000000 -0.007613
# 2 -0.004610 0.014852 -0.002481 0.000000 0.000000 0.007613
# 3 -0.002481 -0.002481 0.019809 0.000000 0.000000 0.000000
# 4 0.000000 0.000000 0.000000 0.043667 0.000000 0.000000
# 5 0.000000 0.000000 0.000000 0.000000 0.043667 0.000000
# 6 -0.007613 0.007613 0.000000 0.000000 0.000000 0.019747
#
#
# Mechanical properties :
#
#
# Convention : Reuss Voigt Hill
#
# Bulk Modulus (GPa) = 32.92959 34.85767 33.89363
# Shear Modulus (GPa) = 26.90204 36.33338 31.61771
#
# Velocity S-wave (km/s) = 3.36530 3.91097 3.64835
# Velocity P-wave (km/s) = 5.38174 5.92188 5.65826
#
# Compressibility (1/GPa) = 0.03036783
#
# Stress axis : x y z
#
# Youngs Moduli (GPa) = 67.33226 67.33226 50.48235
#
# Poissons Ratio (x) = 0.31040 0.12525
# Poissons Ratio (y) = 0.31040 0.12525
# Poissons Ratio (z) = 0.16706 0.16706
#
# Static dielectric constant tensor:
#      x y z
#    x 1.948110 0.000000 0.000000 
#    y 0.000000 1.948110 0.000000 
#    z 0.000000 0.000000 1.928590 
# 
# From -- ./inp_files/615.got.cif
#   From: 2010.05.17/outbox.cif.g08.bks.cpg/sg78_cif.got.tgz:615.got - 2010.06.03 18:45:56.
