data_PCOD9541335
_publ_section_title
;
Structure prediction by ZEFSAII (Michael W. Deem and Ramdas Pophale) SiO2 
 PCOD9541335
Probable space group: P 41
;
_chemical_formula_sum "Si O2"
_cell_formula_units_Z 28
_cell_length_a 16.799120
_cell_length_b 16.799120
_cell_length_c 5.502867
_cell_angle_alpha 90.000000
_cell_angle_beta 90.000000
_cell_angle_gamma 90.000000
_cell_volume 1552.966478
_symmetry_space_group_name_H-M "P 41"
_symmetry_group_IT_number 76
_symmetry_cell_setting 'tetragonal'
loop_
_space_group_symop_operation_xyz
x,y,z
-y,x,1/4+z
-x,-y,1/2+z
y,-x,3/4+z
loop_
_atom_site_type_symbol
_atom_site_label
_atom_site_fract_x
_atom_site_fract_y
_atom_site_fract_z
Si Si1 0.326081 0.703649 0.979890
Si Si2 0.180271 0.597357 0.964208
Si Si3 0.443808 0.754194 0.608259
Si Si4 0.373904 0.928892 0.641126
Si Si5 0.549980 0.903468 0.194373
Si Si6 0.358515 0.880039 0.147581
Si Si7 0.612058 0.543966 0.011271
O O1 0.236592 0.673913 0.961547
O O2 0.363129 0.719905 0.716882
O O3 0.337358 0.785832 0.133651
O O4 0.386885 0.636544 0.075109
O O5 0.240123 0.522994 0.018360
O O6 0.137768 0.580546 0.699303
O O7 0.126017 0.596257 0.203090
O O8 0.422030 0.847049 0.595942
O O9 0.469680 0.695725 0.396595
O O10 0.329329 0.929377 0.382244
O O11 0.431730 0.002583 0.691518
O O12 0.327968 0.915623 0.892378
O O13 0.455684 0.889347 0.145083
O O14 0.580140 0.460262 0.915403
#
# Coordination Sequence:
#
# PCOD9541335 Si02
#       7
#     4   4   4   4   4   4   4
#     4  11  24  39  55  73 108 149 199 238 289 341
#     4  12  25  35  58  76 114 145 185 248 282 347
#     4  11  23  40  55  78 102 146 196 244 299 347
#     4  11  21  35  63  80 110 131 180 252 296 356
#     4  12  22  39  54  89 105 139 184 244 306 343
#     4  11  20  37  56  82 101 143 180 234 286 348
#     4  12  27  39  53  74 106 149 206 260 296 322
#
# _framework density 18.030010000000001
#
# number of rings (size 3 to 8) (size 9 to 14) (size 15 to 20)
#    0.000    0.571    5.714    3.429    8.000    0.000 
#    0.000    0.000    0.000    0.000    0.000    0.000 
#    0.000    0.000    0.000    0.000    0.000  257.143 
#
# Total GULP energy -155869.167279 kJ/mol
# GULP energy per Si atom -5566.755974 kJ/mol
# Density = 1.798897 g / cm^3
# Si number density = 18.030010 Si / 1000 Ang^3
#
#
#
# Elastic Constant Matrix: (Units=GPa)
#
#
# Indices 1 2 3 4 5 6 
#
# 1 65.6785 30.6065 25.8149 0.0000 0.0000 -0.1771
# 2 30.6065 65.6785 25.8149 0.0000 0.0000 0.1771
# 3 25.8149 25.8149 120.1891 0.0000 0.0000 0.0000
# 4 0.0000 0.0000 0.0000 22.9344 0.0000 0.0000
# 5 0.0000 0.0000 0.0000 0.0000 22.9344 0.0000
# 6 -0.1771 0.1771 0.0000 0.0000 0.0000 9.2230
#
#
#
# Elastic Compliance Matrix: (Units=1/GPa)
#
#
# Indices 1 2 3 4 5 6 
#
# 1 0.020128 -0.008390 -0.002521 0.000000 0.000000 0.000548
# 2 -0.008390 0.020128 -0.002521 0.000000 0.000000 -0.000548
# 3 -0.002521 -0.002521 0.009403 0.000000 0.000000 0.000000
# 4 0.000000 0.000000 0.000000 0.043603 0.000000 0.000000
# 5 0.000000 0.000000 0.000000 0.000000 0.043603 0.000000
# 6 0.000548 -0.000548 0.000000 0.000000 0.000000 0.108446
#
#
# Mechanical properties :
#
#
# Convention : Reuss Voigt Hill
#
# Bulk Modulus (GPa) = 43.87075 46.22430 45.04753
# Shear Modulus (GPa) = 17.87160 22.30566 20.08863
#
# Velocity S-wave (km/s) = 3.15177 3.52112 3.34155
# Velocity P-wave (km/s) = 6.13431 6.49801 6.31878
#
# Compressibility (1/GPa) = 0.02279423
#
# Stress axis : x y z
#
# Youngs Moduli (GPa) = 49.68202 49.68202 106.34669
#
# Poissons Ratio (x) = 0.41685 0.26811
# Poissons Ratio (y) = 0.41685 0.26811
# Poissons Ratio (z) = 0.12525 0.12525
#
# Static dielectric constant tensor:
#      x y z
#    x 1.636660 0.000000 0.000000 
#    y 0.000000 1.636660 0.000000 
#    z 0.000000 0.000000 1.852830 
# 
# From -- ./inp_files/299.got.cif
#   From: 2010.05.17/outbox.cif.g08.bks.cpg/sg76_cif.got.tgz:299.got - 2010.06.03 18:43:17.
