data_PCOD9541940
_publ_section_title
;
Structure prediction by ZEFSAII (Michael W. Deem and Ramdas Pophale) SiO2 
 PCOD9541940
Probable space group: I 4
;
_chemical_formula_sum "Si O2"
_cell_formula_units_Z 36
_cell_length_a 12.662881
_cell_length_b 12.662881
_cell_length_c 9.333603
_cell_angle_alpha 90.000000
_cell_angle_beta 90.000000
_cell_angle_gamma 90.000000
_cell_volume 1496.629756
_symmetry_space_group_name_H-M "I 4"
_symmetry_group_IT_number 79
_symmetry_cell_setting 'tetragonal'
loop_
_space_group_symop_operation_xyz
x,y,z
-y,x,z
-x,-y,z
y,-x,z
1/2+x,1/2+y,1/2+z
1/2-y,1/2+x,1/2+z
1/2-x,1/2-y,1/2+z
1/2+y,1/2-x,1/2+z
loop_
_atom_site_type_symbol
_atom_site_label
_atom_site_fract_x
_atom_site_fract_y
_atom_site_fract_z
Si Si1 0.926539 0.159739 0.656090
Si Si2 0.000000 0.500000 0.991707
Si Si3 0.536537 0.768348 0.579643
Si Si4 0.768457 0.463704 0.901912
Si Si5 0.733299 0.676452 0.427268
O O1 0.863934 0.238099 0.761906
O O2 0.049363 0.132216 0.688734
O O3 0.951022 0.206066 0.497552
O O4 0.012442 0.393223 0.080889
O O5 0.107840 0.507310 0.903275
O O6 0.547104 0.727878 0.741013
O O7 0.635789 0.747171 0.476726
O O8 0.432597 0.717696 0.511661
O O9 0.770910 0.345002 0.966931
#
# Coordination Sequence:
#
# PCOD9541940 Si02
#       5
#     8   4   8   8   8
#     4  11  25  47  71 102 150 199 246 309 386 455
#     4  10  24  48  70 106 154 194 238 322 398 448
#     4  11  25  44  73 105 146 192 256 314 377 468
#     4  11  26  42  74 110 141 194 254 316 372 467
#     4  11  25  45  73 104 146 200 244 313 389 453
#
# _framework density 24.054044000000001
#
# number of rings (size 3 to 8) (size 9 to 14) (size 15 to 20)
#    0.000    1.111    2.222    2.000    9.333    5.778 
#    0.000    0.000    0.000    0.000    0.000    0.000 
#    0.000    0.000    0.000    0.000    0.000    0.000 
#
# Total GULP energy -100536.803669 kJ/mol
# GULP energy per Si atom -5585.377982 kJ/mol
# Density = 2.399930 g / cm^3
# Si number density = 24.054044 Si / 1000 Ang^3
#
#
#
# Elastic Constant Matrix: (Units=GPa)
#
#
# Indices 1 2 3 4 5 6 
#
# 1 85.2010 32.2698 22.1070 0.0000 0.0000 7.2198
# 2 32.2698 85.2010 22.1070 0.0000 0.0000 -7.2198
# 3 22.1070 22.1070 133.1540 0.0000 0.0000 0.0000
# 4 0.0000 0.0000 0.0000 21.7739 0.0000 0.0000
# 5 0.0000 0.0000 0.0000 0.0000 21.7739 0.0000
# 6 7.2198 -7.2198 0.0000 0.0000 0.0000 45.7126
#
#
#
# Elastic Compliance Matrix: (Units=1/GPa)
#
#
# Indices 1 2 3 4 5 6 
#
# 1 0.014412 -0.005331 -0.001508 0.000000 0.000000 -0.003118
# 2 -0.005331 0.014412 -0.001508 0.000000 0.000000 0.003118
# 3 -0.001508 -0.001508 0.008011 0.000000 0.000000 0.000000
# 4 0.000000 0.000000 0.000000 0.045927 0.000000 0.000000
# 5 0.000000 0.000000 0.000000 0.000000 0.045927 0.000000
# 6 -0.003118 0.003118 0.000000 0.000000 0.000000 0.022861
#
#
# Mechanical properties :
#
#
# Convention : Reuss Voigt Hill
#
# Bulk Modulus (GPa) = 49.65033 50.72483 50.18758
# Shear Modulus (GPa) = 28.57884 32.99022 30.78453
#
# Velocity S-wave (km/s) = 3.45064 3.70740 3.58132
# Velocity P-wave (km/s) = 6.04664 6.28172 6.16530
#
# Compressibility (1/GPa) = 0.02014085
#
# Stress axis : x y z
#
# Youngs Moduli (GPa) = 69.38850 69.38850 124.83333
#
# Poissons Ratio (x) = 0.36994 0.18819
# Poissons Ratio (y) = 0.36994 0.18819
# Poissons Ratio (z) = 0.10461 0.10461
#
# Static dielectric constant tensor:
#      x y z
#    x 1.907200 0.000000 0.000000 
#    y 0.000000 1.907200 0.000000 
#    z 0.000000 0.000000 1.985400 
# 
# From -- ./inp_files/488.got.cif
#   From: 2010.05.17/outbox.cif.g08.bks.cpg/sg79_cif.got.tgz:488.got - 2010.06.03 18:47:27.
