data_PCOD9541305
_publ_section_title
;
Structure prediction by ZEFSAII (Michael W. Deem and Ramdas Pophale) SiO2 
 PCOD9541305
Probable space group: P 41
;
_chemical_formula_sum "Si O2"
_cell_formula_units_Z 16
_cell_length_a 7.926931
_cell_length_b 7.926931
_cell_length_c 9.029235
_cell_angle_alpha 90.000000
_cell_angle_beta 90.000000
_cell_angle_gamma 90.000000
_cell_volume 567.363133
_symmetry_space_group_name_H-M "P 41"
_symmetry_group_IT_number 76
_symmetry_cell_setting 'tetragonal'
loop_
_space_group_symop_operation_xyz
x,y,z
-y,x,1/4+z
-x,-y,1/2+z
y,-x,3/4+z
loop_
_atom_site_type_symbol
_atom_site_label
_atom_site_fract_x
_atom_site_fract_y
_atom_site_fract_z
Si Si1 0.565711 0.634367 0.115670
Si Si2 0.803796 0.949674 0.779165
Si Si3 0.252639 0.691564 0.759219
Si Si4 0.973774 0.425978 0.028506
O O1 0.386146 0.592839 0.192201
O O2 0.665768 0.483753 0.202702
O O3 0.606384 0.822117 0.164166
O O4 0.899997 0.079073 0.667434
O O5 0.734984 0.795151 0.676670
O O6 0.622713 0.029765 0.821965
O O7 0.366408 0.849821 0.713099
O O8 0.077212 0.686163 0.669756
#
# Coordination Sequence:
#
# PCOD9541305 Si02
#       4
#     4   4   4   4
#     4  10  24  44  74 113 157 215 275 352 424 510
#     4  12  28  53  84 128 174 230 288 370 445 537
#     4  11  24  52  80 120 165 221 292 358 432 522
#     4  11  26  49  82 119 168 228 289 358 437 517
#
# _framework density 28.200635999999999
#
# number of rings (size 3 to 8) (size 9 to 14) (size 15 to 20)
#    0.000    1.000    2.500    3.000    7.000    4.000 
#    9.000    0.000    0.000    0.000    0.000    0.000 
#    0.000    0.000    0.000    0.000    0.000    0.000 
#
# Total GULP energy -89655.555938 kJ/mol
# GULP energy per Si atom -5603.472246 kJ/mol
# Density = 2.813645 g / cm^3
# Si number density = 28.200636 Si / 1000 Ang^3
#
#
#
# Elastic Constant Matrix: (Units=GPa)
#
#
# Indices 1 2 3 4 5 6 
#
# 1 172.3535 103.4927 62.9309 0.0000 0.0000 -8.9764
# 2 103.4927 172.3535 62.9309 0.0000 0.0000 8.9764
# 3 62.9309 62.9309 157.6865 0.0000 0.0000 0.0000
# 4 0.0000 0.0000 0.0000 47.1472 0.0000 0.0000
# 5 0.0000 0.0000 0.0000 0.0000 47.1472 0.0000
# 6 -8.9764 8.9764 0.0000 0.0000 0.0000 48.5994
#
#
#
# Elastic Compliance Matrix: (Units=1/GPa)
#
#
# Indices 1 2 3 4 5 6 
#
# 1 0.009845 -0.005412 -0.001769 0.000000 0.000000 0.002818
# 2 -0.005412 0.009845 -0.001769 0.000000 0.000000 -0.002818
# 3 -0.001769 -0.001769 0.007754 0.000000 0.000000 0.000000
# 4 0.000000 0.000000 0.000000 0.021210 0.000000 0.000000
# 5 0.000000 0.000000 0.000000 0.000000 0.021210 0.000000
# 6 0.002818 -0.002818 0.000000 0.000000 0.000000 0.021617
#
#
# Mechanical properties :
#
#
# Convention : Reuss Voigt Hill
#
# Bulk Modulus (GPa) = 104.79257 106.78914 105.79085
# Shear Modulus (GPa) = 44.42034 46.78138 45.60086
#
# Velocity S-wave (km/s) = 3.97313 4.07735 4.02558
# Velocity P-wave (km/s) = 7.63466 7.75346 7.69429
#
# Compressibility (1/GPa) = 0.00954266
#
# Stress axis : x y z
#
# Youngs Moduli (GPa) = 101.57949 101.57949 128.97268
#
# Poissons Ratio (x) = 0.54977 0.22814
# Poissons Ratio (y) = 0.54977 0.22814
# Poissons Ratio (z) = 0.17968 0.17968
#
# Static dielectric constant tensor:
#      x y z
#    x 2.297370 0.000000 0.000000 
#    y 0.000000 2.297370 0.000000 
#    z 0.000000 0.000000 2.262630 
# 
# From -- ./inp_files/418.got.cif
#   From: 2010.05.17/outbox.cif.g08.bks.cpg/sg76_cif.got.tgz:418.got - 2010.06.03 18:43:17.
