data_PCOD9541891
_publ_section_title
;
Structure prediction by ZEFSAII (Michael W. Deem and Ramdas Pophale) SiO2 
 PCOD9541891
Probable space group: I 4
;
_chemical_formula_sum "Si O2"
_cell_formula_units_Z 58
_cell_length_a 10.841670
_cell_length_b 10.841670
_cell_length_c 23.622585
_cell_angle_alpha 90.000000
_cell_angle_beta 90.000000
_cell_angle_gamma 90.000000
_cell_volume 2776.641360
_symmetry_space_group_name_H-M "I 4"
_symmetry_group_IT_number 79
_symmetry_cell_setting 'tetragonal'
loop_
_space_group_symop_operation_xyz
x,y,z
-y,x,z
-x,-y,z
y,-x,z
1/2+x,1/2+y,1/2+z
1/2-y,1/2+x,1/2+z
1/2-x,1/2-y,1/2+z
1/2+y,1/2-x,1/2+z
loop_
_atom_site_type_symbol
_atom_site_label
_atom_site_fract_x
_atom_site_fract_y
_atom_site_fract_z
Si Si1 0.397372 0.672515 0.715030
Si Si2 0.178567 0.451111 0.286186
Si Si3 0.024642 0.207925 0.550737
Si Si4 0.500000 0.500000 0.191706
Si Si5 0.413180 0.680712 0.388738
Si Si6 0.944737 0.302068 0.324276
Si Si7 0.920280 0.731122 0.674523
Si Si8 0.140666 0.550877 0.936857
O O1 0.337422 0.542007 0.700069
O O2 0.395855 0.696464 0.783212
O O3 0.332102 0.788822 0.686565
O O4 0.299467 0.408115 0.320151
O O5 0.072189 0.353811 0.298374
O O6 0.178275 0.485696 0.220968
O O7 0.142194 0.578584 0.317639
O O8 0.038130 0.279783 0.609859
O O9 0.036672 0.296312 0.497243
O O10 0.896679 0.131658 0.550021
O O11 0.413009 0.376703 0.187738
O O12 0.342429 0.556212 0.404448
O O13 0.364678 0.806213 0.416787
O O14 0.973422 0.282128 0.389890
O O15 0.000000 0.500000 0.936054
#
# Coordination Sequence:
#
# PCOD9541891 Si02
#       8
#     8   8   8   2   8   8   8   8
#     4  10  24  43  66 101 143 184 227 273 343 427
#     4   9  19  34  62  96 130 165 208 268 342 405
#     4  11  25  46  68  97 130 170 232 295 342 398
#     4  12  24  40  68 100 136 172 228 292 352 402
#     4  10  22  36  60  95 132 167 208 268 339 408
#     4   9  18  39  61  92 134 169 220 269 328 402
#     4  11  23  43  68  97 139 171 222 292 338 413
#     4  11  23  43  65  94 129 178 229 280 333 408
#
# _framework density 20.888544
#
# number of rings (size 3 to 8) (size 9 to 14) (size 15 to 20)
#    0.000    1.793    4.138    0.000    5.793    4.414 
#    7.448    1.379    0.000    1.655    0.000    0.000 
#    0.000    0.000    0.000    0.000    0.000    0.000 
#
# Total GULP energy -161801.624922 kJ/mol
# GULP energy per Si atom -5579.366377 kJ/mol
# Density = 2.084100 g / cm^3
# Si number density = 20.888544 Si / 1000 Ang^3
#
#
#
# Elastic Constant Matrix: (Units=GPa)
#
#
# Indices 1 2 3 4 5 6 
#
# 1 56.2979 19.3032 28.9777 0.0000 0.0000 -3.2176
# 2 19.3032 56.2979 28.9777 0.0000 0.0000 3.2176
# 3 28.9777 28.9777 165.1315 0.0000 0.0000 0.0000
# 4 0.0000 0.0000 0.0000 23.1345 0.0000 0.0000
# 5 0.0000 0.0000 0.0000 0.0000 23.1345 0.0000
# 6 -3.2176 3.2176 0.0000 0.0000 0.0000 32.8514
#
#
#
# Elastic Compliance Matrix: (Units=1/GPa)
#
#
# Indices 1 2 3 4 5 6 
#
# 1 0.021391 -0.006108 -0.002682 0.000000 0.000000 0.002693
# 2 -0.006108 0.021391 -0.002682 0.000000 0.000000 -0.002693
# 3 -0.002682 -0.002682 0.006997 0.000000 0.000000 0.000000
# 4 0.000000 0.000000 0.000000 0.043225 0.000000 0.000000
# 5 0.000000 0.000000 0.000000 0.000000 0.043225 0.000000
# 6 0.002693 -0.002693 0.000000 0.000000 0.000000 0.030968
#
#
# Mechanical properties :
#
#
# Convention : Reuss Voigt Hill
#
# Bulk Modulus (GPa) = 37.26362 48.02717 42.64540
# Shear Modulus (GPa) = 25.11457 29.18866 27.15162
#
# Velocity S-wave (km/s) = 3.47120 3.74217 3.60923
# Velocity P-wave (km/s) = 5.82612 6.45863 6.15051
#
# Compressibility (1/GPa) = 0.02683582
#
# Stress axis : x y z
#
# Youngs Moduli (GPa) = 46.74791 46.74791 142.91737
#
# Poissons Ratio (x) = 0.28554 0.38330
# Poissons Ratio (y) = 0.28554 0.38330
# Poissons Ratio (z) = 0.12538 0.12538
#
# Static dielectric constant tensor:
#      x y z
#    x 1.775860 0.000000 0.000000 
#    y 0.000000 1.775860 0.000000 
#    z 0.000000 0.000000 1.752320 
# 
# From -- ./inp_files/1863.got.cif
#   From: 2010.05.17/outbox.cif.g08.bks.cpg/sg79_cif.got.tgz:1863.got - 2010.06.03 18:47:27.
