data_PCOD9541210
_publ_section_title
;
Structure prediction by ZEFSAII (Michael W. Deem and Ramdas Pophale) SiO2 
 PCOD9541210
Probable space group: P 41
;
_chemical_formula_sum "Si O2"
_cell_formula_units_Z 24
_cell_length_a 10.231325
_cell_length_b 10.231325
_cell_length_c 9.020280
_cell_angle_alpha 90.000000
_cell_angle_beta 90.000000
_cell_angle_gamma 90.000000
_cell_volume 944.243012
_symmetry_space_group_name_H-M "P 41"
_symmetry_group_IT_number 76
_symmetry_cell_setting 'tetragonal'
loop_
_space_group_symop_operation_xyz
x,y,z
-y,x,1/4+z
-x,-y,1/2+z
y,-x,3/4+z
loop_
_atom_site_type_symbol
_atom_site_label
_atom_site_fract_x
_atom_site_fract_y
_atom_site_fract_z
Si Si1 0.376677 0.251522 0.824520
Si Si2 0.001517 0.483787 0.206493
Si Si3 0.744594 0.143422 0.605251
Si Si4 0.279065 0.852226 0.778748
Si Si5 0.603063 0.577341 0.874617
Si Si6 0.076104 0.764003 0.331119
O O1 0.281450 0.306884 0.947436
O O2 0.456364 0.352210 0.727419
O O3 0.286855 0.173334 0.708363
O O4 0.469389 0.148447 0.909680
O O5 0.044697 0.379746 0.336788
O O6 0.039002 0.631293 0.241040
O O7 0.081467 0.417626 0.070956
O O8 0.793521 0.155359 0.436051
O O9 0.684640 0.285373 0.644580
O O10 0.855437 0.128875 0.728029
O O11 0.198985 0.945157 0.668411
O O12 0.612175 0.531597 0.704872
#
# Coordination Sequence:
#
# PCOD9541210 Si02
#       6
#     4   4   4   4   4   4
#     4  11  22  43  66  97 137 171 242 288 340 422
#     4   9  22  41  67  94 133 184 232 280 342 415
#     4  10  21  44  63  95 140 174 231 287 341 410
#     4   9  24  40  65  98 131 169 236 284 341 408
#     4  12  26  40  62 101 146 186 224 285 359 415
#     4  11  21  44  71  95 135 188 233 280 351 418
#
# _framework density 25.417186000000001
#
# number of rings (size 3 to 8) (size 9 to 14) (size 15 to 20)
#    1.000    0.667    3.333    0.000    4.667    2.667 
#    3.000    0.000   14.667    0.000    0.000    0.000 
#    0.000    0.000    0.000    0.000    0.000    0.000 
#
# Total GULP energy -134233.298626 kJ/mol
# GULP energy per Si atom -5593.054109 kJ/mol
# Density = 2.535934 g / cm^3
# Si number density = 25.417186 Si / 1000 Ang^3
#
#
#
# Elastic Constant Matrix: (Units=GPa)
#
#
# Indices 1 2 3 4 5 6 
#
# 1 33.7453 22.8139 38.8377 0.0000 0.0000 -0.9189
# 2 22.8139 33.7453 38.8377 0.0000 0.0000 0.9189
# 3 38.8377 38.8377 107.5182 0.0000 0.0000 0.0000
# 4 0.0000 0.0000 0.0000 43.9429 0.0000 0.0000
# 5 0.0000 0.0000 0.0000 0.0000 43.9429 0.0000
# 6 -0.9189 0.9189 0.0000 0.0000 0.0000 19.7399
#
#
#
# Elastic Compliance Matrix: (Units=1/GPa)
#
#
# Indices 1 2 3 4 5 6 
#
# 1 0.063644 -0.028557 -0.012674 0.000000 0.000000 0.004292
# 2 -0.028557 0.063644 -0.012674 0.000000 0.000000 -0.004292
# 3 -0.012674 -0.012674 0.018457 0.000000 0.000000 0.000000
# 4 0.000000 0.000000 0.000000 0.022757 0.000000 0.000000
# 5 0.000000 0.000000 0.000000 0.000000 0.022757 0.000000
# 6 0.004292 -0.004292 0.000000 0.000000 0.000000 0.051058
#
#
# Mechanical properties :
#
#
# Convention : Reuss Voigt Hill
#
# Bulk Modulus (GPa) = 26.36166 41.77636 34.06901
# Shear Modulus (GPa) = 13.78280 26.49308 20.13794
#
# Velocity S-wave (km/s) = 2.33118 3.23202 2.81783
# Velocity P-wave (km/s) = 4.20000 5.51361 4.90101
#
# Compressibility (1/GPa) = 0.03793387
#
# Stress axis : x y z
#
# Youngs Moduli (GPa) = 15.71250 15.71250 54.18059
#
# Poissons Ratio (x) = 0.44871 0.68667
# Poissons Ratio (y) = 0.44871 0.68667
# Poissons Ratio (z) = 0.19914 0.19914
#
# Static dielectric constant tensor:
#      x y z
#    x 2.047390 0.000000 0.000000 
#    y 0.000000 2.047390 0.000000 
#    z 0.000000 0.000000 2.032780 
# 
# From -- ./inp_files/535.got.cif
#   From: 2010.05.17/outbox.cif.g08.bks.cpg/sg76_cif.got.tgz:535.got - 2010.06.03 18:43:17.
