data_PCOD9541405
_publ_section_title
;
Structure prediction by ZEFSAII (Michael W. Deem and Ramdas Pophale) SiO2 
 PCOD9541405
Probable space group: P 41
;
_chemical_formula_sum "Si O2"
_cell_formula_units_Z 28
_cell_length_a 8.238510
_cell_length_b 8.238510
_cell_length_c 16.356905
_cell_angle_alpha 90.000000
_cell_angle_beta 90.000000
_cell_angle_gamma 90.000000
_cell_volume 1110.192982
_symmetry_space_group_name_H-M "P 41"
_symmetry_group_IT_number 76
_symmetry_cell_setting 'tetragonal'
loop_
_space_group_symop_operation_xyz
x,y,z
-y,x,1/4+z
-x,-y,1/2+z
y,-x,3/4+z
loop_
_atom_site_type_symbol
_atom_site_label
_atom_site_fract_x
_atom_site_fract_y
_atom_site_fract_z
Si Si1 0.767532 0.350604 0.366060
Si Si2 0.808388 0.005850 0.352559
Si Si3 0.202004 0.048650 0.671955
Si Si4 0.322417 0.585318 0.046439
Si Si5 0.341961 0.694698 0.327465
Si Si6 0.854037 0.224588 0.681617
Si Si7 0.913278 0.480818 0.207180
O O1 0.877090 0.188043 0.363865
O O2 0.585919 0.296211 0.341050
O O3 0.751400 0.420996 0.456105
O O4 0.829144 0.466738 0.294585
O O5 0.741811 0.005932 0.260482
O O6 0.688517 0.986047 0.428268
O O7 0.908356 0.837889 0.358110
O O8 0.316198 0.186176 0.636861
O O9 0.013931 0.112729 0.678676
O O10 0.518207 0.606984 0.046231
O O11 0.237346 0.729214 0.097901
O O12 0.278765 0.806415 0.252355
O O13 0.470562 0.785984 0.385311
O O14 0.941329 0.392782 0.708099
#
# Coordination Sequence:
#
# PCOD9541405 Si02
#       7
#     4   4   4   4   4   4   4
#     4  12  27  45  76 105 144 191 241 304 360 436
#     4  12  24  46  68 106 147 189 242 294 365 430
#     4  11  26  44  73 105 150 189 240 301 358 439
#     4  12  25  47  74 105 147 187 242 297 366 433
#     4  11  25  46  74 104 142 189 238 305 351 436
#     4  11  25  48  68 109 143 189 245 290 374 429
#     4  11  26  46  73 106 143 190 242 297 366 433
#
# _framework density 25.220842999999999
#
# number of rings (size 3 to 8) (size 9 to 14) (size 15 to 20)
#    0.000    0.571    5.714    0.857    4.000    5.714 
#    0.000    0.000    0.000    0.000    0.000    0.000 
#    0.000    0.000    0.000    0.000    0.000    0.000 
#
# Total GULP energy -156649.884585 kJ/mol
# GULP energy per Si atom -5594.638735 kJ/mol
# Density = 2.516344 g / cm^3
# Si number density = 25.220843 Si / 1000 Ang^3
#
#
#
# Elastic Constant Matrix: (Units=GPa)
#
#
# Indices 1 2 3 4 5 6 
#
# 1 47.6608 10.3991 10.4151 0.0000 0.0000 -1.4351
# 2 10.3991 47.6608 10.4151 0.0000 0.0000 1.4351
# 3 10.4151 10.4151 163.2346 0.0000 0.0000 0.0000
# 4 0.0000 0.0000 0.0000 29.8202 0.0000 0.0000
# 5 0.0000 0.0000 0.0000 0.0000 29.8202 0.0000
# 6 -1.4351 1.4351 0.0000 0.0000 0.0000 19.9452
#
#
#
# Elastic Compliance Matrix: (Units=1/GPa)
#
#
# Indices 1 2 3 4 5 6 
#
# 1 0.022307 -0.004680 -0.001125 0.000000 0.000000 0.001942
# 2 -0.004680 0.022307 -0.001125 0.000000 0.000000 -0.001942
# 3 -0.001125 -0.001125 0.006270 0.000000 0.000000 0.000000
# 4 0.000000 0.000000 0.000000 0.033534 0.000000 0.000000
# 5 0.000000 0.000000 0.000000 0.000000 0.033534 0.000000
# 6 0.001942 -0.001942 0.000000 0.000000 0.000000 0.050417
#
#
# Mechanical properties :
#
#
# Convention : Reuss Voigt Hill
#
# Bulk Modulus (GPa) = 27.00868 35.66829 31.33849
# Shear Modulus (GPa) = 25.69780 31.07224 28.38502
#
# Velocity S-wave (km/s) = 3.19550 3.51380 3.35843
# Velocity P-wave (km/s) = 4.93428 5.53493 5.24321
#
# Compressibility (1/GPa) = 0.03702513
#
# Stress axis : x y z
#
# Youngs Moduli (GPa) = 44.82912 44.82912 159.49802
#
# Poissons Ratio (x) = 0.20979 0.17938
# Poissons Ratio (y) = 0.20979 0.17938
# Poissons Ratio (z) = 0.05042 0.05042
#
# Static dielectric constant tensor:
#      x y z
#    x 2.036630 0.000000 0.000000 
#    y 0.000000 2.036630 0.000000 
#    z 0.000000 0.000000 1.963180 
# 
# From -- ./inp_files/1103.got.cif
#   From: 2010.05.17/outbox.cif.g08.bks.cpg/sg76_cif.got.tgz:1103.got - 2010.06.03 18:43:17.
