data_PCOD9541543
_publ_section_title
;
Structure prediction by ZEFSAII (Michael W. Deem and Ramdas Pophale) SiO2 
 PCOD9541543
Probable space group: P 42
;
_chemical_formula_sum "Si O2"
_cell_formula_units_Z 20
_cell_length_a 7.943077
_cell_length_b 7.943077
_cell_length_c 11.842267
_cell_angle_alpha 90.000000
_cell_angle_beta 90.000000
_cell_angle_gamma 90.000000
_cell_volume 747.157902
_symmetry_space_group_name_H-M "P 42"
_symmetry_group_IT_number 77
_symmetry_cell_setting 'tetragonal'
loop_
_space_group_symop_operation_xyz
x,y,z
-y,x,1/2+z
-x,-y,z
y,-x,1/2+z
loop_
_atom_site_type_symbol
_atom_site_label
_atom_site_fract_x
_atom_site_fract_y
_atom_site_fract_z
Si Si1 0.500000 0.000000 0.976681
Si Si2 0.500000 0.500000 0.266537
Si Si3 0.317111 0.991518 0.584961
Si Si4 0.965060 0.181243 0.311280
Si Si5 0.833471 0.596098 0.853351
Si Si6 0.373189 0.646406 0.056628
O O1 0.663577 0.994176 0.894957
O O2 0.475159 0.823732 0.045248
O O3 0.525108 0.675824 0.329762
O O4 0.356299 0.553334 0.178721
O O5 0.660804 0.139913 0.482502
O O6 0.302052 0.179047 0.529526
O O7 0.500000 0.000000 0.641608
O O8 0.051330 0.195070 0.187921
O O9 0.767160 0.178502 0.285193
O O10 0.000000 0.000000 0.365965
O O11 0.000000 0.500000 0.821768
O O12 0.500000 0.500000 0.007089
#
# Coordination Sequence:
#
# PCOD9541543 Si02
#       6
#     2   2   4   4   4   4
#     4  12  28  50  82 122 170 216 290 356 430 520
#     4  10  24  48  86 124 166 214 288 352 432 510
#     4  11  25  50  74 118 169 219 281 349 428 511
#     4  12  27  51  79 116 171 226 275 354 435 514
#     4  11  27  48  84 123 166 222 288 357 426 518
#     4  10  25  49  84 118 166 224 278 355 431 509
#
# _framework density 26.768103
#
# number of rings (size 3 to 8) (size 9 to 14) (size 15 to 20)
#    0.600    0.400    3.000    1.200    7.000    8.800 
#    0.000    0.000    2.200    0.000    0.000    0.000 
#    0.000    0.000    0.000    0.000    0.000    0.000 
#
# Total GULP energy -111467.635734 kJ/mol
# GULP energy per Si atom -5573.381787 kJ/mol
# Density = 2.670718 g / cm^3
# Si number density = 26.768103 Si / 1000 Ang^3
#
#
#
# Elastic Constant Matrix: (Units=GPa)
#
#
# Indices 1 2 3 4 5 6 
#
# 1 180.8744 52.1165 46.2166 0.0000 0.0000 10.1102
# 2 52.1165 180.8744 46.2166 0.0000 0.0000 -10.1102
# 3 46.2166 46.2166 80.1675 0.0000 0.0000 0.0000
# 4 0.0000 0.0000 0.0000 -72.9620 0.0000 0.0000
# 5 0.0000 0.0000 0.0000 0.0000 -72.9620 0.0000
# 6 10.1102 -10.1102 0.0000 0.0000 0.0000 41.5010
#
#
#
# Elastic Compliance Matrix: (Units=1/GPa)
#
#
# Indices 1 2 3 4 5 6 
#
# 1 0.006820 -0.001255 -0.003208 0.000000 0.000000 -0.001967
# 2 -0.001255 0.006820 -0.003208 0.000000 0.000000 0.001967
# 3 -0.003208 -0.003208 0.016173 0.000000 0.000000 0.000000
# 4 0.000000 0.000000 0.000000 -0.013706 0.000000 0.000000
# 5 0.000000 0.000000 0.000000 0.000000 -0.013706 0.000000
# 6 -0.001967 0.001967 0.000000 0.000000 0.000000 0.025054
#
#
# Mechanical properties :
#
#
# Convention : Reuss Voigt Hill
#
# Bulk Modulus (GPa) = 69.10862 81.22395 75.16629
# Shear Modulus (GPa) = 104.99320 -1.06016 51.96652
#
# Velocity S-wave (km/s) = 6.26964 -0.63001 4.41087
# Velocity P-wave (km/s) = 8.84787 5.46628 7.35408
#
# Compressibility (1/GPa) = 0.01446997
#
# Stress axis : x y z
#
# Youngs Moduli (GPa) = 146.62547 146.62547 61.83224
#
# Poissons Ratio (x) = 0.18407 0.19836
# Poissons Ratio (y) = 0.18407 0.19836
# Poissons Ratio (z) = 0.47039 0.47039
#
# Static dielectric constant tensor:
#      x y z
#    x 2.189740 0.000000 0.000000 
#    y 0.000000 2.189740 0.000000 
#    z 0.000000 0.000000 2.362640 
# 
# From -- ./inp_files/1262.got.cif
#   From: 2010.05.17/outbox.cif.g08.bks.cpg/sg77_cif.got.tgz:1262.got - 2010.06.03 18:44:51.
