data_PCOD9541840
_publ_section_title
;
Structure prediction by ZEFSAII (Michael W. Deem and Ramdas Pophale) SiO2 
 PCOD9541840
Probable space group: I 4
;
_chemical_formula_sum "Si O2"
_cell_formula_units_Z 36
_cell_length_a 11.431342
_cell_length_b 11.431342
_cell_length_c 10.251733
_cell_angle_alpha 90.000000
_cell_angle_beta 90.000000
_cell_angle_gamma 90.000000
_cell_volume 1339.651155
_symmetry_space_group_name_H-M "I 4"
_symmetry_group_IT_number 79
_symmetry_cell_setting 'tetragonal'
loop_
_space_group_symop_operation_xyz
x,y,z
-y,x,z
-x,-y,z
y,-x,z
1/2+x,1/2+y,1/2+z
1/2-y,1/2+x,1/2+z
1/2-x,1/2-y,1/2+z
1/2+y,1/2-x,1/2+z
loop_
_atom_site_type_symbol
_atom_site_label
_atom_site_fract_x
_atom_site_fract_y
_atom_site_fract_z
Si Si1 0.000000 0.500000 0.950790
Si Si2 0.478952 0.740652 0.649971
Si Si3 0.337891 0.294378 0.836128
Si Si4 0.248620 0.563073 0.369346
Si Si5 0.560300 0.782864 0.095078
O O1 0.003837 0.380673 0.871603
O O2 0.118199 0.477112 0.033688
O O3 0.589468 0.785183 0.733751
O O4 0.414375 0.659927 0.755089
O O5 0.520408 0.698751 0.507162
O O6 0.374495 0.833584 0.626934
O O7 0.204540 0.254987 0.865251
O O8 0.399294 0.296245 0.975567
O O9 0.287654 0.527284 0.224112
#
# Coordination Sequence:
#
# PCOD9541840 Si02
#       5
#     4   8   8   8   8
#     4  10  20  36  60 100 138 176 238 310 370 438
#     4  10  23  40  64  98 139 192 242 301 383 449
#     4  11  22  42  64  97 143 189 240 308 376 452
#     4  10  20  37  63  97 134 179 236 301 370 442
#     4  10  20  36  63  95 134 183 239 305 373 443
#
# _framework density 26.872665999999999
#
# number of rings (size 3 to 8) (size 9 to 14) (size 15 to 20)
#    0.000    1.778    0.000    6.000    0.000    5.778 
#    0.000   13.333    0.000    0.000    0.000   24.889 
#    0.000    0.000    0.000    0.000    0.000    0.000 
#
# Total GULP energy -100441.999646 kJ/mol
# GULP energy per Si atom -5580.111091 kJ/mol
# Density = 2.681150 g / cm^3
# Si number density = 26.872666 Si / 1000 Ang^3
#
#
#
# Elastic Constant Matrix: (Units=GPa)
#
#
# Indices 1 2 3 4 5 6 
#
# 1 83.1394 35.0799 56.2732 0.0000 0.0000 3.2654
# 2 35.0799 83.1394 56.2732 0.0000 0.0000 -3.2654
# 3 56.2732 56.2732 281.8193 0.0000 0.0000 0.0000
# 4 0.0000 0.0000 0.0000 21.1388 0.0000 0.0000
# 5 0.0000 0.0000 0.0000 0.0000 21.1388 0.0000
# 6 3.2654 -3.2654 0.0000 0.0000 0.0000 7.0658
#
#
#
# Elastic Compliance Matrix: (Units=1/GPa)
#
#
# Indices 1 2 3 4 5 6 
#
# 1 0.016323 -0.005879 -0.002085 0.000000 0.000000 -0.010260
# 2 -0.005879 0.016323 -0.002085 0.000000 0.000000 0.010260
# 3 -0.002085 -0.002085 0.004381 0.000000 0.000000 0.000000
# 4 0.000000 0.000000 0.000000 0.047306 0.000000 0.000000
# 5 0.000000 0.000000 0.000000 0.000000 0.047306 0.000000
# 6 -0.010260 0.010260 0.000000 0.000000 0.000000 0.151009
#
#
# Mechanical properties :
#
#
# Convention : Reuss Voigt Hill
#
# Bulk Modulus (GPa) = 59.07442 82.59454 70.83448
# Shear Modulus (GPa) = 16.21319 29.90017 23.05668
#
# Velocity S-wave (km/s) = 2.45895 3.33928 2.93234
# Velocity P-wave (km/s) = 5.48568 6.75795 6.15478
#
# Compressibility (1/GPa) = 0.01692780
#
# Stress axis : x y z
#
# Youngs Moduli (GPa) = 61.26324 61.26324 228.24640
#
# Poissons Ratio (x) = 0.36015 0.47601
# Poissons Ratio (y) = 0.36015 0.47601
# Poissons Ratio (z) = 0.12776 0.12776
#
# Static dielectric constant tensor:
#      x y z
#    x 2.259100 0.000000 0.000000 
#    y 0.000000 2.259100 0.000000 
#    z 0.000000 0.000000 2.151610 
# 
# From -- ./inp_files/483.got.cif
#   From: 2010.05.17/outbox.cif.g08.bks.cpg/sg79_cif.got.tgz:483.got - 2010.06.03 18:47:27.
