data_PCOD9541538
_publ_section_title
;
Structure prediction by ZEFSAII (Michael W. Deem and Ramdas Pophale) SiO2 
 PCOD9541538
Probable space group: P 42
;
_chemical_formula_sum "Si O2"
_cell_formula_units_Z 20
_cell_length_a 12.274514
_cell_length_b 12.274514
_cell_length_c 5.954392
_cell_angle_alpha 90.000000
_cell_angle_beta 90.000000
_cell_angle_gamma 90.000000
_cell_volume 897.110694
_symmetry_space_group_name_H-M "P 42"
_symmetry_group_IT_number 77
_symmetry_cell_setting 'tetragonal'
loop_
_space_group_symop_operation_xyz
x,y,z
-y,x,1/2+z
-x,-y,z
y,-x,1/2+z
loop_
_atom_site_type_symbol
_atom_site_label
_atom_site_fract_x
_atom_site_fract_y
_atom_site_fract_z
Si Si1 0.607470 0.107471 0.353050
Si Si2 0.373460 0.717694 0.992535
Si Si3 0.707512 0.942439 0.014679
Si Si4 0.557560 0.792488 0.691421
Si Si5 0.217693 0.873461 0.713566
O O1 0.512411 0.121310 0.540904
O O2 0.715902 0.516731 0.350230
O O3 0.722619 0.101497 0.480425
O O4 0.601493 0.222619 0.225675
O O5 0.302283 0.802286 0.853054
O O6 0.378689 0.987589 0.165198
O O7 0.293522 0.617895 0.032311
O O8 0.639604 0.860395 0.853053
O O9 0.784097 0.016728 0.855864
O O10 0.793523 0.882107 0.173791
#
# Coordination Sequence:
#
# PCOD9541538 Si02
#       5
#     4   4   4   4   4
#     4  10  24  45  70 104 141 192 246 286 355 432
#     4  10  24  45  71 104 143 191 237 301 356 418
#     4  11  25  46  77 106 149 192 238 301 357 428
#     4  11  25  46  77 106 149 192 238 301 357 428
#     4  10  24  45  71 104 143 191 237 301 356 418
#
# _framework density 22.293792
#
# number of rings (size 3 to 8) (size 9 to 14) (size 15 to 20)
#    0.000    1.600    2.000    0.000    5.600    8.800 
#    0.000    6.000    0.000    0.000    0.000    0.000 
#    0.000    0.000    0.000    0.000    0.000    0.000 
#
# Total GULP energy -111600.738651 kJ/mol
# GULP energy per Si atom -5580.036933 kJ/mol
# Density = 2.224305 g / cm^3
# Si number density = 22.293792 Si / 1000 Ang^3
#
#
#
# Elastic Constant Matrix: (Units=GPa)
#
#
# Indices 1 2 3 4 5 6 
#
# 1 40.4923 94.1284 28.4655 0.0000 0.0000 0.0020
# 2 94.1284 40.4923 28.4655 0.0000 0.0000 -0.0020
# 3 28.4655 28.4655 78.0060 0.0000 0.0000 0.0000
# 4 0.0000 0.0000 0.0000 28.4954 0.0000 0.0000
# 5 0.0000 0.0000 0.0000 0.0000 28.4954 0.0000
# 6 0.0020 -0.0020 0.0000 0.0000 0.0000 23.3569
#
#
#
# Elastic Compliance Matrix: (Units=1/GPa)
#
#
# Indices 1 2 3 4 5 6 
#
# 1 -0.004930 0.013714 -0.003205 0.000000 0.000000 0.000002
# 2 0.013714 -0.004930 -0.003205 0.000000 0.000000 -0.000002
# 3 -0.003205 -0.003205 0.015159 0.000000 0.000000 0.000000
# 4 0.000000 0.000000 0.000000 0.035093 0.000000 0.000000
# 5 0.000000 0.000000 0.000000 0.000000 0.035093 0.000000
# 6 0.000002 -0.000002 0.000000 0.000000 0.000000 0.042814
#
#
# Mechanical properties :
#
#
# Convention : Reuss Voigt Hill
#
# Bulk Modulus (GPa) = 50.23828 51.23439 50.73634
# Shear Modulus (GPa) = 45.31960 16.59829 30.95894
#
# Velocity S-wave (km/s) = 4.51359 2.73156 3.73054
# Velocity P-wave (km/s) = 7.05315 5.74281 6.43144
#
# Compressibility (1/GPa) = 0.01990514
#
# Stress axis : x y z
#
# Youngs Moduli (GPa) = -202.83267 -202.83267 65.96793
#
# Poissons Ratio (x) = 2.78165 0.21145
# Poissons Ratio (y) = 2.78165 0.21145
# Poissons Ratio (z) = -0.65015 -0.65015
#
# Static dielectric constant tensor:
#      x y z
#    x 1.896370 0.000000 0.000000 
#    y 0.000000 1.896370 0.000000 
#    z 0.000000 0.000000 1.958470 
# 
# From -- ./inp_files/379.got.cif
#   From: 2010.05.17/outbox.cif.g08.bks.cpg/sg77_cif.got.tgz:379.got - 2010.06.03 18:44:51.
