data_PCOD9541217
_publ_section_title
;
Structure prediction by ZEFSAII (Michael W. Deem and Ramdas Pophale) SiO2 
 PCOD9541217
Probable space group: P 41
;
_chemical_formula_sum "Si O2"
_cell_formula_units_Z 32
_cell_length_a 11.940877
_cell_length_b 11.940877
_cell_length_c 10.484871
_cell_angle_alpha 90.000000
_cell_angle_beta 90.000000
_cell_angle_gamma 90.000000
_cell_volume 1494.980545
_symmetry_space_group_name_H-M "P 41"
_symmetry_group_IT_number 76
_symmetry_cell_setting 'tetragonal'
loop_
_space_group_symop_operation_xyz
x,y,z
-y,x,1/4+z
-x,-y,1/2+z
y,-x,3/4+z
loop_
_atom_site_type_symbol
_atom_site_label
_atom_site_fract_x
_atom_site_fract_y
_atom_site_fract_z
Si Si1 0.966502 0.269596 0.800340
Si Si2 0.134924 0.512036 0.189279
Si Si3 0.894943 0.860014 0.700243
Si Si4 0.074266 0.621471 0.575831
Si Si5 0.566811 0.207666 0.720830
Si Si6 0.850792 0.852826 0.426692
Si Si7 0.538618 0.604799 0.888379
Si Si8 0.213132 0.906808 0.222093
O O1 0.922245 0.364931 0.704624
O O2 0.889865 0.161874 0.777900
O O3 0.092448 0.220700 0.816497
O O4 0.944158 0.322238 0.938600
O O5 0.157952 0.467363 0.332576
O O6 0.260313 0.515892 0.128172
O O7 0.039385 0.438433 0.121233
O O8 0.867664 0.802615 0.566905
O O9 0.885617 0.780921 0.820444
O O10 0.022512 0.904901 0.687333
O O11 0.813804 0.963073 0.730496
O O12 0.175389 0.534185 0.562662
O O13 0.116753 0.722044 0.662439
O O14 0.592102 0.337781 0.701167
O O15 0.673553 0.142366 0.775141
O O16 0.550083 0.545149 0.747310
#
# Coordination Sequence:
#
# PCOD9541217 Si02
#       8
#     4   4   4   4   4   4   4   4
#     4  11  23  39  68  96 136 181 217 283 344 410
#     4  10  22  45  67  96 133 189 226 283 352 412
#     4  10  22  36  64  98 135 172 226 268 326 428
#     4  11  25  43  63  97 142 175 224 285 349 397
#     4  10  23  42  67  96 137 175 232 287 341 417
#     4  11  21  42  62  98 142 174 213 286 339 403
#     4  10  22  48  75 101 139 183 245 302 351 416
#     4  11  22  37  64 100 126 181 225 264 344 409
#
# _framework density 21.404962000000001
#
# number of rings (size 3 to 8) (size 9 to 14) (size 15 to 20)
#    0.000    1.500    2.500    3.000    3.500    0.000 
#    2.250    1.250    0.000    0.000    0.000    0.000 
#    0.000    0.000    0.000    0.000    0.000    0.000 
#
# Total GULP energy -178557.362782 kJ/mol
# GULP energy per Si atom -5579.917587 kJ/mol
# Density = 2.135624 g / cm^3
# Si number density = 21.404962 Si / 1000 Ang^3
#
#
#
# Elastic Constant Matrix: (Units=GPa)
#
#
# Indices 1 2 3 4 5 6 
#
# 1 65.9576 24.6608 15.6993 0.0000 0.0000 -6.2585
# 2 24.6608 65.9576 15.6993 0.0000 0.0000 6.2585
# 3 15.6993 15.6993 65.5795 0.0000 0.0000 0.0000
# 4 0.0000 0.0000 0.0000 23.7481 0.0000 0.0000
# 5 0.0000 0.0000 0.0000 0.0000 23.7481 0.0000
# 6 -6.2585 6.2585 0.0000 0.0000 0.0000 16.3983
#
#
#
# Elastic Compliance Matrix: (Units=1/GPa)
#
#
# Indices 1 2 3 4 5 6 
#
# 1 0.019708 -0.007675 -0.002881 0.000000 0.000000 0.010451
# 2 -0.007675 0.019708 -0.002881 0.000000 0.000000 -0.010451
# 3 -0.002881 -0.002881 0.016628 0.000000 0.000000 0.000000
# 4 0.000000 0.000000 0.000000 0.042109 0.000000 0.000000
# 5 0.000000 0.000000 0.000000 0.000000 0.042109 0.000000
# 6 0.010451 -0.010451 0.000000 0.000000 0.000000 0.068959
#
#
# Mechanical properties :
#
#
# Convention : Reuss Voigt Hill
#
# Bulk Modulus (GPa) = 34.27955 34.40148 34.34051
# Shear Modulus (GPa) = 20.34042 22.20793 21.27417
#
# Velocity S-wave (km/s) = 3.08598 3.22454 3.15602
# Velocity P-wave (km/s) = 5.36165 5.47450 5.41837
#
# Compressibility (1/GPa) = 0.02917191
#
# Stress axis : x y z
#
# Youngs Moduli (GPa) = 50.74092 50.74092 60.13983
#
# Poissons Ratio (x) = 0.38941 0.17325
# Poissons Ratio (y) = 0.38941 0.17325
# Poissons Ratio (z) = 0.14617 0.14617
#
# Static dielectric constant tensor:
#      x y z
#    x 1.783320 0.000000 0.000000 
#    y 0.000000 1.783320 0.000000 
#    z 0.000000 0.000000 1.806160 
# 
# From -- ./inp_files/959.got.cif
#   From: 2010.05.17/outbox.cif.g08.bks.cpg/sg76_cif.got.tgz:959.got - 2010.06.03 18:43:17.
