data_PCOD9541112
_publ_section_title
;
Structure prediction by ZEFSAII (Michael W. Deem and Ramdas Pophale) SiO2 
 PCOD9541112
Probable space group: P 41
;
_chemical_formula_sum "Si O2"
_cell_formula_units_Z 32
_cell_length_a 7.806278
_cell_length_b 7.806278
_cell_length_c 24.284986
_cell_angle_alpha 90.000000
_cell_angle_beta 90.000000
_cell_angle_gamma 90.000000
_cell_volume 1479.877899
_symmetry_space_group_name_H-M "P 41"
_symmetry_group_IT_number 76
_symmetry_cell_setting 'tetragonal'
loop_
_space_group_symop_operation_xyz
x,y,z
-y,x,1/4+z
-x,-y,1/2+z
y,-x,3/4+z
loop_
_atom_site_type_symbol
_atom_site_label
_atom_site_fract_x
_atom_site_fract_y
_atom_site_fract_z
Si Si1 0.013391 0.721739 0.792440
Si Si2 0.712111 0.772001 0.712450
Si Si3 0.221686 0.711906 0.260170
Si Si4 0.709961 0.126454 0.651217
Si Si5 0.677634 0.034702 0.855349
Si Si6 0.526738 0.518830 0.522154
Si Si7 0.586323 0.146786 0.974742
Si Si8 0.647909 0.191182 0.347345
O O1 0.104210 0.605107 0.746258
O O2 0.166503 0.837178 0.818545
O O3 0.848363 0.792495 0.761281
O O4 0.934559 0.618585 0.844902
O O5 0.537254 0.679363 0.730471
O O6 0.798880 0.665427 0.662957
O O7 0.690940 0.957247 0.687195
O O8 0.310720 0.734412 0.199455
O O9 0.248554 0.856862 0.305444
O O10 0.336575 0.558457 0.283415
O O11 0.019538 0.685936 0.249046
O O12 0.894823 0.184671 0.626874
O O13 0.622458 0.142706 0.909642
O O14 0.505283 0.938516 0.834975
O O15 0.395611 0.662250 0.499601
O O16 0.622291 0.591092 0.575646
#
# Coordination Sequence:
#
# PCOD9541112 Si02
#       8
#     4   4   4   4   4   4   4   4
#     4  10  19  39  65  91 131 167 229 286 336 414
#     4  11  20  41  69  93 127 177 226 286 348 410
#     4  11  23  41  65  95 139 183 222 289 349 423
#     4  10  22  37  66  94 125 180 229 272 355 418
#     4  11  22  43  63  95 140 177 225 286 352 419
#     4  11  23  39  68  95 132 180 230 285 344 431
#     4  10  23  42  62 101 134 174 232 291 346 412
#     4  10  22  38  66  96 124 178 227 277 348 415
#
# _framework density 21.623405999999999
#
# number of rings (size 3 to 8) (size 9 to 14) (size 15 to 20)
#    0.000    1.500    2.500    3.000    1.750    1.000 
#    9.000    0.000    5.500    0.000    0.000    0.000 
#    0.000    0.000    0.000    0.000    0.000    0.000 
#
# Total GULP energy -178149.499999 kJ/mol
# GULP energy per Si atom -5567.171875 kJ/mol
# Density = 2.157419 g / cm^3
# Si number density = 21.623406 Si / 1000 Ang^3
#
#
#
# Elastic Constant Matrix: (Units=GPa)
#
#
# Indices 1 2 3 4 5 6 
#
# 1 85.0778 36.1031 31.1199 0.0000 0.0000 4.3926
# 2 36.1031 85.0778 31.1199 0.0000 0.0000 -4.3926
# 3 31.1199 31.1199 108.5536 0.0000 0.0000 0.0000
# 4 0.0000 0.0000 0.0000 28.1514 0.0000 0.0000
# 5 0.0000 0.0000 0.0000 0.0000 28.1514 0.0000
# 6 4.3926 -4.3926 0.0000 0.0000 0.0000 6.9977
#
#
#
# Elastic Compliance Matrix: (Units=1/GPa)
#
#
# Indices 1 2 3 4 5 6 
#
# 1 0.016343 -0.006666 -0.002774 0.000000 0.000000 -0.014444
# 2 -0.006666 0.016343 -0.002774 0.000000 0.000000 0.014444
# 3 -0.002774 -0.002774 0.010803 0.000000 0.000000 0.000000
# 4 0.000000 0.000000 0.000000 0.035522 0.000000 0.000000
# 5 0.000000 0.000000 0.000000 0.000000 0.035522 0.000000
# 6 -0.014444 0.014444 0.000000 0.000000 0.000000 0.161037
#
#
# Mechanical properties :
#
#
# Convention : Reuss Voigt Hill
#
# Bulk Modulus (GPa) = 52.46625 52.82168 52.64397
# Shear Modulus (GPa) = 16.32101 24.68453 20.50277
#
# Velocity S-wave (km/s) = 2.75031 3.38237 3.08259
# Velocity P-wave (km/s) = 5.86532 6.30357 6.08839
#
# Compressibility (1/GPa) = 0.01905987
#
# Stress axis : x y z
#
# Youngs Moduli (GPa) = 61.18720 61.18720 92.57004
#
# Poissons Ratio (x) = 0.40789 0.25681
# Poissons Ratio (y) = 0.40789 0.25681
# Poissons Ratio (z) = 0.16974 0.16974
#
# Static dielectric constant tensor:
#      x y z
#    x 1.851940 0.000000 0.000000 
#    y 0.000000 1.851940 0.000000 
#    z 0.000000 0.000000 1.848350 
# 
# From -- ./inp_files/1581.got.cif
#   From: 2010.05.17/outbox.cif.g08.bks.cpg/sg76_cif.got.tgz:1581.got - 2010.06.03 18:43:17.
