data_PCOD9541126
_publ_section_title
;
Structure prediction by ZEFSAII (Michael W. Deem and Ramdas Pophale) SiO2 
 PCOD9541126
Probable space group: P 41
;
_chemical_formula_sum "Si O2"
_cell_formula_units_Z 24
_cell_length_a 15.429490
_cell_length_b 15.429490
_cell_length_c 5.294456
_cell_angle_alpha 90.000000
_cell_angle_beta 90.000000
_cell_angle_gamma 90.000000
_cell_volume 1260.446701
_symmetry_space_group_name_H-M "P 41"
_symmetry_group_IT_number 76
_symmetry_cell_setting 'tetragonal'
loop_
_space_group_symop_operation_xyz
x,y,z
-y,x,1/4+z
-x,-y,1/2+z
y,-x,3/4+z
loop_
_atom_site_type_symbol
_atom_site_label
_atom_site_fract_x
_atom_site_fract_y
_atom_site_fract_z
Si Si1 0.275935 0.839503 0.410490
Si Si2 0.557061 0.898469 0.670983
Si Si3 0.208208 0.999988 0.671075
Si Si4 0.881635 0.118382 0.546050
Si Si5 0.724039 0.839541 0.431634
Si Si6 0.442948 0.898462 0.171572
O O1 0.193234 0.865285 0.247483
O O2 0.250136 0.749824 0.546047
O O3 0.357943 0.842106 0.227909
O O4 0.272861 0.919796 0.608719
O O5 0.642054 0.842133 0.614304
O O6 0.499952 0.886538 0.421379
O O7 0.584002 0.000005 0.671217
O O8 0.500051 0.881091 0.921363
O O9 0.143033 0.031251 0.447593
O O10 0.272890 0.080162 0.733418
O O11 0.143022 0.968737 0.894542
O O12 0.865319 0.193244 0.344588
#
# Coordination Sequence:
#
# PCOD9541126 Si02
#       6
#     4   4   4   4   4   4
#     4  10  22  36  59  76 111 156 198 247 301 364
#     4  10  22  35  56  87 116 149 195 252 304 361
#     4  10  20  34  56  74 100 148 206 252 308 358
#     4  10  20  34  56  72 104 144 200 250 302 354
#     4  10  22  36  59  76 111 156 198 247 301 364
#     4  10  22  35  56  87 116 149 195 252 304 361
#
# _framework density 19.040869000000001
#
# number of rings (size 3 to 8) (size 9 to 14) (size 15 to 20)
#    0.000    2.000    0.000    3.000   16.333    0.000 
#    0.000    0.000  132.000    0.000    0.000    0.000 
#    0.000    0.000    5.667    0.000    0.000    0.000 
#
# Total GULP energy -133807.404888 kJ/mol
# GULP energy per Si atom -5575.308537 kJ/mol
# Density = 1.899753 g / cm^3
# Si number density = 19.040869 Si / 1000 Ang^3
#
#
#
# Elastic Constant Matrix: (Units=GPa)
#
#
# Indices 1 2 3 4 5 6 
#
# 1 61.7813 47.3357 31.1943 0.0000 0.0000 0.0053
# 2 47.3357 61.7813 31.1943 0.0000 0.0000 -0.0053
# 3 31.1943 31.1943 106.1561 0.0000 0.0000 0.0000
# 4 0.0000 0.0000 0.0000 29.9539 0.0000 0.0000
# 5 0.0000 0.0000 0.0000 0.0000 29.9539 0.0000
# 6 0.0053 -0.0053 0.0000 0.0000 0.0000 6.9109
#
#
#
# Elastic Compliance Matrix: (Units=1/GPa)
#
#
# Indices 1 2 3 4 5 6 
#
# 1 0.040120 -0.029105 -0.003237 0.000000 0.000000 -0.000053
# 2 -0.029105 0.040120 -0.003237 0.000000 0.000000 0.000053
# 3 -0.003237 -0.003237 0.011322 0.000000 0.000000 0.000000
# 4 0.000000 0.000000 0.000000 0.033385 0.000000 0.000000
# 5 0.000000 0.000000 0.000000 0.000000 0.033385 0.000000
# 6 -0.000053 0.000053 0.000000 0.000000 0.000000 0.144698
#
#
# Mechanical properties :
#
#
# Convention : Reuss Voigt Hill
#
# Bulk Modulus (GPa) = 49.00669 49.90747 49.45708
# Shear Modulus (GPa) = 13.12372 21.36335 17.24354
#
# Velocity S-wave (km/s) = 2.62819 3.35322 3.01259
# Velocity P-wave (km/s) = 5.91636 6.42337 6.17507
#
# Compressibility (1/GPa) = 0.02040538
#
# Stress axis : x y z
#
# Youngs Moduli (GPa) = 24.92513 24.92513 88.32044
#
# Poissons Ratio (x) = 0.72545 0.28588
# Poissons Ratio (y) = 0.72545 0.28588
# Poissons Ratio (z) = 0.08068 0.08068
#
# Static dielectric constant tensor:
#      x y z
#    x 1.734730 0.000000 0.000000 
#    y 0.000000 1.734730 0.000000 
#    z 0.000000 0.000000 1.893580 
# 
# From -- ./inp_files/218.got.cif
#   From: 2010.05.17/outbox.cif.g08.bks.cpg/sg76_cif.got.tgz:218.got - 2010.06.03 18:43:17.
