data_PCOD9541582
_publ_section_title
;
Structure prediction by ZEFSAII (Michael W. Deem and Ramdas Pophale) SiO2 
 PCOD9541582
Probable space group: P 43
;
_chemical_formula_sum "Si O2"
_cell_formula_units_Z 28
_cell_length_a 15.903683
_cell_length_b 15.903683
_cell_length_c 5.527967
_cell_angle_alpha 90.000000
_cell_angle_beta 90.000000
_cell_angle_gamma 90.000000
_cell_volume 1398.172844
_symmetry_space_group_name_H-M "P 43"
_symmetry_group_IT_number 78
_symmetry_cell_setting 'tetragonal'
loop_
_space_group_symop_operation_xyz
x,y,z
-y,x,3/4+z
-x,-y,1/2+z
y,-x,1/4+z
loop_
_atom_site_type_symbol
_atom_site_label
_atom_site_fract_x
_atom_site_fract_y
_atom_site_fract_z
Si Si1 0.898230 0.933759 0.406010
Si Si2 0.882546 0.532282 0.914301
Si Si3 0.991032 0.760573 0.893575
Si Si4 0.930807 0.485838 0.412218
Si Si5 0.763777 0.201547 0.680054
Si Si6 0.287410 0.797430 0.674372
Si Si7 0.320223 0.979934 0.149012
O O1 0.855052 0.975819 0.169887
O O2 0.838984 0.855108 0.459566
O O3 0.991185 0.901753 0.347010
O O4 0.878235 0.480586 0.164969
O O5 0.822166 0.613425 0.926562
O O6 0.980925 0.564456 0.910210
O O7 0.877362 0.483213 0.658875
O O8 0.016524 0.716099 0.148907
O O9 0.889440 0.757667 0.905157
O O10 0.019346 0.719261 0.641755
O O11 0.971601 0.579930 0.406982
O O12 0.747218 0.243893 0.420160
O O13 0.705232 0.118473 0.658539
O O14 0.736375 0.247866 0.924175
#
# Coordination Sequence:
#
# PCOD9541582 Si02
#       7
#     4   4   4   4   4   4   4
#     4  12  26  34  42  58  66  88 130 180 202 230
#     4  10  16  23  40  61  76  88 104 122 148 213
#     4  10  20  32  43  50  67  91 111 145 193 222
#     4  10  16  23  40  61  76  88 104 122 148 213
#     4  10  20  32  43  50  67  91 111 145 193 222
#     4  10  16  33  42  55  71  92 104 130 184 227
#     4  10  16  33  42  55  71  92 104 130 184 227
#
# _framework density 20.026136000000001
#
# number of rings (size 3 to 8) (size 9 to 14) (size 15 to 20)
#    0.000    1.714    8.571    0.000    4.000    1.143 
#    0.000    0.000    0.000    0.000    0.000    0.000 
#    0.000    0.000    0.000    0.000    0.000    0.000 
#
# Total GULP energy -156006.521247 kJ/mol
# GULP energy per Si atom -5571.661473 kJ/mol
# Density = 1.998056 g / cm^3
# Si number density = 20.026136 Si / 1000 Ang^3
#
#
#
# Elastic Constant Matrix: (Units=GPa)
#
#
# Indices 1 2 3 4 5 6 
#
# 1 21.9926 -5.6913 3.2484 0.0000 0.0000 2.5342
# 2 -5.6913 21.9926 3.2484 0.0000 0.0000 -2.5342
# 3 3.2484 3.2484 202.7349 0.0000 0.0000 0.0000
# 4 0.0000 0.0000 0.0000 10.7965 0.0000 0.0000
# 5 0.0000 0.0000 0.0000 0.0000 10.7965 0.0000
# 6 2.5342 -2.5342 0.0000 0.0000 0.0000 -4.2785
#
#
#
# Elastic Compliance Matrix: (Units=1/GPa)
#
#
# Indices 1 2 3 4 5 6 
#
# 1 0.047164 0.014576 -0.000989 0.000000 0.000000 0.019303
# 2 0.014576 0.047164 -0.000989 0.000000 0.000000 -0.019303
# 3 -0.000989 -0.000989 0.004964 0.000000 0.000000 0.000000
# 4 0.000000 0.000000 0.000000 0.092623 0.000000 0.000000
# 5 0.000000 0.000000 0.000000 0.000000 0.092623 0.000000
# 6 0.019303 -0.019303 0.000000 0.000000 0.000000 -0.210859
#
#
# Mechanical properties :
#
#
# Convention : Reuss Voigt Hill
#
# Bulk Modulus (GPa) = 8.03304 27.59233 17.81268
# Shear Modulus (GPa) = 55.56852 19.85719 37.71286
#
# Velocity S-wave (km/s) = 5.27335 3.15233 4.34427
# Velocity P-wave (km/s) = 6.41074 5.20169 5.83760
#
# Compressibility (1/GPa) = 0.12448587
#
# Stress axis : x y z
#
# Youngs Moduli (GPa) = 21.20275 21.20275 201.44027
#
# Poissons Ratio (x) = -0.30904 0.19927
# Poissons Ratio (y) = -0.30904 0.19927
# Poissons Ratio (z) = 0.02097 0.02097
#
# Static dielectric constant tensor:
#      x y z
#    x 1.742150 0.000000 0.000000 
#    y 0.000000 1.742150 0.000000 
#    z 0.000000 0.000000 1.950710 
# 
# From -- ./inp_files/315.got.cif
#   From: 2010.05.17/outbox.cif.g08.bks.cpg/sg78_cif.got.tgz:315.got - 2010.06.03 18:45:56.
