data_PCOD9541928
_publ_section_title
;
Structure prediction by ZEFSAII (Michael W. Deem and Ramdas Pophale) SiO2 
 PCOD9541928
Probable space group: I 4
;
_chemical_formula_sum "Si O2"
_cell_formula_units_Z 40
_cell_length_a 14.695470
_cell_length_b 14.695470
_cell_length_c 9.556564
_cell_angle_alpha 90.000000
_cell_angle_beta 90.000000
_cell_angle_gamma 90.000000
_cell_volume 2063.805349
_symmetry_space_group_name_H-M "I 4"
_symmetry_group_IT_number 79
_symmetry_cell_setting 'tetragonal'
loop_
_space_group_symop_operation_xyz
x,y,z
-y,x,z
-x,-y,z
y,-x,z
1/2+x,1/2+y,1/2+z
1/2-y,1/2+x,1/2+z
1/2-x,1/2-y,1/2+z
1/2+y,1/2-x,1/2+z
loop_
_atom_site_type_symbol
_atom_site_label
_atom_site_fract_x
_atom_site_fract_y
_atom_site_fract_z
Si Si1 0.075814 0.388990 0.536290
Si Si2 0.362812 0.242200 0.806835
Si Si3 0.071263 0.134013 0.546721
Si Si4 0.280592 0.845023 0.761710
Si Si5 0.408070 0.131736 0.534682
O O1 0.136922 0.330082 0.432516
O O2 0.114961 0.370864 0.689692
O O3 0.097576 0.491548 0.497835
O O4 0.968707 0.359781 0.536050
O O5 0.408823 0.325757 0.891048
O O6 0.263025 0.269827 0.755443
O O7 0.408577 0.186450 0.680486
O O8 0.109168 0.200066 0.669838
O O9 0.963608 0.119240 0.561494
O O10 0.296657 0.870149 0.922715
#
# Coordination Sequence:
#
# PCOD9541928 Si02
#       5
#     8   8   8   8   8
#     4  10  23  39  64  92 132 166 199 260 327 374
#     4  11  24  38  66  93 127 164 211 255 312 374
#     4  10  25  47  67  87 125 178 214 253 311 382
#     4  11  24  38  66  93 127 164 211 255 312 374
#     4  11  22  40  63  98 126 160 206 267 318 367
#
# _framework density 19.381672999999999
#
# number of rings (size 3 to 8) (size 9 to 14) (size 15 to 20)
#    0.000    1.400    0.000    4.800   16.800    3.200 
#    0.000    0.000    0.000    2.400    0.000    0.000 
#    0.000    0.000    0.000    0.000    0.000    0.000 
#
# Total GULP energy -111394.703500 kJ/mol
# GULP energy per Si atom -5569.735175 kJ/mol
# Density = 1.933756 g / cm^3
# Si number density = 19.381673 Si / 1000 Ang^3
#
#
#
# Elastic Constant Matrix: (Units=GPa)
#
#
# Indices 1 2 3 4 5 6 
#
# 1 92.8337 27.2503 6.3442 0.0000 0.0000 -6.0990
# 2 27.2503 92.8337 6.3442 0.0000 0.0000 6.0990
# 3 6.3442 6.3442 68.1237 0.0000 0.0000 0.0000
# 4 0.0000 0.0000 0.0000 28.9711 0.0000 0.0000
# 5 0.0000 0.0000 0.0000 0.0000 28.9711 0.0000
# 6 -6.0990 6.0990 0.0000 0.0000 0.0000 23.5318
#
#
#
# Elastic Compliance Matrix: (Units=1/GPa)
#
#
# Indices 1 2 3 4 5 6 
#
# 1 0.012215 -0.003805 -0.000783 0.000000 0.000000 0.004152
# 2 -0.003805 0.012215 -0.000783 0.000000 0.000000 -0.004152
# 3 -0.000783 -0.000783 0.014825 0.000000 0.000000 0.000000
# 4 0.000000 0.000000 0.000000 0.034517 0.000000 0.000000
# 5 0.000000 0.000000 0.000000 0.000000 0.034517 0.000000
# 6 0.004152 -0.004152 0.000000 0.000000 0.000000 0.044648
#
#
# Mechanical properties :
#
#
# Convention : Reuss Voigt Hill
#
# Bulk Modulus (GPa) = 35.07212 37.07428 36.07320
# Shear Modulus (GPa) = 28.87093 30.55162 29.71128
#
# Velocity S-wave (km/s) = 3.86372 3.97459 3.91955
# Velocity P-wave (km/s) = 6.16760 6.34297 6.25590
#
# Compressibility (1/GPa) = 0.02851268
#
# Stress axis : x y z
#
# Youngs Moduli (GPa) = 81.86561 81.86561 67.45337
#
# Poissons Ratio (x) = 0.31149 0.05283
# Poissons Ratio (y) = 0.31149 0.05283
# Poissons Ratio (z) = 0.06412 0.06412
#
# Static dielectric constant tensor:
#      x y z
#    x 1.725640 0.000000 0.000000 
#    y 0.000000 1.725640 0.000000 
#    z 0.000000 0.000000 1.700250 
# 
# From -- ./inp_files/523.got.cif
#   From: 2010.05.17/outbox.cif.g08.bks.cpg/sg79_cif.got.tgz:523.got - 2010.06.03 18:47:27.
