data_PCOD9541363
_publ_section_title
;
Structure prediction by ZEFSAII (Michael W. Deem and Ramdas Pophale) SiO2 
 PCOD9541363
Probable space group: P 41
;
_chemical_formula_sum "Si O2"
_cell_formula_units_Z 24
_cell_length_a 11.180483
_cell_length_b 11.180483
_cell_length_c 8.180731
_cell_angle_alpha 90.000000
_cell_angle_beta 90.000000
_cell_angle_gamma 90.000000
_cell_volume 1022.617554
_symmetry_space_group_name_H-M "P 41"
_symmetry_group_IT_number 76
_symmetry_cell_setting 'tetragonal'
loop_
_space_group_symop_operation_xyz
x,y,z
-y,x,1/4+z
-x,-y,1/2+z
y,-x,3/4+z
loop_
_atom_site_type_symbol
_atom_site_label
_atom_site_fract_x
_atom_site_fract_y
_atom_site_fract_z
Si Si1 0.494773 0.053882 0.140940
Si Si2 0.896224 0.899368 0.960227
Si Si3 0.742092 0.967250 0.436915
Si Si4 0.360631 0.453475 0.137800
Si Si5 0.847056 0.384510 0.732108
Si Si6 0.814237 0.710832 0.450980
O O1 0.437890 0.093462 0.313966
O O2 0.596944 0.150117 0.092406
O O3 0.387087 0.044878 0.017110
O O4 0.562687 0.927443 0.128096
O O5 0.759625 0.851398 0.971201
O O6 0.977980 0.824886 0.831443
O O7 0.894018 0.031673 0.880129
O O8 0.773384 0.834722 0.378176
O O9 0.742719 0.065451 0.297725
O O10 0.473088 0.404828 0.233250
O O11 0.280741 0.549776 0.237505
O O12 0.279454 0.341601 0.082329
#
# Coordination Sequence:
#
# PCOD9541363 Si02
#       6
#     4   4   4   4   4   4
#     4  11  22  44  68  99 137 191 226 283 351 420
#     4  12  26  42  70 107 144 184 232 297 360 425
#     4  12  21  43  70  97 142 187 226 285 362 415
#     4  11  24  49  73 101 138 187 239 292 340 413
#     4  11  25  44  71 101 144 185 237 284 353 419
#     4  11  24  42  72 101 141 182 230 287 352 428
#
# _framework density 23.469183999999998
#
# number of rings (size 3 to 8) (size 9 to 14) (size 15 to 20)
#    0.000    0.667    6.667    3.000    2.333    0.000 
#    3.000    3.333    0.000    0.000    0.000    0.000 
#    0.000    0.000    0.000    0.000    0.000    0.000 
#
# Total GULP energy -134321.898208 kJ/mol
# GULP energy per Si atom -5596.745759 kJ/mol
# Density = 2.341577 g / cm^3
# Si number density = 23.469184 Si / 1000 Ang^3
#
#
#
# Elastic Constant Matrix: (Units=GPa)
#
#
# Indices 1 2 3 4 5 6 
#
# 1 103.8885 87.0859 13.8700 0.0000 0.0000 6.3565
# 2 87.0859 103.8885 13.8700 0.0000 0.0000 -6.3565
# 3 13.8700 13.8700 15.5863 0.0000 0.0000 0.0000
# 4 0.0000 0.0000 0.0000 31.0262 0.0000 0.0000
# 5 0.0000 0.0000 0.0000 0.0000 31.0262 0.0000
# 6 6.3565 -6.3565 0.0000 0.0000 0.0000 42.9695
#
#
#
# Elastic Compliance Matrix: (Units=1/GPa)
#
#
# Indices 1 2 3 4 5 6 
#
# 1 0.036514 -0.030501 -0.005351 0.000000 0.000000 -0.009914
# 2 -0.030501 0.036514 -0.005351 0.000000 0.000000 0.009914
# 3 -0.005351 -0.005351 0.073683 0.000000 0.000000 0.000000
# 4 0.000000 0.000000 0.000000 0.032231 0.000000 0.000000
# 5 0.000000 0.000000 0.000000 0.000000 0.032231 0.000000
# 6 -0.009914 0.009914 0.000000 0.000000 0.000000 0.026205
#
#
# Mechanical properties :
#
#
# Convention : Reuss Voigt Hill
#
# Bulk Modulus (GPa) = 15.55091 50.33499 32.94295
# Shear Modulus (GPa) = 14.65323 28.24022 21.44672
#
# Velocity S-wave (km/s) = 2.50143 3.47261 3.02623
# Velocity P-wave (km/s) = 3.87083 6.12964 5.12620
#
# Compressibility (1/GPa) = 0.06430490
#
# Stress axis : x y z
#
# Youngs Moduli (GPa) = 27.38641 27.38641 13.57157
#
# Poissons Ratio (x) = 0.83531 0.07263
# Poissons Ratio (y) = 0.83531 0.07263
# Poissons Ratio (z) = 0.14656 0.14656
#
# Static dielectric constant tensor:
#      x y z
#    x 1.898530 0.000000 0.000000 
#    y 0.000000 1.898530 0.000000 
#    z 0.000000 0.000000 1.918500 
# 
# From -- ./inp_files/524.got.cif
#   From: 2010.05.17/outbox.cif.g08.bks.cpg/sg76_cif.got.tgz:524.got - 2010.06.03 18:43:17.
