data_PCOD9541974
_publ_section_title
;
Structure prediction by ZEFSAII (Michael W. Deem and Ramdas Pophale) SiO2 
 PCOD9541974
Probable space group: I 4
;
_chemical_formula_sum "Si O2"
_cell_formula_units_Z 42
_cell_length_a 15.648993
_cell_length_b 15.648993
_cell_length_c 8.028282
_cell_angle_alpha 90.000000
_cell_angle_beta 90.000000
_cell_angle_gamma 90.000000
_cell_volume 1966.053862
_symmetry_space_group_name_H-M "I 4"
_symmetry_group_IT_number 79
_symmetry_cell_setting 'tetragonal'
loop_
_space_group_symop_operation_xyz
x,y,z
-y,x,z
-x,-y,z
y,-x,z
1/2+x,1/2+y,1/2+z
1/2-y,1/2+x,1/2+z
1/2-x,1/2-y,1/2+z
1/2+y,1/2-x,1/2+z
loop_
_atom_site_type_symbol
_atom_site_label
_atom_site_fract_x
_atom_site_fract_y
_atom_site_fract_z
Si Si1 0.050904 0.587362 0.780280
Si Si2 0.799997 0.972380 0.290602
Si Si3 0.216065 0.618141 0.603541
Si Si4 0.930554 0.689852 0.562648
Si Si5 0.216859 0.723900 0.270734
Si Si6 0.500000 0.500000 0.815349
O O1 0.119771 0.586169 0.629104
O O2 0.000000 0.500000 0.785285
O O3 0.984448 0.660365 0.725390
O O4 0.106623 0.590349 0.949127
O O5 0.755128 0.881265 0.263255
O O6 0.777230 0.038522 0.141871
O O7 0.753908 0.014019 0.451103
O O8 0.900783 0.962891 0.312854
O O9 0.232783 0.669749 0.436433
O O10 0.228442 0.691348 0.744160
O O11 0.843538 0.732238 0.623731
#
# Coordination Sequence:
#
# PCOD9541974 Si02
#       6
#     8   8   8   8   8   2
#     4  11  23  39  63 103 147 177 225 284 355 424
#     4  11  24  45  73  99 135 189 225 292 346 417
#     4  11  24  45  69 102 138 183 232 285 355 413
#     4  11  24  39  69 106 140 185 226 287 360 417
#     4  12  25  45  71 103 142 183 237 291 351 426
#     4  12  24  48  72  90 136 180 248 266 340 416
#
# _framework density 21.362587999999999
#
# number of rings (size 3 to 8) (size 9 to 14) (size 15 to 20)
#    0.000    0.762    3.810    5.143    5.333    0.000 
#    0.000    0.000    0.000    1.143    0.000    0.000 
#    0.000    0.000    0.000    0.000    0.000    0.000 
#
# Total GULP energy -117199.909910 kJ/mol
# GULP energy per Si atom -5580.948091 kJ/mol
# Density = 2.131397 g / cm^3
# Si number density = 21.362588 Si / 1000 Ang^3
#
#
#
# Elastic Constant Matrix: (Units=GPa)
#
#
# Indices 1 2 3 4 5 6 
#
# 1 82.6885 -6.6167 4.1764 0.0000 0.0000 -7.1484
# 2 -6.6167 82.6885 4.1764 0.0000 0.0000 7.1484
# 3 4.1764 4.1764 70.5341 0.0000 0.0000 0.0000
# 4 0.0000 0.0000 0.0000 24.6044 0.0000 0.0000
# 5 0.0000 0.0000 0.0000 0.0000 24.6044 0.0000
# 6 -7.1484 7.1484 0.0000 0.0000 0.0000 47.8210
#
#
#
# Elastic Compliance Matrix: (Units=1/GPa)
#
#
# Indices 1 2 3 4 5 6 
#
# 1 0.012352 0.000880 -0.000783 0.000000 0.000000 0.001715
# 2 0.000880 0.012352 -0.000783 0.000000 0.000000 -0.001715
# 3 -0.000783 -0.000783 0.014270 0.000000 0.000000 0.000000
# 4 0.000000 0.000000 0.000000 0.040643 0.000000 0.000000
# 5 0.000000 0.000000 0.000000 0.000000 0.040643 0.000000
# 6 0.001715 -0.001715 0.000000 0.000000 0.000000 0.021424
#
#
# Mechanical properties :
#
#
# Convention : Reuss Voigt Hill
#
# Bulk Modulus (GPa) = 26.59609 26.59814 26.59712
# Shear Modulus (GPa) = 32.13539 35.01762 33.57650
#
# Velocity S-wave (km/s) = 3.88272 4.05310 3.96882
# Velocity P-wave (km/s) = 5.70767 5.86356 5.78614
#
# Compressibility (1/GPa) = 0.03759951
#
# Stress axis : x y z
#
# Youngs Moduli (GPa) = 80.95985 80.95985 70.07550
#
# Poissons Ratio (x) = -0.07122 0.05490
# Poissons Ratio (y) = -0.07122 0.05490
# Poissons Ratio (z) = 0.06343 0.06343
#
# Static dielectric constant tensor:
#      x y z
#    x 1.755070 0.000000 0.000000 
#    y 0.000000 1.755070 0.000000 
#    z 0.000000 0.000000 1.850610 
# 
# From -- ./inp_files/566.got.cif
#   From: 2010.05.17/outbox.cif.g08.bks.cpg/sg79_cif.got.tgz:566.got - 2010.06.03 18:47:27.
