data_PCOD9541233
_publ_section_title
;
Structure prediction by ZEFSAII (Michael W. Deem and Ramdas Pophale) SiO2 
 PCOD9541233
Probable space group: P 41
;
_chemical_formula_sum "Si O2"
_cell_formula_units_Z 20
_cell_length_a 6.812734
_cell_length_b 6.812734
_cell_length_c 19.406121
_cell_angle_alpha 90.000000
_cell_angle_beta 90.000000
_cell_angle_gamma 90.000000
_cell_volume 900.702980
_symmetry_space_group_name_H-M "P 41"
_symmetry_group_IT_number 76
_symmetry_cell_setting 'tetragonal'
loop_
_space_group_symop_operation_xyz
x,y,z
-y,x,1/4+z
-x,-y,1/2+z
y,-x,3/4+z
loop_
_atom_site_type_symbol
_atom_site_label
_atom_site_fract_x
_atom_site_fract_y
_atom_site_fract_z
Si Si1 0.830552 0.374658 0.959900
Si Si2 0.220835 0.386303 0.587967
Si Si3 0.437074 0.215270 0.373340
Si Si4 0.219094 0.638388 0.964853
Si Si5 0.107668 0.084676 0.477276
O O1 0.684491 0.371867 0.894970
O O2 0.041422 0.483359 0.949569
O O3 0.725121 0.471089 0.025710
O O4 0.865501 0.145405 0.974352
O O5 0.244448 0.196311 0.421419
O O6 0.020904 0.483165 0.617538
O O7 0.400673 0.278602 0.294305
O O8 0.607668 0.335748 0.410869
O O9 0.112775 0.849677 0.963874
O O10 0.160173 0.181939 0.550448
#
# Coordination Sequence:
#
# PCOD9541233 Si02
#       5
#     4   4   4   4   4
#     4   9  19  39  66  95 130 172 214 263 326 383
#     4   9  20  38  64  97 128 170 217 265 324 384
#     4   9  20  38  63  94 128 168 213 265 321 382
#     4  10  22  40  64  95 129 169 216 265 323 385
#     4   9  19  39  63  87 129 169 210 270 322 374
#
# _framework density 22.204881
#
# number of rings (size 3 to 8) (size 9 to 14) (size 15 to 20)
#    0.000    3.200    0.000    0.000    0.000   12.800 
#    0.000   20.000    0.000    0.000    0.000   11.200 
#    0.000    0.000    0.000    0.000    0.000    0.000 
#
# Total GULP energy -111572.133165 kJ/mol
# GULP energy per Si atom -5578.606658 kJ/mol
# Density = 2.215434 g / cm^3
# Si number density = 22.204881 Si / 1000 Ang^3
#
#
#
# Elastic Constant Matrix: (Units=GPa)
#
#
# Indices 1 2 3 4 5 6 
#
# 1 120.6527 72.8114 84.4918 0.0000 0.0000 4.2879
# 2 72.8114 120.6527 84.4918 0.0000 0.0000 -4.2879
# 3 84.4918 84.4918 154.9522 0.0000 0.0000 0.0000
# 4 0.0000 0.0000 0.0000 42.4323 0.0000 0.0000
# 5 0.0000 0.0000 0.0000 0.0000 42.4323 0.0000
# 6 4.2879 -4.2879 0.0000 0.0000 0.0000 26.2333
#
#
#
# Elastic Compliance Matrix: (Units=1/GPa)
#
#
# Indices 1 2 3 4 5 6 
#
# 1 0.015701 -0.005832 -0.005382 0.000000 0.000000 -0.003520
# 2 -0.005832 0.015701 -0.005382 0.000000 0.000000 0.003520
# 3 -0.005382 -0.005382 0.012323 0.000000 0.000000 0.000000
# 4 0.000000 0.000000 0.000000 0.023567 0.000000 0.000000
# 5 0.000000 0.000000 0.000000 0.000000 0.023567 0.000000
# 6 -0.003520 0.003520 0.000000 0.000000 0.000000 0.039270
#
#
# Mechanical properties :
#
#
# Convention : Reuss Voigt Hill
#
# Bulk Modulus (GPa) = 94.92042 97.76086 96.34064
# Shear Modulus (GPa) = 29.97031 32.51707 31.24369
#
# Velocity S-wave (km/s) = 3.67784 3.83091 3.75515
# Velocity P-wave (km/s) = 7.80228 7.98061 7.89195
#
# Compressibility (1/GPa) = 0.01053514
#
# Stress axis : x y z
#
# Youngs Moduli (GPa) = 63.68829 63.68829 81.15172
#
# Poissons Ratio (x) = 0.37142 0.43673
# Poissons Ratio (y) = 0.37142 0.43673
# Poissons Ratio (z) = 0.34275 0.34275
#
# Static dielectric constant tensor:
#      x y z
#    x 1.848730 0.000000 0.000000 
#    y 0.000000 1.848730 0.000000 
#    z 0.000000 0.000000 1.847240 
# 
# From -- ./inp_files/1009.got.cif
#   From: 2010.05.17/outbox.cif.g08.bks.cpg/sg76_cif.got.tgz:1009.got - 2010.06.03 18:43:17.
