data_PCOD9541886
_publ_section_title
;
Structure prediction by ZEFSAII (Michael W. Deem and Ramdas Pophale) SiO2 
 PCOD9541886
Probable space group: I 4
;
_chemical_formula_sum "Si O2"
_cell_formula_units_Z 34
_cell_length_a 11.003491
_cell_length_b 11.003491
_cell_length_c 11.111629
_cell_angle_alpha 90.000000
_cell_angle_beta 90.000000
_cell_angle_gamma 90.000000
_cell_volume 1345.360640
_symmetry_space_group_name_H-M "I 4"
_symmetry_group_IT_number 79
_symmetry_cell_setting 'tetragonal'
loop_
_space_group_symop_operation_xyz
x,y,z
-y,x,z
-x,-y,z
y,-x,z
1/2+x,1/2+y,1/2+z
1/2-y,1/2+x,1/2+z
1/2-x,1/2-y,1/2+z
1/2+y,1/2-x,1/2+z
loop_
_atom_site_type_symbol
_atom_site_label
_atom_site_fract_x
_atom_site_fract_y
_atom_site_fract_z
Si Si1 0.100659 0.747354 0.269490
Si Si2 0.880352 0.439219 0.963014
Si Si3 0.039334 0.804388 0.994832
Si Si4 0.500000 0.500000 0.830633
Si Si5 0.406834 0.315489 0.171716
O O1 0.228066 0.678122 0.252134
O O2 0.023094 0.662085 0.355590
O O3 0.046827 0.765272 0.134851
O O4 0.096073 0.883906 0.322795
O O5 0.000000 0.500000 0.025320
O O6 0.765900 0.410308 0.048873
O O7 0.930749 0.311406 0.917527
O O8 0.136392 0.909751 0.975061
O O9 0.550994 0.346013 0.181142
#
# Coordination Sequence:
#
# PCOD9541886 Si02
#       5
#     8   8   8   2   8
#     4  11  24  44  72 116 151 205 262 316 389 469
#     4  11  28  42  72 116 157 198 266 327 390 463
#     4  10  21  46  77 104 150 206 254 318 390 468
#     4  12  24  40  80 112 156 216 266 312 392 488
#     4  10  26  50  79 110 157 211 262 331 397 468
#
# _framework density 25.272033
#
# number of rings (size 3 to 8) (size 9 to 14) (size 15 to 20)
#    0.000    1.412    2.353    0.000    9.882    5.647 
#    0.000    0.000    0.000    2.824    0.000    0.000 
#    0.000    0.000    0.000    0.000    0.000    0.000 
#
# Total GULP energy -94830.578348 kJ/mol
# GULP energy per Si atom -5578.269315 kJ/mol
# Density = 2.521451 g / cm^3
# Si number density = 25.272033 Si / 1000 Ang^3
#
#
#
# Elastic Constant Matrix: (Units=GPa)
#
#
# Indices 1 2 3 4 5 6 
#
# 1 231.6584 89.5099 51.6376 0.0000 0.0000 9.5957
# 2 89.5099 231.6584 51.6376 0.0000 0.0000 -9.5957
# 3 51.6376 51.6376 61.0034 0.0000 0.0000 0.0000
# 4 0.0000 0.0000 0.0000 26.7847 0.0000 0.0000
# 5 0.0000 0.0000 0.0000 0.0000 26.7847 0.0000
# 6 9.5957 -9.5957 0.0000 0.0000 0.0000 18.8742
#
#
#
# Elastic Compliance Matrix: (Units=1/GPa)
#
#
# Indices 1 2 3 4 5 6 
#
# 1 0.005916 -0.001638 -0.003621 0.000000 0.000000 -0.003840
# 2 -0.001638 0.005916 -0.003621 0.000000 0.000000 0.003840
# 3 -0.003621 -0.003621 0.022523 0.000000 0.000000 0.000000
# 4 0.000000 0.000000 0.000000 0.037335 0.000000 0.000000
# 5 0.000000 0.000000 0.000000 0.000000 0.037335 0.000000
# 6 -0.003840 0.003840 0.000000 0.000000 0.000000 0.056887
#
#
# Mechanical properties :
#
#
# Convention : Reuss Voigt Hill
#
# Bulk Modulus (GPa) = 60.26198 101.09894 80.68046
# Shear Modulus (GPa) = 26.42664 36.59104 31.50884
#
# Velocity S-wave (km/s) = 3.23722 3.80924 3.53482
# Velocity P-wave (km/s) = 6.15385 7.70962 6.97524
#
# Compressibility (1/GPa) = 0.01659421
#
# Stress axis : x y z
#
# Youngs Moduli (GPa) = 169.04102 169.04102 44.39873
#
# Poissons Ratio (x) = 0.27683 0.16078
# Poissons Ratio (y) = 0.27683 0.16078
# Poissons Ratio (z) = 0.61215 0.61215
#
# Static dielectric constant tensor:
#      x y z
#    x 1.983100 0.000000 0.000000 
#    y 0.000000 1.983100 0.000000 
#    z 0.000000 0.000000 2.076090 
# 
# From -- ./inp_files/931.got.cif
#   From: 2010.05.17/outbox.cif.g08.bks.cpg/sg79_cif.got.tgz:931.got - 2010.06.03 18:47:27.
