data_PCOD9541499
_publ_section_title
;
Structure prediction by ZEFSAII (Michael W. Deem and Ramdas Pophale) SiO2 
 PCOD9541499
Probable space group: P 42
;
_chemical_formula_sum "Si O2"
_cell_formula_units_Z 20
_cell_length_a 7.288474
_cell_length_b 7.288474
_cell_length_c 17.270436
_cell_angle_alpha 90.000000
_cell_angle_beta 90.000000
_cell_angle_gamma 90.000000
_cell_volume 917.437567
_symmetry_space_group_name_H-M "P 42"
_symmetry_group_IT_number 77
_symmetry_cell_setting 'tetragonal'
loop_
_space_group_symop_operation_xyz
x,y,z
-y,x,1/2+z
-x,-y,z
y,-x,1/2+z
loop_
_atom_site_type_symbol
_atom_site_label
_atom_site_fract_x
_atom_site_fract_y
_atom_site_fract_z
Si Si1 0.500000 0.000000 0.306020
Si Si2 0.724246 0.869688 0.172511
Si Si3 0.500000 0.000000 0.555376
Si Si4 0.363949 0.323895 0.845896
Si Si5 0.869688 0.275754 0.188886
Si Si6 0.363950 0.323895 0.015500
O O1 0.396480 0.140690 0.248855
O O2 0.624074 0.146043 0.349957
O O3 0.632009 0.796741 0.093996
O O4 0.914543 0.769900 0.191275
O O5 0.769900 0.085457 0.170122
O O6 0.396479 0.140689 0.612542
O O7 0.624074 0.146043 0.511439
O O8 0.500000 0.500000 0.838667
O O9 0.367991 0.203259 0.767401
O O10 0.410573 0.239896 0.930698
O O11 0.500000 0.500000 0.022729
#
# Coordination Sequence:
#
# PCOD9541499 Si02
#       6
#     2   4   2   4   4   4
#     4  10  21  36  63  84 120 158 204 250 305 362
#     4   9  20  38  59  86 115 158 207 247 302 369
#     4  10  21  36  63  84 120 158 204 250 305 362
#     4  10  22  38  59  90 123 157 201 255 311 363
#     4   9  20  38  59  86 115 158 207 247 302 369
#     4  10  22  38  59  90 123 157 201 255 311 363
#
# _framework density 21.799849999999999
#
# number of rings (size 3 to 8) (size 9 to 14) (size 15 to 20)
#    0.000    2.400    0.000    0.600   11.200    0.000 
#    0.000   19.000    0.000    0.000    0.000    0.000 
#    0.000    0.000    0.000    0.000    0.000    0.000 
#
# Total GULP energy -111337.121094 kJ/mol
# GULP energy per Si atom -5566.856055 kJ/mol
# Density = 2.175023 g / cm^3
# Si number density = 21.799850 Si / 1000 Ang^3
#
#
#
# Elastic Constant Matrix: (Units=GPa)
#
#
# Indices 1 2 3 4 5 6 
#
# 1 66.7091 11.3626 45.1828 0.0000 0.0000 -3.4492
# 2 11.3626 66.7091 45.1828 0.0000 0.0000 3.4492
# 3 45.1828 45.1828 194.3060 0.0000 0.0000 0.0000
# 4 0.0000 0.0000 0.0000 148.4881 0.0000 0.0000
# 5 0.0000 0.0000 0.0000 0.0000 148.4881 0.0000
# 6 -3.4492 3.4492 0.0000 0.0000 0.0000 31.0424
#
#
#
# Elastic Compliance Matrix: (Units=1/GPa)
#
#
# Indices 1 2 3 4 5 6 
#
# 1 0.017924 -0.000398 -0.004075 0.000000 0.000000 0.002036
# 2 -0.000398 0.017924 -0.004075 0.000000 0.000000 -0.002036
# 3 -0.004075 -0.004075 0.007042 0.000000 0.000000 0.000000
# 4 0.000000 0.000000 0.000000 0.006735 0.000000 0.000000
# 5 0.000000 0.000000 0.000000 0.000000 0.006735 0.000000
# 6 0.002036 -0.002036 0.000000 0.000000 0.000000 0.032666
#
#
# Mechanical properties :
#
#
# Convention : Reuss Voigt Hill
#
# Bulk Modulus (GPa) = 38.77159 59.02005 48.89582
# Shear Modulus (GPa) = 43.58458 80.67015 62.12736
#
# Velocity S-wave (km/s) = 4.47621 6.08977 5.34424
# Velocity P-wave (km/s) = 6.67377 8.75096 7.78198
#
# Compressibility (1/GPa) = 0.02579208
#
# Stress axis : x y z
#
# Youngs Moduli (GPa) = 55.79184 55.79184 142.00834
#
# Poissons Ratio (x) = 0.02220 0.57873
# Poissons Ratio (y) = 0.02220 0.57873
# Poissons Ratio (z) = 0.22737 0.22737
#
# Static dielectric constant tensor:
#      x y z
#    x 1.875080 0.000000 0.000000 
#    y 0.000000 1.875080 0.000000 
#    z 0.000000 0.000000 1.822140 
# 
# From -- ./inp_files/1046.got.cif
#   From: 2010.05.17/outbox.cif.g08.bks.cpg/sg77_cif.got.tgz:1046.got - 2010.06.03 18:44:51.
