data_PCOD9541896
_publ_section_title
;
Structure prediction by ZEFSAII (Michael W. Deem and Ramdas Pophale) SiO2 
 PCOD9541896
Probable space group: I 4
;
_chemical_formula_sum "Si O2"
_cell_formula_units_Z 40
_cell_length_a 8.684756
_cell_length_b 8.684756
_cell_length_c 28.384064
_cell_angle_alpha 90.000000
_cell_angle_beta 90.000000
_cell_angle_gamma 90.000000
_cell_volume 2140.867652
_symmetry_space_group_name_H-M "I 4"
_symmetry_group_IT_number 79
_symmetry_cell_setting 'tetragonal'
loop_
_space_group_symop_operation_xyz
x,y,z
-y,x,z
-x,-y,z
y,-x,z
1/2+x,1/2+y,1/2+z
1/2-y,1/2+x,1/2+z
1/2-x,1/2-y,1/2+z
1/2+y,1/2-x,1/2+z
loop_
_atom_site_type_symbol
_atom_site_label
_atom_site_fract_x
_atom_site_fract_y
_atom_site_fract_z
Si Si1 0.936263 0.750305 0.977740
Si Si2 0.756117 0.545648 0.796004
Si Si3 0.250973 0.926739 0.869578
Si Si4 0.000000 0.500000 0.214098
Si Si5 0.244132 0.527832 0.131479
Si Si6 0.500000 0.000000 0.052161
O O1 0.916538 0.695492 0.923929
O O2 0.107446 0.820262 0.982928
O O3 0.922355 0.623654 0.017615
O O4 0.618000 0.670201 0.799620
O O5 0.872983 0.613842 0.835142
O O6 0.853934 0.525302 0.748242
O O7 0.099964 0.816287 0.862872
O O8 0.145047 0.510427 0.179010
O O9 0.337282 0.368621 0.129530
O O10 0.130761 0.557379 0.087794
#
# Coordination Sequence:
#
# PCOD9541896 Si02
#       6
#     8   8   8   4   8   4
#     4   9  19  35  55  82 114 150 190 224 262 323
#     4  11  23  37  56  85 116 144 183 237 289 332
#     4   9  19  36  57  81 113 154 194 227 266 328
#     4  11  22  39  60  78 104 147 186 223 280 346
#     4  10  22  39  57  80 108 139 181 230 280 337
#     4  11  20  33  58  84 110 143 178 229 286 324
#
# _framework density 18.684014000000001
#
# number of rings (size 3 to 8) (size 9 to 14) (size 15 to 20)
#    0.000    2.000    0.000    4.800    0.000    4.000 
#    0.000    2.000    0.000   12.000    0.000    0.000 
#    0.000    0.000    0.000    0.000    0.000    0.000 
#
# Total GULP energy -111469.516781 kJ/mol
# GULP energy per Si atom -5573.475839 kJ/mol
# Density = 1.864149 g / cm^3
# Si number density = 18.684014 Si / 1000 Ang^3
#
#
#
# Elastic Constant Matrix: (Units=GPa)
#
#
# Indices 1 2 3 4 5 6 
#
# 1 57.6914 23.2699 37.4001 0.0000 0.0000 -11.8783
# 2 23.2699 57.6914 37.4001 0.0000 0.0000 11.8783
# 3 37.4001 37.4001 113.5712 0.0000 0.0000 0.0000
# 4 0.0000 0.0000 0.0000 14.3195 0.0000 0.0000
# 5 0.0000 0.0000 0.0000 0.0000 14.3195 0.0000
# 6 -11.8783 11.8783 0.0000 0.0000 0.0000 14.8629
#
#
#
# Elastic Compliance Matrix: (Units=1/GPa)
#
#
# Indices 1 2 3 4 5 6 
#
# 1 0.041270 -0.023517 -0.005846 0.000000 0.000000 0.051777
# 2 -0.023517 0.041270 -0.005846 0.000000 0.000000 -0.051777
# 3 -0.005846 -0.005846 0.012655 0.000000 0.000000 0.000000
# 4 0.000000 0.000000 0.000000 0.069835 0.000000 0.000000
# 5 0.000000 0.000000 0.000000 0.000000 0.069835 0.000000
# 6 0.051777 -0.051777 0.000000 0.000000 0.000000 0.150042
#
#
# Mechanical properties :
#
#
# Convention : Reuss Voigt Hill
#
# Bulk Modulus (GPa) = 40.36089 47.23266 43.79678
# Shear Modulus (GPa) = 10.78550 17.42595 14.10572
#
# Velocity S-wave (km/s) = 2.40523 3.05727 2.75064
# Velocity P-wave (km/s) = 5.41869 6.14794 5.79480
#
# Compressibility (1/GPa) = 0.02477646
#
# Stress axis : x y z
#
# Youngs Moduli (GPa) = 24.23074 24.23074 79.01726
#
# Poissons Ratio (x) = 0.56983 0.46195
# Poissons Ratio (y) = 0.56983 0.46195
# Poissons Ratio (z) = 0.14166 0.14166
#
# Static dielectric constant tensor:
#      x y z
#    x 1.661870 0.000000 0.000000 
#    y 0.000000 1.661870 0.000000 
#    z 0.000000 0.000000 1.625380 
# 
# From -- ./inp_files/1907.got.cif
#   From: 2010.05.17/outbox.cif.g08.bks.cpg/sg79_cif.got.tgz:1907.got - 2010.06.03 18:47:27.
