data_PCOD9541293
_publ_section_title
;
Structure prediction by ZEFSAII (Michael W. Deem and Ramdas Pophale) SiO2 
 PCOD9541293
Probable space group: P 41
;
_chemical_formula_sum "Si O2"
_cell_formula_units_Z 16
_cell_length_a 12.276840
_cell_length_b 12.276840
_cell_length_c 5.097303
_cell_angle_alpha 90.000000
_cell_angle_beta 90.000000
_cell_angle_gamma 90.000000
_cell_volume 768.269588
_symmetry_space_group_name_H-M "P 41"
_symmetry_group_IT_number 76
_symmetry_cell_setting 'tetragonal'
loop_
_space_group_symop_operation_xyz
x,y,z
-y,x,1/4+z
-x,-y,1/2+z
y,-x,3/4+z
loop_
_atom_site_type_symbol
_atom_site_label
_atom_site_fract_x
_atom_site_fract_y
_atom_site_fract_z
Si Si1 0.570837 0.976620 0.143990
Si Si2 0.286487 0.230856 0.597277
Si Si3 0.169295 0.292856 0.088875
Si Si4 0.425705 0.646015 0.653995
O O1 0.668161 0.050337 0.262371
O O2 0.483514 0.970500 0.383157
O O3 0.624306 0.862100 0.065408
O O4 0.199371 0.243226 0.366741
O O5 0.343508 0.347889 0.648610
O O6 0.220788 0.214775 0.868290
O O7 0.241867 0.403238 0.054491
O O8 0.378032 0.547225 0.821941
#
# Coordination Sequence:
#
# PCOD9541293 Si02
#       4
#     4   4   4   4
#     4  12  24  40  70  96 132 180 232 286 326 402
#     4  10  24  40  60  92 131 166 222 267 340 387
#     4  10  24  40  60  92 131 166 222 267 340 387
#     4  10  24  34  58  90 130 176 206 258 330 418
#
# _framework density 20.826024
#
# number of rings (size 3 to 8) (size 9 to 14) (size 15 to 20)
#    1.500    0.000    0.000    4.500   10.500    0.000 
#    0.000    0.000    0.000    3.000    0.000    0.000 
#    0.000    0.000    0.000    0.000    0.000    0.000 
#
# Total GULP energy -89262.900499 kJ/mol
# GULP energy per Si atom -5578.931281 kJ/mol
# Density = 2.077862 g / cm^3
# Si number density = 20.826024 Si / 1000 Ang^3
#
#
#
# Elastic Constant Matrix: (Units=GPa)
#
#
# Indices 1 2 3 4 5 6 
#
# 1 103.4723 -46.4151 -2.2801 0.0000 0.0000 -31.4007
# 2 -46.4151 103.4723 -2.2801 0.0000 0.0000 31.4007
# 3 -2.2801 -2.2801 66.6768 0.0000 0.0000 0.0000
# 4 0.0000 0.0000 0.0000 18.6991 0.0000 0.0000
# 5 0.0000 0.0000 0.0000 0.0000 18.6991 0.0000
# 6 -31.4007 31.4007 0.0000 0.0000 0.0000 55.1304
#
#
#
# Elastic Compliance Matrix: (Units=1/GPa)
#
#
# Indices 1 2 3 4 5 6 
#
# 1 0.013169 0.004406 0.000601 0.000000 0.000000 0.004991
# 2 0.004406 0.013169 0.000601 0.000000 0.000000 -0.004991
# 3 0.000601 0.000601 0.015039 0.000000 0.000000 0.000000
# 4 0.000000 0.000000 0.000000 0.053479 0.000000 0.000000
# 5 0.000000 0.000000 0.000000 0.000000 0.053479 0.000000
# 6 0.004991 -0.004991 0.000000 0.000000 0.000000 0.023824
#
#
# Mechanical properties :
#
#
# Convention : Reuss Voigt Hill
#
# Bulk Modulus (GPa) = 19.01453 19.07453 19.04453
# Shear Modulus (GPa) = 28.01549 40.14549 34.08049
#
# Velocity S-wave (km/s) = 3.67170 4.39528 4.04968
# Velocity P-wave (km/s) = 5.20818 5.91074 5.57054
#
# Compressibility (1/GPa) = 0.05259135
#
# Stress axis : x y z
#
# Youngs Moduli (GPa) = 75.93822 75.93822 66.49453
#
# Poissons Ratio (x) = -0.33456 -0.03996
# Poissons Ratio (y) = -0.33456 -0.03996
# Poissons Ratio (z) = -0.04564 -0.04564
#
# Static dielectric constant tensor:
#      x y z
#    x 1.738450 0.000000 0.000000 
#    y 0.000000 1.738450 0.000000 
#    z 0.000000 0.000000 1.777860 
# 
# From -- ./inp_files/39.got.cif
#   From: 2010.05.17/outbox.cif.g08.bks.cpg/sg76_cif.got.tgz:39.got - 2010.06.03 18:43:17.
