data_PCOD9541519
_publ_section_title
;
Structure prediction by ZEFSAII (Michael W. Deem and Ramdas Pophale) SiO2 
 PCOD9541519
Probable space group: P 42
;
_chemical_formula_sum "Si O2"
_cell_formula_units_Z 20
_cell_length_a 8.570458
_cell_length_b 8.570458
_cell_length_c 11.511778
_cell_angle_alpha 90.000000
_cell_angle_beta 90.000000
_cell_angle_gamma 90.000000
_cell_volume 845.571755
_symmetry_space_group_name_H-M "P 42"
_symmetry_group_IT_number 77
_symmetry_cell_setting 'tetragonal'
loop_
_space_group_symop_operation_xyz
x,y,z
-y,x,1/2+z
-x,-y,z
y,-x,1/2+z
loop_
_atom_site_type_symbol
_atom_site_label
_atom_site_fract_x
_atom_site_fract_y
_atom_site_fract_z
Si Si1 0.527615 0.680361 0.137820
Si Si2 0.000000 0.000000 0.828192
Si Si3 0.256473 0.058783 0.469521
Si Si4 0.150134 0.401841 0.443584
Si Si5 0.702464 0.118965 0.691779
Si Si6 0.000000 0.500000 0.772889
O O1 0.500000 0.500000 0.178572
O O2 0.711152 0.711046 0.137434
O O3 0.456001 0.837906 0.202877
O O4 0.470541 0.698115 0.005531
O O5 0.937392 0.866959 0.915109
O O6 0.133545 0.934196 0.746314
O O7 0.162697 0.220526 0.480404
O O8 0.375751 0.070540 0.363829
O O9 0.328443 0.004185 0.589848
O O10 0.142660 0.406149 0.304145
O O11 0.000000 0.500000 0.483333
#
# Coordination Sequence:
#
# PCOD9541519 Si02
#       6
#     4   2   4   4   4   2
#     4  12  29  51  83 119 171 225 289 359 445 526
#     4  10  22  46  76 112 148 206 284 322 442 500
#     4  11  27  47  79 117 159 220 279 357 434 521
#     4  11  27  49  78 116 165 221 284 358 445 510
#     4  11  27  47  78 123 158 219 285 359 434 533
#     4  12  26  56  76 116 172 226 274 358 440 518
#
# _framework density 23.652633999999999
#
# number of rings (size 3 to 8) (size 9 to 14) (size 15 to 20)
#    0.000    0.800    5.000    0.600   15.400    2.400 
#    0.000    0.000    0.000    0.000    0.000    0.000 
#    0.000    0.000    0.000    0.000    0.000    0.000 
#
# Total GULP energy -111439.265684 kJ/mol
# GULP energy per Si atom -5571.963284 kJ/mol
# Density = 2.359880 g / cm^3
# Si number density = 23.652634 Si / 1000 Ang^3
#
#
#
# Elastic Constant Matrix: (Units=GPa)
#
#
# Indices 1 2 3 4 5 6 
#
# 1 118.7472 33.4919 45.9036 0.0000 0.0000 6.4824
# 2 33.4919 118.7472 45.9036 0.0000 0.0000 -6.4824
# 3 45.9036 45.9036 150.1011 0.0000 0.0000 0.0000
# 4 0.0000 0.0000 0.0000 -63.7944 0.0000 0.0000
# 5 0.0000 0.0000 0.0000 0.0000 -63.7944 0.0000
# 6 6.4824 -6.4824 0.0000 0.0000 0.0000 3.7731
#
#
#
# Elastic Compliance Matrix: (Units=1/GPa)
#
#
# Indices 1 2 3 4 5 6 
#
# 1 0.011966 -0.003912 -0.002463 0.000000 0.000000 -0.027279
# 2 -0.003912 0.011966 -0.002463 0.000000 0.000000 0.027279
# 3 -0.002463 -0.002463 0.008169 0.000000 0.000000 0.000000
# 4 0.000000 0.000000 0.000000 -0.015675 0.000000 0.000000
# 5 0.000000 0.000000 0.000000 0.000000 -0.015675 0.000000
# 6 -0.027279 0.027279 0.000000 0.000000 0.000000 0.358769
#
#
# Mechanical properties :
#
#
# Convention : Reuss Voigt Hill
#
# Bulk Modulus (GPa) = 69.32705 70.91041 70.11873
# Shear Modulus (GPa) = 13.08892 -7.27672 2.90610
#
# Velocity S-wave (km/s) = 2.35496 -1.75590 1.10965
# Velocity P-wave (km/s) = 6.06371 5.09255 5.59923
#
# Compressibility (1/GPa) = 0.01442438
#
# Stress axis : x y z
#
# Youngs Moduli (GPa) = 83.57078 83.57078 122.41917
#
# Poissons Ratio (x) = 0.32693 0.30152
# Poissons Ratio (y) = 0.32693 0.30152
# Poissons Ratio (z) = 0.20584 0.20584
#
# Static dielectric constant tensor:
#      x y z
#    x 3.122440 0.000000 0.000000 
#    y 0.000000 3.122440 0.000000 
#    z 0.000000 0.000000 1.928300 
# 
# From -- ./inp_files/832.got.cif
#   From: 2010.05.17/outbox.cif.g08.bks.cpg/sg77_cif.got.tgz:832.got - 2010.06.03 18:44:51.
