data_PCOD9541951
_publ_section_title
;
Structure prediction by ZEFSAII (Michael W. Deem and Ramdas Pophale) SiO2 
 PCOD9541951
Probable space group: I 4
;
_chemical_formula_sum "Si O2"
_cell_formula_units_Z 64
_cell_length_a 11.123814
_cell_length_b 11.123814
_cell_length_c 27.431532
_cell_angle_alpha 90.000000
_cell_angle_beta 90.000000
_cell_angle_gamma 90.000000
_cell_volume 3394.356864
_symmetry_space_group_name_H-M "I 4"
_symmetry_group_IT_number 79
_symmetry_cell_setting 'tetragonal'
loop_
_space_group_symop_operation_xyz
x,y,z
-y,x,z
-x,-y,z
y,-x,z
1/2+x,1/2+y,1/2+z
1/2-y,1/2+x,1/2+z
1/2-x,1/2-y,1/2+z
1/2+y,1/2-x,1/2+z
loop_
_atom_site_type_symbol
_atom_site_label
_atom_site_fract_x
_atom_site_fract_y
_atom_site_fract_z
Si Si1 0.693762 0.561343 0.897140
Si Si2 0.184850 0.080402 0.507186
Si Si3 0.963424 0.354054 0.116359
Si Si4 0.120862 0.714374 0.787155
Si Si5 0.325311 0.411413 0.182568
Si Si6 0.142937 0.328846 0.818204
Si Si7 0.220705 0.711189 0.596150
Si Si8 0.015409 0.644589 0.230540
O O1 0.574762 0.644864 0.891015
O O2 0.797506 0.587952 0.858624
O O3 0.735461 0.589364 0.952391
O O4 0.259118 0.132271 0.551568
O O5 0.058985 0.151072 0.511205
O O6 0.067448 0.268617 0.094199
O O7 0.963894 0.326890 0.174517
O O8 0.000000 0.500000 0.109744
O O9 0.835696 0.301096 0.096827
O O10 0.089902 0.793189 0.739344
O O11 0.200561 0.794343 0.822518
O O12 0.185901 0.600005 0.761902
O O13 0.000529 0.675063 0.815282
O O14 0.449308 0.344442 0.170972
O O15 0.230275 0.350499 0.147312
O O16 0.178923 0.372641 0.763860
O O17 0.000000 0.500000 0.231028
#
# Coordination Sequence:
#
# PCOD9541951 Si02
#       8
#     8   8   8   8   8   8   8   8
#     4   9  19  38  62  85 111 145 191 250 304 350
#     4   9  18  36  63  92 114 139 191 260 313 351
#     4  11  23  38  58  86 123 163 204 248 299 361
#     4  11  20  33  52  78 112 148 189 237 291 345
#     4  11  20  32  53  82 113 150 198 248 298 355
#     4  11  21  34  54  77 112 151 189 235 293 356
#     4  12  23  37  60  85 123 165 201 244 301 364
#     4   9  20  34  50  74 110 150 190 231 281 341
#
# _framework density 18.854823
#
# number of rings (size 3 to 8) (size 9 to 14) (size 15 to 20)
#    0.000    1.625    2.500    4.500    1.750    1.500 
#    0.000    1.250    0.000    5.250    0.000    1.750 
#    0.000    0.000    0.000    0.000    0.000    0.000 
#
# Total GULP energy -178302.687771 kJ/mol
# GULP energy per Si atom -5571.958993 kJ/mol
# Density = 1.881191 g / cm^3
# Si number density = 18.854823 Si / 1000 Ang^3
#
#
#
# Elastic Constant Matrix: (Units=GPa)
#
#
# Indices 1 2 3 4 5 6 
#
# 1 -10.3393 65.0876 9.1667 0.0000 0.0000 -98.5669
# 2 65.0876 -10.3393 9.1667 0.0000 0.0000 98.5669
# 3 9.1667 9.1667 67.1887 0.0000 0.0000 0.0000
# 4 0.0000 0.0000 0.0000 24.4414 0.0000 0.0000
# 5 0.0000 0.0000 0.0000 0.0000 24.4414 0.0000
# 6 -98.5669 98.5669 0.0000 0.0000 0.0000 -440.1971
#
#
#
# Elastic Compliance Matrix: (Units=1/GPa)
#
#
# Indices 1 2 3 4 5 6 
#
# 1 -0.006412 0.025552 -0.002611 0.000000 0.000000 0.007157
# 2 0.025552 -0.006412 -0.002611 0.000000 0.000000 -0.007157
# 3 -0.002611 -0.002611 0.015596 0.000000 0.000000 0.000000
# 4 0.000000 0.000000 0.000000 0.040914 0.000000 0.000000
# 5 0.000000 0.000000 0.000000 0.000000 0.040914 0.000000
# 6 0.007157 -0.007157 0.000000 0.000000 0.000000 -0.005477
#
#
# Mechanical properties :
#
#
# Convention : Reuss Voigt Hill
#
# Bulk Modulus (GPa) = 23.02530 23.70579 23.36554
# Shear Modulus (GPa) = 94.44252 -80.72359 6.85946
#
# Velocity S-wave (km/s) = 7.08506 -6.55028 1.90943
# Velocity P-wave (km/s) = 8.89770 6.67893 4.15698
#
# Compressibility (1/GPa) = 0.04343049
#
# Stress axis : x y z
#
# Youngs Moduli (GPa) = -155.96010 -155.96005 64.11908
#
# Poissons Ratio (x) = 3.98505 0.16743
# Poissons Ratio (y) = 3.98505 0.16743
# Poissons Ratio (z) = -0.40725 -0.40725
#
# Static dielectric constant tensor:
#      x y z
#    x 1.710390 0.000000 0.000000 
#    y 0.000000 1.710390 0.000000 
#    z 0.000000 0.000000 1.643370 
# 
# From -- ./inp_files/1994.got.cif
#   From: 2010.05.17/outbox.cif.g08.bks.cpg/sg79_cif.got.tgz:1994.got - 2010.06.03 18:47:27.
