data_PCOD9541825
_publ_section_title
;
Structure prediction by ZEFSAII (Michael W. Deem and Ramdas Pophale) SiO2 
 PCOD9541825
Probable space group: I 4
;
_chemical_formula_sum "Si O2"
_cell_formula_units_Z 48
_cell_length_a 20.353599
_cell_length_b 20.353599
_cell_length_c 6.358017
_cell_angle_alpha 90.000000
_cell_angle_beta 90.000000
_cell_angle_gamma 90.000000
_cell_volume 2633.929295
_symmetry_space_group_name_H-M "I 4"
_symmetry_group_IT_number 79
_symmetry_cell_setting 'tetragonal'
loop_
_space_group_symop_operation_xyz
x,y,z
-y,x,z
-x,-y,z
y,-x,z
1/2+x,1/2+y,1/2+z
1/2-y,1/2+x,1/2+z
1/2-x,1/2-y,1/2+z
1/2+y,1/2-x,1/2+z
loop_
_atom_site_type_symbol
_atom_site_label
_atom_site_fract_x
_atom_site_fract_y
_atom_site_fract_z
Si Si1 0.518183 0.745707 0.913500
Si Si2 0.659259 0.798573 0.911854
Si Si3 0.000609 0.890736 0.661435
Si Si4 0.228955 0.171201 0.253323
Si Si5 0.304053 0.454282 0.515816
Si Si6 0.401699 0.788218 0.142008
O O1 0.589046 0.771418 0.976181
O O2 0.504824 0.733787 0.667279
O O3 0.504770 0.674105 0.017650
O O4 0.465054 0.798212 0.997636
O O5 0.691987 0.739331 0.780847
O O6 0.655274 0.861360 0.757777
O O7 0.707606 0.817110 0.104366
O O8 0.064052 0.936833 0.624401
O O9 0.010545 0.864677 0.900816
O O10 0.185531 0.112031 0.153589
O O11 0.250568 0.147253 0.483976
O O12 0.258651 0.427615 0.327544
#
# Coordination Sequence:
#
# PCOD9541825 Si02
#       6
#     8   8   8   8   8   8
#     4  10  23  36  59  85 116 164 198 255 315 369
#     4  11  21  34  61  89 117 160 195 258 324 359
#     4  10  23  37  50  75 117 168 214 250 282 353
#     4  10  20  34  58  89 118 148 200 259 309 370
#     4   9  21  37  55  78 116 155 204 248 293 366
#     4   9  20  40  51  85 121 144 200 254 298 381
#
# _framework density 18.223725000000002
#
# number of rings (size 3 to 8) (size 9 to 14) (size 15 to 20)
#    0.000    2.167    1.667    0.000    9.333    2.667 
#    0.000    1.667    0.000    0.000    0.000   33.833 
#    0.000    0.000    0.000    0.000    0.000    0.000 
#
# Total GULP energy -133650.525028 kJ/mol
# GULP energy per Si atom -5568.771876 kJ/mol
# Density = 1.818225 g / cm^3
# Si number density = 18.223725 Si / 1000 Ang^3
#
#
#
# Elastic Constant Matrix: (Units=GPa)
#
#
# Indices 1 2 3 4 5 6 
#
# 1 73.2343 34.8899 9.5997 0.0000 0.0000 -0.6325
# 2 34.8899 73.2343 9.5997 0.0000 0.0000 0.6325
# 3 9.5997 9.5997 46.2275 0.0000 0.0000 0.0000
# 4 0.0000 0.0000 0.0000 18.3532 0.0000 0.0000
# 5 0.0000 0.0000 0.0000 0.0000 18.3532 0.0000
# 6 -0.6325 0.6325 0.0000 0.0000 0.0000 19.9693
#
#
#
# Elastic Compliance Matrix: (Units=1/GPa)
#
#
# Indices 1 2 3 4 5 6 
#
# 1 0.017855 -0.008252 -0.001994 0.000000 0.000000 0.000827
# 2 -0.008252 0.017855 -0.001994 0.000000 0.000000 -0.000827
# 3 -0.001994 -0.001994 0.022460 0.000000 0.000000 0.000000
# 4 0.000000 0.000000 0.000000 0.054486 0.000000 0.000000
# 5 0.000000 0.000000 0.000000 0.000000 0.054486 0.000000
# 6 0.000827 -0.000827 0.000000 0.000000 0.000000 0.050129
#
#
# Mechanical properties :
#
#
# Convention : Reuss Voigt Hill
#
# Bulk Modulus (GPa) = 29.68301 33.43052 31.55676
# Shear Modulus (GPa) = 19.76428 20.57563 20.16995
#
# Velocity S-wave (km/s) = 3.29680 3.36379 3.33046
# Velocity P-wave (km/s) = 5.55116 5.78542 5.66950
#
# Compressibility (1/GPa) = 0.03368931
#
# Stress axis : x y z
#
# Youngs Moduli (GPa) = 56.00766 56.00766 44.52293
#
# Poissons Ratio (x) = 0.46217 0.08878
# Poissons Ratio (y) = 0.46217 0.08878
# Poissons Ratio (z) = 0.11169 0.11169
#
# Static dielectric constant tensor:
#      x y z
#    x 1.636730 0.000000 0.000000 
#    y 0.000000 1.636730 0.000000 
#    z 0.000000 0.000000 1.671080 
# 
# From -- ./inp_files/208.got.cif
#   From: 2010.05.17/outbox.cif.g08.bks.cpg/sg79_cif.got.tgz:208.got - 2010.06.03 18:47:27.
