data_PCOD9541680
_publ_section_title
;
Structure prediction by ZEFSAII (Michael W. Deem and Ramdas Pophale) SiO2 
 PCOD9541680
Probable space group: P 43
;
_chemical_formula_sum "Si O2"
_cell_formula_units_Z 20
_cell_length_a 11.605888
_cell_length_b 11.605888
_cell_length_c 7.828450
_cell_angle_alpha 90.000000
_cell_angle_beta 90.000000
_cell_angle_gamma 90.000000
_cell_volume 1054.465882
_symmetry_space_group_name_H-M "P 43"
_symmetry_group_IT_number 78
_symmetry_cell_setting 'tetragonal'
loop_
_space_group_symop_operation_xyz
x,y,z
-y,x,3/4+z
-x,-y,1/2+z
y,-x,1/4+z
loop_
_atom_site_type_symbol
_atom_site_label
_atom_site_fract_x
_atom_site_fract_y
_atom_site_fract_z
Si Si1 0.910620 0.453738 0.297000
Si Si2 0.482551 0.840730 0.666787
Si Si3 0.837401 0.261086 0.879247
Si Si4 0.752956 0.748661 0.007866
Si Si5 0.713551 0.108084 0.598811
O O1 0.819673 0.353794 0.337969
O O2 0.880965 0.576239 0.380921
O O3 0.045960 0.428691 0.326383
O O4 0.891472 0.478316 0.098354
O O5 0.605089 0.801522 0.591592
O O6 0.386061 0.744414 0.701330
O O7 0.778289 0.179183 0.742913
O O8 0.974122 0.257922 0.857923
O O9 0.808451 0.225510 0.074503
O O10 0.846947 0.744605 0.158521
#
# Coordination Sequence:
#
# PCOD9541680 Si02
#       5
#     4   4   4   4   4
#     4   9  20  37  61  87 114 156 204 239 299 365
#     4   9  20  37  61  87 114 156 204 239 299 365
#     4  10  23  40  60  92 119 159 205 240 301 368
#     4  10  22  36  66  86 120 150 198 260 288 348
#     4  10  23  40  60  92 119 159 205 240 301 368
#
# _framework density 18.966947999999999
#
# number of rings (size 3 to 8) (size 9 to 14) (size 15 to 20)
#    0.000    2.400    0.000    0.000   16.800    0.000 
#    3.600    0.000   39.600    0.000    0.000    0.000 
#    0.000    0.000    0.000    0.000    0.000    0.000 
#
# Total GULP energy -111392.737303 kJ/mol
# GULP energy per Si atom -5569.636865 kJ/mol
# Density = 1.892378 g / cm^3
# Si number density = 18.966948 Si / 1000 Ang^3
#
#
#
# Elastic Constant Matrix: (Units=GPa)
#
#
# Indices 1 2 3 4 5 6 
#
# 1 58.5393 35.4970 37.4831 0.0000 0.0000 0.7067
# 2 35.4970 58.5393 37.4831 0.0000 0.0000 -0.7067
# 3 37.4831 37.4831 77.4926 0.0000 0.0000 0.0000
# 4 0.0000 0.0000 0.0000 28.8236 0.0000 0.0000
# 5 0.0000 0.0000 0.0000 0.0000 28.8236 0.0000
# 6 0.7067 -0.7067 0.0000 0.0000 0.0000 34.4191
#
#
#
# Elastic Compliance Matrix: (Units=1/GPa)
#
#
# Indices 1 2 3 4 5 6 
#
# 1 0.030381 -0.013072 -0.008372 0.000000 0.000000 -0.000892
# 2 -0.013072 0.030381 -0.008372 0.000000 0.000000 0.000892
# 3 -0.008372 -0.008372 0.021004 0.000000 0.000000 0.000000
# 4 0.000000 0.000000 0.000000 0.034694 0.000000 0.000000
# 5 0.000000 0.000000 0.000000 0.000000 0.034694 0.000000
# 6 -0.000892 0.000892 0.000000 0.000000 0.000000 0.029090
#
#
# Mechanical properties :
#
#
# Convention : Reuss Voigt Hill
#
# Bulk Modulus (GPa) = 45.18310 46.16641 45.67475
# Shear Modulus (GPa) = 20.22215 24.02046 22.12130
#
# Velocity S-wave (km/s) = 3.26878 3.56257 3.41883
# Velocity P-wave (km/s) = 6.17416 6.42774 6.30223
#
# Compressibility (1/GPa) = 0.02213217
#
# Stress axis : x y z
#
# Youngs Moduli (GPa) = 32.91547 32.91547 47.61087
#
# Poissons Ratio (x) = 0.43028 0.39860
# Poissons Ratio (y) = 0.43028 0.39860
# Poissons Ratio (z) = 0.27557 0.27557
#
# Static dielectric constant tensor:
#      x y z
#    x 1.700960 0.000000 0.000000 
#    y 0.000000 1.700960 0.000000 
#    z 0.000000 0.000000 1.687510 
# 
# From -- ./inp_files/476.got.cif
#   From: 2010.05.17/outbox.cif.g08.bks.cpg/sg78_cif.got.tgz:476.got - 2010.06.03 18:45:56.
