data_PCOD9541137
_publ_section_title
;
Structure prediction by ZEFSAII (Michael W. Deem and Ramdas Pophale) SiO2 
 PCOD9541137
Probable space group: P 41
;
_chemical_formula_sum "Si O2"
_cell_formula_units_Z 32
_cell_length_a 9.260734
_cell_length_b 9.260734
_cell_length_c 19.053063
_cell_angle_alpha 90.000000
_cell_angle_beta 90.000000
_cell_angle_gamma 90.000000
_cell_volume 1634.013436
_symmetry_space_group_name_H-M "P 41"
_symmetry_group_IT_number 76
_symmetry_cell_setting 'tetragonal'
loop_
_space_group_symop_operation_xyz
x,y,z
-y,x,1/4+z
-x,-y,1/2+z
y,-x,3/4+z
loop_
_atom_site_type_symbol
_atom_site_label
_atom_site_fract_x
_atom_site_fract_y
_atom_site_fract_z
Si Si1 0.961432 0.596033 0.005840
Si Si2 0.830268 0.269332 0.752235
Si Si3 0.284428 0.484137 0.156306
Si Si4 0.850526 0.647362 0.244175
Si Si5 0.715570 0.484136 0.495959
Si Si6 0.269333 0.830266 0.650029
Si Si7 0.596032 0.961431 0.396424
Si Si8 0.647361 0.850528 0.158089
O O1 0.937732 0.500000 0.076132
O O2 0.880467 0.747339 0.011645
O O3 0.891721 0.505130 0.942178
O O4 0.132993 0.603843 0.995653
O O5 0.757250 0.363415 0.691261
O O6 0.815031 0.355706 0.825817
O O7 0.000826 0.260276 0.737611
O O8 0.403982 0.403985 0.201133
O O9 0.132992 0.396157 0.156612
O O10 0.331084 0.500000 0.076132
O O11 0.815030 0.644293 0.326447
O O12 0.891719 0.494872 0.210086
O O13 0.724239 0.724241 0.201132
O O14 0.757247 0.636584 0.461003
O O15 0.119534 0.747338 0.640619
O O16 0.260277 0.000824 0.664654
#
# Coordination Sequence:
#
# PCOD9541137 Si02
#       8
#     4   4   4   4   4   4   4   4
#     4  10  20  38  61  84 118 156 192 241 293 339
#     4  10  22  37  59  86 114 154 193 238 291 343
#     4  10  24  42  59  85 121 154 193 241 290 349
#     4  10  20  37  58  85 116 147 196 243 284 346
#     4  10  24  42  59  85 121 154 193 241 290 349
#     4  10  22  37  59  86 114 154 193 238 291 343
#     4  10  20  38  61  84 118 156 192 241 293 339
#     4  10  20  37  58  85 116 147 196 243 284 346
#
# _framework density 19.583683000000001
#
# number of rings (size 3 to 8) (size 9 to 14) (size 15 to 20)
#    0.000    2.000    2.500    0.000    3.500    3.000 
#    0.000    0.000    0.000    0.000    0.000    0.000 
#    0.000    0.000    0.000    0.000    0.000    0.000 
#
# Total GULP energy -178703.900605 kJ/mol
# GULP energy per Si atom -5584.496894 kJ/mol
# Density = 1.953911 g / cm^3
# Si number density = 19.583683 Si / 1000 Ang^3
#
#
#
# Elastic Constant Matrix: (Units=GPa)
#
#
# Indices 1 2 3 4 5 6 
#
# 1 19.6424 20.9658 7.1333 0.0000 0.0000 0.0000
# 2 20.9658 19.6424 7.1333 0.0000 0.0000 0.0000
# 3 7.1333 7.1333 107.9967 0.0000 0.0000 0.0000
# 4 0.0000 0.0000 0.0000 18.6895 0.0000 0.0000
# 5 0.0000 0.0000 0.0000 0.0000 18.6895 0.0000
# 6 0.0000 0.0000 0.0000 0.0000 0.0000 30.9937
#
#
#
# Elastic Compliance Matrix: (Units=1/GPa)
#
#
# Indices 1 2 3 4 5 6 
#
# 1 -0.365224 0.390435 -0.001665 0.000000 0.000000 0.000001
# 2 0.390435 -0.365224 -0.001665 0.000000 0.000000 -0.000001
# 3 -0.001665 -0.001665 0.009480 0.000000 0.000000 0.000000
# 4 0.000000 0.000000 0.000000 0.053506 0.000000 0.000000
# 5 0.000000 0.000000 0.000000 0.000000 0.053506 0.000000
# 6 0.000001 -0.000001 0.000000 0.000000 0.000000 0.032265
#
#
# Mechanical properties :
#
#
# Convention : Reuss Voigt Hill
#
# Bulk Modulus (GPa) = 18.78286 24.19401 21.48844
# Shear Modulus (GPa) = -3.73649 21.14448 8.70399
#
# Velocity S-wave (km/s) = -1.38279 3.28944 2.11049
# Velocity P-wave (km/s) = 2.65752 5.17767 4.11526
#
# Compressibility (1/GPa) = 0.05324002
#
# Stress axis : x y z
#
# Youngs Moduli (GPa) = -2.73804 -2.73804 105.49068
#
# Poissons Ratio (x) = 1.06903 0.17566
# Poissons Ratio (y) = 1.06903 0.17566
# Poissons Ratio (z) = -0.00456 -0.00456
#
# Static dielectric constant tensor:
#      x y z
#    x 1.661800 0.000000 0.000000 
#    y 0.000000 1.661800 0.000000 
#    z 0.000000 0.000000 1.696790 
# 
# From -- ./inp_files/1419.got.cif
#   From: 2010.05.17/outbox.cif.g08.bks.cpg/sg76_cif.got.tgz:1419.got - 2010.06.03 18:43:17.
