data_PCOD9541966
_publ_section_title
;
Structure prediction by ZEFSAII (Michael W. Deem and Ramdas Pophale) SiO2 
 PCOD9541966
Probable space group: I 4
;
_chemical_formula_sum "Si O2"
_cell_formula_units_Z 56
_cell_length_a 14.286142
_cell_length_b 14.286142
_cell_length_c 12.009426
_cell_angle_alpha 90.000000
_cell_angle_beta 90.000000
_cell_angle_gamma 90.000000
_cell_volume 2451.050028
_symmetry_space_group_name_H-M "I 4"
_symmetry_group_IT_number 79
_symmetry_cell_setting 'tetragonal'
loop_
_space_group_symop_operation_xyz
x,y,z
-y,x,z
-x,-y,z
y,-x,z
1/2+x,1/2+y,1/2+z
1/2-y,1/2+x,1/2+z
1/2-x,1/2-y,1/2+z
1/2+y,1/2-x,1/2+z
loop_
_atom_site_type_symbol
_atom_site_label
_atom_site_fract_x
_atom_site_fract_y
_atom_site_fract_z
Si Si1 0.209074 0.785366 0.331520
Si Si2 0.607692 0.288417 0.237885
Si Si3 0.567340 0.359546 0.664811
Si Si4 0.574653 0.817999 0.958358
Si Si5 0.527642 0.232749 0.465155
Si Si6 0.131089 0.663633 0.520778
Si Si7 0.874103 0.069515 0.555946
O O1 0.288701 0.716949 0.287761
O O2 0.120997 0.792987 0.250946
O O3 0.261152 0.885038 0.351671
O O4 0.179416 0.745990 0.450796
O O5 0.535268 0.265815 0.336620
O O6 0.596451 0.388216 0.177187
O O7 0.610302 0.206739 0.142764
O O8 0.619101 0.458278 0.679350
O O9 0.570618 0.313965 0.542521
O O10 0.644528 0.903069 0.975369
O O11 0.468920 0.853514 0.961752
O O12 0.584951 0.736135 0.050140
O O13 0.427143 0.197135 0.509913
O O14 0.965778 0.117516 0.501027
#
# Coordination Sequence:
#
# PCOD9541966 Si02
#       7
#     8   8   8   8   8   8   8
#     4  11  24  42  75  99 144 192 248 306 380 435
#     4  11  25  43  71 106 147 194 244 305 381 450
#     4  11  25  45  71 105 145 195 251 306 372 451
#     4  11  22  46  69 106 140 191 244 308 366 443
#     4  11  28  44  73 105 151 199 249 301 379 453
#     4  12  25  47  73 105 148 194 252 311 375 453
#     4  11  22  39  68 104 142 181 237 302 369 434
#
# _framework density 22.847352000000001
#
# number of rings (size 3 to 8) (size 9 to 14) (size 15 to 20)
#    0.000    0.857    2.857    3.000    8.000    2.286 
#    0.000    5.714    0.000    0.000    0.000    0.000 
#    0.000    0.000    0.000    0.000    0.000    0.000 
#
# Total GULP energy -156052.607636 kJ/mol
# GULP energy per Si atom -5573.307416 kJ/mol
# Density = 2.279535 g / cm^3
# Si number density = 22.847352 Si / 1000 Ang^3
#
#
#
# Elastic Constant Matrix: (Units=GPa)
#
#
# Indices 1 2 3 4 5 6 
#
# 1 88.3268 10.9831 12.4498 0.0000 0.0000 -2.5358
# 2 10.9831 88.3268 12.4498 0.0000 0.0000 2.5358
# 3 12.4498 12.4498 76.1020 0.0000 0.0000 0.0000
# 4 0.0000 0.0000 0.0000 23.6281 0.0000 0.0000
# 5 0.0000 0.0000 0.0000 0.0000 23.6281 0.0000
# 6 -2.5358 2.5358 0.0000 0.0000 0.0000 21.5376
#
#
#
# Elastic Compliance Matrix: (Units=1/GPa)
#
#
# Indices 1 2 3 4 5 6 
#
# 1 0.011765 -0.001265 -0.001718 0.000000 0.000000 0.001534
# 2 -0.001265 0.011765 -0.001718 0.000000 0.000000 -0.001534
# 3 -0.001718 -0.001718 0.013702 0.000000 0.000000 0.000000
# 4 0.000000 0.000000 0.000000 0.042322 0.000000 0.000000
# 5 0.000000 0.000000 0.000000 0.000000 0.042322 0.000000
# 6 0.001534 -0.001534 0.000000 0.000000 0.000000 0.046792
#
#
# Mechanical properties :
#
#
# Convention : Reuss Voigt Hill
#
# Bulk Modulus (GPa) = 35.93037 36.05788 35.99413
# Shear Modulus (GPa) = 26.68845 28.21696 27.45270
#
# Velocity S-wave (km/s) = 3.42148 3.51810 3.47013
# Velocity P-wave (km/s) = 5.60082 5.68498 5.64306
#
# Compressibility (1/GPa) = 0.02783161
#
# Stress axis : x y z
#
# Youngs Moduli (GPa) = 84.99764 84.99764 72.98054
#
# Poissons Ratio (x) = 0.10751 0.12536
# Poissons Ratio (y) = 0.10751 0.12536
# Poissons Ratio (z) = 0.14600 0.14600
#
# Static dielectric constant tensor:
#      x y z
#    x 1.960810 0.000000 0.000000 
#    y 0.000000 1.960810 0.000000 
#    z 0.000000 0.000000 1.958120 
# 
# From -- ./inp_files/1146.got.cif
#   From: 2010.05.17/outbox.cif.g08.bks.cpg/sg79_cif.got.tgz:1146.got - 2010.06.03 18:47:27.
