data_PCOD9541910
_publ_section_title
;
Structure prediction by ZEFSAII (Michael W. Deem and Ramdas Pophale) SiO2 
 PCOD9541910
Probable space group: I 4
;
_chemical_formula_sum "Si O2"
_cell_formula_units_Z 50
_cell_length_a 8.724032
_cell_length_b 8.724032
_cell_length_c 33.063914
_cell_angle_alpha 90.000000
_cell_angle_beta 90.000000
_cell_angle_gamma 90.000000
_cell_volume 2516.452647
_symmetry_space_group_name_H-M "I 4"
_symmetry_group_IT_number 79
_symmetry_cell_setting 'tetragonal'
loop_
_space_group_symop_operation_xyz
x,y,z
-y,x,z
-x,-y,z
y,-x,z
1/2+x,1/2+y,1/2+z
1/2-y,1/2+x,1/2+z
1/2-x,1/2-y,1/2+z
1/2+y,1/2-x,1/2+z
loop_
_atom_site_type_symbol
_atom_site_label
_atom_site_fract_x
_atom_site_fract_y
_atom_site_fract_z
Si Si1 0.095546 0.232144 0.442650
Si Si2 0.500000 0.500000 0.366248
Si Si3 0.255277 0.981539 0.641893
Si Si4 0.453265 0.753561 0.502030
Si Si5 0.434565 0.250288 0.776720
Si Si6 0.643397 0.892968 0.863144
Si Si7 0.000000 0.500000 0.210728
Si Si8 0.000000 0.500000 0.071289
O O1 0.144757 0.387239 0.465430
O O2 0.129861 0.256246 0.395363
O O3 0.920325 0.192137 0.453500
O O4 0.310136 0.472049 0.366017
O O5 0.136395 0.842790 0.642933
O O6 0.364550 0.955202 0.680254
O O7 0.356188 0.999706 0.601581
O O8 0.330292 0.615840 0.500398
O O9 0.466529 0.857239 0.541811
O O10 0.605810 0.319892 0.775612
O O11 0.391471 0.162406 0.817739
O O12 0.433258 0.133084 0.739411
O O13 0.500000 0.000000 0.874512
#
# Coordination Sequence:
#
# PCOD9541910 Si02
#       8
#     8   2   8   8   8   8   4   4
#     4  11  25  43  66  95 133 183 233 291 360 424
#     4  12  28  44  76 104 136 200 260 320 392 432
#     4  10  22  41  66  96 129 168 216 275 344 424
#     4  11  25  41  64  96 131 171 221 284 347 420
#     4  11  23  42  65  94 136 182 229 290 360 425
#     4  12  26  45  67 102 139 184 249 306 360 439
#     4  11  22  40  65  98 132 174 219 282 348 431
#     4  11  22  42  67  92 130 170 217 274 348 427
#
# _framework density 19.869240999999999
#
# number of rings (size 3 to 8) (size 9 to 14) (size 15 to 20)
#    0.000    0.960    0.800    5.760    5.600    1.280 
#    0.000    1.600    0.000    7.680    0.000    0.000 
#    0.000    0.000    0.000    0.000    0.000    0.000 
#
# Total GULP energy -139300.977514 kJ/mol
# GULP energy per Si atom -5572.039101 kJ/mol
# Density = 1.982402 g / cm^3
# Si number density = 19.869241 Si / 1000 Ang^3
#
#
#
# Elastic Constant Matrix: (Units=GPa)
#
#
# Indices 1 2 3 4 5 6 
#
# 1 84.1380 17.8336 19.2536 0.0000 0.0000 0.5471
# 2 17.8336 84.1380 19.2536 0.0000 0.0000 -0.5471
# 3 19.2536 19.2536 93.3681 0.0000 0.0000 0.0000
# 4 0.0000 0.0000 0.0000 4.0470 0.0000 0.0000
# 5 0.0000 0.0000 0.0000 0.0000 4.0470 0.0000
# 6 0.5471 -0.5471 0.0000 0.0000 0.0000 28.0513
#
#
#
# Elastic Compliance Matrix: (Units=1/GPa)
#
#
# Indices 1 2 3 4 5 6 
#
# 1 0.012861 -0.002226 -0.002193 0.000000 0.000000 -0.000294
# 2 -0.002226 0.012861 -0.002193 0.000000 0.000000 0.000294
# 3 -0.002193 -0.002193 0.011615 0.000000 0.000000 0.000000
# 4 0.000000 0.000000 0.000000 0.247096 0.000000 0.000000
# 5 0.000000 0.000000 0.000000 0.000000 0.247097 0.000000
# 6 -0.000294 0.000294 0.000000 0.000000 0.000000 0.035660
#
#
# Mechanical properties :
#
#
# Convention : Reuss Voigt Hill
#
# Bulk Modulus (GPa) = 41.47269 41.59175 41.53222
# Shear Modulus (GPa) = 8.49687 20.91595 14.70641
#
# Velocity S-wave (km/s) = 2.07019 3.24802 2.72354
# Velocity P-wave (km/s) = 5.16066 5.91983 5.55323
#
# Compressibility (1/GPa) = 0.02411226
#
# Stress axis : x y z
#
# Youngs Moduli (GPa) = 77.75560 77.75559 86.09740
#
# Poissons Ratio (x) = 0.17308 0.18881
# Poissons Ratio (y) = 0.17308 0.18881
# Poissons Ratio (z) = 0.17052 0.17052
#
# Static dielectric constant tensor:
#      x y z
#    x 1.938870 0.000000 0.000000 
#    y 0.000000 1.938870 0.000000 
#    z 0.000000 0.000000 1.677900 
# 
# From -- ./inp_files/2181.got.cif
#   From: 2010.05.17/outbox.cif.g08.bks.cpg/sg79_cif.got.tgz:2181.got - 2010.06.03 18:47:27.
