data_PCOD9541604
_publ_section_title
;
Structure prediction by ZEFSAII (Michael W. Deem and Ramdas Pophale) SiO2 
 PCOD9541604
Probable space group: P 43
;
_chemical_formula_sum "Si O2"
_cell_formula_units_Z 32
_cell_length_a 14.964328
_cell_length_b 14.964328
_cell_length_c 7.460219
_cell_angle_alpha 90.000000
_cell_angle_beta 90.000000
_cell_angle_gamma 90.000000
_cell_volume 1670.575140
_symmetry_space_group_name_H-M "P 43"
_symmetry_group_IT_number 78
_symmetry_cell_setting 'tetragonal'
loop_
_space_group_symop_operation_xyz
x,y,z
-y,x,3/4+z
-x,-y,1/2+z
y,-x,1/4+z
loop_
_atom_site_type_symbol
_atom_site_label
_atom_site_fract_x
_atom_site_fract_y
_atom_site_fract_z
Si Si1 0.704525 0.625419 0.457080
Si Si2 0.523717 0.610627 0.995670
Si Si3 0.812546 0.371634 0.732155
Si Si4 0.969731 0.443067 0.297829
Si Si5 0.808459 0.694118 0.107994
Si Si6 0.430251 0.834786 0.516741
Si Si7 0.005482 0.360136 0.691148
Si Si8 0.364809 0.212436 0.555927
O O1 0.630400 0.554049 0.394212
O O2 0.672428 0.719987 0.537817
O O3 0.757815 0.647351 0.273932
O O4 0.768419 0.584957 0.604741
O O5 0.584020 0.529173 0.067018
O O6 0.584140 0.699680 0.985528
O O7 0.825814 0.467029 0.821828
O O8 0.795682 0.386437 0.518568
O O9 0.908869 0.323853 0.753872
O O10 0.964186 0.550537 0.296868
O O11 0.879073 0.400962 0.222468
O O12 0.062879 0.416924 0.205052
O O13 0.984546 0.402482 0.495466
O O14 0.910985 0.706531 0.171430
O O15 0.742168 0.774212 0.051807
O O16 0.813645 0.630578 0.936117
#
# Coordination Sequence:
#
# PCOD9541604 Si02
#       8
#     4   4   4   4   4   4   4   4
#     4  11  20  39  55  71 114 146 178 229 274 319
#     4  12  23  36  50  72 107 158 198 221 268 317
#     4   9  18  35  55  76 104 144 180 227 274 315
#     4   9  19  32  55  76 103 133 182 226 282 325
#     4  10  21  35  54  79 106 139 179 224 273 328
#     4  10  20  37  53  81 106 140 181 230 275 325
#     4   9  18  32  53  79 104 132 181 231 272 321
#     4  10  19  36  53  74 108 148 179 226 276 326
#
# _framework density 19.155079000000001
#
# number of rings (size 3 to 8) (size 9 to 14) (size 15 to 20)
#    0.000    2.000    3.750    0.750    3.500    2.000 
#    9.000    0.000    0.000    0.000    0.000    0.000 
#   60.000    0.000    0.000    0.000    0.000    0.000 
#
# Total GULP energy -178503.452143 kJ/mol
# GULP energy per Si atom -5578.232879 kJ/mol
# Density = 1.911148 g / cm^3
# Si number density = 19.155079 Si / 1000 Ang^3
#
#
#
# Elastic Constant Matrix: (Units=GPa)
#
#
# Indices 1 2 3 4 5 6 
#
# 1 96.6406 43.9548 1.0545 0.0000 0.0000 0.7860
# 2 43.9548 96.6406 1.0545 0.0000 0.0000 -0.7860
# 3 1.0545 1.0545 35.9004 0.0000 0.0000 0.0000
# 4 0.0000 0.0000 0.0000 13.0706 0.0000 0.0000
# 5 0.0000 0.0000 0.0000 0.0000 13.0706 0.0000
# 6 0.7860 -0.7860 0.0000 0.0000 0.0000 34.2239
#
#
#
# Elastic Compliance Matrix: (Units=1/GPa)
#
#
# Indices 1 2 3 4 5 6 
#
# 1 0.013055 -0.005939 -0.000209 0.000000 0.000000 -0.000436
# 2 -0.005939 0.013055 -0.000209 0.000000 0.000000 0.000436
# 3 -0.000209 -0.000209 0.027867 0.000000 0.000000 0.000000
# 4 0.000000 0.000000 0.000000 0.076507 0.000000 0.000000
# 5 0.000000 0.000000 0.000000 0.000000 0.076507 0.000000
# 6 -0.000436 0.000436 0.000000 0.000000 0.000000 0.029239
#
#
# Mechanical properties :
#
#
# Convention : Reuss Voigt Hill
#
# Bulk Modulus (GPa) = 24.23502 35.70101 29.96801
# Shear Modulus (GPa) = 19.03324 24.28091 21.65707
#
# Velocity S-wave (km/s) = 3.15562 3.56419 3.36611
# Velocity P-wave (km/s) = 5.09478 5.96794 5.54856
#
# Compressibility (1/GPa) = 0.04126260
#
# Stress axis : x y z
#
# Youngs Moduli (GPa) = 76.60138 76.60138 35.88458
#
# Poissons Ratio (x) = 0.45492 0.00750
# Poissons Ratio (y) = 0.45492 0.00750
# Poissons Ratio (z) = 0.01601 0.01601
#
# Static dielectric constant tensor:
#      x y z
#    x 1.708330 0.000000 0.000000 
#    y 0.000000 1.708330 0.000000 
#    z 0.000000 0.000000 1.720600 
# 
# From -- ./inp_files/689.got.cif
#   From: 2010.05.17/outbox.cif.g08.bks.cpg/sg78_cif.got.tgz:689.got - 2010.06.03 18:45:56.
