data_PCOD9541286
_publ_section_title
;
Structure prediction by ZEFSAII (Michael W. Deem and Ramdas Pophale) SiO2 
 PCOD9541286
Probable space group: P 41
;
_chemical_formula_sum "Si O2"
_cell_formula_units_Z 20
_cell_length_a 5.283781
_cell_length_b 5.283781
_cell_length_c 25.707099
_cell_angle_alpha 90.000000
_cell_angle_beta 90.000000
_cell_angle_gamma 90.000000
_cell_volume 717.699573
_symmetry_space_group_name_H-M "P 41"
_symmetry_group_IT_number 76
_symmetry_cell_setting 'tetragonal'
loop_
_space_group_symop_operation_xyz
x,y,z
-y,x,1/4+z
-x,-y,1/2+z
y,-x,3/4+z
loop_
_atom_site_type_symbol
_atom_site_label
_atom_site_fract_x
_atom_site_fract_y
_atom_site_fract_z
Si Si1 0.621205 0.563361 0.520920
Si Si2 0.059676 0.650537 0.247721
Si Si3 0.840606 1.000000 0.329159
Si Si4 0.650539 0.059677 0.660597
Si Si5 0.563361 0.621205 0.387398
O O1 0.550356 0.284687 0.503200
O O2 0.499999 0.579388 0.579159
O O3 0.491145 0.793638 0.489172
O O4 0.903899 0.656200 0.533162
O O5 0.151362 0.848636 0.204159
O O6 0.020446 0.796409 0.302095
O O7 0.020447 0.203590 0.356223
O O8 0.656202 0.903899 0.375156
O O9 0.449645 0.284688 0.655118
O O10 0.508857 0.793638 0.669146
#
# Coordination Sequence:
#
# PCOD9541286 Si02
#       5
#     4   4   4   4   4
#     4  10  23  45  69 104 141 191 247 306 380 453
#     4  11  26  43  72 111 146 193 258 317 385 470
#     4  10  24  48  80 102 154 210 244 330 392 464
#     4  11  26  43  72 111 146 193 258 317 385 470
#     4  10  23  45  69 104 141 191 247 306 380 453
#
# _framework density 27.866811999999999
#
# number of rings (size 3 to 8) (size 9 to 14) (size 15 to 20)
#    0.000    1.600    0.000    3.600    5.600   16.000 
#    0.000    0.000    0.000    0.000    0.000    0.000 
#    0.000    0.000    0.000    0.000    0.000    0.000 
#
# Total GULP energy -112184.045641 kJ/mol
# GULP energy per Si atom -5609.202282 kJ/mol
# Density = 2.780339 g / cm^3
# Si number density = 27.866812 Si / 1000 Ang^3
#
#
#
# Elastic Constant Matrix: (Units=GPa)
#
#
# Indices 1 2 3 4 5 6 
#
# 1 180.2696 83.1579 46.9407 0.0000 0.0000 0.0000
# 2 83.1579 180.2696 46.9407 0.0000 0.0000 0.0000
# 3 46.9407 46.9407 73.9211 0.0000 0.0000 0.0000
# 4 0.0000 0.0000 0.0000 49.9042 0.0000 0.0000
# 5 0.0000 0.0000 0.0000 0.0000 49.9042 0.0000
# 6 0.0000 0.0000 0.0000 0.0000 0.0000 47.7712
#
#
#
# Elastic Compliance Matrix: (Units=1/GPa)
#
#
# Indices 1 2 3 4 5 6 
#
# 1 0.007602 -0.002695 -0.003116 0.000000 0.000000 0.000000
# 2 -0.002695 0.007602 -0.003116 0.000000 0.000000 0.000000
# 3 -0.003116 -0.003116 0.017485 0.000000 0.000000 0.000000
# 4 0.000000 0.000000 0.000000 0.020038 0.000000 0.000000
# 5 0.000000 0.000000 0.000000 0.000000 0.020038 0.000000
# 6 0.000000 0.000000 0.000000 0.000000 0.000000 0.020933
#
#
# Mechanical properties :
#
#
# Convention : Reuss Voigt Hill
#
# Bulk Modulus (GPa) = 67.40726 87.61541 77.51134
# Shear Modulus (GPa) = 42.91944 46.67735 44.79840
#
# Velocity S-wave (km/s) = 3.92875 4.09714 4.01383
# Velocity P-wave (km/s) = 6.69490 7.34105 7.02541
#
# Compressibility (1/GPa) = 0.01483520
#
# Stress axis : x y z
#
# Youngs Moduli (GPa) = 131.54517 131.54517 57.19220
#
# Poissons Ratio (x) = 0.35458 0.17819
# Poissons Ratio (y) = 0.35458 0.17819
# Poissons Ratio (z) = 0.40985 0.40985
#
# Static dielectric constant tensor:
#      x y z
#    x 2.154360 0.000000 0.000000 
#    y 0.000000 2.154360 0.000000 
#    z 0.000000 0.000000 2.407340 
# 
# From -- ./inp_files/1664.got.cif
#   From: 2010.05.17/outbox.cif.g08.bks.cpg/sg76_cif.got.tgz:1664.got - 2010.06.03 18:43:17.
