data_PCOD9541505
_publ_section_title
;
Structure prediction by ZEFSAII (Michael W. Deem and Ramdas Pophale) SiO2 
 PCOD9541505
Probable space group: P 42
;
_chemical_formula_sum "Si O2"
_cell_formula_units_Z 16
_cell_length_a 9.331055
_cell_length_b 9.331055
_cell_length_c 7.269718
_cell_angle_alpha 90.000000
_cell_angle_beta 90.000000
_cell_angle_gamma 90.000000
_cell_volume 632.964077
_symmetry_space_group_name_H-M "P 42"
_symmetry_group_IT_number 77
_symmetry_cell_setting 'tetragonal'
loop_
_space_group_symop_operation_xyz
x,y,z
-y,x,1/2+z
-x,-y,z
y,-x,1/2+z
loop_
_atom_site_type_symbol
_atom_site_label
_atom_site_fract_x
_atom_site_fract_y
_atom_site_fract_z
Si Si1 0.833941 0.970373 0.458770
Si Si2 0.666259 0.503423 0.147954
Si Si3 0.717646 0.201329 0.262402
Si Si4 0.805620 0.405563 0.784010
O O1 0.822497 0.850847 0.619151
O O2 0.726240 0.913818 0.298637
O O3 0.765895 0.129074 0.454252
O O4 0.000000 0.000000 0.418947
O O5 0.500000 0.500000 0.080876
O O6 0.696351 0.372058 0.285797
O O7 0.668404 0.655885 0.239914
O O8 0.778854 0.470466 0.988305
O O9 0.557393 0.160007 0.184648
#
# Coordination Sequence:
#
# PCOD9541505 Si02
#       4
#     4   4   4   4
#     4  11  24  43  63  95 140 182 223 277 348 417
#     4   9  18  36  65 100 131 168 224 289 347 401
#     4  10  22  41  66  95 134 180 225 281 343 412
#     4  10  21  40  68  98 133 180 236 291 343 412
#
# _framework density 25.277895000000001
#
# number of rings (size 3 to 8) (size 9 to 14) (size 15 to 20)
#    0.000    2.000    0.000    3.750    0.000    4.000 
#    0.000    8.750    0.000    0.000    0.000    0.000 
#    0.000    0.000    0.000    0.000    0.000    0.000 
#
# Total GULP energy -89073.832016 kJ/mol
# GULP energy per Si atom -5567.114501 kJ/mol
# Density = 2.522036 g / cm^3
# Si number density = 25.277895 Si / 1000 Ang^3
#
#
#
# Elastic Constant Matrix: (Units=GPa)
#
#
# Indices 1 2 3 4 5 6 
#
# 1 155.7022 97.1488 43.9697 0.0000 0.0000 12.7585
# 2 97.1488 155.7022 43.9697 0.0000 0.0000 -12.7585
# 3 43.9697 43.9697 40.5318 0.0000 0.0000 0.0000
# 4 0.0000 0.0000 0.0000 37.0946 0.0000 0.0000
# 5 0.0000 0.0000 0.0000 0.0000 37.0946 0.0000
# 6 12.7585 -12.7585 0.0000 0.0000 0.0000 60.2738
#
#
#
# Elastic Compliance Matrix: (Units=1/GPa)
#
#
# Indices 1 2 3 4 5 6 
#
# 1 0.012583 -0.006231 -0.006890 0.000000 0.000000 -0.003982
# 2 -0.006231 0.012583 -0.006890 0.000000 0.000000 0.003982
# 3 -0.006890 -0.006890 0.039620 0.000000 0.000000 0.000000
# 4 0.000000 0.000000 0.000000 0.026958 0.000000 0.000000
# 5 0.000000 0.000000 0.000000 0.000000 0.026958 0.000000
# 6 -0.003982 0.003982 0.000000 0.000000 0.000000 0.018277
#
#
# Mechanical properties :
#
#
# Convention : Reuss Voigt Hill
#
# Bulk Modulus (GPa) = 40.38222 80.23470 60.30846
# Shear Modulus (GPa) = 26.98981 38.01581 32.50281
#
# Velocity S-wave (km/s) = 3.27115 3.88224 3.58972
# Velocity P-wave (km/s) = 5.50247 7.20456 6.41026
#
# Compressibility (1/GPa) = 0.02476337
#
# Stress axis : x y z
#
# Youngs Moduli (GPa) = 79.47522 79.47522 25.23954
#
# Poissons Ratio (x) = 0.49524 0.17390
# Poissons Ratio (y) = 0.49524 0.17390
# Poissons Ratio (z) = 0.54757 0.54757
#
# Static dielectric constant tensor:
#      x y z
#    x 2.109470 0.000000 0.000000 
#    y 0.000000 2.109470 0.000000 
#    z 0.000000 0.000000 2.125100 
# 
# From -- ./inp_files/241.got.cif
#   From: 2010.05.17/outbox.cif.g08.bks.cpg/sg77_cif.got.tgz:241.got - 2010.06.03 18:44:51.
