data_PCOD9541078
_publ_section_title
;
Structure prediction by ZEFSAII (Michael W. Deem and Ramdas Pophale) SiO2 
 PCOD9541078
Probable space group: P 41
;
_chemical_formula_sum "Si O2"
_cell_formula_units_Z 32
_cell_length_a 9.132462
_cell_length_b 9.132462
_cell_length_c 21.462253
_cell_angle_alpha 90.000000
_cell_angle_beta 90.000000
_cell_angle_gamma 90.000000
_cell_volume 1789.991867
_symmetry_space_group_name_H-M "P 41"
_symmetry_group_IT_number 76
_symmetry_cell_setting 'tetragonal'
loop_
_space_group_symop_operation_xyz
x,y,z
-y,x,1/4+z
-x,-y,1/2+z
y,-x,3/4+z
loop_
_atom_site_type_symbol
_atom_site_label
_atom_site_fract_x
_atom_site_fract_y
_atom_site_fract_z
Si Si1 0.680910 0.846606 0.056640
Si Si2 0.328063 0.844926 0.054775
Si Si3 0.180460 0.161555 0.047235
Si Si4 0.181941 0.337333 0.169288
Si Si5 0.822898 0.322334 0.666231
Si Si6 0.162915 0.172961 0.799538
Si Si7 0.175263 0.322329 0.669237
Si Si8 0.827326 0.335388 0.172510
O O1 0.504310 0.863333 0.057066
O O2 0.737506 0.743292 0.111271
O O3 0.759023 0.003621 0.063470
O O4 0.722743 0.790502 0.987477
O O5 0.266028 0.762747 0.114369
O O6 0.248030 0.000717 0.053489
O O7 0.291816 0.766979 0.988451
O O8 0.229000 0.247998 0.109031
O O9 0.003742 0.155876 0.045446
O O10 0.244182 0.225244 0.982558
O O11 0.215199 0.507196 0.160289
O O12 0.004847 0.324995 0.172510
O O13 0.999316 0.305959 0.658228
O O14 0.210462 0.236946 0.732932
O O15 0.267593 0.218103 0.856513
O O16 0.208277 0.493800 0.677734
#
# Coordination Sequence:
#
# PCOD9541078 Si02
#       8
#     4   4   4   4   4   4   4   4
#     4  10  21  36  53  78 109 141 178 218 266 321
#     4  10  20  35  54  77 108 139 175 221 265 316
#     4  10  18  33  57  81 103 134 175 219 266 315
#     4   8  18  35  52  75 105 134 169 216 266 312
#     4   9  19  36  54  74 103 138 174 216 261 312
#     4  10  19  34  58  82 106 138 179 223 269 323
#     4  10  20  36  56  78 107 140 177 221 266 317
#     4   9  19  35  54  79 109 136 171 222 271 314
#
# _framework density 17.877175000000001
#
# number of rings (size 3 to 8) (size 9 to 14) (size 15 to 20)
#    0.000    2.500    0.000    3.750    0.000    7.000 
#    0.000   11.250    0.000    0.000    0.000    0.000 
#    0.000    0.000    0.000    0.000    0.000    0.000 
#
# Total GULP energy -178406.061874 kJ/mol
# GULP energy per Si atom -5575.189434 kJ/mol
# Density = 1.783649 g / cm^3
# Si number density = 17.877175 Si / 1000 Ang^3
#
#
#
# Elastic Constant Matrix: (Units=GPa)
#
#
# Indices 1 2 3 4 5 6 
#
# 1 59.7129 34.2500 73.2884 0.0000 0.0000 -3.6292
# 2 34.2500 59.7129 73.2884 0.0000 0.0000 3.6292
# 3 73.2884 73.2884 187.3515 0.0000 0.0000 0.0000
# 4 0.0000 0.0000 0.0000 11.2472 0.0000 0.0000
# 5 0.0000 0.0000 0.0000 0.0000 11.2472 0.0000
# 6 -3.6292 3.6292 0.0000 0.0000 0.0000 -16.9578
#
#
#
# Elastic Compliance Matrix: (Units=1/GPa)
#
#
# Indices 1 2 3 4 5 6 
#
# 1 0.032159 -0.004855 -0.010681 0.000000 0.000000 -0.007922
# 2 -0.004855 0.032159 -0.010681 0.000000 0.000000 0.007922
# 3 -0.010681 -0.010681 0.013694 0.000000 0.000000 0.000000
# 4 0.000000 0.000000 0.000000 0.088911 0.000000 0.000000
# 5 0.000000 0.000000 0.000000 0.000000 0.088911 0.000000
# 6 -0.007922 0.007922 0.000000 0.000000 0.000000 -0.055579
#
#
# Mechanical properties :
#
#
# Convention : Reuss Voigt Hill
#
# Bulk Modulus (GPa) = 39.09535 74.27011 56.68273
# Shear Modulus (GPa) = 19.14129 9.50401 14.32265
#
# Velocity S-wave (km/s) = 3.27572 2.30821 2.83356
# Velocity P-wave (km/s) = 6.01859 6.98130 6.51775
#
# Compressibility (1/GPa) = 0.02557849
#
# Stress axis : x y z
#
# Youngs Moduli (GPa) = 31.09523 31.09523 73.02576
#
# Poissons Ratio (x) = 0.15098 0.77997
# Poissons Ratio (y) = 0.15098 0.77997
# Poissons Ratio (z) = 0.33212 0.33212
#
# Static dielectric constant tensor:
#      x y z
#    x 1.598500 0.000000 0.000000 
#    y 0.000000 1.598500 0.000000 
#    z 0.000000 0.000000 1.633910 
# 
# From -- ./inp_files/1441.got.cif
#   From: 2010.05.17/outbox.cif.g08.bks.cpg/sg76_cif.got.tgz:1441.got - 2010.06.03 18:43:17.
