data_PCOD9541345
_publ_section_title
;
Structure prediction by ZEFSAII (Michael W. Deem and Ramdas Pophale) SiO2 
 PCOD9541345
Probable space group: P 41
;
_chemical_formula_sum "Si O2"
_cell_formula_units_Z 28
_cell_length_a 12.538024
_cell_length_b 12.538024
_cell_length_c 9.861086
_cell_angle_alpha 90.000000
_cell_angle_beta 90.000000
_cell_angle_gamma 90.000000
_cell_volume 1550.182893
_symmetry_space_group_name_H-M "P 41"
_symmetry_group_IT_number 76
_symmetry_cell_setting 'tetragonal'
loop_
_space_group_symop_operation_xyz
x,y,z
-y,x,1/4+z
-x,-y,1/2+z
y,-x,3/4+z
loop_
_atom_site_type_symbol
_atom_site_label
_atom_site_fract_x
_atom_site_fract_y
_atom_site_fract_z
Si Si1 0.375216 0.161968 0.817010
Si Si2 0.135815 0.389817 0.444289
Si Si3 0.487346 0.608339 0.964642
Si Si4 0.270203 0.702127 0.837755
Si Si5 0.086065 0.383667 0.124713
Si Si6 0.322128 0.233451 0.532018
Si Si7 0.626124 0.906534 0.798539
O O1 0.497928 0.164655 0.765347
O O2 0.309600 0.205954 0.688998
O O3 0.353228 0.037702 0.852703
O O4 0.351202 0.234822 0.946863
O O5 0.110030 0.401184 0.284678
O O6 0.229977 0.307409 0.471537
O O7 0.026987 0.349119 0.511192
O O8 0.461652 0.543213 0.099482
O O9 0.568484 0.702114 0.004119
O O10 0.377756 0.652028 0.900992
O O11 0.297780 0.827443 0.824054
O O12 0.175729 0.677248 0.942965
O O13 0.104056 0.497105 0.049769
O O14 0.332356 0.125880 0.445952
#
# Coordination Sequence:
#
# PCOD9541345 Si02
#       7
#     4   4   4   4   4   4   4
#     4  11  26  38  64  99 125 161 228 264 312 383
#     4  11  23  41  67  91 129 176 216 262 319 389
#     4  12  25  38  60  92 136 170 201 256 327 395
#     4  12  22  40  63  92 125 168 209 264 326 378
#     4  11  21  42  64  90 132 165 212 269 317 383
#     4  12  23  43  62  92 132 169 211 269 318 390
#     4  11  22  40  66  90 121 175 221 250 319 384
#
# _framework density 18.062384999999999
#
# number of rings (size 3 to 8) (size 9 to 14) (size 15 to 20)
#    0.000    0.571    7.143    0.857    4.000    2.286 
#    0.000    0.000    0.000    5.143    0.000    0.000 
#    0.000    0.000    0.000    0.000    0.000    0.000 
#
# Total GULP energy -156485.271653 kJ/mol
# GULP energy per Si atom -5588.759702 kJ/mol
# Density = 1.802127 g / cm^3
# Si number density = 18.062385 Si / 1000 Ang^3
#
#
#
# Elastic Constant Matrix: (Units=GPa)
#
#
# Indices 1 2 3 4 5 6 
#
# 1 74.4033 45.1254 29.6972 0.0000 0.0000 1.0911
# 2 45.1254 74.4033 29.6972 0.0000 0.0000 -1.0911
# 3 29.6972 29.6972 114.0406 0.0000 0.0000 0.0000
# 4 0.0000 0.0000 0.0000 35.7533 0.0000 0.0000
# 5 0.0000 0.0000 0.0000 0.0000 35.7533 0.0000
# 6 1.0911 -1.0911 0.0000 0.0000 0.0000 21.9925
#
#
#
# Elastic Compliance Matrix: (Units=1/GPa)
#
#
# Indices 1 2 3 4 5 6 
#
# 1 0.021946 -0.012336 -0.002502 0.000000 0.000000 -0.001701
# 2 -0.012336 0.021946 -0.002502 0.000000 0.000000 0.001701
# 3 -0.002502 -0.002502 0.010072 0.000000 0.000000 0.000000
# 4 0.000000 0.000000 0.000000 0.027969 0.000000 0.000000
# 5 0.000000 0.000000 0.000000 0.000000 0.027969 0.000000
# 6 -0.001701 0.001701 0.000000 0.000000 0.000000 0.045639
#
#
# Mechanical properties :
#
#
# Convention : Reuss Voigt Hill
#
# Bulk Modulus (GPa) = 51.86269 52.43187 52.14728
# Shear Modulus (GPa) = 25.42571 29.25497 27.34034
#
# Velocity S-wave (km/s) = 3.75595 4.02887 3.89480
# Velocity P-wave (km/s) = 6.89819 7.12275 7.01137
#
# Compressibility (1/GPa) = 0.01928168
#
# Stress axis : x y z
#
# Youngs Moduli (GPa) = 45.56651 45.56651 99.28392
#
# Poissons Ratio (x) = 0.56212 0.24845
# Poissons Ratio (y) = 0.56212 0.24845
# Poissons Ratio (z) = 0.11403 0.11403
#
# Static dielectric constant tensor:
#      x y z
#    x 1.610820 0.000000 0.000000 
#    y 0.000000 1.610820 0.000000 
#    z 0.000000 0.000000 1.624000 
# 
# From -- ./inp_files/604.got.cif
#   From: 2010.05.17/outbox.cif.g08.bks.cpg/sg76_cif.got.tgz:604.got - 2010.06.03 18:43:17.
