data_PCOD9541918
_publ_section_title
;
Structure prediction by ZEFSAII (Michael W. Deem and Ramdas Pophale) SiO2 
 PCOD9541918
Probable space group: I 4
;
_chemical_formula_sum "Si O2"
_cell_formula_units_Z 40
_cell_length_a 10.729751
_cell_length_b 10.729751
_cell_length_c 13.602171
_cell_angle_alpha 90.000000
_cell_angle_beta 90.000000
_cell_angle_gamma 90.000000
_cell_volume 1565.984711
_symmetry_space_group_name_H-M "I 4"
_symmetry_group_IT_number 79
_symmetry_cell_setting 'tetragonal'
loop_
_space_group_symop_operation_xyz
x,y,z
-y,x,z
-x,-y,z
y,-x,z
1/2+x,1/2+y,1/2+z
1/2-y,1/2+x,1/2+z
1/2-x,1/2-y,1/2+z
1/2+y,1/2-x,1/2+z
loop_
_atom_site_type_symbol
_atom_site_label
_atom_site_fract_x
_atom_site_fract_y
_atom_site_fract_z
Si Si1 0.163796 0.115502 0.783210
Si Si2 0.500000 0.500000 0.064679
Si Si3 0.000000 0.500000 0.174841
Si Si4 0.500000 0.500000 0.759880
Si Si5 0.709539 0.956008 0.516188
Si Si6 0.762918 0.684325 0.478035
Si Si7 0.746558 0.868606 0.209304
O O1 0.192253 0.103529 0.898424
O O2 0.249888 0.225263 0.743931
O O3 0.027291 0.162874 0.751784
O O4 0.351205 0.463514 0.053303
O O5 0.108606 0.449845 0.102964
O O6 0.063124 0.614898 0.231287
O O7 0.356987 0.446569 0.755319
O O8 0.708679 0.823686 0.462129
O O9 0.683225 0.087343 0.462484
O O10 0.742149 0.639465 0.589977
#
# Coordination Sequence:
#
# PCOD9541918 Si02
#       7
#     8   2   4   2   8   8   8
#     4  11  29  51  76 113 157 209 265 320 392 478
#     4   8  16  36  57  96 149 188 240 310 353 452
#     4  10  22  42  70 110 148 206 256 302 398 456
#     4  12  28  44  81 116 157 210 252 336 397 452
#     4   9  19  37  66 106 142 193 251 307 375 456
#     4  10  23  43  74 109 149 202 255 316 389 461
#     4  11  27  47  78 114 164 201 262 327 396 470
#
# _framework density 25.543032
#
# number of rings (size 3 to 8) (size 9 to 14) (size 15 to 20)
#    0.000    1.800    0.000    1.200   16.800    1.600 
#    0.000    4.000    0.000    0.000    0.000    0.000 
#    0.000    0.000    0.000    0.000    0.000    0.000 
#
# Total GULP energy -111504.575994 kJ/mol
# GULP energy per Si atom -5575.228800 kJ/mol
# Density = 2.548490 g / cm^3
# Si number density = 25.543032 Si / 1000 Ang^3
#
#
#
# Elastic Constant Matrix: (Units=GPa)
#
#
# Indices 1 2 3 4 5 6 
#
# 1 112.1962 26.1589 -13.8727 0.0000 0.0000 -6.5026
# 2 26.1589 112.1962 -13.8727 0.0000 0.0000 6.5026
# 3 -13.8727 -13.8727 46.3020 0.0000 0.0000 0.0000
# 4 0.0000 0.0000 0.0000 19.5338 0.0000 0.0000
# 5 0.0000 0.0000 0.0000 0.0000 19.5338 0.0000
# 6 -6.5026 6.5026 0.0000 0.0000 0.0000 60.7891
#
#
#
# Elastic Compliance Matrix: (Units=1/GPa)
#
#
# Indices 1 2 3 4 5 6 
#
# 1 0.009752 -0.002062 0.002304 0.000000 0.000000 0.001264
# 2 -0.002062 0.009752 0.002304 0.000000 0.000000 -0.001264
# 3 0.002304 0.002304 0.022978 0.000000 0.000000 0.000000
# 4 0.000000 0.000000 0.000000 0.051193 0.000000 0.000000
# 5 0.000000 0.000000 0.000000 0.000000 0.051193 0.000000
# 6 0.001264 -0.001264 0.000000 0.000000 0.000000 0.016721
#
#
# Mechanical properties :
#
#
# Convention : Reuss Voigt Hill
#
# Bulk Modulus (GPa) = 21.02012 29.72459 25.37236
# Shear Modulus (GPa) = 29.00990 38.12341 33.56666
#
# Velocity S-wave (km/s) = 3.37371 3.86750 3.62901
# Velocity P-wave (km/s) = 4.83974 5.62190 5.24542
#
# Compressibility (1/GPa) = 0.04757346
#
# Stress axis : x y z
#
# Youngs Moduli (GPa) = 102.54467 102.54468 43.51999
#
# Poissons Ratio (x) = 0.21145 -0.10027
# Poissons Ratio (y) = 0.21145 -0.10027
# Poissons Ratio (z) = -0.23626 -0.23626
#
# Static dielectric constant tensor:
#      x y z
#    x 1.954090 0.000000 0.000000 
#    y 0.000000 1.954090 0.000000 
#    z 0.000000 0.000000 2.102570 
# 
# From -- ./inp_files/1339.got.cif
#   From: 2010.05.17/outbox.cif.g08.bks.cpg/sg79_cif.got.tgz:1339.got - 2010.06.03 18:47:27.
