data_PCOD9541812
_publ_section_title
;
Structure prediction by ZEFSAII (Michael W. Deem and Ramdas Pophale) SiO2 
 PCOD9541812
Probable space group: I 4
;
_chemical_formula_sum "Si O2"
_cell_formula_units_Z 64
_cell_length_a 11.047172
_cell_length_b 11.047172
_cell_length_c 26.034162
_cell_angle_alpha 90.000000
_cell_angle_beta 90.000000
_cell_angle_gamma 90.000000
_cell_volume 3177.209370
_symmetry_space_group_name_H-M "I 4"
_symmetry_group_IT_number 79
_symmetry_cell_setting 'tetragonal'
loop_
_space_group_symop_operation_xyz
x,y,z
-y,x,z
-x,-y,z
y,-x,z
1/2+x,1/2+y,1/2+z
1/2-y,1/2+x,1/2+z
1/2-x,1/2-y,1/2+z
1/2+y,1/2-x,1/2+z
loop_
_atom_site_type_symbol
_atom_site_label
_atom_site_fract_x
_atom_site_fract_y
_atom_site_fract_z
Si Si1 0.191386 0.257458 0.315920
Si Si2 0.799935 0.235861 0.991566
Si Si3 0.751988 0.648924 0.720131
Si Si4 0.011005 0.639549 0.748907
Si Si5 0.642867 0.031697 0.043914
Si Si6 0.678749 0.091851 0.162189
Si Si7 0.661610 0.386448 0.383841
Si Si8 0.312694 0.577539 0.917696
O O1 0.171796 0.158312 0.271641
O O2 0.192491 0.383070 0.284028
O O3 0.314960 0.245544 0.348447
O O4 0.096921 0.251441 0.362597
O O5 0.822205 0.146418 0.943305
O O6 0.761943 0.362330 0.964089
O O7 0.696281 0.159751 0.021788
O O8 0.920762 0.271816 0.023458
O O9 0.774145 0.517631 0.697712
O O10 0.698463 0.726582 0.673534
O O11 0.879627 0.696997 0.742841
O O12 0.057298 0.634856 0.690072
O O13 0.000000 0.500000 0.766552
O O14 0.658934 0.047686 0.105051
O O15 0.500000 0.000000 0.032859
O O16 0.662659 0.527261 0.373013
O O17 0.347534 0.438015 0.920614
#
# Coordination Sequence:
#
# PCOD9541812 Si02
#       8
#     8   8   8   8   8   8   8   8
#     4  10  21  33  59  87 113 164 206 249 309 377
#     4  11  23  41  63  89 126 165 214 273 337 394
#     4  10  20  37  56  83 125 155 201 245 311 386
#     4   9  19  36  55  81 121 159 194 249 304 370
#     4  12  24  41  68  97 124 170 225 276 343 412
#     4  10  22  38  60  88 120 160 198 263 316 374
#     4  10  19  36  55  82 118 155 195 254 305 373
#     4  10  23  41  59  85 125 168 216 276 332 396
#
# _framework density 20.143464000000002
#
# number of rings (size 3 to 8) (size 9 to 14) (size 15 to 20)
#    0.000    1.750    1.250    3.375    5.250    0.500 
#    0.000    2.500    0.000    3.375    0.000    3.500 
#    0.000    0.000    0.000    0.000    0.000    0.000 
#
# Total GULP energy -178248.431333 kJ/mol
# GULP energy per Si atom -5570.263479 kJ/mol
# Density = 2.009762 g / cm^3
# Si number density = 20.143464 Si / 1000 Ang^3
#
#
#
# Elastic Constant Matrix: (Units=GPa)
#
#
# Indices 1 2 3 4 5 6 
#
# 1 9.0213 72.1268 32.2194 0.0000 0.0000 -2.5490
# 2 72.1268 9.0213 32.2194 0.0000 0.0000 2.5490
# 3 32.2194 32.2194 135.3951 0.0000 0.0000 0.0000
# 4 0.0000 0.0000 0.0000 20.1146 0.0000 0.0000
# 5 0.0000 0.0000 0.0000 0.0000 20.1146 0.0000
# 6 -2.5490 2.5490 0.0000 0.0000 0.0000 31.2778
#
#
#
# Elastic Compliance Matrix: (Units=1/GPa)
#
#
# Indices 1 2 3 4 5 6 
#
# 1 -0.000274 0.015469 -0.003616 0.000000 0.000000 -0.001283
# 2 0.015469 -0.000274 -0.003616 0.000000 0.000000 0.001283
# 3 -0.003616 -0.003616 0.009107 0.000000 0.000000 0.000000
# 4 0.000000 0.000000 0.000000 0.049715 0.000000 0.000000
# 5 0.000000 0.000000 0.000000 0.000000 0.049715 0.000000
# 6 -0.001283 0.001283 0.000000 0.000000 0.000000 0.031762
#
#
# Mechanical properties :
#
#
# Convention : Reuss Voigt Hill
#
# Bulk Modulus (GPa) = 39.94821 47.39654 43.67237
# Shear Modulus (GPa) = 37.98800 15.42623 26.70712
#
# Velocity S-wave (km/s) = 4.34737 2.77034 3.64517
# Velocity P-wave (km/s) = 6.71375 5.81495 6.28045
#
# Compressibility (1/GPa) = 0.02503241
#
# Stress axis : x y z
#
# Youngs Moduli (GPa) = -3646.42474 -3646.42404 109.81004
#
# Poissons Ratio (x) = 56.40508 0.39704
# Poissons Ratio (y) = 56.40509 0.39704
# Poissons Ratio (z) = -13.18451 -13.18451
#
# Static dielectric constant tensor:
#      x y z
#    x 1.775170 0.000000 0.000000 
#    y 0.000000 1.775170 0.000000 
#    z 0.000000 0.000000 1.706870 
# 
# From -- ./inp_files/2000.got.cif
#   From: 2010.05.17/outbox.cif.g08.bks.cpg/sg79_cif.got.tgz:2000.got - 2010.06.03 18:47:27.
