data_PCOD9541764
_publ_section_title
;
Structure prediction by ZEFSAII (Michael W. Deem and Ramdas Pophale) SiO2 
 PCOD9541764
Probable space group: P 43
;
_chemical_formula_sum "Si O2"
_cell_formula_units_Z 20
_cell_length_a 4.755472
_cell_length_b 4.755472
_cell_length_c 32.965486
_cell_angle_alpha 90.000000
_cell_angle_beta 90.000000
_cell_angle_gamma 90.000000
_cell_volume 745.498443
_symmetry_space_group_name_H-M "P 43"
_symmetry_group_IT_number 78
_symmetry_cell_setting 'tetragonal'
loop_
_space_group_symop_operation_xyz
x,y,z
-y,x,3/4+z
-x,-y,1/2+z
y,-x,1/4+z
loop_
_atom_site_type_symbol
_atom_site_label
_atom_site_fract_x
_atom_site_fract_y
_atom_site_fract_z
Si Si1 0.490667 0.984264 0.329140
Si Si2 0.290656 0.170270 0.508325
Si Si3 0.380770 0.353277 0.008445
Si Si4 0.008471 0.995639 0.883395
Si Si5 0.983354 0.509272 0.437644
O O1 0.309992 0.775174 0.300675
O O2 0.246855 0.123323 0.356105
O O3 0.731768 0.868582 0.358815
O O4 0.681254 0.165881 0.298112
O O5 0.599878 0.306213 0.508358
O O6 0.166037 0.318686 0.468530
O O7 0.340554 0.839610 0.508400
O O8 0.224311 0.309448 0.966264
O O9 0.878690 0.246673 0.910580
O O10 0.133937 0.731572 0.908063
#
# Coordination Sequence:
#
# PCOD9541764 Si02
#       5
#     4   4   4   4   4
#     4  11  28  46  72 115 150 204 262 317 394 462
#     4  11  24  47  78 105 149 204 259 318 379 473
#     4  11  24  47  78 105 149 204 259 318 379 473
#     4  12  28  46  76 112 160 202 256 328 392 458
#     4  11  28  46  72 115 150 204 262 317 394 462
#
# _framework density 26.827684999999999
#
# number of rings (size 3 to 8) (size 9 to 14) (size 15 to 20)
#    0.000    0.800    0.000    4.800   16.800    6.400 
#    0.000    0.000    0.000    0.000    0.000    0.000 
#    0.000    0.000    0.000    0.000    0.000    0.000 
#
# Total GULP energy -111682.392003 kJ/mol
# GULP energy per Si atom -5584.119600 kJ/mol
# Density = 2.676662 g / cm^3
# Si number density = 26.827685 Si / 1000 Ang^3
#
#
#
# Elastic Constant Matrix: (Units=GPa)
#
#
# Indices 1 2 3 4 5 6 
#
# 1 121.4323 26.1303 53.1173 0.0000 0.0000 1.4574
# 2 26.1303 121.4323 53.1173 0.0000 0.0000 -1.4574
# 3 53.1173 53.1173 132.3290 0.0000 0.0000 0.0000
# 4 0.0000 0.0000 0.0000 24.5599 0.0000 0.0000
# 5 0.0000 0.0000 0.0000 0.0000 24.5599 0.0000
# 6 1.4574 -1.4574 0.0000 0.0000 0.0000 52.1166
#
#
#
# Elastic Compliance Matrix: (Units=1/GPa)
#
#
# Indices 1 2 3 4 5 6 
#
# 1 0.010017 -0.000485 -0.003826 0.000000 0.000000 -0.000294
# 2 -0.000485 0.010017 -0.003826 0.000000 0.000000 0.000294
# 3 -0.003826 -0.003826 0.010628 0.000000 0.000000 0.000000
# 4 0.000000 0.000000 0.000000 0.040717 0.000000 0.000000
# 5 0.000000 0.000000 0.000000 0.000000 0.040717 0.000000
# 6 -0.000294 0.000294 0.000000 0.000000 0.000000 0.019204
#
#
# Mechanical properties :
#
#
# Convention : Reuss Voigt Hill
#
# Bulk Modulus (GPa) = 69.50598 71.10261 70.30429
# Shear Modulus (GPa) = 32.81510 36.43586 34.62548
#
# Velocity S-wave (km/s) = 3.50119 3.68930 3.59648
# Velocity P-wave (km/s) = 6.50454 6.68647 6.59613
#
# Compressibility (1/GPa) = 0.01438725
#
# Stress axis : x y z
#
# Youngs Moduli (GPa) = 99.83506 99.83506 94.08824
#
# Poissons Ratio (x) = 0.04846 0.35996
# Poissons Ratio (y) = 0.04846 0.35996
# Poissons Ratio (z) = 0.38195 0.38195
#
# Static dielectric constant tensor:
#      x y z
#    x 2.113750 0.000000 0.000000 
#    y 0.000000 2.113750 0.000000 
#    z 0.000000 0.000000 2.164840 
# 
# From -- ./inp_files/1720.got.cif
#   From: 2010.05.17/outbox.cif.g08.bks.cpg/sg78_cif.got.tgz:1720.got - 2010.06.03 18:45:56.
