data_PCOD9541060
_publ_section_title
;
Structure prediction by ZEFSAII (Michael W. Deem and Ramdas Pophale) SiO2 
 PCOD9541060
Probable space group: P 4
;
_chemical_formula_sum "Si O2"
_cell_formula_units_Z 24
_cell_length_a 7.187806
_cell_length_b 7.187806
_cell_length_c 17.585154
_cell_angle_alpha 90.000000
_cell_angle_beta 90.000000
_cell_angle_gamma 90.000000
_cell_volume 908.529158
_symmetry_space_group_name_H-M "P 4"
_symmetry_group_IT_number 75
_symmetry_cell_setting 'tetragonal'
loop_
_space_group_symop_operation_xyz
x,y,z
-y,x,z
-x,-y,z
y,-x,z
loop_
_atom_site_type_symbol
_atom_site_label
_atom_site_fract_x
_atom_site_fract_y
_atom_site_fract_z
Si Si1 0.642519 0.780617 0.571630
Si Si2 0.718805 0.139701 0.318929
Si Si3 0.000000 0.500000 0.445483
Si Si4 0.500000 0.000000 0.026225
Si Si5 0.860299 0.718804 0.152778
Si Si6 0.350756 0.221496 0.735854
Si Si7 0.219383 0.642520 0.900077
O O1 0.420612 0.736522 0.569049
O O2 0.660167 0.912938 0.499419
O O3 0.691449 0.867150 0.654092
O O4 0.586888 0.159381 0.391161
O O5 0.764165 0.918554 0.321718
O O6 0.634940 0.182483 0.235854
O O7 0.413112 0.840619 0.080546
O O8 0.660167 0.912938 0.972288
O O9 0.081446 0.764165 0.149989
O O10 0.572825 0.260404 0.735854
O O11 0.308551 0.132850 0.817615
O O12 0.263478 0.420612 0.902658
#
# Coordination Sequence:
#
# PCOD9541060 Si02
#       7
#     4   4   2   2   4   4   4
#     4   9  18  31  46  66  93 122 150 182 220 263
#     4   9  19  35  50  64  88 122 153 179 216 272
#     4  12  19  27  48  76  94 108 144 195 235 256
#     4  12  19  27  48  76  94 108 144 195 235 256
#     4   9  19  35  50  64  88 122 153 179 216 272
#     4   7  12  27  46  60  84 124 156 174 206 262
#     4   9  18  31  46  66  93 122 150 182 220 263
#
# _framework density 26.416322999999998
#
# number of rings (size 3 to 8) (size 9 to 14) (size 15 to 20)
#    0.000    2.833    0.000    5.500    0.000    0.667 
#    0.000    0.000    0.000    0.000    0.000   14.000 
#    0.000   21.333    0.000    0.000    0.000    0.000 
#
# Total GULP energy -134105.977415 kJ/mol
# GULP energy per Si atom -5587.749059 kJ/mol
# Density = 2.635620 g / cm^3
# Si number density = 26.416323 Si / 1000 Ang^3
#
#
#
# Elastic Constant Matrix: (Units=GPa)
#
#
# Indices 1 2 3 4 5 6 
#
# 1 60.0759 -7.6190 7.1518 0.0000 0.0000 11.3469
# 2 -7.6190 60.0759 7.1518 0.0000 0.0000 -11.3469
# 3 7.1518 7.1518 208.7040 0.0000 0.0000 0.0000
# 4 0.0000 0.0000 0.0000 19.3068 0.0000 0.0000
# 5 0.0000 0.0000 0.0000 0.0000 19.3068 0.0000
# 6 11.3469 -11.3469 0.0000 0.0000 0.0000 22.0926
#
#
#
# Elastic Compliance Matrix: (Units=1/GPa)
#
#
# Indices 1 2 3 4 5 6 
#
# 1 0.018544 0.000699 -0.000659 0.000000 0.000000 -0.009165
# 2 0.000699 0.018544 -0.000659 0.000000 0.000000 0.009165
# 3 -0.000659 -0.000659 0.004837 0.000000 0.000000 0.000000
# 4 0.000000 0.000000 0.000000 0.051795 0.000000 0.000000
# 5 0.000000 0.000000 0.000000 0.000000 0.051795 0.000000
# 6 -0.009165 0.009165 0.000000 0.000000 0.000000 0.054679
#
#
# Mechanical properties :
#
#
# Convention : Reuss Voigt Hill
#
# Bulk Modulus (GPa) = 24.57900 38.02500 31.30200
# Shear Modulus (GPa) = 23.25644 33.61933 28.43789
#
# Velocity S-wave (km/s) = 2.97034 3.57132 3.28461
# Velocity P-wave (km/s) = 4.59223 5.60639 5.12446
#
# Compressibility (1/GPa) = 0.04068513
#
# Stress axis : x y z
#
# Youngs Moduli (GPa) = 53.92620 53.92620 206.75395
#
# Poissons Ratio (x) = -0.03770 0.13634
# Poissons Ratio (y) = -0.03770 0.13634
# Poissons Ratio (z) = 0.03556 0.03556
#
# Static dielectric constant tensor:
#      x y z
#    x 2.060750 0.000000 0.000000 
#    y 0.000000 2.060750 0.000000 
#    z 0.000000 0.000000 2.208890 
# 
# From -- ./inp_files/714.got.cif
#   From: 2010.05.17/outbox.cif.g08.bks.cpg/sg75_cif.got.tgz:714.got - 2010.06.03 18:42:43.
