data_PCOD9541440
_publ_section_title
;
Structure prediction by ZEFSAII (Michael W. Deem and Ramdas Pophale) SiO2 
 PCOD9541440
Probable space group: P 41
;
_chemical_formula_sum "Si O2"
_cell_formula_units_Z 20
_cell_length_a 8.897955
_cell_length_b 8.897955
_cell_length_c 10.493382
_cell_angle_alpha 90.000000
_cell_angle_beta 90.000000
_cell_angle_gamma 90.000000
_cell_volume 830.798863
_symmetry_space_group_name_H-M "P 41"
_symmetry_group_IT_number 76
_symmetry_cell_setting 'tetragonal'
loop_
_space_group_symop_operation_xyz
x,y,z
-y,x,1/4+z
-x,-y,1/2+z
y,-x,3/4+z
loop_
_atom_site_type_symbol
_atom_site_label
_atom_site_fract_x
_atom_site_fract_y
_atom_site_fract_z
Si Si1 0.226184 0.002355 0.504930
Si Si2 0.016155 0.265089 0.486625
Si Si3 0.293774 0.297060 0.876395
Si Si4 0.210381 0.520151 0.374903
Si Si5 0.649129 0.693505 0.669402
O O1 0.079701 0.097708 0.465945
O O2 0.339699 0.120311 0.567251
O O3 0.305151 0.936129 0.379962
O O4 0.204585 0.854010 0.585947
O O5 0.092949 0.384845 0.395412
O O6 0.839399 0.290969 0.491570
O O7 0.421452 0.262879 0.766360
O O8 0.291962 0.476936 0.878038
O O9 0.282764 0.283174 0.029772
O O10 0.320267 0.450105 0.263366
#
# Coordination Sequence:
#
# PCOD9541440 Si02
#       5
#     4   4   4   4   4
#     4  12  26  50  75 112 162 211 264 335 406 484
#     4  12  26  50  75 112 162 211 264 335 406 484
#     4  12  29  50  84 122 159 213 277 334 414 495
#     4  12  28  52  78 114 168 210 266 346 410 480
#     4  12  29  50  84 122 159 213 277 334 414 495
#
# _framework density 24.073215000000001
#
# number of rings (size 3 to 8) (size 9 to 14) (size 15 to 20)
#    0.000    0.000    6.000    2.400    2.800    1.600 
#    0.000    0.000    0.000    0.000    0.000    0.000 
#    0.000    0.000    0.000    0.000    0.000    0.000 
#
# Total GULP energy -111389.410885 kJ/mol
# GULP energy per Si atom -5569.470544 kJ/mol
# Density = 2.401842 g / cm^3
# Si number density = 24.073215 Si / 1000 Ang^3
#
#
#
# Elastic Constant Matrix: (Units=GPa)
#
#
# Indices 1 2 3 4 5 6 
#
# 1 44.1761 72.4065 3.5889 0.0000 0.0000 2.4084
# 2 72.4065 44.1761 3.5889 0.0000 0.0000 -2.4084
# 3 3.5889 3.5889 95.1395 0.0000 0.0000 0.0000
# 4 0.0000 0.0000 0.0000 43.7305 0.0000 0.0000
# 5 0.0000 0.0000 0.0000 0.0000 43.7305 0.0000
# 6 2.4084 -2.4084 0.0000 0.0000 0.0000 15.4691
#
#
#
# Elastic Compliance Matrix: (Units=1/GPa)
#
#
# Indices 1 2 3 4 5 6 
#
# 1 -0.012954 0.021552 -0.000324 0.000000 0.000000 0.005372
# 2 0.021552 -0.012954 -0.000324 0.000000 0.000000 -0.005372
# 3 -0.000324 -0.000324 0.010535 0.000000 0.000000 0.000000
# 4 0.000000 0.000000 0.000000 0.022867 0.000000 0.000000
# 5 0.000000 0.000000 0.000000 0.000000 0.022867 0.000000
# 6 0.005372 -0.005372 0.000000 0.000000 0.000000 0.062972
#
#
# Mechanical properties :
#
#
# Convention : Reuss Voigt Hill
#
# Bulk Modulus (GPa) = 37.83117 38.07335 37.95226
# Shear Modulus (GPa) = 82.86630 27.51318 55.18974
#
# Velocity S-wave (km/s) = 5.87344 3.38434 4.79328
# Velocity P-wave (km/s) = 7.85784 5.57868 6.81422
#
# Compressibility (1/GPa) = 0.02643323
#
# Stress axis : x y z
#
# Youngs Moduli (GPa) = -77.19431 -77.19431 94.91851
#
# Poissons Ratio (x) = 1.66368 0.03078
# Poissons Ratio (y) = 1.66368 0.03078
# Poissons Ratio (z) = -0.02504 -0.02504
#
# Static dielectric constant tensor:
#      x y z
#    x 1.886950 0.000000 0.000000 
#    y 0.000000 1.886950 0.000000 
#    z 0.000000 0.000000 1.684630 
# 
# From -- ./inp_files/439.got.cif
#   From: 2010.05.17/outbox.cif.g08.bks.cpg/sg76_cif.got.tgz:439.got - 2010.06.03 18:43:17.
