data_PCOD9541787
_publ_section_title
;
Structure prediction by ZEFSAII (Michael W. Deem and Ramdas Pophale) SiO2 
 PCOD9541787
Probable space group: P 43
;
_chemical_formula_sum "Si O2"
_cell_formula_units_Z 20
_cell_length_a 9.505712
_cell_length_b 9.505712
_cell_length_c 9.963267
_cell_angle_alpha 90.000000
_cell_angle_beta 90.000000
_cell_angle_gamma 90.000000
_cell_volume 900.266465
_symmetry_space_group_name_H-M "P 43"
_symmetry_group_IT_number 78
_symmetry_cell_setting 'tetragonal'
loop_
_space_group_symop_operation_xyz
x,y,z
-y,x,3/4+z
-x,-y,1/2+z
y,-x,1/4+z
loop_
_atom_site_type_symbol
_atom_site_label
_atom_site_fract_x
_atom_site_fract_y
_atom_site_fract_z
Si Si1 0.043498 0.648369 0.273970
Si Si2 0.998534 0.674228 0.765156
Si Si3 0.229109 0.173341 0.755981
Si Si4 0.553428 0.388158 0.426403
Si Si5 0.304606 0.213085 0.287933
O O1 0.125424 0.686286 0.137574
O O2 0.147435 0.643215 0.399438
O O3 0.973304 0.493768 0.269602
O O4 0.925845 0.770169 0.291820
O O5 0.084356 0.730919 0.637997
O O6 0.832572 0.696206 0.756200
O O7 0.049347 0.755300 0.898145
O O8 0.299694 0.304475 0.679196
O O9 0.574400 0.519508 0.328994
O O10 0.424097 0.303637 0.361230
#
# Coordination Sequence:
#
# PCOD9541787 Si02
#       5
#     4   4   4   4   4
#     4  12  27  46  76 109 153 200 254 314 379 455
#     4  12  26  48  75 106 158 197 252 320 378 450
#     4  12  26  49  74 110 155 198 255 314 383 457
#     4  12  27  48  74 111 143 200 256 317 373 452
#     4  12  26  47  75 108 151 201 251 311 383 446
#
# _framework density 22.215647000000001
#
# number of rings (size 3 to 8) (size 9 to 14) (size 15 to 20)
#    0.000    0.000    4.000    4.800    5.600    4.800 
#    0.000    0.000    0.000    0.000    0.000    0.000 
#    0.000    0.000    0.000    0.000    0.000    0.000 
#
# Total GULP energy -111992.856461 kJ/mol
# GULP energy per Si atom -5599.642823 kJ/mol
# Density = 2.216508 g / cm^3
# Si number density = 22.215647 Si / 1000 Ang^3
#
#
#
# Elastic Constant Matrix: (Units=GPa)
#
#
# Indices 1 2 3 4 5 6 
#
# 1 49.4649 6.2307 -20.8810 0.0000 0.0000 -3.0906
# 2 6.2307 49.4649 -20.8810 0.0000 0.0000 3.0906
# 3 -20.8810 -20.8810 69.5180 0.0000 0.0000 0.0000
# 4 0.0000 0.0000 0.0000 37.2364 0.0000 0.0000
# 5 0.0000 0.0000 0.0000 0.0000 37.2364 0.0000
# 6 -3.0906 3.0906 0.0000 0.0000 0.0000 34.9571
#
#
#
# Elastic Compliance Matrix: (Units=1/GPa)
#
#
# Indices 1 2 3 4 5 6 
#
# 1 0.023300 -0.000126 0.006961 0.000000 0.000000 0.002071
# 2 -0.000126 0.023300 0.006961 0.000000 0.000000 -0.002071
# 3 0.006961 0.006961 0.018566 0.000000 0.000000 0.000000
# 4 0.000000 0.000000 0.000000 0.026855 0.000000 0.000000
# 5 0.000000 0.000000 0.000000 0.000000 0.026855 0.000000
# 6 0.002071 -0.002071 0.000000 0.000000 0.000000 0.028973
#
#
# Mechanical properties :
#
#
# Convention : Reuss Voigt Hill
#
# Bulk Modulus (GPa) = 10.78077 10.82057 10.80067
# Shear Modulus (GPa) = 33.07362 35.48461 34.27911
#
# Velocity S-wave (km/s) = 3.86262 4.00093 3.93239
# Velocity P-wave (km/s) = 4.97559 5.12099 5.04881
#
# Compressibility (1/GPa) = 0.09275771
#
# Stress axis : x y z
#
# Youngs Moduli (GPa) = 42.91842 42.91842 53.86087
#
# Poissons Ratio (x) = 0.00540 -0.37491
# Poissons Ratio (y) = 0.00540 -0.37491
# Poissons Ratio (z) = -0.29875 -0.29875
#
# Static dielectric constant tensor:
#      x y z
#    x 1.817890 0.000000 0.000000 
#    y 0.000000 1.817890 0.000000 
#    z 0.000000 0.000000 1.769410 
# 
# From -- ./inp_files/436.got.cif
#   From: 2010.05.17/outbox.cif.g08.bks.cpg/sg78_cif.got.tgz:436.got - 2010.06.03 18:45:56.
