data_PCOD9541220
_publ_section_title
;
Structure prediction by ZEFSAII (Michael W. Deem and Ramdas Pophale) SiO2 
 PCOD9541220
Probable space group: P 41
;
_chemical_formula_sum "Si O2"
_cell_formula_units_Z 20
_cell_length_a 6.692792
_cell_length_b 6.692792
_cell_length_c 21.367461
_cell_angle_alpha 90.000000
_cell_angle_beta 90.000000
_cell_angle_gamma 90.000000
_cell_volume 957.122611
_symmetry_space_group_name_H-M "P 41"
_symmetry_group_IT_number 76
_symmetry_cell_setting 'tetragonal'
loop_
_space_group_symop_operation_xyz
x,y,z
-y,x,1/4+z
-x,-y,1/2+z
y,-x,3/4+z
loop_
_atom_site_type_symbol
_atom_site_label
_atom_site_fract_x
_atom_site_fract_y
_atom_site_fract_z
Si Si1 0.967920 0.833538 0.347510
Si Si2 0.653944 0.053041 0.270487
Si Si3 0.219606 0.536156 0.403882
Si Si4 0.399318 0.204485 0.944058
Si Si5 0.911230 0.348579 0.635878
O O1 0.783198 0.807834 0.395012
O O2 0.092528 0.627710 0.345939
O O3 0.858008 0.935186 0.289073
O O4 0.139721 0.974158 0.376206
O O5 0.714101 0.281675 0.254138
O O6 0.491272 0.055134 0.325724
O O7 0.560585 0.929829 0.212824
O O8 0.424103 0.653872 0.419229
O O9 0.287502 0.314293 0.393157
O O10 0.516580 0.994410 0.943173
#
# Coordination Sequence:
#
# PCOD9541220 Si02
#       5
#     4   4   4   4   4
#     4   9  21  40  57  82 117 152 193 239 286 349
#     4  10  22  38  60  87 119 159 193 237 303 353
#     4  10  22  40  60  86 120 153 197 246 290 351
#     4   9  21  39  58  85 119 152 194 242 289 349
#     4  10  22  39  61  88 119 156 199 246 294 350
#
# _framework density 20.895962999999998
#
# number of rings (size 3 to 8) (size 9 to 14) (size 15 to 20)
#    0.000    2.400    0.000    0.000    0.000   19.200 
#    0.000    0.000    0.000    0.000    0.000    0.000 
#    0.000    0.000    0.000    0.000    0.000    0.000 
#
# Total GULP energy -111455.005357 kJ/mol
# GULP energy per Si atom -5572.750268 kJ/mol
# Density = 2.084840 g / cm^3
# Si number density = 20.895963 Si / 1000 Ang^3
#
#
#
# Elastic Constant Matrix: (Units=GPa)
#
#
# Indices 1 2 3 4 5 6 
#
# 1 151.1792 62.6613 30.0485 0.0000 0.0000 13.8859
# 2 62.6613 151.1792 30.0485 0.0000 0.0000 -13.8859
# 3 30.0485 30.0485 57.8949 0.0000 0.0000 0.0000
# 4 0.0000 0.0000 0.0000 25.5051 0.0000 0.0000
# 5 0.0000 0.0000 0.0000 0.0000 25.5051 0.0000
# 6 13.8859 -13.8859 0.0000 0.0000 0.0000 31.9241
#
#
#
# Elastic Compliance Matrix: (Units=1/GPa)
#
#
# Indices 1 2 3 4 5 6 
#
# 1 0.009279 -0.003804 -0.002842 0.000000 0.000000 -0.005690
# 2 -0.003804 0.009279 -0.002842 0.000000 0.000000 0.005690
# 3 -0.002842 -0.002842 0.020222 0.000000 0.000000 0.000000
# 4 0.000000 0.000000 0.000000 0.039208 0.000000 0.000000
# 5 0.000000 0.000000 0.000000 0.000000 0.039208 0.000000
# 6 -0.005690 0.005690 0.000000 0.000000 0.000000 0.036275
#
#
# Mechanical properties :
#
#
# Convention : Reuss Voigt Hill
#
# Bulk Modulus (GPa) = 50.49001 67.30775 58.89888
# Shear Modulus (GPa) = 27.92580 32.41988 30.17284
#
# Velocity S-wave (km/s) = 3.65968 3.94317 3.80406
# Velocity P-wave (km/s) = 6.48634 7.28095 6.89510
#
# Compressibility (1/GPa) = 0.01980590
#
# Stress axis : x y z
#
# Youngs Moduli (GPa) = 107.77340 107.77340 49.45015
#
# Poissons Ratio (x) = 0.40994 0.14052
# Poissons Ratio (y) = 0.40994 0.14052
# Poissons Ratio (z) = 0.30625 0.30625
#
# Static dielectric constant tensor:
#      x y z
#    x 1.760900 0.000000 0.000000 
#    y 0.000000 1.760900 0.000000 
#    z 0.000000 0.000000 1.863870 
# 
# From -- ./inp_files/1352.got.cif
#   From: 2010.05.17/outbox.cif.g08.bks.cpg/sg76_cif.got.tgz:1352.got - 2010.06.03 18:43:17.
