data_PCOD9541067
_publ_section_title
;
Structure prediction by ZEFSAII (Michael W. Deem and Ramdas Pophale) SiO2 
 PCOD9541067
Probable space group: P 4
;
_chemical_formula_sum "Si O2"
_cell_formula_units_Z 32
_cell_length_a 12.000000
_cell_length_b 12.000000
_cell_length_c 12.000000
_cell_angle_alpha 90.000000
_cell_angle_beta 90.000000
_cell_angle_gamma 90.000000
_cell_volume 1728.000000
_symmetry_space_group_name_H-M "P 4"
_symmetry_group_IT_number 75
_symmetry_cell_setting 'tetragonal'
loop_
_space_group_symop_operation_xyz
x,y,z
-y,x,z
-x,-y,z
y,-x,z
loop_
_atom_site_type_symbol
_atom_site_label
_atom_site_fract_x
_atom_site_fract_y
_atom_site_fract_z
Si Si1 0.412162 0.816824 0.615580
Si Si2 0.184512 0.947950 0.967487
Si Si3 0.267230 0.129742 0.315784
Si Si4 0.001021 0.625338 0.800626
Si Si5 0.893522 0.697262 0.197557
Si Si6 0.485155 0.868608 0.372448
Si Si7 0.163636 0.075875 0.544699
Si Si8 0.788812 0.337464 0.680621
O O1 0.393177 0.932204 0.684252
O O2 0.412806 0.827401 0.479955
O O3 0.536444 0.776018 0.641986
O O4 0.324632 0.730396 0.668089
O O5 0.269702 0.945171 0.862869
O O6 0.074462 0.867968 0.970054
O O7 0.265553 0.913455 0.070125
O O8 0.198328 0.217847 0.244966
O O9 0.387391 0.174191 0.360077
O O10 0.186691 0.091547 0.415306
O O11 0.288933 0.016878 0.248543
O O12 0.000000 0.500000 0.853346
O O13 0.132331 0.655376 0.789027
O O14 0.856489 0.579419 0.254267
O O15 0.500000 0.000000 0.395851
O O16 0.269120 0.128710 0.601306
O O17 0.051778 0.142315 0.575129
#
# Coordination Sequence:
#
# PCOD9541067 Si02
#       8
#     4   4   4   4   4   4   4   4
#     4  11  22  38  61  87 123 161 202 251 309 364
#     4  11  23  41  63  88 122 157 199 255 312 359
#     4  11  20  34  55  85 118 152 199 236 297 365
#     4  10  23  40  63  87 119 159 203 254 303 367
#     4  11  22  36  59  84 118 158 191 249 294 361
#     4  10  22  35  55  86 120 159 197 239 295 363
#     4  11  21  31  52  83 118 155 192 239 294 368
#     4  11  22  37  58  85 119 159 204 245 301 363
#
# _framework density 18.518519000000001
#
# number of rings (size 3 to 8) (size 9 to 14) (size 15 to 20)
#    0.000    1.250    3.750    3.375    3.500    2.000 
#    0.000    1.250    0.000    0.375    0.000    0.000 
#    0.000    0.000    0.000    0.000    0.000    0.000 
#
# Total GULP energy -178239.289380 kJ/mol
# GULP energy per Si atom -5569.977793 kJ/mol
# Density = 1.847637 g / cm^3
# Si number density = 18.518519 Si / 1000 Ang^3
#
#
#
# Elastic Constant Matrix: (Units=GPa)
#
#
# Indices 1 2 3 4 5 6 
#
# 1 105.2724 39.6040 29.5768 0.0000 0.0000 1.0663
# 2 39.6040 105.2724 29.5768 0.0000 0.0000 -1.0663
# 3 29.5768 29.5768 63.5020 0.0000 0.0000 0.0000
# 4 0.0000 0.0000 0.0000 23.3469 0.0000 0.0000
# 5 0.0000 0.0000 0.0000 0.0000 23.3469 0.0000
# 6 1.0663 -1.0663 0.0000 0.0000 0.0000 25.6046
#
#
#
# Elastic Compliance Matrix: (Units=1/GPa)
#
#
# Indices 1 2 3 4 5 6 
#
# 1 0.011886 -0.003363 -0.003970 0.000000 0.000000 -0.000635
# 2 -0.003363 0.011886 -0.003970 0.000000 0.000000 0.000635
# 3 -0.003970 -0.003970 0.019446 0.000000 0.000000 0.000000
# 4 0.000000 0.000000 0.000000 0.042832 0.000000 0.000000
# 5 0.000000 0.000000 0.000000 0.000000 0.042832 0.000000
# 6 -0.000635 0.000635 0.000000 0.000000 0.000000 0.039108
#
#
# Mechanical properties :
#
#
# Convention : Reuss Voigt Hill
#
# Bulk Modulus (GPa) = 48.51344 52.39577 50.45461
# Shear Modulus (GPa) = 25.32082 26.14564 25.73323
#
# Velocity S-wave (km/s) = 3.70175 3.76155 3.73177
# Velocity P-wave (km/s) = 6.67268 6.87174 6.77294
#
# Compressibility (1/GPa) = 0.02061284
#
# Stress axis : x y z
#
# Youngs Moduli (GPa) = 84.13271 84.13271 51.42574
#
# Poissons Ratio (x) = 0.28291 0.20415
# Poissons Ratio (y) = 0.28291 0.20415
# Poissons Ratio (z) = 0.33399 0.33399
#
# Static dielectric constant tensor:
#      x y z
#    x 1.658410 0.000000 0.000000 
#    y 0.000000 1.658410 0.000000 
#    z 0.000000 0.000000 1.697520 
# 
# From -- ./inp_files/610.got.cif
#   From: 2010.05.17/outbox.ucp.g08.bks.cvg/sg75_cif.got.tgz:610.got - 2010.06.11 16:41:55.
