data_PCOD9541565
_publ_section_title
;
Structure prediction by ZEFSAII (Michael W. Deem and Ramdas Pophale) SiO2 
 PCOD9541565
Probable space group: P 42
;
_chemical_formula_sum "Si O2"
_cell_formula_units_Z 16
_cell_length_a 5.102923
_cell_length_b 5.102923
_cell_length_c 23.282835
_cell_angle_alpha 90.000000
_cell_angle_beta 90.000000
_cell_angle_gamma 90.000000
_cell_volume 606.280906
_symmetry_space_group_name_H-M "P 42"
_symmetry_group_IT_number 77
_symmetry_cell_setting 'tetragonal'
loop_
_space_group_symop_operation_xyz
x,y,z
-y,x,1/2+z
-x,-y,z
y,-x,1/2+z
loop_
_atom_site_type_symbol
_atom_site_label
_atom_site_fract_x
_atom_site_fract_y
_atom_site_fract_z
Si Si1 0.500000 0.000000 0.735801
Si Si2 0.747545 0.815825 0.141186
Si Si3 0.822352 0.733015 0.012099
Si Si4 0.500000 0.000000 0.929121
Si Si5 0.752065 0.691534 0.834807
O O1 0.621625 0.215675 0.693807
O O2 0.290718 0.144983 0.776482
O O3 0.752426 0.683801 0.078543
O O4 0.500000 0.000000 0.146175
O O5 0.000000 0.000000 0.142907
O O6 0.000000 0.500000 0.988912
O O7 0.000000 0.000000 0.009010
O O8 0.559326 0.775381 0.975886
O O9 0.274305 0.087175 0.884329
O O10 0.500000 0.500000 0.842151
O O11 0.000000 0.500000 0.835672
#
# Coordination Sequence:
#
# PCOD9541565 Si02
#       5
#     2   4   4   2   4
#     4  11  28  48  80 112 168 218 285 366 432 516
#     4  11  26  48  77 120 166 216 275 342 428 515
#     4  11  25  47  77 119 166 217 275 338 424 513
#     4  11  26  46  80 114 170 218 277 360 420 510
#     4  11  29  51  79 117 161 222 291 352 433 499
#
# _framework density 26.390404
#
# number of rings (size 3 to 8) (size 9 to 14) (size 15 to 20)
#    0.000    1.000    2.500    0.750   14.000    2.000 
#    0.000    0.000    0.000    0.000    0.000    0.000 
#    0.000    0.000    0.000    0.000    0.000    0.000 
#
# Total GULP energy -89612.842690 kJ/mol
# GULP energy per Si atom -5600.802668 kJ/mol
# Density = 2.633034 g / cm^3
# Si number density = 26.390404 Si / 1000 Ang^3
#
#
#
# Elastic Constant Matrix: (Units=GPa)
#
#
# Indices 1 2 3 4 5 6 
#
# 1 182.2410 86.0344 49.7459 0.0000 0.0000 -3.6858
# 2 86.0344 182.2410 49.7459 0.0000 0.0000 3.6858
# 3 49.7459 49.7459 208.0023 0.0000 0.0000 0.0000
# 4 0.0000 0.0000 0.0000 1.0249 0.0000 0.0000
# 5 0.0000 0.0000 0.0000 0.0000 1.0249 0.0000
# 6 -3.6858 3.6858 0.0000 0.0000 0.0000 83.0660
#
#
#
# Elastic Compliance Matrix: (Units=1/GPa)
#
#
# Indices 1 2 3 4 5 6 
#
# 1 0.007260 -0.003170 -0.000978 0.000000 0.000000 0.000463
# 2 -0.003170 0.007260 -0.000978 0.000000 0.000000 -0.000463
# 3 -0.000978 -0.000978 0.005276 0.000000 0.000000 0.000000
# 4 0.000000 0.000000 0.000000 0.975690 0.000000 0.000000
# 5 0.000000 0.000000 0.000000 0.000000 0.975690 0.000000
# 6 0.000463 -0.000463 0.000000 0.000000 0.000000 0.012080
#
#
# Mechanical properties :
#
#
# Convention : Reuss Voigt Hill
#
# Bulk Modulus (GPa) = 104.78666 104.83741 104.81204
# Shear Modulus (GPa) = 2.50414 42.82038 22.66226
#
# Velocity S-wave (km/s) = 0.97516 4.03249 2.93359
# Velocity P-wave (km/s) = 6.40784 7.84175 7.16078
#
# Compressibility (1/GPa) = 0.00954320
#
# Stress axis : x y z
#
# Youngs Moduli (GPa) = 137.74053 137.74053 189.55373
#
# Poissons Ratio (x) = 0.43660 0.18543
# Poissons Ratio (y) = 0.43660 0.18543
# Poissons Ratio (z) = 0.13474 0.13474
#
# Static dielectric constant tensor:
#      x y z
#    x 2.085560 0.000000 0.000000 
#    y 0.000000 2.085560 0.000000 
#    z 0.000000 0.000000 2.057720 
# 
# From -- ./inp_files/1489.got.cif
#   From: 2010.05.17/outbox.cif.g08.bks.cpg/sg77_cif.got.tgz:1489.got - 2010.06.03 18:44:51.
