data_PCOD9541358
_publ_section_title
;
Structure prediction by ZEFSAII (Michael W. Deem and Ramdas Pophale) SiO2 
 PCOD9541358
Probable space group: P 41
;
_chemical_formula_sum "Si O2"
_cell_formula_units_Z 28
_cell_length_a 12.275905
_cell_length_b 12.275905
_cell_length_c 9.513134
_cell_angle_alpha 90.000000
_cell_angle_beta 90.000000
_cell_angle_gamma 90.000000
_cell_volume 1433.608779
_symmetry_space_group_name_H-M "P 41"
_symmetry_group_IT_number 76
_symmetry_cell_setting 'tetragonal'
loop_
_space_group_symop_operation_xyz
x,y,z
-y,x,1/4+z
-x,-y,1/2+z
y,-x,3/4+z
loop_
_atom_site_type_symbol
_atom_site_label
_atom_site_fract_x
_atom_site_fract_y
_atom_site_fract_z
Si Si1 0.134410 0.637640 0.475630
Si Si2 0.270458 0.358914 0.844415
Si Si3 0.265722 0.743674 0.050415
Si Si4 0.099035 0.380553 0.088543
Si Si5 0.635018 0.932435 0.905922
Si Si6 0.407429 0.535663 0.003062
Si Si7 0.177412 0.397880 0.559283
O O1 0.237331 0.698161 0.544702
O O2 0.097124 0.664043 0.316831
O O3 0.163891 0.509682 0.475258
O O4 0.026960 0.649127 0.570712
O O5 0.359550 0.426704 0.931854
O O6 0.247527 0.419656 0.698106
O O7 0.164093 0.362843 0.943163
O O8 0.139171 0.715054 0.059730
O O9 0.311116 0.768765 0.205914
O O10 0.306377 0.841239 0.953013
O O11 0.323618 0.634527 0.993784
O O12 0.103848 0.508977 0.128736
O O13 0.639923 0.058987 0.864957
O O14 0.512741 0.568277 0.914749
#
# Coordination Sequence:
#
# PCOD9541358 Si02
#       7
#     4   4   4   4   4   4   4
#     4  11  24  41  67  94 132 174 223 272 323 396
#     4  12  23  42  63  96 130 173 213 274 328 399
#     4  12  23  43  64  92 132 171 213 272 334 389
#     4  11  24  43  63  97 131 169 225 271 322 390
#     4  11  22  42  65  93 131 167 221 278 315 400
#     4  12  27  39  60  94 139 170 208 265 330 406
#     4  11  25  38  68  94 125 174 225 260 340 390
#
# _framework density 19.531130999999998
#
# number of rings (size 3 to 8) (size 9 to 14) (size 15 to 20)
#    0.000    0.571    7.143    0.857    4.000    1.143 
#    0.000    0.000    0.000    5.143    0.000    0.000 
#    0.000    0.000    0.000    0.000    0.000    0.000 
#
# Total GULP energy -156465.535821 kJ/mol
# GULP energy per Si atom -5588.054851 kJ/mol
# Density = 1.948668 g / cm^3
# Si number density = 19.531131 Si / 1000 Ang^3
#
#
#
# Elastic Constant Matrix: (Units=GPa)
#
#
# Indices 1 2 3 4 5 6 
#
# 1 58.6566 28.7557 9.3558 0.0000 0.0000 0.0257
# 2 28.7557 58.6566 9.3558 0.0000 0.0000 -0.0257
# 3 9.3558 9.3558 77.1770 0.0000 0.0000 0.0000
# 4 0.0000 0.0000 0.0000 31.3110 0.0000 0.0000
# 5 0.0000 0.0000 0.0000 0.0000 31.3110 0.0000
# 6 0.0257 -0.0257 0.0000 0.0000 0.0000 19.6975
#
#
#
# Elastic Compliance Matrix: (Units=1/GPa)
#
#
# Indices 1 2 3 4 5 6 
#
# 1 0.022594 -0.010849 -0.001424 0.000000 0.000000 -0.000044
# 2 -0.010849 0.022594 -0.001424 0.000000 0.000000 0.000044
# 3 -0.001424 -0.001424 0.013302 0.000000 0.000000 0.000000
# 4 0.000000 0.000000 0.000000 0.031938 0.000000 0.000000
# 5 0.000000 0.000000 0.000000 0.000000 0.031938 0.000000
# 6 -0.000044 0.000044 0.000000 0.000000 0.000000 0.050768
#
#
# Mechanical properties :
#
#
# Convention : Reuss Voigt Hill
#
# Bulk Modulus (GPa) = 32.15748 32.15833 32.15790
# Shear Modulus (GPa) = 23.70859 26.26545 24.98702
#
# Velocity S-wave (km/s) = 3.48787 3.67113 3.58067
# Velocity P-wave (km/s) = 5.72021 5.87116 5.79617
#
# Compressibility (1/GPa) = 0.03109696
#
# Stress axis : x y z
#
# Youngs Moduli (GPa) = 44.25893 44.25893 75.17427
#
# Poissons Ratio (x) = 0.48019 0.10703
# Poissons Ratio (y) = 0.48019 0.10703
# Poissons Ratio (z) = 0.06301 0.06301
#
# Static dielectric constant tensor:
#      x y z
#    x 1.671710 0.000000 0.000000 
#    y 0.000000 1.671710 0.000000 
#    z 0.000000 0.000000 1.720900 
# 
# From -- ./inp_files/620.got.cif
#   From: 2010.05.17/outbox.cif.g08.bks.cpg/sg76_cif.got.tgz:620.got - 2010.06.03 18:43:17.
