data_PCOD9541104
_publ_section_title
;
Structure prediction by ZEFSAII (Michael W. Deem and Ramdas Pophale) SiO2 
 PCOD9541104
Probable space group: P 41
;
_chemical_formula_sum "Si O2"
_cell_formula_units_Z 24
_cell_length_a 11.560639
_cell_length_b 11.560639
_cell_length_c 7.999420
_cell_angle_alpha 90.000000
_cell_angle_beta 90.000000
_cell_angle_gamma 90.000000
_cell_volume 1069.109477
_symmetry_space_group_name_H-M "P 41"
_symmetry_group_IT_number 76
_symmetry_cell_setting 'tetragonal'
loop_
_space_group_symop_operation_xyz
x,y,z
-y,x,1/4+z
-x,-y,1/2+z
y,-x,3/4+z
loop_
_atom_site_type_symbol
_atom_site_label
_atom_site_fract_x
_atom_site_fract_y
_atom_site_fract_z
Si Si1 0.689130 0.928613 0.474270
Si Si2 0.577720 0.615496 0.589189
Si Si3 0.188335 0.617188 0.366291
Si Si4 0.584798 0.259357 0.805511
Si Si5 0.062016 0.431153 0.782462
Si Si6 0.726595 0.171208 0.324159
O O1 0.664468 0.861888 0.295151
O O2 0.566913 0.918094 0.571314
O O3 0.799438 0.861065 0.544196
O O4 0.711049 0.064641 0.449490
O O5 0.508296 0.605046 0.759293
O O6 0.487737 0.675518 0.454825
O O7 0.699803 0.679024 0.606326
O O8 0.285389 0.698625 0.291266
O O9 0.258261 0.499098 0.399045
O O10 0.072987 0.593341 0.265338
O O11 0.589993 0.126246 0.859939
O O12 0.123157 0.346360 0.914827
#
# Coordination Sequence:
#
# PCOD9541104 Si02
#       6
#     4   4   4   4   4   4
#     4  10  20  35  61  82 110 156 193 248 301 363
#     4  12  21  36  60  91 124 156 198 254 312 375
#     4  10  20  32  60  84 115 154 189 244 294 366
#     4  11  17  36  58  84 115 156 197 239 302 367
#     4  10  19  36  58  85 111 150 203 240 298 361
#     4  11  19  37  61  82 115 158 206 239 305 374
#
# _framework density 22.448591
#
# number of rings (size 3 to 8) (size 9 to 14) (size 15 to 20)
#    0.000    1.333    8.333    0.000    0.000    1.333 
#    0.000    0.000   14.667    0.000    0.000    0.000 
#    0.000    0.000    0.000    0.000    0.000    0.000 
#
# Total GULP energy -134134.135500 kJ/mol
# GULP energy per Si atom -5588.922312 kJ/mol
# Density = 2.239750 g / cm^3
# Si number density = 22.448591 Si / 1000 Ang^3
#
#
#
# Elastic Constant Matrix: (Units=GPa)
#
#
# Indices 1 2 3 4 5 6 
#
# 1 143.2086 65.0913 15.8779 0.0000 0.0000 14.9851
# 2 65.0913 143.2086 15.8779 0.0000 0.0000 -14.9851
# 3 15.8779 15.8779 27.3263 0.0000 0.0000 0.0000
# 4 0.0000 0.0000 0.0000 19.3877 0.0000 0.0000
# 5 0.0000 0.0000 0.0000 0.0000 19.3877 0.0000
# 6 14.9851 -14.9851 0.0000 0.0000 0.0000 32.5872
#
#
#
# Elastic Compliance Matrix: (Units=1/GPa)
#
#
# Indices 1 2 3 4 5 6 
#
# 1 0.010405 -0.005138 -0.003061 0.000000 0.000000 -0.007148
# 2 -0.005138 0.010405 -0.003061 0.000000 0.000000 0.007148
# 3 -0.003061 -0.003061 0.040151 0.000000 0.000000 0.000000
# 4 0.000000 0.000000 0.000000 0.051579 0.000000 0.000000
# 5 0.000000 0.000000 0.000000 0.000000 0.051579 0.000000
# 6 -0.007148 0.007148 0.000000 0.000000 0.000000 0.037261
#
#
# Mechanical properties :
#
#
# Convention : Reuss Voigt Hill
#
# Bulk Modulus (GPa) = 26.01197 56.38194 41.19696
# Shear Modulus (GPa) = 21.12252 28.73228 24.92740
#
# Velocity S-wave (km/s) = 3.07078 3.58147 3.33591
# Velocity P-wave (km/s) = 4.91787 6.50178 5.76449
#
# Compressibility (1/GPa) = 0.03844383
#
# Stress axis : x y z
#
# Youngs Moduli (GPa) = 96.10361 96.10361 24.90571
#
# Poissons Ratio (x) = 0.49379 0.07623
# Poissons Ratio (y) = 0.49379 0.07623
# Poissons Ratio (z) = 0.29413 0.29413
#
# Static dielectric constant tensor:
#      x y z
#    x 1.879530 0.000000 0.000000 
#    y 0.000000 1.879530 0.000000 
#    z 0.000000 0.000000 1.900330 
# 
# From -- ./inp_files/561.got.cif
#   From: 2010.05.17/outbox.cif.g08.bks.cpg/sg76_cif.got.tgz:561.got - 2010.06.03 18:43:17.
