data_PCOD9541068
_publ_section_title
;
Structure prediction by ZEFSAII (Michael W. Deem and Ramdas Pophale) SiO2 
 PCOD9541068
Probable space group: P 41
;
_chemical_formula_sum "Si O2"
_cell_formula_units_Z 32
_cell_length_a 8.226582
_cell_length_b 8.226582
_cell_length_c 17.814628
_cell_angle_alpha 90.000000
_cell_angle_beta 90.000000
_cell_angle_gamma 90.000000
_cell_volume 1205.634369
_symmetry_space_group_name_H-M "P 41"
_symmetry_group_IT_number 76
_symmetry_cell_setting 'tetragonal'
loop_
_space_group_symop_operation_xyz
x,y,z
-y,x,1/4+z
-x,-y,1/2+z
y,-x,3/4+z
loop_
_atom_site_type_symbol
_atom_site_label
_atom_site_fract_x
_atom_site_fract_y
_atom_site_fract_z
Si Si1 0.469724 0.484397 0.750000
Si Si2 0.364656 0.688220 0.372841
Si Si3 0.677208 0.982415 0.045407
Si Si4 0.192672 0.378989 0.926289
Si Si5 0.004818 0.488361 0.543713
Si Si6 0.222616 0.648280 0.160539
Si Si7 0.066842 0.300833 0.298366
Si Si8 0.253343 0.125282 0.176330
O O1 0.353653 0.352678 0.710125
O O2 0.521791 0.454152 0.835235
O O3 0.368928 0.644689 0.726238
O O4 0.647807 0.441217 0.713638
O O5 0.184115 0.707420 0.341695
O O6 0.470670 0.839511 0.344855
O O7 0.481831 0.993647 0.036736
O O8 0.715063 0.133776 0.101607
O O9 0.726016 0.925349 0.960907
O O10 0.207972 0.573461 0.908253
O O11 0.041204 0.372962 0.984748
O O12 0.856343 0.473246 0.601201
O O13 0.000347 0.325916 0.489787
O O14 0.305973 0.782038 0.106968
O O15 0.122977 0.226493 0.220997
O O16 0.943983 0.194664 0.347697
#
# Coordination Sequence:
#
# PCOD9541068 Si02
#       8
#     4   4   4   4   4   4   4   4
#     4  11  20  33  57  88 110 143 194 245 284 342
#     4  11  20  33  57  88 110 143 194 245 284 342
#     4  10  19  31  54  83 114 142 186 236 292 342
#     4   9  19  34  50  81 116 149 181 242 295 338
#     4   9  19  34  50  81 116 149 181 242 295 338
#     4  10  19  31  54  83 114 142 186 236 292 342
#     4  10  16  32  50  88 106 142 190 240 286 336
#     4   8  16  28  52  74 112 138 182 230 280 338
#
# _framework density 26.54204
#
# number of rings (size 3 to 8) (size 9 to 14) (size 15 to 20)
#    0.750    1.500    1.250    4.500    0.000    1.000 
#    0.000    0.000    0.000    0.000   97.500    1.750 
#    0.000    0.000    0.000    0.000    0.000    0.000 
#
# Total GULP energy -178285.428426 kJ/mol
# GULP energy per Si atom -5571.419638 kJ/mol
# Density = 2.648163 g / cm^3
# Si number density = 26.542040 Si / 1000 Ang^3
#
#
#
# Elastic Constant Matrix: (Units=GPa)
#
#
# Indices 1 2 3 4 5 6 
#
# 1 37.4814 15.3715 13.5827 0.0000 0.0000 0.5181
# 2 15.3715 37.4814 13.5827 0.0000 0.0000 -0.5181
# 3 13.5827 13.5827 81.0341 0.0000 0.0000 0.0000
# 4 0.0000 0.0000 0.0000 40.7409 0.0000 0.0000
# 5 0.0000 0.0000 0.0000 0.0000 40.7409 0.0000
# 6 0.5181 -0.5181 0.0000 0.0000 0.0000 10.5559
#
#
#
# Elastic Compliance Matrix: (Units=1/GPa)
#
#
# Indices 1 2 3 4 5 6 
#
# 1 0.033018 -0.012314 -0.003470 0.000000 0.000000 -0.002225
# 2 -0.012314 0.033018 -0.003470 0.000000 0.000000 0.002225
# 3 -0.003470 -0.003470 0.013504 0.000000 0.000000 0.000000
# 4 0.000000 0.000000 0.000000 0.024545 0.000000 0.000000
# 5 0.000000 0.000000 0.000000 0.000000 0.024545 0.000000
# 6 -0.002225 0.002225 0.000000 0.000000 0.000000 0.094953
#
#
# Mechanical properties :
#
#
# Convention : Reuss Voigt Hill
#
# Bulk Modulus (GPa) = 24.37201 26.78563 25.57882
# Shear Modulus (GPa) = 18.13097 25.97153 22.05125
#
# Velocity S-wave (km/s) = 2.61646 3.13150 2.88550
# Velocity P-wave (km/s) = 4.28138 4.81547 4.55626
#
# Compressibility (1/GPa) = 0.04103067
#
# Stress axis : x y z
#
# Youngs Moduli (GPa) = 30.28605 30.28605 74.05287
#
# Poissons Ratio (x) = 0.37295 0.25699
# Poissons Ratio (y) = 0.37295 0.25699
# Poissons Ratio (z) = 0.10510 0.10510
#
# Static dielectric constant tensor:
#      x y z
#    x 2.188240 0.000000 0.000000 
#    y 0.000000 2.188240 0.000000 
#    z 0.000000 0.000000 2.099840 
# 
# From -- ./inp_files/1451.got.cif
#   From: 2010.05.17/outbox.cif.g08.bks.cpg/sg76_cif.got.tgz:1451.got - 2010.06.03 18:43:17.
