data_PCOD9541312
_publ_section_title
;
Structure prediction by ZEFSAII (Michael W. Deem and Ramdas Pophale) SiO2 
 PCOD9541312
Probable space group: P 41
;
_chemical_formula_sum "Si O2"
_cell_formula_units_Z 16
_cell_length_a 7.737786
_cell_length_b 7.737786
_cell_length_c 11.189128
_cell_angle_alpha 90.000000
_cell_angle_beta 90.000000
_cell_angle_gamma 90.000000
_cell_volume 669.930378
_symmetry_space_group_name_H-M "P 41"
_symmetry_group_IT_number 76
_symmetry_cell_setting 'tetragonal'
loop_
_space_group_symop_operation_xyz
x,y,z
-y,x,1/4+z
-x,-y,1/2+z
y,-x,3/4+z
loop_
_atom_site_type_symbol
_atom_site_label
_atom_site_fract_x
_atom_site_fract_y
_atom_site_fract_z
Si Si1 0.963920 0.115290 0.903740
Si Si2 0.348466 0.712565 0.022203
Si Si3 0.250350 0.371705 0.537286
Si Si4 0.417856 0.924298 0.787970
O O1 0.772472 0.187745 0.879359
O O2 0.014381 0.029174 0.778778
O O3 0.082832 0.279800 0.932508
O O4 0.314437 0.794343 0.151561
O O5 0.195469 0.578218 0.001727
O O6 0.539994 0.622765 0.036535
O O7 0.357347 0.844891 0.913685
O O8 0.532137 0.875550 0.308725
#
# Coordination Sequence:
#
# PCOD9541312 Si02
#       4
#     4   4   4   4
#     4  12  29  49  77 116 155 212 265 331 400 485
#     4  10  24  48  78 116 152 203 263 330 388 487
#     4  11  23  50  78 110 157 200 259 332 390 466
#     4  11  26  47  81 110 160 207 257 331 408 464
#
# _framework density 23.883081000000001
#
# number of rings (size 3 to 8) (size 9 to 14) (size 15 to 20)
#    0.000    1.000    2.500    3.000    7.000    4.000 
#    0.000    0.000    0.000    0.000    0.000    0.000 
#    0.000    0.000    0.000    0.000    0.000    0.000 
#
# Total GULP energy -89446.884871 kJ/mol
# GULP energy per Si atom -5590.430304 kJ/mol
# Density = 2.382872 g / cm^3
# Si number density = 23.883081 Si / 1000 Ang^3
#
#
#
# Elastic Constant Matrix: (Units=GPa)
#
#
# Indices 1 2 3 4 5 6 
#
# 1 78.0939 40.1578 48.2192 0.0000 0.0000 -0.7284
# 2 40.1578 78.0939 48.2192 0.0000 0.0000 0.7284
# 3 48.2192 48.2192 161.9675 0.0000 0.0000 0.0000
# 4 0.0000 0.0000 0.0000 44.6263 0.0000 0.0000
# 5 0.0000 0.0000 0.0000 0.0000 44.6263 0.0000
# 6 -0.7284 0.7284 0.0000 0.0000 0.0000 16.3781
#
#
#
# Elastic Compliance Matrix: (Units=1/GPa)
#
#
# Indices 1 2 3 4 5 6 
#
# 1 0.018787 -0.007619 -0.003325 0.000000 0.000000 0.001174
# 2 -0.007619 0.018787 -0.003325 0.000000 0.000000 -0.001174
# 3 -0.003325 -0.003325 0.008154 0.000000 0.000000 0.000000
# 4 0.000000 0.000000 0.000000 0.022408 0.000000 0.000000
# 5 0.000000 0.000000 0.000000 0.000000 0.022408 0.000000
# 6 0.001174 -0.001174 0.000000 0.000000 0.000000 0.061161
#
#
# Mechanical properties :
#
#
# Convention : Reuss Voigt Hill
#
# Bulk Modulus (GPa) = 58.17157 65.70528 61.93842
# Shear Modulus (GPa) = 26.88578 33.23006 30.05792
#
# Velocity S-wave (km/s) = 3.35882 3.73415 3.55145
# Velocity P-wave (km/s) = 6.28108 6.79432 6.54273
#
# Compressibility (1/GPa) = 0.01719053
#
# Stress axis : x y z
#
# Youngs Moduli (GPa) = 53.22926 53.22926 122.64308
#
# Poissons Ratio (x) = 0.40553 0.40777
# Poissons Ratio (y) = 0.40553 0.40777
# Poissons Ratio (z) = 0.17698 0.17698
#
# Static dielectric constant tensor:
#      x y z
#    x 1.950540 0.000000 0.000000 
#    y 0.000000 1.950540 0.000000 
#    z 0.000000 0.000000 1.886740 
# 
# From -- ./inp_files/796.got.cif
#   From: 2010.05.17/outbox.cif.g08.bks.cpg/sg76_cif.got.tgz:796.got - 2010.06.03 18:43:17.
