data_PCOD9541125
_publ_section_title
;
Structure prediction by ZEFSAII (Michael W. Deem and Ramdas Pophale) SiO2 
 PCOD9541125
Probable space group: P 41
;
_chemical_formula_sum "Si O2"
_cell_formula_units_Z 32
_cell_length_a 12.227456
_cell_length_b 12.227456
_cell_length_c 11.673087
_cell_angle_alpha 90.000000
_cell_angle_beta 90.000000
_cell_angle_gamma 90.000000
_cell_volume 1745.251178
_symmetry_space_group_name_H-M "P 41"
_symmetry_group_IT_number 76
_symmetry_cell_setting 'tetragonal'
loop_
_space_group_symop_operation_xyz
x,y,z
-y,x,1/4+z
-x,-y,1/2+z
y,-x,3/4+z
loop_
_atom_site_type_symbol
_atom_site_label
_atom_site_fract_x
_atom_site_fract_y
_atom_site_fract_z
Si Si1 0.237686 0.917712 0.870270
Si Si2 0.910200 0.222031 0.503000
Si Si3 0.588356 0.130796 0.558277
Si Si4 0.833659 0.768380 0.973860
Si Si5 0.159314 0.693531 0.607134
Si Si6 0.872245 0.668975 0.370865
Si Si7 0.418093 0.130993 0.095717
Si Si8 0.877016 0.353941 0.854235
O O1 0.122781 0.868059 0.908013
O O2 0.275644 0.889317 0.744201
O O3 0.240090 0.047944 0.884327
O O4 0.329431 0.863135 0.952072
O O5 0.854673 0.185701 0.620661
O O6 0.856700 0.332769 0.450261
O O7 0.040296 0.230391 0.512444
O O8 0.649996 0.184503 0.665791
O O9 0.463769 0.165411 0.543193
O O10 0.580420 0.000467 0.579991
O O11 0.748860 0.804489 0.069365
O O12 0.256270 0.775447 0.572900
O O13 0.179730 0.625359 0.724376
O O14 0.129095 0.626377 0.491761
O O15 0.836783 0.542188 0.373249
O O16 0.995939 0.669275 0.319973
#
# Coordination Sequence:
#
# PCOD9541125 Si02
#       8
#     4   4   4   4   4   4   4   4
#     4   9  18  34  57  77 112 147 179 222 281 339
#     4  10  20  36  54  81 114 147 181 224 283 332
#     4   8  18  37  53  76 108 147 185 226 274 322
#     4  10  22  35  55  84 112 148 184 229 277 337
#     4  10  20  35  52  83 112 144 181 226 287 328
#     4  10  20  33  55  84 110 146 188 231 268 335
#     4   9  18  35  55  79 106 147 192 228 268 324
#     4  10  22  35  53  84 112 148 186 226 278 335
#
# _framework density 18.335470000000001
#
# number of rings (size 3 to 8) (size 9 to 14) (size 15 to 20)
#    0.000    2.500    1.250    0.750    3.500    2.000 
#    4.500    0.000    0.000    0.000   19.500    0.000 
#    0.000    0.000    0.000    0.000    0.000    0.000 
#
# Total GULP energy -178175.057913 kJ/mol
# GULP energy per Si atom -5567.970560 kJ/mol
# Density = 1.829374 g / cm^3
# Si number density = 18.335470 Si / 1000 Ang^3
#
#
#
# Elastic Constant Matrix: (Units=GPa)
#
#
# Indices 1 2 3 4 5 6 
#
# 1 73.0373 18.3731 3.8306 0.0000 0.0000 1.6992
# 2 18.3731 73.0373 3.8306 0.0000 0.0000 -1.6992
# 3 3.8306 3.8306 42.0686 0.0000 0.0000 0.0000
# 4 0.0000 0.0000 0.0000 16.1443 0.0000 0.0000
# 5 0.0000 0.0000 0.0000 0.0000 16.1443 0.0000
# 6 1.6992 -1.6992 0.0000 0.0000 0.0000 13.0675
#
#
#
# Elastic Compliance Matrix: (Units=1/GPa)
#
#
# Indices 1 2 3 4 5 6 
#
# 1 0.014733 -0.003709 -0.001004 0.000000 0.000000 -0.002398
# 2 -0.003709 0.014733 -0.001004 0.000000 0.000000 0.002398
# 3 -0.001004 -0.001004 0.023954 0.000000 0.000000 0.000000
# 4 0.000000 0.000000 0.000000 0.061941 0.000000 0.000000
# 5 0.000000 0.000000 0.000000 0.000000 0.061941 0.000000
# 6 -0.002398 0.002398 0.000000 0.000000 0.000000 0.077149
#
#
# Mechanical properties :
#
#
# Convention : Reuss Voigt Hill
#
# Bulk Modulus (GPa) = 23.81749 26.69022 25.25385
# Shear Modulus (GPa) = 17.86474 19.87849 18.87162
#
# Velocity S-wave (km/s) = 3.12481 3.29622 3.21166
# Velocity P-wave (km/s) = 5.10267 5.39212 5.24939
#
# Compressibility (1/GPa) = 0.04198595
#
# Stress axis : x y z
#
# Youngs Moduli (GPa) = 67.87393 67.87393 41.74752
#
# Poissons Ratio (x) = 0.25177 0.04191
# Poissons Ratio (y) = 0.25177 0.04191
# Poissons Ratio (z) = 0.06813 0.06813
#
# Static dielectric constant tensor:
#      x y z
#    x 1.642130 0.000000 0.000000 
#    y 0.000000 1.642130 0.000000 
#    z 0.000000 0.000000 1.685060 
# 
# From -- ./inp_files/935.got.cif
#   From: 2010.05.17/outbox.cif.g08.bks.cpg/sg76_cif.got.tgz:935.got - 2010.06.03 18:43:17.
