data_PCOD9541397
_publ_section_title
;
Structure prediction by ZEFSAII (Michael W. Deem and Ramdas Pophale) SiO2 
 PCOD9541397
Probable space group: P 41
;
_chemical_formula_sum "Si O2"
_cell_formula_units_Z 20
_cell_length_a 12.436670
_cell_length_b 12.436670
_cell_length_c 5.085432
_cell_angle_alpha 90.000000
_cell_angle_beta 90.000000
_cell_angle_gamma 90.000000
_cell_volume 786.567636
_symmetry_space_group_name_H-M "P 41"
_symmetry_group_IT_number 76
_symmetry_cell_setting 'tetragonal'
loop_
_space_group_symop_operation_xyz
x,y,z
-y,x,1/4+z
-x,-y,1/2+z
y,-x,3/4+z
loop_
_atom_site_type_symbol
_atom_site_label
_atom_site_fract_x
_atom_site_fract_y
_atom_site_fract_z
Si Si1 0.285866 0.066522 0.344770
Si Si2 0.976637 0.594237 0.578403
Si Si3 0.811566 0.512599 0.215947
Si Si4 0.739541 0.295096 0.961531
Si Si5 0.116763 0.106222 0.966235
O O1 0.327571 0.994355 0.581173
O O2 0.338426 0.013557 0.082295
O O3 0.311977 0.187264 0.450730
O O4 0.164433 0.073681 0.249905
O O5 0.076116 0.509965 0.560510
O O6 0.862670 0.538232 0.508432
O O7 0.747141 0.403563 0.140139
O O8 0.743520 0.618801 0.149819
O O9 0.801132 0.197935 0.113560
O O10 0.126956 0.006408 0.773346
#
# Coordination Sequence:
#
# PCOD9541397 Si02
#       5
#     4   4   4   4   4
#     4  11  24  49  73 116 156 213 278 345 412 503
#     4  11  24  47  82 116 160 218 287 336 414 502
#     4  11  25  51  83 122 165 226 283 363 418 521
#     4  11  28  52  81 124 169 227 287 356 439 507
#     4  12  29  47  77 120 176 226 277 354 447 519
#
# _framework density 25.426929000000001
#
# number of rings (size 3 to 8) (size 9 to 14) (size 15 to 20)
#    0.000    0.800    4.000    2.400    5.600    1.600 
#    7.200    2.000    0.000    0.000    0.000    0.000 
#    0.000    0.000    0.000    0.000    0.000    0.000 
#
# Total GULP energy -111630.763141 kJ/mol
# GULP energy per Si atom -5581.538157 kJ/mol
# Density = 2.536906 g / cm^3
# Si number density = 25.426929 Si / 1000 Ang^3
#
#
#
# Elastic Constant Matrix: (Units=GPa)
#
#
# Indices 1 2 3 4 5 6 
#
# 1 164.3261 95.1792 51.8342 0.0000 0.0000 4.0349
# 2 95.1792 164.3261 51.8342 0.0000 0.0000 -4.0349
# 3 51.8342 51.8342 179.5976 0.0000 0.0000 0.0000
# 4 0.0000 0.0000 0.0000 35.7979 0.0000 0.0000
# 5 0.0000 0.0000 0.0000 0.0000 35.7979 0.0000
# 6 4.0349 -4.0349 0.0000 0.0000 0.0000 62.6217
#
#
#
# Elastic Compliance Matrix: (Units=1/GPa)
#
#
# Indices 1 2 3 4 5 6 
#
# 1 0.009464 -0.005108 -0.001257 0.000000 0.000000 -0.000939
# 2 -0.005108 0.009464 -0.001257 0.000000 0.000000 0.000939
# 3 -0.001257 -0.001257 0.006294 0.000000 0.000000 0.000000
# 4 0.000000 0.000000 0.000000 0.027935 0.000000 0.000000
# 5 0.000000 0.000000 0.000000 0.000000 0.027935 0.000000
# 6 -0.000939 0.000939 0.000000 0.000000 0.000000 0.016090
#
#
# Mechanical properties :
#
#
# Convention : Reuss Voigt Hill
#
# Bulk Modulus (GPa) = 100.23481 100.66056 100.44768
# Shear Modulus (GPa) = 43.19663 47.47030 45.33346
#
# Velocity S-wave (km/s) = 4.12619 4.32549 4.22701
# Velocity P-wave (km/s) = 7.88713 8.03869 7.96327
#
# Compressibility (1/GPa) = 0.00997657
#
# Stress axis : x y z
#
# Youngs Moduli (GPa) = 105.66797 105.66797 158.89060
#
# Poissons Ratio (x) = 0.53974 0.19974
# Poissons Ratio (y) = 0.53974 0.19974
# Poissons Ratio (z) = 0.13284 0.13284
#
# Static dielectric constant tensor:
#      x y z
#    x 2.108970 0.000000 0.000000 
#    y 0.000000 2.108970 0.000000 
#    z 0.000000 0.000000 2.210050 
# 
# From -- ./inp_files/105.got.cif
#   From: 2010.05.17/outbox.cif.g08.bks.cpg/sg76_cif.got.tgz:105.got - 2010.06.03 18:43:17.
