data_PCOD9541198
_publ_section_title
;
Structure prediction by ZEFSAII (Michael W. Deem and Ramdas Pophale) SiO2 
 PCOD9541198
Probable space group: P 41
;
_chemical_formula_sum "Si O2"
_cell_formula_units_Z 16
_cell_length_a 9.096537
_cell_length_b 9.096537
_cell_length_c 7.518178
_cell_angle_alpha 90.000000
_cell_angle_beta 90.000000
_cell_angle_gamma 90.000000
_cell_volume 622.106565
_symmetry_space_group_name_H-M "P 41"
_symmetry_group_IT_number 76
_symmetry_cell_setting 'tetragonal'
loop_
_space_group_symop_operation_xyz
x,y,z
-y,x,1/4+z
-x,-y,1/2+z
y,-x,3/4+z
loop_
_atom_site_type_symbol
_atom_site_label
_atom_site_fract_x
_atom_site_fract_y
_atom_site_fract_z
Si Si1 0.034768 0.810619 0.760050
Si Si2 0.824599 0.657429 0.354281
Si Si3 0.322626 0.542484 0.122704
Si Si4 0.999299 0.432398 0.532298
O O1 0.171396 0.804465 0.625263
O O2 0.903754 0.898751 0.673147
O O3 0.989233 0.658368 0.849859
O O4 0.694046 0.575331 0.458536
O O5 0.963656 0.598114 0.471146
O O6 0.864934 0.603682 0.158268
O O7 0.355012 0.453778 0.302552
O O8 0.159283 0.612672 0.121184
#
# Coordination Sequence:
#
# PCOD9541198 Si02
#       4
#     4   4   4   4
#     4  12  24  42  64  96 132 168 222 274 334 396
#     4  10  21  42  66  94 129 172 219 270 331 402
#     4  10  22  46  60  96 130 166 222 270 332 394
#     4  10  21  42  66  94 129 172 219 270 331 402
#
# _framework density 25.719062000000001
#
# number of rings (size 3 to 8) (size 9 to 14) (size 15 to 20)
#    1.500    0.000    2.500    3.000    0.000    0.000 
#   13.500    0.000    0.000    0.000    0.000    0.000 
#    0.000    0.000    0.000    0.000    0.000    0.000 
#
# Total GULP energy -89458.815259 kJ/mol
# GULP energy per Si atom -5591.175954 kJ/mol
# Density = 2.566052 g / cm^3
# Si number density = 25.719062 Si / 1000 Ang^3
#
#
#
# Elastic Constant Matrix: (Units=GPa)
#
#
# Indices 1 2 3 4 5 6 
#
# 1 73.4249 10.9569 15.1938 0.0000 0.0000 10.5983
# 2 10.9569 73.4249 15.1938 0.0000 0.0000 -10.5983
# 3 15.1938 15.1938 90.0154 0.0000 0.0000 0.0000
# 4 0.0000 0.0000 0.0000 45.4204 0.0000 0.0000
# 5 0.0000 0.0000 0.0000 0.0000 45.4204 0.0000
# 6 10.5983 -10.5983 0.0000 0.0000 0.0000 13.9985
#
#
#
# Elastic Compliance Matrix: (Units=1/GPa)
#
#
# Indices 1 2 3 4 5 6 
#
# 1 0.017080 -0.004462 -0.002130 0.000000 0.000000 -0.016310
# 2 -0.004462 0.017080 -0.002130 0.000000 0.000000 0.016310
# 3 -0.002130 -0.002130 0.011828 0.000000 0.000000 0.000000
# 4 0.000000 0.000000 0.000000 0.022017 0.000000 0.000000
# 5 0.000000 0.000000 0.000000 0.000000 0.022017 0.000000
# 6 -0.016310 0.016310 0.000000 0.000000 0.000000 0.096133
#
#
# Mechanical properties :
#
#
# Convention : Reuss Voigt Hill
#
# Bulk Modulus (GPa) = 35.03263 35.50600 35.26931
# Shear Modulus (GPa) = 23.46168 34.00256 28.73212
#
# Velocity S-wave (km/s) = 3.02359 3.63998 3.34601
# Velocity P-wave (km/s) = 5.08334 5.61260 5.35451
#
# Compressibility (1/GPa) = 0.02854482
#
# Stress axis : x y z
#
# Youngs Moduli (GPa) = 58.54740 58.54740 84.54384
#
# Poissons Ratio (x) = 0.26126 0.18006
# Poissons Ratio (y) = 0.26126 0.18006
# Poissons Ratio (z) = 0.12469 0.12469
#
# Static dielectric constant tensor:
#      x y z
#    x 2.011270 0.000000 0.000000 
#    y 0.000000 2.011270 0.000000 
#    z 0.000000 0.000000 2.024190 
# 
# From -- ./inp_files/79.got.cif
#   From: 2010.05.17/outbox.cif.g08.bks.cpg/sg76_cif.got.tgz:79.got - 2010.06.03 18:43:17.
