data_PCOD9541743
_publ_section_title
;
Structure prediction by ZEFSAII (Michael W. Deem and Ramdas Pophale) SiO2 
 PCOD9541743
Probable space group: P 43
;
_chemical_formula_sum "Si O2"
_cell_formula_units_Z 28
_cell_length_a 14.532908
_cell_length_b 14.532908
_cell_length_c 6.581288
_cell_angle_alpha 90.000000
_cell_angle_beta 90.000000
_cell_angle_gamma 90.000000
_cell_volume 1390.003663
_symmetry_space_group_name_H-M "P 43"
_symmetry_group_IT_number 78
_symmetry_cell_setting 'tetragonal'
loop_
_space_group_symop_operation_xyz
x,y,z
-y,x,3/4+z
-x,-y,1/2+z
y,-x,1/4+z
loop_
_atom_site_type_symbol
_atom_site_label
_atom_site_fract_x
_atom_site_fract_y
_atom_site_fract_z
Si Si1 0.460329 0.232542 0.903940
Si Si2 0.094621 0.582705 0.834461
Si Si3 0.740753 0.994424 0.801179
Si Si4 0.278998 0.857921 0.949853
Si Si5 0.806777 0.166447 0.059024
Si Si6 0.544037 0.100973 0.235271
Si Si7 0.667718 0.286090 0.793188
O O1 0.399471 0.178336 0.735480
O O2 0.558462 0.273804 0.831762
O O3 0.493318 0.153140 0.057309
O O4 0.391836 0.304295 0.009013
O O5 0.130972 0.502483 0.692188
O O6 0.052286 0.657534 0.679777
O O7 0.008006 0.542244 0.956677
O O8 0.717592 0.053238 0.598021
O O9 0.802891 0.908363 0.741467
O O10 0.784778 0.069491 0.951847
O O11 0.305617 0.773778 0.094348
O O12 0.191240 0.839955 0.806165
O O13 0.351153 0.872497 0.767386
O O14 0.733649 0.241497 0.968262
#
# Coordination Sequence:
#
# PCOD9541743 Si02
#       7
#     4   4   4   4   4   4   4
#     4  12  25  43  68  95 139 177 226 284 340 417
#     4  12  22  37  66 100 128 170 221 280 346 391
#     4  11  25  41  66  98 132 181 224 276 338 405
#     4  11  22  44  68  95 139 170 226 285 334 405
#     4  11  24  45  65  98 136 175 227 275 337 404
#     4  12  21  37  65 100 128 165 220 280 342 391
#     4  11  25  45  66  98 132 180 224 278 343 409
#
# _framework density 20.143833000000001
#
# number of rings (size 3 to 8) (size 9 to 14) (size 15 to 20)
#    0.000    0.571    5.714    3.429    2.000    2.286 
#    2.571    1.429    0.000    0.000    0.000    0.000 
#    0.000    0.000    0.000    0.000    0.000    0.000 
#
# Total GULP energy -156178.911327 kJ/mol
# GULP energy per Si atom -5577.818262 kJ/mol
# Density = 2.009798 g / cm^3
# Si number density = 20.143833 Si / 1000 Ang^3
#
#
#
# Elastic Constant Matrix: (Units=GPa)
#
#
# Indices 1 2 3 4 5 6 
#
# 1 80.4371 66.3685 23.3284 0.0000 0.0000 -19.1679
# 2 66.3685 80.4371 23.3284 0.0000 0.0000 19.1679
# 3 23.3284 23.3284 76.8875 0.0000 0.0000 0.0000
# 4 0.0000 0.0000 0.0000 20.5975 0.0000 0.0000
# 5 0.0000 0.0000 0.0000 0.0000 20.5975 0.0000
# 6 -19.1679 19.1679 0.0000 0.0000 0.0000 -4.0557
#
#
#
# Elastic Compliance Matrix: (Units=1/GPa)
#
#
# Indices 1 2 3 4 5 6 
#
# 1 0.006330 0.001209 -0.002287 0.000000 0.000000 -0.024206
# 2 0.001209 0.006330 -0.002287 0.000000 0.000000 0.024206
# 3 -0.002287 -0.002287 0.014394 0.000000 0.000000 0.000000
# 4 0.000000 0.000000 0.000000 0.048550 0.000000 0.000000
# 5 0.000000 0.000000 0.000000 0.000000 0.048550 0.000000
# 6 -0.024206 0.024206 0.000000 0.000000 0.000000 -0.017766
#
#
# Mechanical properties :
#
#
# Convention : Reuss Voigt Hill
#
# Bulk Modulus (GPa) = 49.20746 51.53468 50.37107
# Shear Modulus (GPa) = 41.70379 15.74365 28.72372
#
# Velocity S-wave (km/s) = 4.55499 2.79868 3.78025
# Velocity P-wave (km/s) = 7.22115 6.00686 6.64181
#
# Compressibility (1/GPa) = 0.02032212
#
# Stress axis : x y z
#
# Youngs Moduli (GPa) = 157.97457 157.97457 69.47348
#
# Poissons Ratio (x) = -0.19092 0.15891
# Poissons Ratio (y) = -0.19092 0.15891
# Poissons Ratio (z) = 0.36133 0.36133
#
# Static dielectric constant tensor:
#      x y z
#    x 1.793560 0.000000 0.000000 
#    y 0.000000 1.793560 0.000000 
#    z 0.000000 0.000000 1.744830 
# 
# From -- ./inp_files/228.got.cif
#   From: 2010.05.17/outbox.cif.g08.bks.cpg/sg78_cif.got.tgz:228.got - 2010.06.03 18:45:56.
