data_PCOD9541058
_publ_section_title
;
Structure prediction by ZEFSAII (Michael W. Deem and Ramdas Pophale) SiO2 
 PCOD9541058
Probable space group: P 4
;
_chemical_formula_sum "Si O2"
_cell_formula_units_Z 32
_cell_length_a 10.864405
_cell_length_b 10.864405
_cell_length_c 11.880940
_cell_angle_alpha 90.000000
_cell_angle_beta 90.000000
_cell_angle_gamma 90.000000
_cell_volume 1402.370270
_symmetry_space_group_name_H-M "P 4"
_symmetry_group_IT_number 75
_symmetry_cell_setting 'tetragonal'
loop_
_space_group_symop_operation_xyz
x,y,z
-y,x,z
-x,-y,z
y,-x,z
loop_
_atom_site_type_symbol
_atom_site_label
_atom_site_fract_x
_atom_site_fract_y
_atom_site_fract_z
Si Si1 0.456894 0.297362 0.613570
Si Si2 0.625119 0.942338 0.566394
Si Si3 0.456894 0.297362 0.099195
Si Si4 0.064311 0.803427 0.356382
Si Si5 0.530045 0.702312 0.356383
Si Si6 0.374881 0.057662 0.146371
Si Si7 0.798612 0.045406 0.985396
Si Si8 0.954594 0.798612 0.727369
O O1 0.590391 0.360215 0.633964
O O2 0.406486 0.167253 0.656919
O O3 0.461322 0.250441 0.482719
O O4 0.722195 0.913926 0.467156
O O5 0.690277 0.051357 0.638557
O O6 0.500000 0.000000 0.519026
O O7 0.590391 0.360215 0.078801
O O8 0.461322 0.250440 0.230047
O O9 0.406486 0.167253 0.055846
O O10 0.086074 0.722195 0.245609
O O11 0.923598 0.850346 0.356383
O O12 0.399916 0.635282 0.356383
O O13 0.500000 0.000000 0.193739
O O14 0.309723 0.948643 0.074208
O O15 0.757953 0.056860 0.856382
O O16 0.860326 0.910594 0.002511
O O17 0.860326 0.910594 0.710254
#
# Coordination Sequence:
#
# PCOD9541058 Si02
#       8
#     4   4   4   4   4   4   4   4
#     4   9  19  34  53  79 116 162 203 241 297 369
#     4  12  25  37  62  96 129 160 206 265 315 370
#     4   9  19  34  53  79 116 162 203 241 297 369
#     4  11  26  45  63  86 128 176 212 258 322 375
#     4   7  11  25  46  65  88 137 196 233 257 310
#     4  12  25  37  62  96 129 160 206 265 315 370
#     4   9  20  42  70  94 119 160 211 262 318 374
#     4   9  20  42  70  94 119 160 211 262 318 374
#
# _framework density 22.818508000000001
#
# number of rings (size 3 to 8) (size 9 to 14) (size 15 to 20)
#    0.000    2.250    0.000    4.875    7.000    2.500 
#    0.000    0.000    0.000    0.000    0.000    1.750 
#    0.000    0.000    0.000    0.000    0.000    0.000 
#
# Total GULP energy -178232.056731 kJ/mol
# GULP energy per Si atom -5569.751773 kJ/mol
# Density = 2.276657 g / cm^3
# Si number density = 22.818508 Si / 1000 Ang^3
#
#
#
# Elastic Constant Matrix: (Units=GPa)
#
#
# Indices 1 2 3 4 5 6 
#
# 1 104.0073 24.6261 -8.3395 0.0000 0.0000 7.4770
# 2 24.6261 104.0073 -8.3395 0.0000 0.0000 -7.4770
# 3 -8.3395 -8.3395 25.4538 0.0000 0.0000 0.0000
# 4 0.0000 0.0000 0.0000 -13.8423 0.0000 0.0000
# 5 0.0000 0.0000 0.0000 0.0000 -13.8423 0.0000
# 6 7.4770 -7.4770 0.0000 0.0000 0.0000 27.2539
#
#
#
# Elastic Compliance Matrix: (Units=1/GPa)
#
#
# Indices 1 2 3 4 5 6 
#
# 1 0.010701 -0.002583 0.002660 0.000000 0.000000 -0.003644
# 2 -0.002583 0.010701 0.002660 0.000000 0.000000 0.003644
# 3 0.002660 0.002660 0.041030 0.000000 0.000000 0.000000
# 4 0.000000 0.000000 0.000000 -0.072243 0.000000 0.000000
# 5 0.000000 0.000000 0.000000 0.000000 -0.072243 0.000000
# 6 -0.003644 0.003644 0.000000 0.000000 0.000000 0.038692
#
#
# Mechanical properties :
#
#
# Convention : Reuss Voigt Hill
#
# Bulk Modulus (GPa) = 14.72585 27.70698 21.21642
# Shear Modulus (GPa) = -190.84098 14.94864 -87.94617
#
# Velocity S-wave (km/s) = -9.15510 2.56229 -6.21492
# Velocity P-wave (km/s) = 10.26095 4.57411 6.49479
#
# Compressibility (1/GPa) = 0.06790778
#
# Stress axis : x y z
#
# Youngs Moduli (GPa) = 93.44524 93.44524 24.37251
#
# Poissons Ratio (x) = 0.24132 -0.06483
# Poissons Ratio (y) = 0.24132 -0.06483
# Poissons Ratio (z) = -0.24857 -0.24857
#
# Static dielectric constant tensor:
#      x y z
#    x 1.929910 0.000000 0.000000 
#    y 0.000000 1.929910 0.000000 
#    z 0.000000 0.000000 2.189270 
# 
# From -- ./inp_files/635.got.cif
#   From: 2010.05.17/outbox.cif.g08.bks.cpg/sg75_cif.got.tgz:635.got - 2010.06.03 18:42:43.
