data_PCOD9541871
_publ_section_title
;
Structure prediction by ZEFSAII (Michael W. Deem and Ramdas Pophale) SiO2 
 PCOD9541871
Probable space group: I 4
;
_chemical_formula_sum "Si O2"
_cell_formula_units_Z 50
_cell_length_a 8.993186
_cell_length_b 8.993186
_cell_length_c 28.757515
_cell_angle_alpha 90.000000
_cell_angle_beta 90.000000
_cell_angle_gamma 90.000000
_cell_volume 2325.832883
_symmetry_space_group_name_H-M "I 4"
_symmetry_group_IT_number 79
_symmetry_cell_setting 'tetragonal'
loop_
_space_group_symop_operation_xyz
x,y,z
-y,x,z
-x,-y,z
y,-x,z
1/2+x,1/2+y,1/2+z
1/2-y,1/2+x,1/2+z
1/2-x,1/2-y,1/2+z
1/2+y,1/2-x,1/2+z
loop_
_atom_site_type_symbol
_atom_site_label
_atom_site_fract_x
_atom_site_fract_y
_atom_site_fract_z
Si Si1 0.500000 0.500000 0.771541
Si Si2 0.737655 0.423578 0.229816
Si Si3 0.161258 0.568835 0.879428
Si Si4 0.917653 0.236607 0.160469
Si Si5 0.414455 0.268824 0.983848
Si Si6 0.235229 0.080818 0.052106
Si Si7 0.245615 0.186172 0.312595
O O1 0.614676 0.642749 0.776669
O O2 0.680975 0.591154 0.224364
O O3 0.858345 0.367279 0.192849
O O4 0.799135 0.390321 0.281314
O O5 0.225320 0.602472 0.929921
O O6 0.171786 0.706930 0.844172
O O7 0.253322 0.443066 0.851577
O O8 0.000000 0.500000 0.885160
O O9 0.903825 0.278371 0.106195
O O10 0.086516 0.180646 0.168381
O O11 0.584194 0.315886 0.992428
O O12 0.359296 0.138322 0.017176
O O13 0.087761 0.181582 0.044680
#
# Coordination Sequence:
#
# PCOD9541871 Si02
#       7
#     2   8   8   8   8   8   8
#     4   8  20  32  60  84 112 164 196 264 304 352
#     4  11  25  41  59  90 132 170 206 258 317 375
#     4  11  22  37  61  86 119 167 212 260 306 373
#     4   9  21  42  68  94 124 161 211 260 308 373
#     4  11  24  39  60  91 127 164 208 260 318 375
#     4   9  21  43  67  95 127 163 207 262 317 380
#     4  10  21  39  58  86 125 163 210 260 309 369
#
# _framework density 21.497675000000001
#
# number of rings (size 3 to 8) (size 9 to 14) (size 15 to 20)
#    0.000    1.920    1.600    1.920    6.720    1.920 
#    0.000    4.800    0.000    1.920    0.000    0.000 
#    0.000    0.000    0.000    0.000    0.000    0.000 
#
# Total GULP energy -139436.276700 kJ/mol
# GULP energy per Si atom -5577.451068 kJ/mol
# Density = 2.144875 g / cm^3
# Si number density = 21.497675 Si / 1000 Ang^3
#
#
#
# Elastic Constant Matrix: (Units=GPa)
#
#
# Indices 1 2 3 4 5 6 
#
# 1 40.6417 10.0086 37.2052 0.0000 0.0000 7.7450
# 2 10.0086 40.6417 37.2052 0.0000 0.0000 -7.7450
# 3 37.2052 37.2052 119.9502 0.0000 0.0000 0.0000
# 4 0.0000 0.0000 0.0000 23.0678 0.0000 0.0000
# 5 0.0000 0.0000 0.0000 0.0000 23.0678 0.0000
# 6 7.7450 -7.7450 0.0000 0.0000 0.0000 33.7073
#
#
#
# Elastic Compliance Matrix: (Units=1/GPa)
#
#
# Indices 1 2 3 4 5 6 
#
# 1 0.036603 -0.000333 -0.011250 0.000000 0.000000 -0.008487
# 2 -0.000333 0.036603 -0.011250 0.000000 0.000000 0.008487
# 3 -0.011250 -0.011250 0.015316 0.000000 0.000000 0.000000
# 4 0.000000 0.000000 0.000000 0.043351 0.000000 0.000000
# 5 0.000000 0.000000 0.000000 0.000000 0.043351 0.000000
# 6 -0.008487 0.008487 0.000000 0.000000 0.000000 0.033567
#
#
# Mechanical properties :
#
#
# Convention : Reuss Voigt Hill
#
# Bulk Modulus (GPa) = 23.33351 41.11904 32.22628
# Shear Modulus (GPa) = 18.60516 23.75621 21.18068
#
# Velocity S-wave (km/s) = 2.94504 3.32785 3.14228
# Velocity P-wave (km/s) = 4.73729 5.82536 5.30927
#
# Compressibility (1/GPa) = 0.04285681
#
# Stress axis : x y z
#
# Youngs Moduli (GPa) = 27.31981 27.31981 65.29208
#
# Poissons Ratio (x) = 0.00908 0.73455
# Poissons Ratio (y) = 0.00908 0.73455
# Poissons Ratio (z) = 0.30735 0.30735
#
# Static dielectric constant tensor:
#      x y z
#    x 1.829020 0.000000 0.000000 
#    y 0.000000 1.829020 0.000000 
#    z 0.000000 0.000000 1.789880 
# 
# From -- ./inp_files/2173.got.cif
#   From: 2010.05.17/outbox.cif.g08.bks.cpg/sg79_cif.got.tgz:2173.got - 2010.06.03 18:47:27.
