data_PCOD9541249
_publ_section_title
;
Structure prediction by ZEFSAII (Michael W. Deem and Ramdas Pophale) SiO2 
 PCOD9541249
Probable space group: P 41
;
_chemical_formula_sum "Si O2"
_cell_formula_units_Z 24
_cell_length_a 11.419656
_cell_length_b 11.419656
_cell_length_c 8.591190
_cell_angle_alpha 90.000000
_cell_angle_beta 90.000000
_cell_angle_gamma 90.000000
_cell_volume 1120.364572
_symmetry_space_group_name_H-M "P 41"
_symmetry_group_IT_number 76
_symmetry_cell_setting 'tetragonal'
loop_
_space_group_symop_operation_xyz
x,y,z
-y,x,1/4+z
-x,-y,1/2+z
y,-x,3/4+z
loop_
_atom_site_type_symbol
_atom_site_label
_atom_site_fract_x
_atom_site_fract_y
_atom_site_fract_z
Si Si1 0.255243 0.724818 0.863790
Si Si2 0.258867 0.877351 0.415328
Si Si3 0.476420 0.146298 0.983617
Si Si4 0.104223 0.896109 0.709184
Si Si5 0.087778 0.460179 0.084294
Si Si6 0.704904 0.861903 0.927571
O O1 0.258506 0.606639 0.761330
O O2 0.132459 0.780207 0.805025
O O3 0.359571 0.816121 0.846197
O O4 0.237737 0.707471 0.046698
O O5 0.392512 0.833072 0.420150
O O6 0.213817 0.895635 0.590930
O O7 0.178357 0.788917 0.317486
O O8 0.254053 0.012071 0.359510
O O9 0.490256 0.096158 0.159405
O O10 0.423307 0.044218 0.875016
O O11 0.996226 0.900764 0.590185
O O12 0.116671 0.566767 0.203748
#
# Coordination Sequence:
#
# PCOD9541249 Si02
#       6
#     4   4   4   4   4   4
#     4  11  24  41  67  93 127 173 227 281 327 405
#     4  11  22  44  63  98 136 175 221 270 343 413
#     4  10  23  42  67  94 131 174 223 276 340 411
#     4  12  26  38  62  94 138 170 214 274 344 406
#     4  10  22  43  66  95 130 172 227 269 339 404
#     4  10  25  40  67  96 134 178 220 278 335 413
#
# _framework density 21.421596000000001
#
# number of rings (size 3 to 8) (size 9 to 14) (size 15 to 20)
#    0.000    1.333    3.333    1.000   11.667    0.000 
#    0.000    0.000   14.667    0.000    0.000    0.000 
#    0.000    0.000    0.000    0.000    0.000    0.000 
#
# Total GULP energy -133814.126373 kJ/mol
# GULP energy per Si atom -5575.588599 kJ/mol
# Density = 2.137284 g / cm^3
# Si number density = 21.421596 Si / 1000 Ang^3
#
#
#
# Elastic Constant Matrix: (Units=GPa)
#
#
# Indices 1 2 3 4 5 6 
#
# 1 72.8867 36.5297 27.0705 0.0000 0.0000 1.4971
# 2 36.5297 72.8867 27.0705 0.0000 0.0000 -1.4971
# 3 27.0705 27.0705 57.4178 0.0000 0.0000 0.0000
# 4 0.0000 0.0000 0.0000 28.9059 0.0000 0.0000
# 5 0.0000 0.0000 0.0000 0.0000 28.9059 0.0000
# 6 1.4971 -1.4971 0.0000 0.0000 0.0000 33.8182
#
#
#
# Elastic Compliance Matrix: (Units=1/GPa)
#
#
# Indices 1 2 3 4 5 6 
#
# 1 0.019763 -0.007843 -0.005620 0.000000 0.000000 -0.001222
# 2 -0.007843 0.019763 -0.005620 0.000000 0.000000 0.001222
# 3 -0.005620 -0.005620 0.022715 0.000000 0.000000 0.000000
# 4 0.000000 0.000000 0.000000 0.034595 0.000000 0.000000
# 5 0.000000 0.000000 0.000000 0.000000 0.034595 0.000000
# 6 -0.001222 0.001222 0.000000 0.000000 0.000000 0.029678
#
#
# Mechanical properties :
#
#
# Convention : Reuss Voigt Hill
#
# Bulk Modulus (GPa) = 41.53509 42.72584 42.13047
# Shear Modulus (GPa) = 24.11960 25.82737 24.97349
#
# Velocity S-wave (km/s) = 3.35916 3.47604 3.41810
# Velocity P-wave (km/s) = 5.87168 6.00825 5.94036
#
# Compressibility (1/GPa) = 0.02407603
#
# Stress axis : x y z
#
# Youngs Moduli (GPa) = 50.59966 50.59966 44.02281
#
# Poissons Ratio (x) = 0.39684 0.24741
# Poissons Ratio (y) = 0.39684 0.24741
# Poissons Ratio (z) = 0.28437 0.28437
#
# Static dielectric constant tensor:
#      x y z
#    x 1.847390 0.000000 0.000000 
#    y 0.000000 1.847390 0.000000 
#    z 0.000000 0.000000 1.849320 
# 
# From -- ./inp_files/525.got.cif
#   From: 2010.05.17/outbox.cif.g08.bks.cpg/sg76_cif.got.tgz:525.got - 2010.06.03 18:43:17.
