data_PCOD9541960
_publ_section_title
;
Structure prediction by ZEFSAII (Michael W. Deem and Ramdas Pophale) SiO2 
 PCOD9541960
Probable space group: I 4
;
_chemical_formula_sum "Si O2"
_cell_formula_units_Z 32
_cell_length_a 10.073439
_cell_length_b 10.073439
_cell_length_c 18.985584
_cell_angle_alpha 90.000000
_cell_angle_beta 90.000000
_cell_angle_gamma 90.000000
_cell_volume 1926.546441
_symmetry_space_group_name_H-M "I 4"
_symmetry_group_IT_number 79
_symmetry_cell_setting 'tetragonal'
loop_
_space_group_symop_operation_xyz
x,y,z
-y,x,z
-x,-y,z
y,-x,z
1/2+x,1/2+y,1/2+z
1/2-y,1/2+x,1/2+z
1/2-x,1/2-y,1/2+z
1/2+y,1/2-x,1/2+z
loop_
_atom_site_type_symbol
_atom_site_label
_atom_site_fract_x
_atom_site_fract_y
_atom_site_fract_z
Si Si1 0.287721 0.428047 0.382800
Si Si2 0.651814 0.862175 0.185174
Si Si3 0.428046 0.712279 0.543766
Si Si4 0.637825 0.151814 0.241393
O O1 0.420273 0.338241 0.374009
O O2 0.240805 0.412297 0.463283
O O3 0.183857 0.390826 0.322910
O O4 0.683857 0.890826 0.103656
O O5 0.749999 0.750000 0.213283
O O6 0.499823 0.824235 0.199703
O O7 0.675768 0.999823 0.226863
O O8 0.338241 0.579727 0.552557
#
# Coordination Sequence:
#
# PCOD9541960 Si02
#       4
#     8   8   8   8
#     4   9  17  33  58  84 110 148 192 234 280 331
#     4  11  22  36  56  85 116 147 190 229 282 337
#     4   9  17  33  58  84 110 148 192 234 280 331
#     4  11  22  36  56  85 116 147 190 229 282 337
#
# _framework density 16.610033999999999
#
# number of rings (size 3 to 8) (size 9 to 14) (size 15 to 20)
#    0.000    2.000    5.000    1.500    0.000    1.000 
#    0.000    7.500    0.000    0.000    0.000    3.500 
#    0.000    0.000    0.000    0.000    0.000    0.000 
#
# Total GULP energy -89254.400298 kJ/mol
# GULP energy per Si atom -5578.400019 kJ/mol
# Density = 1.657223 g / cm^3
# Si number density = 16.610034 Si / 1000 Ang^3
#
#
#
# Elastic Constant Matrix: (Units=GPa)
#
#
# Indices 1 2 3 4 5 6 
#
# 1 94.1204 63.5117 60.0010 0.0000 0.0000 11.4731
# 2 63.5117 94.1204 60.0010 0.0000 0.0000 -11.4731
# 3 60.0010 60.0010 171.5380 0.0000 0.0000 0.0000
# 4 0.0000 0.0000 0.0000 32.6161 0.0000 0.0000
# 5 0.0000 0.0000 0.0000 0.0000 32.6161 0.0000
# 6 11.4731 -11.4731 0.0000 0.0000 0.0000 28.3828
#
#
#
# Elastic Compliance Matrix: (Units=1/GPa)
#
#
# Indices 1 2 3 4 5 6 
#
# 1 0.027761 -0.019114 -0.003024 0.000000 0.000000 -0.018948
# 2 -0.019114 0.027761 -0.003024 0.000000 0.000000 0.018948
# 3 -0.003024 -0.003024 0.007945 0.000000 0.000000 0.000000
# 4 0.000000 0.000000 0.000000 0.030660 0.000000 0.000000
# 5 0.000000 0.000000 0.000000 0.000000 0.030660 0.000000
# 6 -0.018948 0.018948 0.000000 0.000000 0.000000 0.050551
#
#
# Mechanical properties :
#
#
# Convention : Reuss Voigt Hill
#
# Bulk Modulus (GPa) = 76.10028 80.75624 78.42826
# Shear Modulus (GPa) = 21.73504 30.47402 26.10453
#
# Velocity S-wave (km/s) = 3.62131 4.28796 3.96866
# Velocity P-wave (km/s) = 7.96244 8.55803 8.26560
#
# Compressibility (1/GPa) = 0.01314056
#
# Stress axis : x y z
#
# Youngs Moduli (GPa) = 36.02227 36.02227 125.86054
#
# Poissons Ratio (x) = 0.68854 0.38064
# Poissons Ratio (y) = 0.68854 0.38064
# Poissons Ratio (z) = 0.10894 0.10894
#
# Static dielectric constant tensor:
#      x y z
#    x 1.548120 0.000000 0.000000 
#    y 0.000000 1.548120 0.000000 
#    z 0.000000 0.000000 1.557650 
# 
# From -- ./inp_files/1261.got.cif
#   From: 2010.05.17/outbox.cif.g08.bks.cpg/sg79_cif.got.tgz:1261.got - 2010.06.03 18:47:27.
