data_PCOD9541700
_publ_section_title
;
Structure prediction by ZEFSAII (Michael W. Deem and Ramdas Pophale) SiO2 
 PCOD9541700
Probable space group: P 43
;
_chemical_formula_sum "Si O2"
_cell_formula_units_Z 32
_cell_length_a 11.330797
_cell_length_b 11.330797
_cell_length_c 11.739736
_cell_angle_alpha 90.000000
_cell_angle_beta 90.000000
_cell_angle_gamma 90.000000
_cell_volume 1507.229024
_symmetry_space_group_name_H-M "P 43"
_symmetry_group_IT_number 78
_symmetry_cell_setting 'tetragonal'
loop_
_space_group_symop_operation_xyz
x,y,z
-y,x,3/4+z
-x,-y,1/2+z
y,-x,1/4+z
loop_
_atom_site_type_symbol
_atom_site_label
_atom_site_fract_x
_atom_site_fract_y
_atom_site_fract_z
Si Si1 0.968385 0.139752 0.432830
Si Si2 0.003598 0.795923 0.689291
Si Si3 0.736000 0.730035 0.638774
Si Si4 0.623161 0.962783 0.313650
Si Si5 0.937390 0.375993 0.992140
Si Si6 0.280240 0.930669 0.030162
Si Si7 0.712054 0.309172 0.629031
Si Si8 0.523151 0.429331 0.938629
O O1 0.002805 0.250586 0.511853
O O2 0.855515 0.075188 0.487768
O O3 0.942408 0.205908 0.315009
O O4 0.072954 0.047572 0.402931
O O5 0.862565 0.771217 0.687784
O O6 0.055495 0.694207 0.609993
O O7 0.630616 0.806736 0.692919
O O8 0.740185 0.751649 0.503041
O O9 0.690419 0.599508 0.667472
O O10 0.624728 0.821624 0.320864
O O11 0.506843 0.011599 0.253762
O O12 0.632736 0.007437 0.442587
O O13 0.009077 0.296753 0.901757
O O14 0.318793 0.796675 0.046588
O O15 0.603245 0.389972 0.657547
O O16 0.552273 0.517827 0.828939
#
# Coordination Sequence:
#
# PCOD9541700 Si02
#       8
#     4   4   4   4   4   4   4   4
#     4  11  26  42  67 100 141 184 234 290 350 423
#     4  12  24  42  68 106 138 179 232 290 356 423
#     4  11  23  41  67 102 134 173 232 286 347 418
#     4  11  25  43  64  99 141 181 229 291 347 423
#     4  12  26  40  70 100 137 187 224 294 357 420
#     4  11  24  45  67 100 136 185 231 288 359 420
#     4  10  22  43  70  97 132 178 236 279 339 426
#     4  10  24  46  71 102 133 187 236 290 341 415
#
# _framework density 21.231014999999999
#
# number of rings (size 3 to 8) (size 9 to 14) (size 15 to 20)
#    0.000    1.000    5.000    0.750    5.250    3.000 
#    0.000    2.500    0.000    0.000    0.000    0.000 
#    0.000    0.000    0.000    0.000    0.000    0.000 
#
# Total GULP energy -178342.149098 kJ/mol
# GULP energy per Si atom -5573.192159 kJ/mol
# Density = 2.118269 g / cm^3
# Si number density = 21.231015 Si / 1000 Ang^3
#
#
#
# Elastic Constant Matrix: (Units=GPa)
#
#
# Indices 1 2 3 4 5 6 
#
# 1 45.3739 24.8110 12.2834 0.0000 0.0000 1.5864
# 2 24.8110 45.3739 12.2834 0.0000 0.0000 -1.5864
# 3 12.2834 12.2834 66.6770 0.0000 0.0000 0.0000
# 4 0.0000 0.0000 0.0000 33.5751 0.0000 0.0000
# 5 0.0000 0.0000 0.0000 0.0000 33.5751 0.0000
# 6 1.5864 -1.5864 0.0000 0.0000 0.0000 18.8971
#
#
#
# Elastic Compliance Matrix: (Units=1/GPa)
#
#
# Indices 1 2 3 4 5 6 
#
# 1 0.032250 -0.017020 -0.002806 0.000000 0.000000 -0.004136
# 2 -0.017020 0.032250 -0.002806 0.000000 0.000000 0.004136
# 3 -0.002806 -0.002806 0.016031 0.000000 0.000000 0.000000
# 4 0.000000 0.000000 0.000000 0.029784 0.000000 0.000000
# 5 0.000000 0.000000 0.000000 0.000000 0.029784 0.000000
# 6 -0.004136 0.004136 0.000000 0.000000 0.000000 0.053613
#
#
# Mechanical properties :
#
#
# Convention : Reuss Voigt Hill
#
# Bulk Modulus (GPa) = 28.35367 28.46450 28.40909
# Shear Modulus (GPa) = 19.94174 24.41259 22.17716
#
# Velocity S-wave (km/s) = 3.06808 3.39463 3.23548
# Velocity P-wave (km/s) = 5.09261 5.36664 5.23142
#
# Compressibility (1/GPa) = 0.03526880
#
# Stress axis : x y z
#
# Youngs Moduli (GPa) = 31.00787 31.00787 62.37743
#
# Poissons Ratio (x) = 0.52775 0.17502
# Poissons Ratio (y) = 0.52775 0.17502
# Poissons Ratio (z) = 0.08700 0.08700
#
# Static dielectric constant tensor:
#      x y z
#    x 1.804700 0.000000 0.000000 
#    y 0.000000 1.804700 0.000000 
#    z 0.000000 0.000000 1.841950 
# 
# From -- ./inp_files/1000.got.cif
#   From: 2010.05.17/outbox.cif.g08.bks.cpg/sg78_cif.got.tgz:1000.got - 2010.06.03 18:45:56.
