data_PCOD9541308
_publ_section_title
;
Structure prediction by ZEFSAII (Michael W. Deem and Ramdas Pophale) SiO2 
 PCOD9541308
Probable space group: P 41
;
_chemical_formula_sum "Si O2"
_cell_formula_units_Z 24
_cell_length_a 8.981040
_cell_length_b 8.981040
_cell_length_c 12.263885
_cell_angle_alpha 90.000000
_cell_angle_beta 90.000000
_cell_angle_gamma 90.000000
_cell_volume 989.193675
_symmetry_space_group_name_H-M "P 41"
_symmetry_group_IT_number 76
_symmetry_cell_setting 'tetragonal'
loop_
_space_group_symop_operation_xyz
x,y,z
-y,x,1/4+z
-x,-y,1/2+z
y,-x,3/4+z
loop_
_atom_site_type_symbol
_atom_site_label
_atom_site_fract_x
_atom_site_fract_y
_atom_site_fract_z
Si Si1 0.513929 0.418680 0.368490
Si Si2 0.796154 0.721196 0.528779
Si Si3 0.217641 0.758169 0.120630
Si Si4 0.177741 0.863901 0.348282
Si Si5 0.353500 0.989116 0.968103
Si Si6 0.112044 0.333287 0.802587
O O1 0.502035 0.479206 0.496454
O O2 0.674892 0.348993 0.346218
O O3 0.411373 0.268708 0.366076
O O4 0.943997 0.676946 0.593706
O O5 0.795291 0.643798 0.411247
O O6 0.772182 0.894432 0.506004
O O7 0.260305 0.815994 0.239637
O O8 0.044073 0.803608 0.103489
O O9 0.319173 0.842888 0.035885
O O10 0.254762 0.799926 0.455571
O O11 0.016423 0.786847 0.336909
O O12 0.517253 0.044599 0.000211
#
# Coordination Sequence:
#
# PCOD9541308 Si02
#       6
#     4   4   4   4   4   4
#     4  12  28  53  77 111 156 209 264 317 395 473
#     4  12  26  48  75 113 151 199 259 316 389 454
#     4  11  25  45  78 104 151 202 246 313 390 460
#     4  10  24  45  72 110 152 189 255 308 389 454
#     4  12  27  46  78 108 151 200 254 317 383 468
#     4  11  26  45  74 114 149 199 252 323 382 459
#
# _framework density 24.262186
#
# number of rings (size 3 to 8) (size 9 to 14) (size 15 to 20)
#    0.000    0.667    1.667    5.000   11.667    2.667 
#    0.000    0.000    0.000    0.000    0.000    0.000 
#    0.000    0.000    0.000    0.000    0.000    0.000 
#
# Total GULP energy -133909.778162 kJ/mol
# GULP energy per Si atom -5579.574090 kJ/mol
# Density = 2.420696 g / cm^3
# Si number density = 24.262186 Si / 1000 Ang^3
#
#
#
# Elastic Constant Matrix: (Units=GPa)
#
#
# Indices 1 2 3 4 5 6 
#
# 1 58.4628 31.0311 22.7996 0.0000 0.0000 4.8975
# 2 31.0311 58.4628 22.7996 0.0000 0.0000 -4.8975
# 3 22.7996 22.7996 190.5277 0.0000 0.0000 0.0000
# 4 0.0000 0.0000 0.0000 31.1220 0.0000 0.0000
# 5 0.0000 0.0000 0.0000 0.0000 31.1220 0.0000
# 6 4.8975 -4.8975 0.0000 0.0000 0.0000 31.0183
#
#
#
# Elastic Compliance Matrix: (Units=1/GPa)
#
#
# Indices 1 2 3 4 5 6 
#
# 1 0.025266 -0.013366 -0.001424 0.000000 0.000000 -0.006100
# 2 -0.013366 0.025266 -0.001424 0.000000 0.000000 0.006100
# 3 -0.001424 -0.001424 0.005589 0.000000 0.000000 0.000000
# 4 0.000000 0.000000 0.000000 0.032132 0.000000 0.000000
# 5 0.000000 0.000000 0.000000 0.000000 0.032132 0.000000
# 6 -0.006100 0.006100 0.000000 0.000000 0.000000 0.034165
#
#
# Mechanical properties :
#
#
# Convention : Reuss Voigt Hill
#
# Bulk Modulus (GPa) = 42.20743 51.19044 46.69893
# Shear Modulus (GPa) = 25.65740 34.04064 29.84902
#
# Velocity S-wave (km/s) = 3.25546 3.74977 3.51132
# Velocity P-wave (km/s) = 5.61826 6.31604 5.97734
#
# Compressibility (1/GPa) = 0.02369251
#
# Stress axis : x y z
#
# Youngs Moduli (GPa) = 39.57914 39.57914 178.91071
#
# Poissons Ratio (x) = 0.52903 0.25476
# Poissons Ratio (y) = 0.52903 0.25476
# Poissons Ratio (z) = 0.05636 0.05636
#
# Static dielectric constant tensor:
#      x y z
#    x 1.962770 0.000000 0.000000 
#    y 0.000000 1.962770 0.000000 
#    z 0.000000 0.000000 2.010560 
# 
# From -- ./inp_files/844.got.cif
#   From: 2010.05.17/outbox.cif.g08.bks.cpg/sg76_cif.got.tgz:844.got - 2010.06.03 18:43:17.
