data_PCOD9541813
_publ_section_title
;
Structure prediction by ZEFSAII (Michael W. Deem and Ramdas Pophale) SiO2 
 PCOD9541813
Probable space group: I 4
;
_chemical_formula_sum "Si O2"
_cell_formula_units_Z 56
_cell_length_a 14.371100
_cell_length_b 14.371100
_cell_length_c 11.690035
_cell_angle_alpha 90.000000
_cell_angle_beta 90.000000
_cell_angle_gamma 90.000000
_cell_volume 2414.325571
_symmetry_space_group_name_H-M "I 4"
_symmetry_group_IT_number 79
_symmetry_cell_setting 'tetragonal'
loop_
_space_group_symop_operation_xyz
x,y,z
-y,x,z
-x,-y,z
y,-x,z
1/2+x,1/2+y,1/2+z
1/2-y,1/2+x,1/2+z
1/2-x,1/2-y,1/2+z
1/2+y,1/2-x,1/2+z
loop_
_atom_site_type_symbol
_atom_site_label
_atom_site_fract_x
_atom_site_fract_y
_atom_site_fract_z
Si Si1 0.180721 0.603628 0.882920
Si Si2 0.622340 0.411257 0.918151
Si Si3 0.878050 0.095928 0.880789
Si Si4 0.811876 0.839834 0.650120
Si Si5 0.760726 0.853604 0.051949
Si Si6 0.365905 0.013128 0.164477
Si Si7 0.025039 0.645788 0.597008
O O1 0.287552 0.632778 0.859018
O O2 0.138311 0.551827 0.775310
O O3 0.133071 0.692759 0.940522
O O4 0.180782 0.526958 0.983892
O O5 0.624464 0.520270 0.889125
O O6 0.632758 0.387663 0.053372
O O7 0.828220 0.140812 0.772134
O O8 0.985915 0.125389 0.873013
O O9 0.846036 0.136783 0.001828
O O10 0.767922 0.743271 0.608681
O O11 0.731298 0.918112 0.649774
O O12 0.730809 0.937979 0.133553
O O13 0.442748 0.095831 0.169949
O O14 0.404283 0.939456 0.070966
#
# Coordination Sequence:
#
# PCOD9541813 Si02
#       7
#     8   8   8   8   8   8   8
#     4  10  21  42  63  96 135 174 227 276 351 405
#     4  10  19  36  63  94 129 165 220 285 328 392
#     4  11  26  45  70 102 141 189 226 279 352 419
#     4  11  22  41  69 101 130 178 234 291 339 403
#     4  10  25  44  66 103 136 174 238 284 338 422
#     4  10  23  41  64  97 137 179 220 280 354 415
#     4  10  22  39  64  98 130 174 223 292 342 403
#
# _framework density 23.194883999999998
#
# number of rings (size 3 to 8) (size 9 to 14) (size 15 to 20)
#    0.000    1.714    1.429    1.714    6.000    8.000 
#    2.571    0.000    0.000    1.714    0.000    0.000 
#    0.000    0.000    0.000    0.000    0.000    0.000 
#
# Total GULP energy -156492.515577 kJ/mol
# GULP energy per Si atom -5589.018413 kJ/mol
# Density = 2.314209 g / cm^3
# Si number density = 23.194884 Si / 1000 Ang^3
#
#
#
# Elastic Constant Matrix: (Units=GPa)
#
#
# Indices 1 2 3 4 5 6 
#
# 1 64.1725 22.7703 22.6075 0.0000 0.0000 6.3378
# 2 22.7703 64.1725 22.6075 0.0000 0.0000 -6.3378
# 3 22.6075 22.6075 43.0748 0.0000 0.0000 0.0000
# 4 0.0000 0.0000 0.0000 26.5910 0.0000 0.0000
# 5 0.0000 0.0000 0.0000 0.0000 26.5910 0.0000
# 6 6.3378 -6.3378 0.0000 0.0000 0.0000 29.3431
#
#
#
# Elastic Compliance Matrix: (Units=1/GPa)
#
#
# Indices 1 2 3 4 5 6 
#
# 1 0.020842 -0.005022 -0.008303 0.000000 0.000000 -0.005586
# 2 -0.005022 0.020842 -0.008303 0.000000 0.000000 0.005586
# 3 -0.008303 -0.008303 0.031931 0.000000 0.000000 0.000000
# 4 0.000000 0.000000 0.000000 0.037607 0.000000 0.000000
# 5 0.000000 0.000000 0.000000 0.000000 0.037607 0.000000
# 6 -0.005586 0.005586 0.000000 0.000000 0.000000 0.036493
#
#
# Mechanical properties :
#
#
# Convention : Reuss Voigt Hill
#
# Bulk Modulus (GPa) = 32.93934 34.15448 33.54691
# Shear Modulus (GPa) = 20.94721 23.40065 22.17393
#
# Velocity S-wave (km/s) = 3.00842 3.17972 3.09525
# Velocity P-wave (km/s) = 5.12829 5.31392 5.22193
#
# Compressibility (1/GPa) = 0.03035884
#
# Stress axis : x y z
#
# Youngs Moduli (GPa) = 47.98080 47.98080 31.31775
#
# Poissons Ratio (x) = 0.24096 0.26003
# Poissons Ratio (y) = 0.24096 0.26003
# Poissons Ratio (z) = 0.39838 0.39838
#
# Static dielectric constant tensor:
#      x y z
#    x 1.895060 0.000000 0.000000 
#    y 0.000000 1.895060 0.000000 
#    z 0.000000 0.000000 1.884490 
# 
# From -- ./inp_files/1165.got.cif
#   From: 2010.05.17/outbox.cif.g08.bks.cpg/sg79_cif.got.tgz:1165.got - 2010.06.03 18:47:27.
