data_PCOD9541894
_publ_section_title
;
Structure prediction by ZEFSAII (Michael W. Deem and Ramdas Pophale) SiO2 
 PCOD9541894
Probable space group: I 4
;
_chemical_formula_sum "Si O2"
_cell_formula_units_Z 56
_cell_length_a 15.236575
_cell_length_b 15.236575
_cell_length_c 10.809320
_cell_angle_alpha 90.000000
_cell_angle_beta 90.000000
_cell_angle_gamma 90.000000
_cell_volume 2509.418419
_symmetry_space_group_name_H-M "I 4"
_symmetry_group_IT_number 79
_symmetry_cell_setting 'tetragonal'
loop_
_space_group_symop_operation_xyz
x,y,z
-y,x,z
-x,-y,z
y,-x,z
1/2+x,1/2+y,1/2+z
1/2-y,1/2+x,1/2+z
1/2-x,1/2-y,1/2+z
1/2+y,1/2-x,1/2+z
loop_
_atom_site_type_symbol
_atom_site_label
_atom_site_fract_x
_atom_site_fract_y
_atom_site_fract_z
Si Si1 0.892040 0.100285 0.144420
Si Si2 0.291182 0.234395 0.704431
Si Si3 0.887377 0.415333 0.816927
Si Si4 0.860224 0.038511 0.645399
Si Si5 0.294643 0.858368 0.557400
Si Si6 0.386434 0.906390 0.811555
Si Si7 0.796749 0.128556 0.885509
O O1 0.827580 0.160145 0.228081
O O2 0.995236 0.120057 0.161795
O O3 0.858300 0.122082 0.004810
O O4 0.368960 0.164471 0.706110
O O5 0.234105 0.246147 0.580158
O O6 0.218398 0.203924 0.804871
O O7 0.867774 0.517917 0.835666
O O8 0.989826 0.400581 0.799949
O O9 0.854198 0.367461 0.939763
O O10 0.779550 0.067026 0.560725
O O11 0.828828 0.054583 0.786610
O O12 0.941541 0.104289 0.625587
O O13 0.352577 0.870251 0.680387
O O14 0.306698 0.890239 0.906041
#
# Coordination Sequence:
#
# PCOD9541894 Si02
#       7
#     8   8   8   8   8   8   8
#     4  11  25  42  69 101 134 179 225 287 345 400
#     4  10  24  39  65  92 137 174 216 278 334 417
#     4  11  23  44  66  95 136 181 222 287 347 410
#     4   9  18  36  61  90 128 168 220 283 329 401
#     4  10  24  41  64  99 131 174 229 277 353 398
#     4   9  24  40  66  97 130 177 226 285 336 416
#     4  10  22  38  65  98 128 173 224 275 348 392
#
# _framework density 22.315928
#
# number of rings (size 3 to 8) (size 9 to 14) (size 15 to 20)
#    0.000    2.286    0.000    1.714   16.000    4.571 
#    5.143    0.000    0.000    1.714    0.000    0.000 
#    0.000    0.000    0.000    0.000    0.000    0.000 
#
# Total GULP energy -156366.211745 kJ/mol
# GULP energy per Si atom -5584.507562 kJ/mol
# Density = 2.226514 g / cm^3
# Si number density = 22.315928 Si / 1000 Ang^3
#
#
#
# Elastic Constant Matrix: (Units=GPa)
#
#
# Indices 1 2 3 4 5 6 
#
# 1 91.3056 19.7717 5.8728 0.0000 0.0000 -4.9251
# 2 19.7717 91.3056 5.8728 0.0000 0.0000 4.9251
# 3 5.8728 5.8728 43.8162 0.0000 0.0000 0.0000
# 4 0.0000 0.0000 0.0000 21.7860 0.0000 0.0000
# 5 0.0000 0.0000 0.0000 0.0000 21.7860 0.0000
# 6 -4.9251 4.9251 0.0000 0.0000 0.0000 44.4939
#
#
#
# Elastic Compliance Matrix: (Units=1/GPa)
#
#
# Indices 1 2 3 4 5 6 
#
# 1 0.011664 -0.002532 -0.001224 0.000000 0.000000 0.001571
# 2 -0.002532 0.011664 -0.001224 0.000000 0.000000 -0.001571
# 3 -0.001224 -0.001224 0.023151 0.000000 0.000000 0.000000
# 4 0.000000 0.000000 0.000000 0.045901 0.000000 0.000000
# 5 0.000000 0.000000 0.000000 0.000000 0.045901 0.000000
# 6 0.001571 -0.001571 0.000000 0.000000 0.000000 0.022823
#
#
# Mechanical properties :
#
#
# Convention : Reuss Voigt Hill
#
# Bulk Modulus (GPa) = 27.38299 32.16244 29.77272
# Shear Modulus (GPa) = 27.28719 30.60719 28.94719
#
# Velocity S-wave (km/s) = 3.50060 3.70745 3.60551
# Velocity P-wave (km/s) = 5.35128 5.72455 5.54106
#
# Compressibility (1/GPa) = 0.03651902
#
# Stress axis : x y z
#
# Youngs Moduli (GPa) = 85.73411 85.73411 43.19520
#
# Poissons Ratio (x) = 0.21706 0.05287
# Poissons Ratio (y) = 0.21706 0.05287
# Poissons Ratio (z) = 0.10494 0.10494
#
# Static dielectric constant tensor:
#      x y z
#    x 1.831390 0.000000 0.000000 
#    y 0.000000 1.831390 0.000000 
#    z 0.000000 0.000000 1.852820 
# 
# From -- ./inp_files/1159.got.cif
#   From: 2010.05.17/outbox.cif.g08.bks.cpg/sg79_cif.got.tgz:1159.got - 2010.06.03 18:47:27.
