data_PCOD9541517
_publ_section_title
;
Structure prediction by ZEFSAII (Michael W. Deem and Ramdas Pophale) SiO2 
 PCOD9541517
Probable space group: P 42
;
_chemical_formula_sum "Si O2"
_cell_formula_units_Z 24
_cell_length_a 9.471076
_cell_length_b 9.471076
_cell_length_c 12.462266
_cell_angle_alpha 90.000000
_cell_angle_beta 90.000000
_cell_angle_gamma 90.000000
_cell_volume 1117.881219
_symmetry_space_group_name_H-M "P 42"
_symmetry_group_IT_number 77
_symmetry_cell_setting 'tetragonal'
loop_
_space_group_symop_operation_xyz
x,y,z
-y,x,1/2+z
-x,-y,z
y,-x,1/2+z
loop_
_atom_site_type_symbol
_atom_site_label
_atom_site_fract_x
_atom_site_fract_y
_atom_site_fract_z
Si Si1 0.334925 0.997905 0.308320
Si Si2 0.729568 0.182303 0.756462
Si Si3 0.631909 0.596628 0.070407
Si Si4 0.268995 0.152721 0.742835
Si Si5 0.408284 0.129182 0.529676
Si Si6 0.497622 0.837655 0.926062
O O1 0.255489 0.120465 0.247105
O O2 0.333243 0.049203 0.432307
O O3 0.500000 0.000000 0.279046
O O4 0.251087 0.855101 0.286624
O O5 0.638005 0.266455 0.668603
O O6 0.654157 0.197874 0.873092
O O7 0.755845 0.015916 0.740225
O O8 0.500000 0.500000 0.104311
O O9 0.741578 0.509518 0.994234
O O10 0.561328 0.729293 0.011106
O O11 0.308512 0.191141 0.621168
O O12 0.399975 0.168934 0.822782
O O13 0.500000 0.000000 0.580277
O O14 0.500000 0.000000 0.965226
#
# Coordination Sequence:
#
# PCOD9541517 Si02
#       6
#     4   4   4   4   4   4
#     4  11  26  42  70 103 144 175 241 300 342 411
#     4  11  24  46  65  99 143 186 233 286 360 421
#     4  12  25  40  71 103 139 190 235 287 357 421
#     4  11  22  45  72  98 135 191 229 287 355 421
#     4  11  21  45  71  99 137 190 231 285 364 420
#     4  10  22  44  70  99 138 181 234 285 348 416
#
# _framework density 21.469187000000002
#
# number of rings (size 3 to 8) (size 9 to 14) (size 15 to 20)
#    0.000    1.000    3.333    4.000    2.333    2.667 
#    6.000    1.667    0.000    0.000    0.000    0.000 
#    0.000    0.000    0.000    0.000    0.000    0.000 
#
# Total GULP energy -134071.552301 kJ/mol
# GULP energy per Si atom -5586.314679 kJ/mol
# Density = 2.142032 g / cm^3
# Si number density = 21.469187 Si / 1000 Ang^3
#
#
#
# Elastic Constant Matrix: (Units=GPa)
#
#
# Indices 1 2 3 4 5 6 
#
# 1 119.6287 63.9627 27.1478 0.0000 0.0000 1.6886
# 2 63.9627 119.6287 27.1478 0.0000 0.0000 -1.6886
# 3 27.1478 27.1478 50.5982 0.0000 0.0000 0.0000
# 4 0.0000 0.0000 0.0000 21.7507 0.0000 0.0000
# 5 0.0000 0.0000 0.0000 0.0000 21.7507 0.0000
# 6 1.6886 -1.6886 0.0000 0.0000 0.0000 48.9209
#
#
#
# Elastic Compliance Matrix: (Units=1/GPa)
#
#
# Indices 1 2 3 4 5 6 
#
# 1 0.012238 -0.005764 -0.003474 0.000000 0.000000 -0.000621
# 2 -0.005764 0.012238 -0.003474 0.000000 0.000000 0.000621
# 3 -0.003474 -0.003474 0.023491 0.000000 0.000000 0.000000
# 4 0.000000 0.000000 0.000000 0.045976 0.000000 0.000000
# 5 0.000000 0.000000 0.000000 0.000000 0.045976 0.000000
# 6 -0.000621 0.000621 0.000000 0.000000 0.000000 0.020484
#
#
# Mechanical properties :
#
#
# Convention : Reuss Voigt Hill
#
# Bulk Modulus (GPa) = 44.35605 58.48578 51.42092
# Shear Modulus (GPa) = 25.86121 29.92426 27.89274
#
# Velocity S-wave (km/s) = 3.47446 3.73745 3.60835
# Velocity P-wave (km/s) = 6.06639 6.77684 6.43143
#
# Compressibility (1/GPa) = 0.02254484
#
# Stress axis : x y z
#
# Youngs Moduli (GPa) = 81.71220 81.71220 42.56949
#
# Poissons Ratio (x) = 0.47098 0.14787
# Poissons Ratio (y) = 0.47098 0.14787
# Poissons Ratio (z) = 0.28384 0.28384
#
# Static dielectric constant tensor:
#      x y z
#    x 1.791990 0.000000 0.000000 
#    y 0.000000 1.791990 0.000000 
#    z 0.000000 0.000000 1.804780 
# 
# From -- ./inp_files/1109.got.cif
#   From: 2010.05.17/outbox.cif.g08.bks.cpg/sg77_cif.got.tgz:1109.got - 2010.06.03 18:44:51.
