data_PCOD9541737
_publ_section_title
;
Structure prediction by ZEFSAII (Michael W. Deem and Ramdas Pophale) SiO2 
 PCOD9541737
Probable space group: P 43
;
_chemical_formula_sum "Si O2"
_cell_formula_units_Z 16
_cell_length_a 5.148563
_cell_length_b 5.148563
_cell_length_c 26.282923
_cell_angle_alpha 90.000000
_cell_angle_beta 90.000000
_cell_angle_gamma 90.000000
_cell_volume 696.699863
_symmetry_space_group_name_H-M "P 43"
_symmetry_group_IT_number 78
_symmetry_cell_setting 'tetragonal'
loop_
_space_group_symop_operation_xyz
x,y,z
-y,x,3/4+z
-x,-y,1/2+z
y,-x,1/4+z
loop_
_atom_site_type_symbol
_atom_site_label
_atom_site_fract_x
_atom_site_fract_y
_atom_site_fract_z
Si Si1 0.901052 0.711218 0.739660
Si Si2 0.765724 0.987605 0.875359
Si Si3 0.038989 0.469879 0.835654
Si Si4 0.601946 0.155743 0.291756
O O1 0.976723 0.663973 0.682163
O O2 0.611101 0.811365 0.747853
O O3 0.919552 0.468986 0.778434
O O4 0.122224 0.898580 0.764977
O O5 0.981034 0.207503 0.864561
O O6 0.537087 0.017187 0.833986
O O7 0.895468 0.707360 0.865025
O O8 0.325547 0.580153 0.823247
#
# Coordination Sequence:
#
# PCOD9541737 Si02
#       4
#     4   4   4   4
#     4   9  20  42  69 101 139 191 230 298 360 421
#     4  11  20  44  73 101 141 191 235 293 366 423
#     4   9  23  39  69 102 142 177 239 292 348 428
#     4   9  21  43  65 104 146 171 244 293 344 434
#
# _framework density 22.965413999999999
#
# number of rings (size 3 to 8) (size 9 to 14) (size 15 to 20)
#    1.500    1.000    0.000    1.500    0.000    4.000 
#    9.000    0.000   16.500    0.000    0.000    0.000 
#    0.000    0.000    0.000    0.000    0.000    0.000 
#
# Total GULP energy -89086.950402 kJ/mol
# GULP energy per Si atom -5567.934400 kJ/mol
# Density = 2.291314 g / cm^3
# Si number density = 22.965414 Si / 1000 Ang^3
#
#
#
# Elastic Constant Matrix: (Units=GPa)
#
#
# Indices 1 2 3 4 5 6 
#
# 1 93.5265 30.2883 -9.1874 0.0000 0.0000 10.2853
# 2 30.2883 93.5265 -9.1874 0.0000 0.0000 -10.2853
# 3 -9.1874 -9.1874 76.4202 0.0000 0.0000 0.0000
# 4 0.0000 0.0000 0.0000 10.0038 0.0000 0.0000
# 5 0.0000 0.0000 0.0000 0.0000 10.0038 0.0000
# 6 10.2853 -10.2853 0.0000 0.0000 0.0000 20.4454
#
#
#
# Elastic Compliance Matrix: (Units=1/GPa)
#
#
# Indices 1 2 3 4 5 6 
#
# 1 0.013565 -0.005342 0.000989 0.000000 0.000000 -0.009511
# 2 -0.005342 0.013565 0.000989 0.000000 0.000000 0.009511
# 3 0.000989 0.000989 0.013323 0.000000 0.000000 0.000000
# 4 0.000000 0.000000 0.000000 0.099962 0.000000 0.000000
# 5 0.000000 0.000000 0.000000 0.000000 0.099962 0.000000
# 6 -0.009511 0.009511 0.000000 0.000000 0.000000 0.058480
#
#
# Mechanical properties :
#
#
# Convention : Reuss Voigt Hill
#
# Bulk Modulus (GPa) = 29.65217 31.92224 30.78721
# Shear Modulus (GPa) = 15.78135 24.86124 20.32130
#
# Velocity S-wave (km/s) = 2.62425 3.29378 2.97790
# Velocity P-wave (km/s) = 4.70340 5.32876 5.02582
#
# Compressibility (1/GPa) = 0.03372434
#
# Stress axis : x y z
#
# Youngs Moduli (GPa) = 73.71789 73.71789 75.05674
#
# Poissons Ratio (x) = 0.39380 -0.07420
# Poissons Ratio (y) = 0.39380 -0.07420
# Poissons Ratio (z) = -0.07288 -0.07288
#
# Static dielectric constant tensor:
#      x y z
#    x 1.913480 0.000000 0.000000 
#    y 0.000000 1.913480 0.000000 
#    z 0.000000 0.000000 1.839690 
# 
# From -- ./inp_files/1540.got.cif
#   From: 2010.05.17/outbox.cif.g08.bks.cpg/sg78_cif.got.tgz:1540.got - 2010.06.03 18:45:56.
