data_PCOD9541607
_publ_section_title
;
Structure prediction by ZEFSAII (Michael W. Deem and Ramdas Pophale) SiO2 
 PCOD9541607
Probable space group: P 43
;
_chemical_formula_sum "Si O2"
_cell_formula_units_Z 28
_cell_length_a 13.285832
_cell_length_b 13.285832
_cell_length_c 7.810250
_cell_angle_alpha 90.000000
_cell_angle_beta 90.000000
_cell_angle_gamma 90.000000
_cell_volume 1378.613251
_symmetry_space_group_name_H-M "P 43"
_symmetry_group_IT_number 78
_symmetry_cell_setting 'tetragonal'
loop_
_space_group_symop_operation_xyz
x,y,z
-y,x,3/4+z
-x,-y,1/2+z
y,-x,1/4+z
loop_
_atom_site_type_symbol
_atom_site_label
_atom_site_fract_x
_atom_site_fract_y
_atom_site_fract_z
Si Si1 0.456868 0.376949 0.051870
Si Si2 0.210300 0.559949 0.552850
Si Si3 0.745739 0.563718 0.381516
Si Si4 0.747145 0.862549 0.607583
Si Si5 0.562199 0.990522 0.994972
Si Si6 0.870159 0.414914 0.593066
Si Si7 0.718224 0.085594 0.745939
O O1 0.423662 0.448148 0.208841
O O2 0.479349 0.269543 0.137962
O O3 0.358364 0.383781 0.930922
O O4 0.266415 0.507046 0.714425
O O5 0.196304 0.679401 0.502747
O O6 0.098086 0.533391 0.612715
O O7 0.779670 0.485229 0.529213
O O8 0.837484 0.646194 0.385612
O O9 0.690335 0.845699 0.426728
O O10 0.853919 0.811633 0.574674
O O11 0.747468 0.981451 0.651551
O O12 0.468476 0.064904 0.991586
O O13 0.651143 0.051429 0.907205
O O14 0.590429 0.938804 0.172515
#
# Coordination Sequence:
#
# PCOD9541607 Si02
#       7
#     4   4   4   4   4   4   4
#     4  12  24  38  54  86 133 172 206 245 318 389
#     4  10  20  38  60  85 121 162 210 252 312 367
#     4  10  21  38  62  93 119 163 214 262 305 386
#     4  11  21  41  63  93 123 164 205 267 322 387
#     4   9  19  37  62  93 115 154 208 271 311 370
#     4  10  19  36  65  88 118 152 209 265 316 363
#     4  10  22  40  64  90 123 161 212 260 332 380
#
# _framework density 20.310265999999999
#
# number of rings (size 3 to 8) (size 9 to 14) (size 15 to 20)
#    0.000    1.714    1.429    5.143    0.000    1.143 
#    2.571    5.714    0.000    0.000    0.000    0.000 
#    0.000    0.000    0.000    0.000    0.000    0.000 
#
# Total GULP energy -156036.774043 kJ/mol
# GULP energy per Si atom -5572.741930 kJ/mol
# Density = 2.026404 g / cm^3
# Si number density = 20.310266 Si / 1000 Ang^3
#
#
#
# Elastic Constant Matrix: (Units=GPa)
#
#
# Indices 1 2 3 4 5 6 
#
# 1 87.7726 44.7950 38.4675 0.0000 0.0000 -1.8923
# 2 44.7950 87.7726 38.4675 0.0000 0.0000 1.8923
# 3 38.4675 38.4675 117.0475 0.0000 0.0000 0.0000
# 4 0.0000 0.0000 0.0000 32.7781 0.0000 0.0000
# 5 0.0000 0.0000 0.0000 0.0000 32.7781 0.0000
# 6 -1.8923 1.8923 0.0000 0.0000 0.0000 36.1364
#
#
#
# Elastic Compliance Matrix: (Units=1/GPa)
#
#
# Indices 1 2 3 4 5 6 
#
# 1 0.016348 -0.007027 -0.003063 0.000000 0.000000 0.001224
# 2 -0.007027 0.016348 -0.003063 0.000000 0.000000 -0.001224
# 3 -0.003063 -0.003063 0.010557 0.000000 0.000000 0.000000
# 4 0.000000 0.000000 0.000000 0.030508 0.000000 0.000000
# 5 0.000000 0.000000 0.000000 0.000000 0.030508 0.000000
# 6 0.001224 -0.001224 0.000000 0.000000 0.000000 0.027801
#
#
# Mechanical properties :
#
#
# Convention : Reuss Voigt Hill
#
# Bulk Modulus (GPa) = 59.01149 59.56141 59.28645
# Shear Modulus (GPa) = 30.48257 31.72937 31.10597
#
# Velocity S-wave (km/s) = 3.87828 3.95680 3.91773
# Velocity P-wave (km/s) = 7.01233 7.08974 7.05114
#
# Compressibility (1/GPa) = 0.01694585
#
# Stress axis : x y z
#
# Youngs Moduli (GPa) = 61.16793 61.16793 94.72308
#
# Poissons Ratio (x) = 0.42985 0.29017
# Poissons Ratio (y) = 0.42985 0.29017
# Poissons Ratio (z) = 0.18738 0.18738
#
# Static dielectric constant tensor:
#      x y z
#    x 1.743460 0.000000 0.000000 
#    y 0.000000 1.743460 0.000000 
#    z 0.000000 0.000000 1.766110 
# 
# From -- ./inp_files/634.got.cif
#   From: 2010.05.17/outbox.cif.g08.bks.cpg/sg78_cif.got.tgz:634.got - 2010.06.03 18:45:56.
