data_PCOD9541933
_publ_section_title
;
Structure prediction by ZEFSAII (Michael W. Deem and Ramdas Pophale) SiO2 
 PCOD9541933
Probable space group: I 4
;
_chemical_formula_sum "Si O2"
_cell_formula_units_Z 58
_cell_length_a 10.456814
_cell_length_b 10.456814
_cell_length_c 22.498781
_cell_angle_alpha 90.000000
_cell_angle_beta 90.000000
_cell_angle_gamma 90.000000
_cell_volume 2460.128287
_symmetry_space_group_name_H-M "I 4"
_symmetry_group_IT_number 79
_symmetry_cell_setting 'tetragonal'
loop_
_space_group_symop_operation_xyz
x,y,z
-y,x,z
-x,-y,z
y,-x,z
1/2+x,1/2+y,1/2+z
1/2-y,1/2+x,1/2+z
1/2-x,1/2-y,1/2+z
1/2+y,1/2-x,1/2+z
loop_
_atom_site_type_symbol
_atom_site_label
_atom_site_fract_x
_atom_site_fract_y
_atom_site_fract_z
Si Si1 0.784462 0.010785 0.078520
Si Si2 0.858091 0.358747 0.997839
Si Si3 0.423129 0.298229 0.113688
Si Si4 0.000000 0.000000 0.479552
Si Si5 0.560147 0.134883 0.822374
Si Si6 0.215918 0.979732 0.210686
Si Si7 0.071820 0.201313 0.745770
Si Si8 0.234623 0.381356 0.946887
O O1 0.722956 0.024991 0.144425
O O2 0.872899 0.884107 0.076699
O O3 0.698065 0.994868 0.019850
O O4 0.772151 0.253164 0.961290
O O5 0.854958 0.498964 0.968333
O O6 0.795489 0.382900 0.062569
O O7 0.570349 0.342851 0.108688
O O8 0.406119 0.244686 0.179640
O O9 0.078123 0.867447 0.475835
O O10 0.477479 0.193386 0.768020
O O11 0.696361 0.103728 0.794143
O O12 0.590577 0.230204 0.876343
O O13 0.500000 0.000000 0.842388
O O14 0.133516 0.111150 0.214192
O O15 0.925835 0.156117 0.750219
#
# Coordination Sequence:
#
# PCOD9541933 Si02
#       8
#     8   8   8   2   8   8   8   8
#     4   9  20  41  63  87 117 160 208 253 306 386
#     4  11  19  37  62  90 123 164 201 256 315 371
#     4   9  16  31  62  96 123 147 190 250 311 371
#     4   8  20  40  60  84 116 164 228 252 308 374
#     4  12  27  41  60  91 133 166 215 275 305 372
#     4   9  21  41  68  94 122 163 213 265 328 384
#     4   9  21  41  65  92 124 169 206 254 326 386
#     4  10  24  36  59  93 127 164 211 261 315 369
#
# _framework density 23.576006
#
# number of rings (size 3 to 8) (size 9 to 14) (size 15 to 20)
#    0.000    2.207    1.379    2.483    5.793    1.103 
#    2.483    0.000    0.000    1.655    0.000    0.000 
#    0.000    0.000    0.000    0.000    0.000    0.000 
#
# Total GULP energy -161612.027790 kJ/mol
# GULP energy per Si atom -5572.828544 kJ/mol
# Density = 2.352235 g / cm^3
# Si number density = 23.576006 Si / 1000 Ang^3
#
#
#
# Elastic Constant Matrix: (Units=GPa)
#
#
# Indices 1 2 3 4 5 6 
#
# 1 68.3956 -22.6895 19.2363 0.0000 0.0000 0.1819
# 2 -22.6895 68.3956 19.2363 0.0000 0.0000 -0.1819
# 3 19.2363 19.2363 108.1783 0.0000 0.0000 0.0000
# 4 0.0000 0.0000 0.0000 4.9272 0.0000 0.0000
# 5 0.0000 0.0000 0.0000 0.0000 4.9272 0.0000
# 6 0.1819 -0.1819 0.0000 0.0000 0.0000 28.5144
#
#
#
# Elastic Compliance Matrix: (Units=1/GPa)
#
#
# Indices 1 2 3 4 5 6 
#
# 1 0.018355 0.007376 -0.004575 0.000000 0.000000 -0.000070
# 2 0.007376 0.018355 -0.004575 0.000000 0.000000 0.000070
# 3 -0.004575 -0.004575 0.010871 0.000000 0.000000 0.000000
# 4 0.000000 0.000000 0.000000 0.202953 0.000000 0.000000
# 5 0.000000 0.000000 0.000000 0.000000 0.202953 0.000000
# 6 -0.000070 0.000070 0.000000 0.000000 0.000000 0.035071
#
#
# Mechanical properties :
#
#
# Convention : Reuss Voigt Hill
#
# Bulk Modulus (GPa) = 22.71169 30.72619 26.71894
# Shear Modulus (GPa) = 9.86613 22.95287 16.40950
#
# Velocity S-wave (km/s) = 2.04790 3.12359 2.64109
# Velocity P-wave (km/s) = 3.90463 5.10590 4.54513
#
# Compressibility (1/GPa) = 0.04403019
#
# Stress axis : x y z
#
# Youngs Moduli (GPa) = 54.48215 54.48216 91.98623
#
# Poissons Ratio (x) = -0.40184 0.42087
# Poissons Ratio (y) = -0.40184 0.42087
# Poissons Ratio (z) = 0.24928 0.24928
#
# Static dielectric constant tensor:
#      x y z
#    x 1.946370 0.000000 0.000000 
#    y 0.000000 1.946370 0.000000 
#    z 0.000000 0.000000 1.903760 
# 
# From -- ./inp_files/1855.got.cif
#   From: 2010.05.17/outbox.cif.g08.bks.cpg/sg79_cif.got.tgz:1855.got - 2010.06.03 18:47:27.
