data_PCOD9541214
_publ_section_title
;
Structure prediction by ZEFSAII (Michael W. Deem and Ramdas Pophale) SiO2 
 PCOD9541214
Probable space group: P 41
;
_chemical_formula_sum "Si O2"
_cell_formula_units_Z 28
_cell_length_a 11.456185
_cell_length_b 11.456185
_cell_length_c 11.177645
_cell_angle_alpha 90.000000
_cell_angle_beta 90.000000
_cell_angle_gamma 90.000000
_cell_volume 1467.000794
_symmetry_space_group_name_H-M "P 41"
_symmetry_group_IT_number 76
_symmetry_cell_setting 'tetragonal'
loop_
_space_group_symop_operation_xyz
x,y,z
-y,x,1/4+z
-x,-y,1/2+z
y,-x,3/4+z
loop_
_atom_site_type_symbol
_atom_site_label
_atom_site_fract_x
_atom_site_fract_y
_atom_site_fract_z
Si Si1 0.896391 0.671238 0.601200
Si Si2 0.692470 0.633569 0.789645
Si Si3 0.643864 0.356145 0.798559
Si Si4 0.779039 0.499991 0.423563
Si Si5 0.671239 0.896377 0.495910
Si Si6 0.936659 0.936652 0.548541
Si Si7 0.366435 0.307558 0.807479
O O1 0.788385 0.678373 0.694681
O O2 0.855796 0.592016 0.493752
O O3 0.945537 0.794956 0.553248
O O4 0.000012 0.611481 0.673547
O O5 0.669328 0.494547 0.778970
O O6 0.571415 0.695820 0.760319
O O7 0.715905 0.668231 0.927560
O O8 0.505456 0.330708 0.818143
O O9 0.715895 0.331770 0.919568
O O10 0.855809 0.407974 0.353377
O O11 0.695823 0.571390 0.336796
O O12 0.794962 0.945528 0.543840
O O13 0.678361 0.788354 0.402450
O O14 0.000005 0.976439 0.673539
#
# Coordination Sequence:
#
# PCOD9541214 Si02
#       7
#     4   4   4   4   4   4   4
#     4  11  24  41  65  91 128 167 214 267 323 386
#     4  11  20  37  58  95 127 168 211 256 313 394
#     4  10  22  31  61  92 132 162 214 258 300 389
#     4  12  20  38  62  90 124 170 196 258 332 382
#     4  11  24  41  65  91 128 167 214 267 323 386
#     4  10  22  45  71  96 122 170 226 276 320 391
#     4  11  20  37  58  95 127 168 211 256 313 394
#
# _framework density 19.086562000000001
#
# number of rings (size 3 to 8) (size 9 to 14) (size 15 to 20)
#    0.000    1.143    5.714    1.714    0.000    2.286 
#    0.000    7.143    0.000    0.000    0.000    0.000 
#    0.000    0.000    0.000    0.000    0.000    0.000 
#
# Total GULP energy -155970.827730 kJ/mol
# GULP energy per Si atom -5570.386705 kJ/mol
# Density = 1.904312 g / cm^3
# Si number density = 19.086562 Si / 1000 Ang^3
#
#
#
# Elastic Constant Matrix: (Units=GPa)
#
#
# Indices 1 2 3 4 5 6 
#
# 1 54.1639 3.6979 37.7019 0.0000 0.0000 0.0006
# 2 3.6979 54.1639 37.7019 0.0000 0.0000 -0.0006
# 3 37.7019 37.7019 161.3148 0.0000 0.0000 0.0000
# 4 0.0000 0.0000 0.0000 19.4240 0.0000 0.0000
# 5 0.0000 0.0000 0.0000 0.0000 19.4240 0.0000
# 6 0.0006 -0.0006 0.0000 0.0000 0.0000 16.8726
#
#
#
# Elastic Compliance Matrix: (Units=1/GPa)
#
#
# Indices 1 2 3 4 5 6 
#
# 1 0.022334 0.002518 -0.005808 0.000000 0.000000 -0.000001
# 2 0.002518 0.022334 -0.005808 0.000000 0.000000 0.000001
# 3 -0.005808 -0.005808 0.008914 0.000000 0.000000 0.000000
# 4 0.000000 0.000000 0.000000 0.051483 0.000000 0.000000
# 5 0.000000 0.000000 0.000000 0.000000 0.051483 0.000000
# 6 -0.000001 0.000001 0.000000 0.000000 0.000000 0.059268
#
#
# Mechanical properties :
#
#
# Convention : Reuss Voigt Hill
#
# Bulk Modulus (GPa) = 28.26101 47.53843 37.89972
# Shear Modulus (GPa) = 20.34131 23.84687 22.09409
#
# Velocity S-wave (km/s) = 3.26811 3.53853 3.40600
# Velocity P-wave (km/s) = 5.39255 6.45413 5.94707
#
# Compressibility (1/GPa) = 0.03538444
#
# Stress axis : x y z
#
# Youngs Moduli (GPa) = 44.77575 44.77575 112.18283
#
# Poissons Ratio (x) = -0.11275 0.65159
# Poissons Ratio (y) = -0.11275 0.65159
# Poissons Ratio (z) = 0.26007 0.26007
#
# Static dielectric constant tensor:
#      x y z
#    x 1.675250 0.000000 0.000000 
#    y 0.000000 1.675250 0.000000 
#    z 0.000000 0.000000 1.791610 
# 
# From -- ./inp_files/922.got.cif
#   From: 2010.05.17/outbox.cif.g08.bks.cpg/sg76_cif.got.tgz:922.got - 2010.06.03 18:43:17.
