data_PCOD9541779
_publ_section_title
;
Structure prediction by ZEFSAII (Michael W. Deem and Ramdas Pophale) SiO2 
 PCOD9541779
Probable space group: P 43
;
_chemical_formula_sum "Si O2"
_cell_formula_units_Z 20
_cell_length_a 13.070989
_cell_length_b 13.070989
_cell_length_c 4.913874
_cell_angle_alpha 90.000000
_cell_angle_beta 90.000000
_cell_angle_gamma 90.000000
_cell_volume 839.539075
_symmetry_space_group_name_H-M "P 43"
_symmetry_group_IT_number 78
_symmetry_cell_setting 'tetragonal'
loop_
_space_group_symop_operation_xyz
x,y,z
-y,x,3/4+z
-x,-y,1/2+z
y,-x,1/4+z
loop_
_atom_site_type_symbol
_atom_site_label
_atom_site_fract_x
_atom_site_fract_y
_atom_site_fract_z
Si Si1 0.009162 0.568121 0.901970
Si Si2 0.082265 0.135026 0.964684
Si Si3 0.258238 0.856469 0.719763
Si Si4 0.348302 0.551204 0.269767
Si Si5 0.234025 0.628971 0.741937
O O1 0.964749 0.513248 0.635507
O O2 0.113974 0.622539 0.809577
O O3 0.922146 0.641286 0.025659
O O4 0.079285 0.202973 0.233256
O O5 0.121308 0.026131 0.067920
O O6 0.150481 0.189658 0.739647
O O7 0.265693 0.739786 0.624787
O O8 0.390293 0.444545 0.153371
O O9 0.265781 0.546435 0.512949
O O10 0.297941 0.608459 0.014732
#
# Coordination Sequence:
#
# PCOD9541779 Si02
#       5
#     4   4   4   4   4
#     4  12  28  49  75 112 158 205 259 326 401 469
#     4  12  23  42  72 106 143 190 247 316 375 443
#     4  12  27  47  73 106 154 199 260 310 384 478
#     4  12  27  49  77 114 151 199 266 332 395 463
#     4  12  27  47  81 112 156 211 260 318 401 473
#
# _framework density 23.822595
#
# number of rings (size 3 to 8) (size 9 to 14) (size 15 to 20)
#    0.000    0.000    0.000   10.800    8.400    0.000 
#    0.000    0.000    0.000    0.000    0.000    0.000 
#    0.000    0.000    0.000    0.000    0.000    0.000 
#
# Total GULP energy -112119.211562 kJ/mol
# GULP energy per Si atom -5605.960578 kJ/mol
# Density = 2.376837 g / cm^3
# Si number density = 23.822595 Si / 1000 Ang^3
#
#
#
# Elastic Constant Matrix: (Units=GPa)
#
#
# Indices 1 2 3 4 5 6 
#
# 1 94.0165 54.1623 23.4723 0.0000 0.0000 -19.0083
# 2 54.1623 94.0165 23.4723 0.0000 0.0000 19.0083
# 3 23.4723 23.4723 138.0286 0.0000 0.0000 0.0000
# 4 0.0000 0.0000 0.0000 39.2537 0.0000 0.0000
# 5 0.0000 0.0000 0.0000 0.0000 39.2537 0.0000
# 6 -19.0083 19.0083 0.0000 0.0000 0.0000 14.0286
#
#
#
# Elastic Compliance Matrix: (Units=1/GPa)
#
#
# Indices 1 2 3 4 5 6 
#
# 1 -0.039326 0.046459 -0.001213 0.000000 0.000000 -0.116236
# 2 0.046459 -0.039326 -0.001213 0.000000 0.000000 0.116236
# 3 -0.001213 -0.001213 0.007657 0.000000 0.000000 0.000000
# 4 0.000000 0.000000 0.000000 0.025475 0.000000 0.000000
# 5 0.000000 0.000000 0.000000 0.000000 0.025475 0.000000
# 6 -0.116236 0.116236 0.000000 0.000000 0.000000 -0.243709
#
#
# Mechanical properties :
#
#
# Convention : Reuss Voigt Hill
#
# Bulk Modulus (GPa) = 58.57787 58.69726 58.63757
# Shear Modulus (GPa) = -14.44547 33.50417 9.52935
#
# Velocity S-wave (km/s) = -2.46514 3.75427 2.00220
# Velocity P-wave (km/s) = 4.06694 6.59436 5.47839
#
# Compressibility (1/GPa) = 0.01707129
#
# Stress axis : x y z
#
# Youngs Moduli (GPa) = -25.42836 -25.42836 130.59238
#
# Poissons Ratio (x) = 1.18138 0.15841
# Poissons Ratio (y) = 1.18138 0.15841
# Poissons Ratio (z) = -0.03084 -0.03084
#
# Static dielectric constant tensor:
#      x y z
#    x 2.271820 0.000000 0.000000 
#    y 0.000000 2.271820 0.000000 
#    z 0.000000 0.000000 1.863080 
# 
# From -- ./inp_files/144.got.cif
#   From: 2010.05.17/outbox.cif.g08.bks.cpg/sg78_cif.got.tgz:144.got - 2010.06.03 18:45:56.
