data_PCOD9541061
_publ_section_title
;
Structure prediction by ZEFSAII (Michael W. Deem and Ramdas Pophale) SiO2 
 PCOD9541061
Probable space group: P 4
;
_chemical_formula_sum "Si O2"
_cell_formula_units_Z 30
_cell_length_a 7.227308
_cell_length_b 7.227308
_cell_length_c 21.497978
_cell_angle_alpha 90.000000
_cell_angle_beta 90.000000
_cell_angle_gamma 90.000000
_cell_volume 1122.924973
_symmetry_space_group_name_H-M "P 4"
_symmetry_group_IT_number 75
_symmetry_cell_setting 'tetragonal'
loop_
_space_group_symop_operation_xyz
x,y,z
-y,x,z
-x,-y,z
y,-x,z
loop_
_atom_site_type_symbol
_atom_site_label
_atom_site_fract_x
_atom_site_fract_y
_atom_site_fract_z
Si Si1 0.809435 0.252595 0.385940
Si Si2 0.220756 0.646197 0.983239
Si Si3 0.213052 0.232242 0.517881
Si Si4 0.500000 0.000000 0.745498
Si Si5 0.166727 0.267305 0.650590
Si Si6 0.633280 0.777341 0.114995
Si Si7 0.780241 0.360231 0.848875
Si Si8 0.273055 0.144706 0.255957
O O1 0.723802 0.309092 0.452088
O O2 0.779437 0.359765 0.320506
O O3 0.034517 0.246617 0.386447
O O4 0.262695 0.425366 0.982844
O O5 0.132880 0.687952 0.916369
O O6 0.125505 0.688776 0.049835
O O7 0.247152 0.330130 0.583759
O O8 0.989067 0.248742 0.518300
O O9 0.582943 0.171938 0.705218
O O10 0.340653 0.085873 0.790286
O O11 0.942035 0.240607 0.653295
O O12 0.416784 0.737996 0.111428
O O13 0.658080 0.836533 0.185928
O O14 0.734797 0.580583 0.846851
O O15 0.073571 0.240659 0.259493
#
# Coordination Sequence:
#
# PCOD9541061 Si02
#       8
#     4   4   4   2   4   4   4   4
#     4   7  10  19  38  61  83 111 148 183 214 255
#     4   7  12  27  48  64  80 108 149 191 222 257
#     4   7  10  20  40  61  80 110 150 184 216 259
#     4  12  20  28  46  74  98 118 150 196 248 286
#     4   9  18  31  46  66  94 124 152 188 235 284
#     4   9  17  30  48  67  87 116 154 191 225 266
#     4   9  18  33  50  67  90 120 154 192 233 280
#     4   9  17  28  43  67  97 122 145 182 231 274
#
# _framework density 26.71594
#
# number of rings (size 3 to 8) (size 9 to 14) (size 15 to 20)
#    0.000    3.600    0.000    4.800    0.000    0.533 
#    0.000    4.000    0.000    6.400    0.000    1.867 
#    0.000    2.133    0.000    0.000    0.000    0.000 
#
# Total GULP energy -167053.308408 kJ/mol
# GULP energy per Si atom -5568.443614 kJ/mol
# Density = 2.665513 g / cm^3
# Si number density = 26.715940 Si / 1000 Ang^3
#
#
#
# Elastic Constant Matrix: (Units=GPa)
#
#
# Indices 1 2 3 4 5 6 
#
# 1 73.4779 -1.8575 20.4425 0.0000 0.0000 5.7840
# 2 -1.8575 73.4779 20.4425 0.0000 0.0000 -5.7840
# 3 20.4425 20.4425 269.7484 0.0000 0.0000 0.0000
# 4 0.0000 0.0000 0.0000 -57.2318 0.0000 0.0000
# 5 0.0000 0.0000 0.0000 0.0000 -57.2318 0.0000
# 6 5.7840 -5.7840 0.0000 0.0000 0.0000 15.6587
#
#
#
# Elastic Compliance Matrix: (Units=1/GPa)
#
#
# Indices 1 2 3 4 5 6 
#
# 1 0.014333 0.000261 -0.001106 0.000000 0.000000 -0.005198
# 2 0.000261 0.014333 -0.001106 0.000000 0.000000 0.005198
# 3 -0.001106 -0.001106 0.003875 0.000000 0.000000 0.000000
# 4 0.000000 0.000000 0.000000 -0.017473 0.000000 0.000000
# 5 0.000000 0.000000 0.000000 0.000000 -0.017473 0.000000
# 6 -0.005198 0.005198 0.000000 0.000000 0.000000 0.067702
#
#
# Mechanical properties :
#
#
# Convention : Reuss Voigt Hill
#
# Bulk Modulus (GPa) = 34.91792 54.97325 44.94558
# Shear Modulus (GPa) = 63.49546 5.41747 34.45647
#
# Velocity S-wave (km/s) = 4.88042 1.42556 3.59518
# Velocity P-wave (km/s) = 6.69749 4.83024 5.83899
#
# Compressibility (1/GPa) = 0.02863859
#
# Stress axis : x y z
#
# Youngs Moduli (GPa) = 69.76909 69.76909 258.07871
#
# Poissons Ratio (x) = -0.01820 0.28543
# Poissons Ratio (y) = -0.01820 0.28543
# Poissons Ratio (z) = 0.07716 0.07716
#
# Static dielectric constant tensor:
#      x y z
#    x 2.261590 0.000000 0.000000 
#    y 0.000000 2.261590 0.000000 
#    z 0.000000 0.000000 2.339730 
# 
# From -- ./inp_files/766.got.cif
#   From: 2010.05.17/outbox.cif.g08.bks.cpg/sg75_cif.got.tgz:766.got - 2010.06.03 18:42:43.
