data_PCOD9541099
_publ_section_title
;
Structure prediction by ZEFSAII (Michael W. Deem and Ramdas Pophale) SiO2 
 PCOD9541099
Probable space group: P 41
;
_chemical_formula_sum "Si O2"
_cell_formula_units_Z 32
_cell_length_a 7.561838
_cell_length_b 7.561838
_cell_length_c 21.655132
_cell_angle_alpha 90.000000
_cell_angle_beta 90.000000
_cell_angle_gamma 90.000000
_cell_volume 1238.270634
_symmetry_space_group_name_H-M "P 41"
_symmetry_group_IT_number 76
_symmetry_cell_setting 'tetragonal'
loop_
_space_group_symop_operation_xyz
x,y,z
-y,x,1/4+z
-x,-y,1/2+z
y,-x,3/4+z
loop_
_atom_site_type_symbol
_atom_site_label
_atom_site_fract_x
_atom_site_fract_y
_atom_site_fract_z
Si Si1 0.898493 0.554152 0.939500
Si Si2 0.839054 0.682285 0.072123
Si Si3 0.062900 0.189771 0.080929
Si Si4 0.306938 0.935029 0.549963
Si Si5 0.724756 0.627230 0.195578
Si Si6 0.297588 0.288312 0.188031
Si Si7 0.775616 0.196311 0.571141
Si Si8 0.336403 0.591977 0.811459
O O1 0.821514 0.358725 0.940697
O O2 0.819110 0.652774 0.880253
O O3 0.105454 0.593636 0.943688
O O4 0.816657 0.628225 0.002281
O O5 0.750571 0.565545 0.125631
O O6 0.050111 0.686503 0.083282
O O7 0.751801 0.876218 0.072510
O O8 0.115664 0.229192 0.152199
O O9 0.201766 0.312945 0.044722
O O10 0.133442 0.995436 0.062422
O O11 0.856967 0.193155 0.067530
O O12 0.339716 0.916546 0.476760
O O13 0.487889 0.849516 0.574274
O O14 0.621049 0.508717 0.246888
O O15 0.254532 0.331055 0.259421
O O16 0.387736 0.406279 0.132892
#
# Coordination Sequence:
#
# PCOD9541099 Si02
#       8
#     4   4   4   4   4   4   4   4
#     4  10  19  34  59  87 123 162 214 261 322 400
#     4  10  19  34  59  90 124 152 217 264 307 411
#     4   8  16  32  56  91 132 158 202 270 321 387
#     4   9  18  33  60  93 118 166 205 258 330 382
#     4  10  21  35  59  86 124 169 206 257 343 372
#     4   8  16  33  57  87 131 158 201 278 322 368
#     4   9  17  31  58  91 119 168 209 257 333 391
#     4   8  18  34  56  89 133 153 204 271 316 373
#
# _framework density 25.842495
#
# number of rings (size 3 to 8) (size 9 to 14) (size 15 to 20)
#    1.500    1.500    0.000    1.500    0.000    3.000 
#    0.000    2.500    2.750    1.500    0.000    7.000 
#    0.000    0.000    0.000    0.000    0.000    0.000 
#
# Total GULP energy -178169.640793 kJ/mol
# GULP energy per Si atom -5567.801275 kJ/mol
# Density = 2.578368 g / cm^3
# Si number density = 25.842495 Si / 1000 Ang^3
#
#
#
# Elastic Constant Matrix: (Units=GPa)
#
#
# Indices 1 2 3 4 5 6 
#
# 1 53.9837 28.6091 24.8765 0.0000 0.0000 17.8177
# 2 28.6091 53.9837 24.8765 0.0000 0.0000 -17.8177
# 3 24.8765 24.8765 223.9481 0.0000 0.0000 0.0000
# 4 0.0000 0.0000 0.0000 14.2269 0.0000 0.0000
# 5 0.0000 0.0000 0.0000 0.0000 14.2269 0.0000
# 6 17.8177 -17.8177 0.0000 0.0000 0.0000 27.4159
#
#
#
# Elastic Compliance Matrix: (Units=1/GPa)
#
#
# Indices 1 2 3 4 5 6 
#
# 1 0.232208 -0.219232 -0.001441 0.000000 0.000000 -0.293392
# 2 -0.219232 0.232208 -0.001441 0.000000 0.000000 0.293392
# 3 -0.001441 -0.001441 0.004786 0.000000 0.000000 0.000000
# 4 0.000000 0.000000 0.000000 0.070289 0.000000 0.000000
# 5 0.000000 0.000000 0.000000 0.000000 0.070289 0.000000
# 6 -0.293392 0.293392 0.000000 0.000000 0.000000 0.417827
#
#
# Mechanical properties :
#
#
# Convention : Reuss Voigt Hill
#
# Bulk Modulus (GPa) = 40.04526 54.29333 47.16930
# Shear Modulus (GPa) = 3.37801 28.07752 15.72777
#
# Velocity S-wave (km/s) = 1.14455 3.29977 2.46966
# Velocity P-wave (km/s) = 4.15646 5.96430 5.14048
#
# Compressibility (1/GPa) = 0.02497174
#
# Stress axis : x y z
#
# Youngs Moduli (GPa) = 4.30648 4.30648 208.96275
#
# Poissons Ratio (x) = 0.94412 0.30120
# Poissons Ratio (y) = 0.94412 0.30120
# Poissons Ratio (z) = 0.00621 0.00621
#
# Static dielectric constant tensor:
#      x y z
#    x 2.050890 0.000000 0.000000 
#    y 0.000000 2.050890 0.000000 
#    z 0.000000 0.000000 2.101880 
# 
# From -- ./inp_files/1445.got.cif
#   From: 2010.05.17/outbox.cif.g08.bks.cpg/sg76_cif.got.tgz:1445.got - 2010.06.03 18:43:17.
