data_PCOD9541240
_publ_section_title
;
Structure prediction by ZEFSAII (Michael W. Deem and Ramdas Pophale) SiO2 
 PCOD9541240
Probable space group: P 41
;
_chemical_formula_sum "Si O2"
_cell_formula_units_Z 32
_cell_length_a 9.186417
_cell_length_b 9.186417
_cell_length_c 15.960625
_cell_angle_alpha 90.000000
_cell_angle_beta 90.000000
_cell_angle_gamma 90.000000
_cell_volume 1346.921250
_symmetry_space_group_name_H-M "P 41"
_symmetry_group_IT_number 76
_symmetry_cell_setting 'tetragonal'
loop_
_space_group_symop_operation_xyz
x,y,z
-y,x,1/4+z
-x,-y,1/2+z
y,-x,3/4+z
loop_
_atom_site_type_symbol
_atom_site_label
_atom_site_fract_x
_atom_site_fract_y
_atom_site_fract_z
Si Si1 0.594666 0.948556 0.317050
Si Si2 0.803454 0.585441 0.683787
Si Si3 0.861881 0.027922 0.499610
Si Si4 0.759952 0.466816 0.398910
Si Si5 0.104104 0.841605 0.427299
Si Si6 0.967192 0.694456 0.983132
Si Si7 0.771330 0.318104 0.232045
Si Si8 0.272607 0.108182 0.489516
O O1 0.716451 0.920266 0.247070
O O2 0.434316 0.902848 0.288546
O O3 0.634526 0.864949 0.401726
O O4 0.579371 0.118544 0.343168
O O5 0.635549 0.627089 0.679523
O O6 0.883200 0.718985 0.727465
O O7 0.844190 0.436171 0.726652
O O8 0.796928 0.875307 0.534116
O O9 0.965377 0.953790 0.428238
O O10 0.960529 0.164559 0.529180
O O11 0.751293 0.449013 0.298177
O O12 0.742486 0.625753 0.438027
O O13 0.910127 0.389734 0.429760
O O14 0.234564 0.946479 0.457658
O O15 0.115966 0.765027 0.338053
O O16 0.831247 0.775758 0.940712
#
# Coordination Sequence:
#
# PCOD9541240 Si02
#       8
#     4   4   4   4   4   4   4   4
#     4  11  24  43  67 101 138 176 231 288 349 417
#     4  10  22  41  65  97 136 181 232 287 343 417
#     4   9  21  40  65  94 128 174 227 273 338 414
#     4  11  24  46  73  99 138 187 236 281 346 418
#     4  11  23  42  68 100 135 179 230 292 357 424
#     4  10  23  42  68  99 135 181 228 287 347 413
#     4  11  25  43  71 104 136 181 234 290 343 414
#     4  11  24  43  67  98 138 179 230 292 357 415
#
# _framework density 23.757883
#
# number of rings (size 3 to 8) (size 9 to 14) (size 15 to 20)
#    0.000    1.500    0.000    4.500    0.000   14.000 
#    0.000    6.250    0.000    0.000    0.000    0.000 
#    0.000    0.000    0.000    0.000    0.000    0.000 
#
# Total GULP energy -178595.434039 kJ/mol
# GULP energy per Si atom -5581.107314 kJ/mol
# Density = 2.370381 g / cm^3
# Si number density = 23.757883 Si / 1000 Ang^3
#
#
#
# Elastic Constant Matrix: (Units=GPa)
#
#
# Indices 1 2 3 4 5 6 
#
# 1 148.7803 33.7773 45.3600 0.0000 0.0000 8.7584
# 2 33.7773 148.7803 45.3600 0.0000 0.0000 -8.7584
# 3 45.3600 45.3600 129.8689 0.0000 0.0000 0.0000
# 4 0.0000 0.0000 0.0000 28.5924 0.0000 0.0000
# 5 0.0000 0.0000 0.0000 0.0000 28.5924 0.0000
# 6 8.7584 -8.7584 0.0000 0.0000 0.0000 17.9811
#
#
#
# Elastic Compliance Matrix: (Units=1/GPa)
#
#
# Indices 1 2 3 4 5 6 
#
# 1 0.008010 -0.001382 -0.002315 0.000000 0.000000 -0.004575
# 2 -0.001382 0.008010 -0.002315 0.000000 0.000000 0.004575
# 3 -0.002315 -0.002315 0.009317 0.000000 0.000000 0.000000
# 4 0.000000 0.000000 0.000000 0.034974 0.000000 0.000000
# 5 0.000000 0.000000 0.000000 0.000000 0.034974 0.000000
# 6 -0.004575 0.004575 0.000000 0.000000 0.000000 0.060071
#
#
# Mechanical properties :
#
#
# Convention : Reuss Voigt Hill
#
# Bulk Modulus (GPa) = 75.11250 75.15825 75.13537
# Shear Modulus (GPa) = 29.10040 35.22868 32.16454
#
# Velocity S-wave (km/s) = 3.50362 3.85492 3.68346
# Velocity P-wave (km/s) = 6.93192 7.17758 7.05582
#
# Compressibility (1/GPa) = 0.01331336
#
# Stress axis : x y z
#
# Youngs Moduli (GPa) = 124.84072 124.84072 107.32768
#
# Poissons Ratio (x) = 0.17253 0.24847
# Poissons Ratio (y) = 0.17253 0.24847
# Poissons Ratio (z) = 0.28901 0.28901
#
# Static dielectric constant tensor:
#      x y z
#    x 1.949400 0.000000 0.000000 
#    y 0.000000 1.949400 0.000000 
#    z 0.000000 0.000000 1.984140 
# 
# From -- ./inp_files/1475.got.cif
#   From: 2010.05.17/outbox.cif.g08.bks.cpg/sg76_cif.got.tgz:1475.got - 2010.06.03 18:43:17.
