data_PCOD9541359
_publ_section_title
;
Structure prediction by ZEFSAII (Michael W. Deem and Ramdas Pophale) SiO2 
 PCOD9541359
Probable space group: P 41
;
_chemical_formula_sum "Si O2"
_cell_formula_units_Z 28
_cell_length_a 11.525678
_cell_length_b 11.525678
_cell_length_c 9.866526
_cell_angle_alpha 90.000000
_cell_angle_beta 90.000000
_cell_angle_gamma 90.000000
_cell_volume 1310.681680
_symmetry_space_group_name_H-M "P 41"
_symmetry_group_IT_number 76
_symmetry_cell_setting 'tetragonal'
loop_
_space_group_symop_operation_xyz
x,y,z
-y,x,1/4+z
-x,-y,1/2+z
y,-x,3/4+z
loop_
_atom_site_type_symbol
_atom_site_label
_atom_site_fract_x
_atom_site_fract_y
_atom_site_fract_z
Si Si1 0.733263 0.372836 0.449650
Si Si2 0.890895 0.353614 0.709643
Si Si3 0.329109 0.414148 0.777160
Si Si4 0.523736 0.278630 0.618713
Si Si5 0.466346 0.880519 0.341611
Si Si6 0.214462 0.780662 0.688722
Si Si7 0.719193 0.960653 0.238456
O O1 0.833710 0.347167 0.560422
O O2 0.688458 0.502569 0.407553
O O3 0.617104 0.326617 0.517456
O O4 0.776402 0.304234 0.316743
O O5 0.795478 0.433718 0.782179
O O6 0.913616 0.262690 0.833754
O O7 0.018639 0.405469 0.676609
O O8 0.449661 0.377913 0.701673
O O9 0.235907 0.474997 0.679886
O O10 0.275406 0.292485 0.820873
O O11 0.589489 0.181304 0.710603
O O12 0.587940 0.930390 0.286881
O O13 0.093246 0.794788 0.610016
O O14 0.265101 0.902867 0.732059
#
# Coordination Sequence:
#
# PCOD9541359 Si02
#       7
#     4   4   4   4   4   4   4
#     4  12  26  44  68 108 143 186 230 287 358 433
#     4  11  24  43  70  99 136 184 241 286 346 425
#     4  12  22  46  68 103 146 185 222 286 361 425
#     4  11  25  44  63 107 151 182 230 287 358 433
#     4  11  22  42  73  98 136 185 236 289 346 421
#     4  12  25  48  72 101 143 184 238 296 354 422
#     4  11  24  47  72 100 137 186 241 295 359 419
#
# _framework density 21.362929000000001
#
# number of rings (size 3 to 8) (size 9 to 14) (size 15 to 20)
#    0.000    0.571    5.714    3.429    2.000    1.143 
#   25.714    1.429    0.000    0.000    0.000    0.000 
#    0.000    0.000    0.000    0.000    0.000    0.000 
#
# Total GULP energy -155882.379842 kJ/mol
# GULP energy per Si atom -5567.227852 kJ/mol
# Density = 2.131431 g / cm^3
# Si number density = 21.362929 Si / 1000 Ang^3
#
#
#
# Elastic Constant Matrix: (Units=GPa)
#
#
# Indices 1 2 3 4 5 6 
#
# 1 292.2446 -220.1407 31.5859 0.0000 0.0000 -66.6377
# 2 -220.1407 292.2446 31.5859 0.0000 0.0000 66.6377
# 3 31.5859 31.5859 114.0119 0.0000 0.0000 0.0000
# 4 0.0000 0.0000 0.0000 40.2917 0.0000 0.0000
# 5 0.0000 0.0000 0.0000 0.0000 40.2917 0.0000
# 6 -66.6377 66.6377 0.0000 0.0000 0.0000 30.9305
#
#
#
# Elastic Compliance Matrix: (Units=1/GPa)
#
#
# Indices 1 2 3 4 5 6 
#
# 1 0.011377 0.006937 -0.005074 0.000000 0.000000 0.009564
# 2 0.006937 0.011377 -0.005074 0.000000 0.000000 -0.009564
# 3 -0.005074 -0.005074 0.011582 0.000000 0.000000 0.000000
# 4 0.000000 0.000000 0.000000 0.024819 0.000000 0.000000
# 5 0.000000 0.000000 0.000000 0.000000 0.024819 0.000000
# 6 0.009564 -0.009564 0.000000 0.000000 0.000000 0.073543
#
#
# Mechanical properties :
#
#
# Convention : Reuss Voigt Hill
#
# Bulk Modulus (GPa) = 35.82242 42.72926 39.27584
# Shear Modulus (GPa) = 28.86137 79.33411 54.09774
#
# Velocity S-wave (km/s) = 3.67959 6.10057 5.03767
# Velocity P-wave (km/s) = 5.90401 8.34671 7.22928
#
# Compressibility (1/GPa) = 0.02791548
#
# Stress axis : x y z
#
# Youngs Moduli (GPa) = 87.89845 87.89845 86.33882
#
# Poissons Ratio (x) = -0.60978 0.43806
# Poissons Ratio (y) = -0.60978 0.43806
# Poissons Ratio (z) = 0.44597 0.44597
#
# Static dielectric constant tensor:
#      x y z
#    x 1.814750 0.000000 0.000000 
#    y 0.000000 1.814750 0.000000 
#    z 0.000000 0.000000 1.904300 
# 
# From -- ./inp_files/609.got.cif
#   From: 2010.05.17/outbox.cif.g08.bks.cpg/sg76_cif.got.tgz:609.got - 2010.06.03 18:43:17.
