data_PCOD9541242
_publ_section_title
;
Structure prediction by ZEFSAII (Michael W. Deem and Ramdas Pophale) SiO2 
 PCOD9541242
Probable space group: P 41
;
_chemical_formula_sum "Si O2"
_cell_formula_units_Z 32
_cell_length_a 8.959426
_cell_length_b 8.959426
_cell_length_c 18.536329
_cell_angle_alpha 90.000000
_cell_angle_beta 90.000000
_cell_angle_gamma 90.000000
_cell_volume 1487.935490
_symmetry_space_group_name_H-M "P 41"
_symmetry_group_IT_number 76
_symmetry_cell_setting 'tetragonal'
loop_
_space_group_symop_operation_xyz
x,y,z
-y,x,1/4+z
-x,-y,1/2+z
y,-x,3/4+z
loop_
_atom_site_type_symbol
_atom_site_label
_atom_site_fract_x
_atom_site_fract_y
_atom_site_fract_z
Si Si1 0.117928 0.396068 0.932980
Si Si2 0.046419 0.887832 0.465081
Si Si3 0.609200 0.651914 0.518580
Si Si4 0.683798 0.344205 0.601434
Si Si5 0.382096 0.885611 0.514630
Si Si6 0.284124 0.166077 0.156538
Si Si7 0.190524 0.472358 0.231772
Si Si8 0.917083 0.914022 0.836797
O O1 0.084790 0.385760 0.849498
O O2 0.111803 0.570640 0.950547
O O3 0.018922 0.277454 0.974987
O O4 0.287891 0.347343 0.948392
O O5 0.212715 0.895211 0.492720
O O6 0.065219 0.933354 0.381599
O O7 0.944316 0.004499 0.510104
O O8 0.640600 0.491933 0.554901
O O9 0.449255 0.720649 0.500027
O O10 0.665373 0.765844 0.579670
O O11 0.555165 0.236649 0.566053
O O12 0.709051 0.412549 0.682734
O O13 0.834644 0.244868 0.587792
O O14 0.475281 0.019448 0.478087
O O15 0.210319 0.308312 0.195844
O O16 0.192827 0.022499 0.134032
#
# Coordination Sequence:
#
# PCOD9541242 Si02
#       8
#     4   4   4   4   4   4   4   4
#     4  11  22  44  68 100 136 182 244 290 361 435
#     4  12  25  43  69 104 143 187 233 305 369 426
#     4  10  22  42  68  95 133 187 233 286 352 435
#     4  11  23  44  72 102 140 191 248 296 368 445
#     4  11  25  46  66 102 145 186 235 306 363 434
#     4  10  22  41  72  99 133 186 241 293 356 435
#     4  11  23  44  71 101 146 187 246 302 365 442
#     4  12  24  44  72 103 142 186 240 300 364 438
#
# _framework density 21.506307
#
# number of rings (size 3 to 8) (size 9 to 14) (size 15 to 20)
#    0.000    1.000    5.000    2.250    1.750    0.000 
#    4.500    0.000    0.000    0.000    0.000    0.000 
#    0.000    0.000    0.000    0.000    0.000    0.000 
#
# Total GULP energy -178213.712003 kJ/mol
# GULP energy per Si atom -5569.178500 kJ/mol
# Density = 2.145736 g / cm^3
# Si number density = 21.506307 Si / 1000 Ang^3
#
#
#
# Elastic Constant Matrix: (Units=GPa)
#
#
# Indices 1 2 3 4 5 6 
#
# 1 97.8149 58.5283 21.5206 0.0000 0.0000 1.2555
# 2 58.5283 97.8149 21.5206 0.0000 0.0000 -1.2555
# 3 21.5206 21.5206 69.6784 0.0000 0.0000 0.0000
# 4 0.0000 0.0000 0.0000 32.0005 0.0000 0.0000
# 5 0.0000 0.0000 0.0000 0.0000 32.0005 0.0000
# 6 1.2555 -1.2555 0.0000 0.0000 0.0000 24.1104
#
#
#
# Elastic Compliance Matrix: (Units=1/GPa)
#
#
# Indices 1 2 3 4 5 6 
#
# 1 0.016265 -0.009274 -0.002159 0.000000 0.000000 -0.001330
# 2 -0.009274 0.016265 -0.002159 0.000000 0.000000 0.001330
# 3 -0.002159 -0.002159 0.015685 0.000000 0.000000 0.000000
# 4 0.000000 0.000000 0.000000 0.031249 0.000000 0.000000
# 5 0.000000 0.000000 0.000000 0.000000 0.031249 0.000000
# 6 -0.001330 0.001330 0.000000 0.000000 0.000000 0.041614
#
#
# Mechanical properties :
#
#
# Convention : Reuss Voigt Hill
#
# Bulk Modulus (GPa) = 47.55075 52.04970 49.80022
# Shear Modulus (GPa) = 26.80635 28.53821 27.67228
#
# Velocity S-wave (km/s) = 3.53433 3.64671 3.59096
# Velocity P-wave (km/s) = 6.23004 6.47966 6.35607
#
# Compressibility (1/GPa) = 0.02103016
#
# Stress axis : x y z
#
# Youngs Moduli (GPa) = 61.48260 61.48260 63.75383
#
# Poissons Ratio (x) = 0.57020 0.13765
# Poissons Ratio (y) = 0.57020 0.13765
# Poissons Ratio (z) = 0.13275 0.13275
#
# Static dielectric constant tensor:
#      x y z
#    x 1.814330 0.000000 0.000000 
#    y 0.000000 1.814330 0.000000 
#    z 0.000000 0.000000 1.854590 
# 
# From -- ./inp_files/1483.got.cif
#   From: 2010.05.17/outbox.cif.g08.bks.cpg/sg76_cif.got.tgz:1483.got - 2010.06.03 18:43:17.
