data_PCOD9541481
_publ_section_title
;
Structure prediction by ZEFSAII (Michael W. Deem and Ramdas Pophale) SiO2 
 PCOD9541481
Probable space group: P 42
;
_chemical_formula_sum "Si O2"
_cell_formula_units_Z 24
_cell_length_a 8.058688
_cell_length_b 8.058688
_cell_length_c 17.586343
_cell_angle_alpha 90.000000
_cell_angle_beta 90.000000
_cell_angle_gamma 90.000000
_cell_volume 1142.100241
_symmetry_space_group_name_H-M "P 42"
_symmetry_group_IT_number 77
_symmetry_cell_setting 'tetragonal'
loop_
_space_group_symop_operation_xyz
x,y,z
-y,x,1/2+z
-x,-y,z
y,-x,1/2+z
loop_
_atom_site_type_symbol
_atom_site_label
_atom_site_fract_x
_atom_site_fract_y
_atom_site_fract_z
Si Si1 0.266077 0.109175 0.074880
Si Si2 0.500000 0.500000 0.328283
Si Si3 0.251905 0.273722 0.922864
Si Si4 0.783668 0.387942 0.732695
Si Si5 0.500000 0.000000 0.516411
Si Si6 0.781090 0.888029 0.612684
Si Si7 0.231992 0.888220 0.270357
O O1 0.369639 0.195470 0.142090
O O2 0.074825 0.164545 0.090202
O O3 0.249196 0.911121 0.082602
O O4 0.318919 0.163417 0.991531
O O5 0.609339 0.386278 0.383365
O O6 0.620722 0.605456 0.272472
O O7 0.168352 0.176285 0.853041
O O8 0.109369 0.385873 0.961516
O O9 0.836205 0.575096 0.756113
O O10 0.913302 0.250019 0.763080
O O11 0.396106 0.121709 0.572088
O O12 0.801080 0.869202 0.703053
#
# Coordination Sequence:
#
# PCOD9541481 Si02
#       7
#     4   2   4   4   2   4   4
#     4   9  19  36  53  78 106 138 179 228 275 329
#     4  10  20  32  52  82 108 144 186 228 278 330
#     4  10  20  33  52  78 109 137 180 233 277 320
#     4   9  18  33  54  74 105 142 182 221 277 340
#     4  10  20  36  56  78 106 146 182 222 274 334
#     4   9  19  35  56  76 103 141 185 218 271 339
#     4   9  18  36  55  74 104 148 184 221 274 338
#
# _framework density 21.013916999999999
#
# number of rings (size 3 to 8) (size 9 to 14) (size 15 to 20)
#    0.000    2.667    0.000    2.000    0.000    7.333 
#    0.000   16.667    0.000    8.000    0.000    0.000 
#    0.000    0.000    0.000    0.000    0.000    0.000 
#
# Total GULP energy -133774.758028 kJ/mol
# GULP energy per Si atom -5573.948251 kJ/mol
# Density = 2.096609 g / cm^3
# Si number density = 21.013917 Si / 1000 Ang^3
#
#
#
# Elastic Constant Matrix: (Units=GPa)
#
#
# Indices 1 2 3 4 5 6 
#
# 1 47.2093 5.9947 55.2749 0.0000 0.0000 0.8413
# 2 5.9947 47.2093 55.2749 0.0000 0.0000 -0.8413
# 3 55.2749 55.2749 206.1357 0.0000 0.0000 0.0000
# 4 0.0000 0.0000 0.0000 27.8114 0.0000 0.0000
# 5 0.0000 0.0000 0.0000 0.0000 27.8114 0.0000
# 6 0.8413 -0.8413 0.0000 0.0000 0.0000 4.3632
#
#
#
# Elastic Compliance Matrix: (Units=1/GPa)
#
#
# Indices 1 2 3 4 5 6 
#
# 1 0.033450 0.008994 -0.011381 0.000000 0.000000 -0.004715
# 2 0.008994 0.033450 -0.011381 0.000000 0.000000 0.004715
# 3 -0.011381 -0.011381 0.010955 0.000000 0.000000 0.000000
# 4 0.000000 0.000000 0.000000 0.035957 0.000000 0.000000
# 5 0.000000 0.000000 0.000000 0.000000 0.035957 0.000000
# 6 -0.004715 0.004715 0.000000 0.000000 0.000000 0.231008
#
#
# Mechanical properties :
#
#
# Convention : Reuss Voigt Hill
#
# Bulk Modulus (GPa) = 19.87359 59.29369 39.58364
# Shear Modulus (GPa) = 11.76233 24.26451 18.01342
#
# Velocity S-wave (km/s) = 2.36845 3.40176 2.93100
# Velocity P-wave (km/s) = 4.11792 6.61112 5.50746
#
# Compressibility (1/GPa) = 0.05031803
#
# Stress axis : x y z
#
# Youngs Moduli (GPa) = 29.89540 29.89540 91.28307
#
# Poissons Ratio (x) = -0.26889 1.03892
# Poissons Ratio (y) = -0.26889 1.03892
# Poissons Ratio (z) = 0.34025 0.34025
#
# Static dielectric constant tensor:
#      x y z
#    x 1.833530 0.000000 0.000000 
#    y 0.000000 1.833530 0.000000 
#    z 0.000000 0.000000 1.757190 
# 
# From -- ./inp_files/1338.got.cif
#   From: 2010.05.17/outbox.cif.g08.bks.cpg/sg77_cif.got.tgz:1338.got - 2010.06.03 18:44:51.
