data_PCOD9541221
_publ_section_title
;
Structure prediction by ZEFSAII (Michael W. Deem and Ramdas Pophale) SiO2 
 PCOD9541221
Probable space group: P 41
;
_chemical_formula_sum "Si O2"
_cell_formula_units_Z 24
_cell_length_a 10.682580
_cell_length_b 10.682580
_cell_length_c 9.330562
_cell_angle_alpha 90.000000
_cell_angle_beta 90.000000
_cell_angle_gamma 90.000000
_cell_volume 1064.780553
_symmetry_space_group_name_H-M "P 41"
_symmetry_group_IT_number 76
_symmetry_cell_setting 'tetragonal'
loop_
_space_group_symop_operation_xyz
x,y,z
-y,x,1/4+z
-x,-y,1/2+z
y,-x,3/4+z
loop_
_atom_site_type_symbol
_atom_site_label
_atom_site_fract_x
_atom_site_fract_y
_atom_site_fract_z
Si Si1 0.722385 0.969758 0.005640
Si Si2 0.041364 0.273516 0.077495
Si Si3 0.529579 0.813406 0.837706
Si Si4 0.600372 0.575617 0.001971
Si Si5 0.724213 0.145396 0.759933
Si Si6 0.282802 0.112317 0.103603
O O1 0.815978 0.860993 0.954598
O O2 0.748203 0.986950 0.170924
O O3 0.592692 0.905541 0.956954
O O4 0.733097 0.099451 0.923110
O O5 0.126521 0.396612 0.059145
O O6 0.142390 0.167152 0.122664
O O7 0.926104 0.294125 0.186957
O O8 0.616631 0.806285 0.694484
O O9 0.522755 0.679079 0.912008
O O10 0.551909 0.580418 0.164683
O O11 0.742204 0.627072 0.993481
O O12 0.690149 0.021889 0.675266
#
# Coordination Sequence:
#
# PCOD9541221 Si02
#       6
#     4   4   4   4   4   4
#     4  10  22  38  63  90 126 168 211 265 320 384
#     4  12  23  38  62  95 124 163 220 266 319 394
#     4  10  22  43  62  86 126 169 210 262 327 390
#     4  11  24  44  69  94 126 167 217 274 334 400
#     4  10  22  42  61  90 128 170 208 258 329 390
#     4  11  23  39  65  91 126 169 208 267 327 384
#
# _framework density 22.539854999999999
#
# number of rings (size 3 to 8) (size 9 to 14) (size 15 to 20)
#    0.000    1.333    0.000    7.000    0.000    9.333 
#    0.000    8.333    0.000    0.000    0.000    0.000 
#    0.000    0.000    0.000    0.000    0.000    0.000 
#
# Total GULP energy -134011.684595 kJ/mol
# GULP energy per Si atom -5583.820191 kJ/mol
# Density = 2.248855 g / cm^3
# Si number density = 22.539855 Si / 1000 Ang^3
#
#
#
# Elastic Constant Matrix: (Units=GPa)
#
#
# Indices 1 2 3 4 5 6 
#
# 1 47.0969 15.5130 6.8709 0.0000 0.0000 3.3950
# 2 15.5130 47.0969 6.8709 0.0000 0.0000 -3.3950
# 3 6.8709 6.8709 134.7427 0.0000 0.0000 0.0000
# 4 0.0000 0.0000 0.0000 20.4973 0.0000 0.0000
# 5 0.0000 0.0000 0.0000 0.0000 20.4973 0.0000
# 6 3.3950 -3.3950 0.0000 0.0000 0.0000 -0.0798
#
#
#
# Elastic Compliance Matrix: (Units=1/GPa)
#
#
# Indices 1 2 3 4 5 6 
#
# 1 0.009636 0.006516 -0.000824 0.000000 0.000000 0.132763
# 2 0.006516 0.009636 -0.000824 0.000000 0.000000 -0.132763
# 3 -0.000824 -0.000824 0.007506 0.000000 0.000000 0.000000
# 4 0.000000 0.000000 0.000000 0.048787 0.000000 0.000000
# 5 0.000000 0.000000 0.000000 0.000000 0.048787 0.000000
# 6 0.132763 -0.132763 0.000000 0.000000 0.000000 -1.235113
#
#
# Mechanical properties :
#
#
# Convention : Reuss Voigt Hill
#
# Bulk Modulus (GPa) = 27.38505 31.93845 29.66175
# Shear Modulus (GPa) = -4.51131 21.49508 8.49189
#
# Velocity S-wave (km/s) = -1.41627 3.09147 1.94311
# Velocity P-wave (km/s) = 3.08246 5.19071 4.26878
#
# Compressibility (1/GPa) = 0.03651627
#
# Stress axis : x y z
#
# Youngs Moduli (GPa) = 103.77381 103.77381 133.23472
#
# Poissons Ratio (x) = -0.67623 0.10974
# Poissons Ratio (y) = -0.67623 0.10974
# Poissons Ratio (z) = 0.08547 0.08547
#
# Static dielectric constant tensor:
#      x y z
#    x 1.898950 0.000000 0.000000 
#    y 0.000000 1.898950 0.000000 
#    z 0.000000 0.000000 1.920530 
# 
# From -- ./inp_files/560.got.cif
#   From: 2010.05.17/outbox.cif.g08.bks.cpg/sg76_cif.got.tgz:560.got - 2010.06.03 18:43:17.
