data_PCOD9541730
_publ_section_title
;
Structure prediction by ZEFSAII (Michael W. Deem and Ramdas Pophale) SiO2 
 PCOD9541730
Probable space group: P 43
;
_chemical_formula_sum "Si O2"
_cell_formula_units_Z 28
_cell_length_a 11.086274
_cell_length_b 11.086274
_cell_length_c 9.050559
_cell_angle_alpha 90.000000
_cell_angle_beta 90.000000
_cell_angle_gamma 90.000000
_cell_volume 1112.363219
_symmetry_space_group_name_H-M "P 43"
_symmetry_group_IT_number 78
_symmetry_cell_setting 'tetragonal'
loop_
_space_group_symop_operation_xyz
x,y,z
-y,x,3/4+z
-x,-y,1/2+z
y,-x,1/4+z
loop_
_atom_site_type_symbol
_atom_site_label
_atom_site_fract_x
_atom_site_fract_y
_atom_site_fract_z
Si Si1 0.866500 0.977099 0.380600
Si Si2 0.666304 0.698636 0.222114
Si Si3 0.485930 0.305416 0.255954
Si Si4 0.733682 0.075971 0.799631
Si Si5 0.883385 0.363300 0.218986
Si Si6 0.057916 0.369864 0.754268
Si Si7 0.450767 0.736241 0.441446
O O1 0.877596 0.858544 0.485058
O O2 0.922964 0.940676 0.224104
O O3 0.725545 0.013492 0.383170
O O4 0.636205 0.587509 0.111097
O O5 0.667044 0.815329 0.118597
O O6 0.798930 0.657941 0.272584
O O7 0.576588 0.731422 0.353949
O O8 0.399494 0.220145 0.352290
O O9 0.400072 0.403781 0.185331
O O10 0.540105 0.234328 0.115973
O O11 0.667107 0.008647 0.663243
O O12 0.647319 0.179665 0.862324
O O13 0.742679 0.971619 0.920802
O O14 0.957605 0.489515 0.226383
#
# Coordination Sequence:
#
# PCOD9541730 Si02
#       7
#     4   4   4   4   4   4   4
#     4  10  25  47  74  99 135 180 241 295 353 420
#     4  11  25  48  70 104 145 190 239 289 367 433
#     4  11  27  40  69 107 142 186 235 290 350 436
#     4  11  26  45  71 103 139 182 236 299 352 428
#     4  11  25  47  72 103 146 183 241 294 356 431
#     4  10  24  48  70 103 140 188 234 296 353 434
#     4  12  26  41  72 101 143 191 228 291 359 422
#
# _framework density 25.171635999999999
#
# number of rings (size 3 to 8) (size 9 to 14) (size 15 to 20)
#    0.000    1.143    2.857    0.857   12.000    2.286 
#    2.571    0.000    0.000    0.000    0.000    0.000 
#    0.000    0.000    0.000    0.000    0.000    0.000 
#
# Total GULP energy -156822.611460 kJ/mol
# GULP energy per Si atom -5600.807552 kJ/mol
# Density = 2.511434 g / cm^3
# Si number density = 25.171636 Si / 1000 Ang^3
#
#
#
# Elastic Constant Matrix: (Units=GPa)
#
#
# Indices 1 2 3 4 5 6 
#
# 1 50.5656 0.8944 2.1270 0.0000 0.0000 -14.2883
# 2 0.8944 50.5656 2.1270 0.0000 0.0000 14.2883
# 3 2.1270 2.1270 86.0025 0.0000 0.0000 0.0000
# 4 0.0000 0.0000 0.0000 39.1660 0.0000 0.0000
# 5 0.0000 0.0000 0.0000 0.0000 39.1660 0.0000
# 6 -14.2883 14.2883 0.0000 0.0000 0.0000 40.2632
#
#
#
# Elastic Compliance Matrix: (Units=1/GPa)
#
#
# Indices 1 2 3 4 5 6 
#
# 1 0.022385 -0.002912 -0.000482 0.000000 0.000000 0.008977
# 2 -0.002912 0.022385 -0.000482 0.000000 0.000000 -0.008977
# 3 -0.000482 -0.000482 0.011651 0.000000 0.000000 0.000000
# 4 0.000000 0.000000 0.000000 0.025532 0.000000 0.000000
# 5 0.000000 0.000000 0.000000 0.000000 0.025532 0.000000
# 6 0.008977 -0.008977 0.000000 0.000000 0.000000 0.031208
#
#
# Mechanical properties :
#
#
# Convention : Reuss Voigt Hill
#
# Bulk Modulus (GPa) = 20.54665 21.93675 21.24170
# Shear Modulus (GPa) = 30.73746 35.85138 33.29442
#
# Velocity S-wave (km/s) = 3.49824 3.77805 3.64083
# Velocity P-wave (km/s) = 4.94947 5.26929 5.11188
#
# Compressibility (1/GPa) = 0.04866974
#
# Stress axis : x y z
#
# Youngs Moduli (GPa) = 44.67333 44.67333 85.82661
#
# Poissons Ratio (x) = 0.13010 0.04133
# Poissons Ratio (y) = 0.13010 0.04133
# Poissons Ratio (z) = 0.02151 0.02151
#
# Static dielectric constant tensor:
#      x y z
#    x 2.000740 0.000000 0.000000 
#    y 0.000000 2.000740 0.000000 
#    z 0.000000 0.000000 2.031700 
# 
# From -- ./inp_files/633.got.cif
#   From: 2010.05.17/outbox.cif.g08.bks.cpg/sg78_cif.got.tgz:633.got - 2010.06.03 18:45:56.
