data_PCOD9541957
_publ_section_title
;
Structure prediction by ZEFSAII (Michael W. Deem and Ramdas Pophale) SiO2 
 PCOD9541957
Probable space group: I 4
;
_chemical_formula_sum "Si O2"
_cell_formula_units_Z 56
_cell_length_a 14.996012
_cell_length_b 14.996012
_cell_length_c 11.737350
_cell_angle_alpha 90.000000
_cell_angle_beta 90.000000
_cell_angle_gamma 90.000000
_cell_volume 2639.499680
_symmetry_space_group_name_H-M "I 4"
_symmetry_group_IT_number 79
_symmetry_cell_setting 'tetragonal'
loop_
_space_group_symop_operation_xyz
x,y,z
-y,x,z
-x,-y,z
y,-x,z
1/2+x,1/2+y,1/2+z
1/2-y,1/2+x,1/2+z
1/2-x,1/2-y,1/2+z
1/2+y,1/2-x,1/2+z
loop_
_atom_site_type_symbol
_atom_site_label
_atom_site_fract_x
_atom_site_fract_y
_atom_site_fract_z
Si Si1 0.205595 0.423631 0.281580
Si Si2 0.830273 0.604552 0.638967
Si Si3 0.941764 0.665863 0.965514
Si Si4 0.046418 0.281914 0.305945
Si Si5 0.147406 0.185265 0.111443
Si Si6 0.379210 0.421390 0.406052
Si Si7 0.489249 0.817109 0.043584
O O1 0.181643 0.518959 0.340337
O O2 0.120853 0.359773 0.301153
O O3 0.292213 0.384331 0.344423
O O4 0.224286 0.433259 0.147328
O O5 0.818647 0.530442 0.540182
O O6 0.819613 0.544245 0.750681
O O7 0.751259 0.676609 0.640600
O O8 0.924105 0.645534 0.606670
O O9 0.873781 0.738835 0.017013
O O10 0.897757 0.570698 0.992211
O O11 0.087858 0.206826 0.222107
O O12 0.022672 0.259554 0.436157
O O13 0.126747 0.094842 0.041820
O O14 0.474562 0.381741 0.374210
#
# Coordination Sequence:
#
# PCOD9541957 Si02
#       7
#     8   8   8   8   8   8   8
#     4  12  23  41  68 104 147 181 245 303 368 444
#     4  11  22  41  70  95 139 198 240 293 353 444
#     4  11  22  40  69 104 139 186 246 293 358 431
#     4  11  25  42  67 108 146 190 241 301 386 435
#     4  11  21  45  67  98 136 180 253 298 344 437
#     4  11  22  41  71  98 128 179 248 306 343 415
#     4  12  24  42  63 104 150 190 233 307 377 446
#
# _framework density 21.216142999999999
#
# number of rings (size 3 to 8) (size 9 to 14) (size 15 to 20)
#    0.000    0.714    7.143    2.143    0.000    2.286 
#    7.714    0.000    0.000    0.000    0.000    2.000 
#    0.000    0.000    0.000    0.000    0.000    0.000 
#
# Total GULP energy -156248.164915 kJ/mol
# GULP energy per Si atom -5580.291604 kJ/mol
# Density = 2.116785 g / cm^3
# Si number density = 21.216143 Si / 1000 Ang^3
#
#
#
# Elastic Constant Matrix: (Units=GPa)
#
#
# Indices 1 2 3 4 5 6 
#
# 1 -134.8722 -164.4089 -27.1014 0.0000 0.0000 -8.6244
# 2 -164.4089 -134.8722 -27.1014 0.0000 0.0000 8.6244
# 3 -27.1014 -27.1014 147.7684 0.0000 0.0000 0.0000
# 4 0.0000 0.0000 0.0000 23.8663 0.0000 0.0000
# 5 0.0000 0.0000 0.0000 0.0000 23.8663 0.0000
# 6 -8.6244 8.6244 0.0000 0.0000 0.0000 37.5804
#
#
#
# Elastic Compliance Matrix: (Units=1/GPa)
#
#
# Indices 1 2 3 4 5 6 
#
# 1 0.017931 -0.021165 -0.000593 0.000000 0.000000 0.008972
# 2 -0.021165 0.017931 -0.000593 0.000000 0.000000 -0.008972
# 3 -0.000593 -0.000593 0.006550 0.000000 0.000000 0.000000
# 4 0.000000 0.000000 0.000000 0.041900 0.000000 0.000000
# 5 0.000000 0.000000 0.000000 0.000000 0.041900 0.000000
# 6 0.008972 -0.008972 0.000000 0.000000 0.000000 0.030728
#
#
# Mechanical properties :
#
#
# Convention : Reuss Voigt Hill
#
# Bulk Modulus (GPa) = -436.58210 -62.13329 -249.35770
# Shear Modulus (GPa) = 24.89074 23.50499 24.19786
#
# Velocity S-wave (km/s) = 3.42891 3.33210 3.38085
# Velocity P-wave (km/s) = 13.80393 3.81387 10.12655
#
# Compressibility (1/GPa) = -0.00229052
#
# Stress axis : x y z
#
# Youngs Moduli (GPa) = 55.76970 55.76970 152.67673
#
# Poissons Ratio (x) = 1.18035 0.09056
# Poissons Ratio (y) = 1.18035 0.09056
# Poissons Ratio (z) = 0.03308 0.03308
#
# Static dielectric constant tensor:
#      x y z
#    x 1.791420 0.000000 0.000000 
#    y 0.000000 1.791420 0.000000 
#    z 0.000000 0.000000 1.867450 
# 
# From -- ./inp_files/1145.got.cif
#   From: 2010.05.17/outbox.cif.g08.bks.cpg/sg79_cif.got.tgz:1145.got - 2010.06.03 18:47:27.
