data_PCOD9541306
_publ_section_title
;
Structure prediction by ZEFSAII (Michael W. Deem and Ramdas Pophale) SiO2 
 PCOD9541306
Probable space group: P 41
;
_chemical_formula_sum "Si O2"
_cell_formula_units_Z 28
_cell_length_a 8.364599
_cell_length_b 8.364599
_cell_length_c 16.131017
_cell_angle_alpha 90.000000
_cell_angle_beta 90.000000
_cell_angle_gamma 90.000000
_cell_volume 1128.631066
_symmetry_space_group_name_H-M "P 41"
_symmetry_group_IT_number 76
_symmetry_cell_setting 'tetragonal'
loop_
_space_group_symop_operation_xyz
x,y,z
-y,x,1/4+z
-x,-y,1/2+z
y,-x,3/4+z
loop_
_atom_site_type_symbol
_atom_site_label
_atom_site_fract_x
_atom_site_fract_y
_atom_site_fract_z
Si Si1 0.902611 0.342255 0.256380
Si Si2 0.436456 0.273612 0.420802
Si Si3 0.249644 0.310996 0.871037
Si Si4 0.069601 0.678230 0.310150
Si Si5 0.212589 0.792262 0.926377
Si Si6 0.728069 0.407336 0.961020
Si Si7 0.528729 0.931556 0.756259
O O1 0.783900 0.371709 0.179554
O O2 0.818259 0.244328 0.330033
O O3 0.993343 0.496858 0.294481
O O4 0.031478 0.232172 0.209928
O O5 0.313940 0.173750 0.477789
O O6 0.618327 0.288760 0.454272
O O7 0.363626 0.449008 0.416045
O O8 0.467615 0.165242 0.340830
O O9 0.336075 0.372587 0.787898
O O10 0.091512 0.224401 0.831065
O O11 0.167097 0.430358 0.936696
O O12 0.194103 0.693993 0.386100
O O13 0.068213 0.708375 0.973300
O O14 0.890449 0.463212 0.007849
#
# Coordination Sequence:
#
# PCOD9541306 Si02
#       7
#     4   4   4   4   4   4   4
#     4  11  22  44  69 104 135 188 236 290 353 441
#     4  11  23  43  69 100 136 184 230 296 362 426
#     4  11  24  43  71  98 139 182 233 297 357 424
#     4  10  24  45  64  98 148 172 231 298 356 429
#     4  11  23  42  72  97 137 181 237 287 353 431
#     4  11  24  44  69 102 139 180 241 291 356 431
#     4  11  24  45  68  99 140 183 232 299 355 430
#
# _framework density 24.808816
#
# number of rings (size 3 to 8) (size 9 to 14) (size 15 to 20)
#    0.000    1.143    4.286    3.429    2.000    5.714 
#    2.571    0.000    0.000    0.000    0.000    0.000 
#    0.000    0.000    0.000    0.000    0.000    0.000 
#
# Total GULP energy -156206.964953 kJ/mol
# GULP energy per Si atom -5578.820177 kJ/mol
# Density = 2.475235 g / cm^3
# Si number density = 24.808816 Si / 1000 Ang^3
#
#
#
# Elastic Constant Matrix: (Units=GPa)
#
#
# Indices 1 2 3 4 5 6 
#
# 1 37.3426 1.5767 7.4892 0.0000 0.0000 -12.4230
# 2 1.5767 37.3426 7.4892 0.0000 0.0000 12.4230
# 3 7.4892 7.4892 78.7260 0.0000 0.0000 0.0000
# 4 0.0000 0.0000 0.0000 35.2664 0.0000 0.0000
# 5 0.0000 0.0000 0.0000 0.0000 35.2664 0.0000
# 6 -12.4230 12.4230 0.0000 0.0000 0.0000 18.2382
#
#
#
# Elastic Compliance Matrix: (Units=1/GPa)
#
#
# Indices 1 2 3 4 5 6 
#
# 1 0.039872 -0.013201 -0.002537 0.000000 0.000000 0.036151
# 2 -0.013201 0.039872 -0.002537 0.000000 0.000000 -0.036151
# 3 -0.002537 -0.002537 0.013185 0.000000 0.000000 0.000000
# 4 0.000000 0.000000 0.000000 0.028356 0.000000 0.000000
# 5 0.000000 0.000000 0.000000 0.000000 0.028356 0.000000
# 6 0.036151 -0.036151 0.000000 0.000000 0.000000 0.104078
#
#
# Mechanical properties :
#
#
# Convention : Reuss Voigt Hill
#
# Bulk Modulus (GPa) = 17.73754 20.72458 19.23106
# Shear Modulus (GPa) = 16.17802 26.87794 21.52798
#
# Velocity S-wave (km/s) = 2.55641 3.29508 2.94896
# Velocity P-wave (km/s) = 3.98483 4.78002 4.40042
#
# Compressibility (1/GPa) = 0.05637761
#
# Stress axis : x y z
#
# Youngs Moduli (GPa) = 25.08039 25.08039 75.84373
#
# Poissons Ratio (x) = 0.33109 0.19243
# Poissons Ratio (y) = 0.33109 0.19243
# Poissons Ratio (z) = 0.06363 0.06363
#
# Static dielectric constant tensor:
#      x y z
#    x 2.038740 0.000000 0.000000 
#    y 0.000000 2.038740 0.000000 
#    z 0.000000 0.000000 2.012810 
# 
# From -- ./inp_files/1295.got.cif
#   From: 2010.05.17/outbox.cif.g08.bks.cpg/sg76_cif.got.tgz:1295.got - 2010.06.03 18:43:17.
