data_PCOD9541570
_publ_section_title
;
Structure prediction by ZEFSAII (Michael W. Deem and Ramdas Pophale) SiO2 
 PCOD9541570
Probable space group: P 42
;
_chemical_formula_sum "Si O2"
_cell_formula_units_Z 24
_cell_length_a 8.420104
_cell_length_b 8.420104
_cell_length_c 16.102283
_cell_angle_alpha 90.000000
_cell_angle_beta 90.000000
_cell_angle_gamma 90.000000
_cell_volume 1141.622098
_symmetry_space_group_name_H-M "P 42"
_symmetry_group_IT_number 77
_symmetry_cell_setting 'tetragonal'
loop_
_space_group_symop_operation_xyz
x,y,z
-y,x,1/2+z
-x,-y,z
y,-x,1/2+z
loop_
_atom_site_type_symbol
_atom_site_label
_atom_site_fract_x
_atom_site_fract_y
_atom_site_fract_z
Si Si1 0.252050 0.764058 0.620140
Si Si2 0.930611 0.328177 0.778803
Si Si3 0.220219 0.831543 0.924376
Si Si4 0.555322 0.682818 0.957670
Si Si5 0.748505 0.852835 0.814093
Si Si6 0.000000 0.500000 0.185393
Si Si7 0.000000 0.000000 0.051508
O O1 0.204904 0.695033 0.709641
O O2 0.279278 0.644605 0.544064
O O3 0.404370 0.874676 0.630914
O O4 0.101181 0.873922 0.601165
O O5 0.849337 0.308180 0.868166
O O6 0.000000 0.500000 0.765841
O O7 0.083810 0.210654 0.779218
O O8 0.396904 0.790106 0.952587
O O9 0.222916 0.986480 0.865848
O O10 0.099555 0.875747 0.996677
O O11 0.500000 0.500000 0.954256
O O12 0.668034 0.731008 0.879833
O O13 0.624219 0.903103 0.742979
#
# Coordination Sequence:
#
# PCOD9541570 Si02
#       7
#     4   4   4   4   4   2   2
#     4  12  28  45  67 110 142 190 231 298 366 416
#     4  12  26  44  73 107 144 182 242 299 356 427
#     4  12  23  47  74 102 138 192 245 290 348 436
#     4  12  27  45  73 107 148 185 235 300 371 425
#     4  12  22  48  76 101 134 191 246 286 352 438
#     4  12  26  46  74 100 150 184 236 292 360 428
#     4  12  26  42  76  98 138 182 254 294 342 420
#
# _framework density 21.022718999999999
#
# number of rings (size 3 to 8) (size 9 to 14) (size 15 to 20)
#    0.000    0.000    6.667    2.000    4.667    1.333 
#    1.500    0.833    0.000    0.000    0.000    0.000 
#    0.000    0.000    0.000    0.000    0.000    0.000 
#
# Total GULP energy -134333.422066 kJ/mol
# GULP energy per Si atom -5597.225919 kJ/mol
# Density = 2.097487 g / cm^3
# Si number density = 21.022719 Si / 1000 Ang^3
#
#
#
# Elastic Constant Matrix: (Units=GPa)
#
#
# Indices 1 2 3 4 5 6 
#
# 1 86.7653 12.2279 10.1532 0.0000 0.0000 -10.5820
# 2 12.2279 86.7653 10.1532 0.0000 0.0000 10.5820
# 3 10.1532 10.1532 42.8016 0.0000 0.0000 0.0000
# 4 0.0000 0.0000 0.0000 -32.0181 0.0000 0.0000
# 5 0.0000 0.0000 0.0000 0.0000 -32.0181 0.0000
# 6 -10.5820 10.5820 0.0000 0.0000 0.0000 46.1067
#
#
#
# Elastic Compliance Matrix: (Units=1/GPa)
#
#
# Indices 1 2 3 4 5 6 
#
# 1 0.012485 -0.001866 -0.002519 0.000000 0.000000 0.003294
# 2 -0.001866 0.012485 -0.002519 0.000000 0.000000 -0.003294
# 3 -0.002519 -0.002519 0.024559 0.000000 0.000000 0.000000
# 4 0.000000 0.000000 0.000000 -0.031232 0.000000 0.000000
# 5 0.000000 0.000000 0.000000 0.000000 -0.031232 0.000000
# 6 0.003294 -0.003294 0.000000 0.000000 0.000000 0.023201
#
#
# Mechanical properties :
#
#
# Convention : Reuss Voigt Hill
#
# Bulk Modulus (GPa) = 27.99554 31.26679 29.63116
# Shear Modulus (GPa) = 138.96802 8.66727 73.81764
#
# Velocity S-wave (km/s) = 8.13924 2.03267 5.93207
# Velocity P-wave (km/s) = 10.08342 4.51820 7.81311
#
# Compressibility (1/GPa) = 0.03571998
#
# Stress axis : x y z
#
# Youngs Moduli (GPa) = 80.09700 80.09700 40.71891
#
# Poissons Ratio (x) = 0.14950 0.10257
# Poissons Ratio (y) = 0.14950 0.10257
# Poissons Ratio (z) = 0.20175 0.20175
#
# Static dielectric constant tensor:
#      x y z
#    x 1.717020 0.000000 0.000000 
#    y 0.000000 1.717020 0.000000 
#    z 0.000000 0.000000 1.760420 
# 
# From -- ./inp_files/1131.got.cif
#   From: 2010.05.17/outbox.cif.g08.bks.cpg/sg77_cif.got.tgz:1131.got - 2010.06.03 18:44:51.
