data_PCOD9541298
_publ_section_title
;
Structure prediction by ZEFSAII (Michael W. Deem and Ramdas Pophale) SiO2 
 PCOD9541298
Probable space group: P 41
;
_chemical_formula_sum "Si O2"
_cell_formula_units_Z 24
_cell_length_a 7.970497
_cell_length_b 7.970497
_cell_length_c 15.230524
_cell_angle_alpha 90.000000
_cell_angle_beta 90.000000
_cell_angle_gamma 90.000000
_cell_volume 967.577255
_symmetry_space_group_name_H-M "P 41"
_symmetry_group_IT_number 76
_symmetry_cell_setting 'tetragonal'
loop_
_space_group_symop_operation_xyz
x,y,z
-y,x,1/4+z
-x,-y,1/2+z
y,-x,3/4+z
loop_
_atom_site_type_symbol
_atom_site_label
_atom_site_fract_x
_atom_site_fract_y
_atom_site_fract_z
Si Si1 0.636836 0.827324 0.505770
Si Si2 0.207366 0.268091 0.750314
Si Si3 0.801841 0.829491 0.045183
Si Si4 0.718034 0.885567 0.690258
Si Si5 0.614425 0.078462 0.250498
Si Si6 0.188141 0.477100 0.189651
O O1 0.459197 0.731190 0.519657
O O2 0.760658 0.871443 0.588071
O O3 0.774707 0.721258 0.454295
O O4 0.573279 0.000498 0.468127
O O5 0.192970 0.248478 0.642648
O O6 0.025048 0.242137 0.792889
O O7 0.308660 0.100214 0.775385
O O8 0.650390 0.755072 0.984415
O O9 0.984627 0.816637 0.999736
O O10 0.534832 0.965396 0.685352
O O11 0.712095 0.690312 0.716666
O O12 0.524032 0.166590 0.334471
#
# Coordination Sequence:
#
# PCOD9541298 Si02
#       6
#     4   4   4   4   4   4
#     4  10  24  43  67 102 139 181 244 292 359 438
#     4  11  25  46  73 105 142 190 245 298 368 435
#     4  11  25  46  73 105 142 190 245 298 368 435
#     4  11  24  42  70  99 141 185 231 298 362 428
#     4  11  24  42  70  99 141 185 231 298 362 428
#     4  10  24  43  67 102 139 181 244 292 359 438
#
# _framework density 24.804220000000001
#
# number of rings (size 3 to 8) (size 9 to 14) (size 15 to 20)
#    0.000    1.333    0.000    5.000   14.000    1.333 
#    6.000    0.000    0.000    0.000    0.000    0.000 
#    0.000    0.000    0.000    0.000    0.000    0.000 
#
# Total GULP energy -133828.315931 kJ/mol
# GULP energy per Si atom -5576.179830 kJ/mol
# Density = 2.474776 g / cm^3
# Si number density = 24.804220 Si / 1000 Ang^3
#
#
#
# Elastic Constant Matrix: (Units=GPa)
#
#
# Indices 1 2 3 4 5 6 
#
# 1 73.8874 5.8610 19.4022 0.0000 0.0000 4.3533
# 2 5.8610 73.8874 19.4022 0.0000 0.0000 -4.3533
# 3 19.4022 19.4022 96.0171 0.0000 0.0000 0.0000
# 4 0.0000 0.0000 0.0000 30.5449 0.0000 0.0000
# 5 0.0000 0.0000 0.0000 0.0000 30.5449 0.0000
# 6 4.3533 -4.3533 0.0000 0.0000 0.0000 21.3926
#
#
#
# Elastic Compliance Matrix: (Units=1/GPa)
#
#
# Indices 1 2 3 4 5 6 
#
# 1 0.014500 -0.000593 -0.002810 0.000000 0.000000 -0.003071
# 2 -0.000593 0.014500 -0.002810 0.000000 0.000000 0.003071
# 3 -0.002810 -0.002810 0.011551 0.000000 0.000000 0.000000
# 4 0.000000 0.000000 0.000000 0.032739 0.000000 0.000000
# 5 0.000000 0.000000 0.000000 0.000000 0.032739 0.000000
# 6 -0.003071 0.003071 0.000000 0.000000 0.000000 0.047995
#
#
# Mechanical properties :
#
#
# Convention : Reuss Voigt Hill
#
# Bulk Modulus (GPa) = 35.55744 37.01366 36.28555
# Shear Modulus (GPa) = 28.43741 29.77158 29.10450
#
# Velocity S-wave (km/s) = 3.38964 3.46824 3.42916
# Velocity P-wave (km/s) = 5.44847 5.56713 5.50812
#
# Compressibility (1/GPa) = 0.02812351
#
# Stress axis : x y z
#
# Youngs Moduli (GPa) = 68.96523 68.96523 86.57626
#
# Poissons Ratio (x) = 0.04091 0.24329
# Poissons Ratio (y) = 0.04091 0.24329
# Poissons Ratio (z) = 0.19380 0.19380
#
# Static dielectric constant tensor:
#      x y z
#    x 2.079160 0.000000 0.000000 
#    y 0.000000 2.079160 0.000000 
#    z 0.000000 0.000000 2.120180 
# 
# From -- ./inp_files/1069.got.cif
#   From: 2010.05.17/outbox.cif.g08.bks.cpg/sg76_cif.got.tgz:1069.got - 2010.06.03 18:43:17.
