data_PCOD9541110
_publ_section_title
;
Structure prediction by ZEFSAII (Michael W. Deem and Ramdas Pophale) SiO2 
 PCOD9541110
Probable space group: P 41
;
_chemical_formula_sum "Si O2"
_cell_formula_units_Z 24
_cell_length_a 8.777540
_cell_length_b 8.777540
_cell_length_c 13.907115
_cell_angle_alpha 90.000000
_cell_angle_beta 90.000000
_cell_angle_gamma 90.000000
_cell_volume 1071.476574
_symmetry_space_group_name_H-M "P 41"
_symmetry_group_IT_number 76
_symmetry_cell_setting 'tetragonal'
loop_
_space_group_symop_operation_xyz
x,y,z
-y,x,1/4+z
-x,-y,1/2+z
y,-x,3/4+z
loop_
_atom_site_type_symbol
_atom_site_label
_atom_site_fract_x
_atom_site_fract_y
_atom_site_fract_z
Si Si1 0.035217 0.821133 0.023370
Si Si2 0.338398 0.822770 0.137309
Si Si3 0.838398 0.677230 0.387581
Si Si4 0.594007 0.638049 0.064690
Si Si5 0.138049 0.094007 0.710200
Si Si6 0.535217 0.678867 0.501520
O O1 0.921208 0.818168 0.115427
O O2 0.202816 0.793419 0.062378
O O3 0.977636 0.704816 0.942461
O O4 0.015604 0.993195 0.983175
O O5 0.496843 0.788659 0.085587
O O6 0.336948 0.699048 0.223108
O O7 0.836947 0.800952 0.301782
O O8 0.702816 0.706581 0.462512
O O9 0.795184 0.522364 0.332429
O O10 0.996843 0.711341 0.439303
O O11 0.681832 0.578792 0.159462
O O12 0.484396 0.493195 0.041715
#
# Coordination Sequence:
#
# PCOD9541110 Si02
#       6
#     4   4   4   4   4   4
#     4   9  19  37  58  82 114 148 184 229 277 328
#     4  10  19  38  61  82 112 148 184 230 279 326
#     4  10  19  38  61  82 112 148 184 230 279 326
#     4   9  19  37  58  82 114 148 184 229 277 328
#     4   9  19  37  58  82 114 148 184 229 277 328
#     4   9  19  37  58  82 114 148 184 229 277 328
#
# _framework density 22.398994999999999
#
# number of rings (size 3 to 8) (size 9 to 14) (size 15 to 20)
#    0.000    2.667    0.000    1.000    0.000    0.000 
#    0.000   45.000    0.000    0.000    0.000    0.000 
#    0.000    0.000    0.000    0.000    0.000    0.000 
#
# Total GULP energy -134100.333369 kJ/mol
# GULP energy per Si atom -5587.513890 kJ/mol
# Density = 2.234801 g / cm^3
# Si number density = 22.398995 Si / 1000 Ang^3
#
#
#
# Elastic Constant Matrix: (Units=GPa)
#
#
# Indices 1 2 3 4 5 6 
#
# 1 18.8065 43.5335 5.6453 0.0000 0.0000 0.0000
# 2 43.5335 18.8065 5.6453 0.0000 0.0000 0.0000
# 3 5.6453 5.6453 53.5091 0.0000 0.0000 0.0000
# 4 0.0000 0.0000 0.0000 39.1616 0.0000 0.0000
# 5 0.0000 0.0000 0.0000 0.0000 39.1616 0.0000
# 6 0.0000 0.0000 0.0000 0.0000 0.0000 22.2204
#
#
#
# Elastic Compliance Matrix: (Units=1/GPa)
#
#
# Indices 1 2 3 4 5 6 
#
# 1 -0.012044 0.028398 -0.001725 0.000000 0.000000 0.000000
# 2 0.028398 -0.012044 -0.001725 0.000000 0.000000 0.000000
# 3 -0.001725 -0.001725 0.019052 0.000000 0.000000 0.000000
# 4 0.000000 0.000000 0.000000 0.025535 0.000000 0.000000
# 5 0.000000 0.000000 0.000000 0.000000 0.025535 0.000000
# 6 0.000000 0.000000 0.000000 0.000000 0.000000 0.045004
#
#
# Mechanical properties :
#
#
# Convention : Reuss Voigt Hill
#
# Bulk Modulus (GPa) = 22.29245 22.30782 22.30013
# Shear Modulus (GPa) = 89.13020 22.52856 55.82938
#
# Velocity S-wave (km/s) = 6.31494 3.17485 4.99791
# Velocity P-wave (km/s) = 7.94640 4.83947 6.57897
#
# Compressibility (1/GPa) = 0.04485823
#
# Stress axis : x y z
#
# Youngs Moduli (GPa) = -83.02899 -83.02899 52.48663
#
# Poissons Ratio (x) = 2.35782 0.09056
# Poissons Ratio (y) = 2.35782 0.09056
# Poissons Ratio (z) = -0.14325 -0.14325
#
# Static dielectric constant tensor:
#      x y z
#    x 1.862230 0.000000 0.000000 
#    y 0.000000 1.862230 0.000000 
#    z 0.000000 0.000000 1.811060 
# 
# From -- ./inp_files/1020.got.cif
#   From: 2010.05.17/outbox.cif.g08.bks.cpg/sg76_cif.got.tgz:1020.got - 2010.06.03 18:43:17.
