data_PCOD9541491
_publ_section_title
;
Structure prediction by ZEFSAII (Michael W. Deem and Ramdas Pophale) SiO2 
 PCOD9541491
Probable space group: P 42
;
_chemical_formula_sum "Si O2"
_cell_formula_units_Z 32
_cell_length_a 10.501427
_cell_length_b 10.501427
_cell_length_c 12.063197
_cell_angle_alpha 90.000000
_cell_angle_beta 90.000000
_cell_angle_gamma 90.000000
_cell_volume 1330.328992
_symmetry_space_group_name_H-M "P 42"
_symmetry_group_IT_number 77
_symmetry_cell_setting 'tetragonal'
loop_
_space_group_symop_operation_xyz
x,y,z
-y,x,1/2+z
-x,-y,z
y,-x,1/2+z
loop_
_atom_site_type_symbol
_atom_site_label
_atom_site_fract_x
_atom_site_fract_y
_atom_site_fract_z
Si Si1 0.206814 0.375625 0.330620
Si Si2 0.474817 0.632009 0.628754
Si Si3 0.763870 0.437000 0.935222
Si Si4 0.604027 0.768418 0.996947
Si Si5 0.043929 0.200705 0.211761
Si Si6 0.206501 0.959806 0.247403
Si Si7 0.696686 0.108257 0.480700
Si Si8 0.464183 0.859914 0.213658
O O1 0.270951 0.411754 0.212880
O O2 0.298044 0.270231 0.386820
O O3 0.199187 0.505026 0.400798
O O4 0.075345 0.307987 0.301752
O O5 0.500000 0.500000 0.189791
O O6 0.584181 0.692273 0.554996
O O7 0.380720 0.592657 0.528091
O O8 0.862772 0.545333 0.981474
O O9 0.758827 0.511180 0.812185
O O10 0.553439 0.835015 0.108607
O O11 0.755190 0.772173 0.974597
O O12 0.919082 0.124824 0.242957
O O13 0.161108 0.098670 0.208289
O O14 0.036591 0.262212 0.090917
O O15 0.260388 0.967480 0.372315
O O16 0.317063 0.882536 0.183314
O O17 0.500000 0.000000 0.258255
#
# Coordination Sequence:
#
# PCOD9541491 Si02
#       8
#     4   4   4   4   4   4   4   4
#     4  12  23  38  66  99 139 180 225 276 364 416
#     4  11  22  36  61  94 138 171 216 283 341 422
#     4  10  20  38  62  95 125 176 217 268 352 408
#     4  11  23  37  65  97 130 178 216 280 348 416
#     4  11  23  45  67  94 132 180 228 292 343 407
#     4  10  25  41  71  95 125 180 236 279 337 426
#     4  10  22  43  64  93 136 172 222 293 345 404
#     4  11  22  42  68  96 130 171 223 278 340 416
#
# _framework density 24.054198
#
# number of rings (size 3 to 8) (size 9 to 14) (size 15 to 20)
#    0.000    1.250    5.000    1.500    3.500    5.000 
#    0.000    0.000    0.000    0.000    0.000    0.000 
#    0.000    0.000    0.000    0.000    0.000    0.000 
#
# Total GULP energy -178200.996764 kJ/mol
# GULP energy per Si atom -5568.781149 kJ/mol
# Density = 2.399945 g / cm^3
# Si number density = 24.054198 Si / 1000 Ang^3
#
#
#
# Elastic Constant Matrix: (Units=GPa)
#
#
# Indices 1 2 3 4 5 6 
#
# 1 63.8703 3.1515 20.2216 0.0000 0.0000 -6.6845
# 2 3.1515 63.8703 20.2216 0.0000 0.0000 6.6845
# 3 20.2216 20.2216 89.8214 0.0000 0.0000 0.0000
# 4 0.0000 0.0000 0.0000 34.7819 0.0000 0.0000
# 5 0.0000 0.0000 0.0000 0.0000 34.7819 0.0000
# 6 -6.6845 6.6845 0.0000 0.0000 0.0000 20.5290
#
#
#
# Elastic Compliance Matrix: (Units=1/GPa)
#
#
# Indices 1 2 3 4 5 6 
#
# 1 0.017504 -0.000238 -0.003887 0.000000 0.000000 0.005777
# 2 -0.000238 0.017504 -0.003887 0.000000 0.000000 -0.005777
# 3 -0.003887 -0.003887 0.012883 0.000000 0.000000 0.000000
# 4 0.000000 0.000000 0.000000 0.028751 0.000000 0.000000
# 5 0.000000 0.000000 0.000000 0.000000 0.028751 0.000000
# 6 0.005777 -0.005777 0.000000 0.000000 0.000000 0.052473
#
#
# Mechanical properties :
#
#
# Convention : Reuss Voigt Hill
#
# Bulk Modulus (GPa) = 31.38029 33.86128 32.62079
# Shear Modulus (GPa) = 27.09855 29.61637 28.35746
#
# Velocity S-wave (km/s) = 3.36007 3.51270 3.43723
# Velocity P-wave (km/s) = 5.30353 5.52809 5.41697
#
# Compressibility (1/GPa) = 0.03186713
#
# Stress axis : x y z
#
# Youngs Moduli (GPa) = 57.13070 57.13070 77.61898
#
# Poissons Ratio (x) = 0.01357 0.30172
# Poissons Ratio (y) = 0.01357 0.30172
# Poissons Ratio (z) = 0.22208 0.22208
#
# Static dielectric constant tensor:
#      x y z
#    x 1.726010 0.000000 0.000000 
#    y 0.000000 1.726010 0.000000 
#    z 0.000000 0.000000 1.914320 
# 
# From -- ./inp_files/913.got.cif
#   From: 2010.05.17/outbox.cif.g08.bks.cpg/sg77_cif.got.tgz:913.got - 2010.06.03 18:44:51.
