data_PCOD9541599
_publ_section_title
;
Structure prediction by ZEFSAII (Michael W. Deem and Ramdas Pophale) SiO2 
 PCOD9541599
Probable space group: P 43
;
_chemical_formula_sum "Si O2"
_cell_formula_units_Z 20
_cell_length_a 10.923587
_cell_length_b 10.923587
_cell_length_c 8.129832
_cell_angle_alpha 90.000000
_cell_angle_beta 90.000000
_cell_angle_gamma 90.000000
_cell_volume 970.090195
_symmetry_space_group_name_H-M "P 43"
_symmetry_group_IT_number 78
_symmetry_cell_setting 'tetragonal'
loop_
_space_group_symop_operation_xyz
x,y,z
-y,x,3/4+z
-x,-y,1/2+z
y,-x,1/4+z
loop_
_atom_site_type_symbol
_atom_site_label
_atom_site_fract_x
_atom_site_fract_y
_atom_site_fract_z
Si Si1 0.043853 0.253725 0.934510
Si Si2 0.991696 0.599381 0.115515
Si Si3 0.867305 0.973599 0.222985
Si Si4 0.244066 0.738454 0.443526
Si Si5 0.515669 0.184903 0.089441
O O1 0.070260 0.127006 0.840438
O O2 0.063031 0.352728 0.788460
O O3 0.901018 0.258736 0.985735
O O4 0.146093 0.260774 0.072915
O O5 0.025908 0.723254 0.014535
O O6 0.104172 0.517158 0.177965
O O7 0.900960 0.526344 0.999763
O O8 0.902157 0.930954 0.039835
O O9 0.351260 0.754417 0.575499
O O10 0.265286 0.605888 0.361434
#
# Coordination Sequence:
#
# PCOD9541599 Si02
#       5
#     4   4   4   4   4
#     4  10  19  39  62  97 123 166 201 269 311 376
#     4  10  22  39  61  91 131 166 213 249 327 379
#     4  10  19  33  58  97 131 153 204 259 320 367
#     4  11  23  42  67  90 133 163 216 260 323 376
#     4  11  23  43  62  93 128 176 210 261 317 384
#
# _framework density 20.616637000000001
#
# number of rings (size 3 to 8) (size 9 to 14) (size 15 to 20)
#    0.000    1.600    6.000    2.400    2.800    0.000 
#   10.800    2.000    0.000    0.000    0.000    0.000 
#    0.000    0.000    0.000    0.000    0.000    0.000 
#
# Total GULP energy -111532.771486 kJ/mol
# GULP energy per Si atom -5576.638574 kJ/mol
# Density = 2.056971 g / cm^3
# Si number density = 20.616637 Si / 1000 Ang^3
#
#
#
# Elastic Constant Matrix: (Units=GPa)
#
#
# Indices 1 2 3 4 5 6 
#
# 1 121.6107 24.7474 35.2872 0.0000 0.0000 -6.0423
# 2 24.7474 121.6107 35.2872 0.0000 0.0000 6.0423
# 3 35.2872 35.2872 53.0238 0.0000 0.0000 0.0000
# 4 0.0000 0.0000 0.0000 24.2523 0.0000 0.0000
# 5 0.0000 0.0000 0.0000 0.0000 24.2523 0.0000
# 6 -6.0423 6.0423 0.0000 0.0000 0.0000 -3.8659
#
#
#
# Elastic Compliance Matrix: (Units=1/GPa)
#
#
# Indices 1 2 3 4 5 6 
#
# 1 0.009350 0.000711 -0.006696 0.000000 0.000000 -0.013503
# 2 0.000711 0.009350 -0.006696 0.000000 0.000000 0.013503
# 3 -0.006696 -0.006696 0.027771 0.000000 0.000000 0.000000
# 4 0.000000 0.000000 0.000000 0.041233 0.000000 0.000000
# 5 0.000000 0.000000 0.000000 0.000000 0.041233 0.000000
# 6 -0.013503 0.013503 0.000000 0.000000 0.000000 -0.216461
#
#
# Mechanical properties :
#
#
# Convention : Reuss Voigt Hill
#
# Bulk Modulus (GPa) = 47.36867 54.09875 50.73371
# Shear Modulus (GPa) = -90.70303 22.32263 -34.19020
#
# Velocity S-wave (km/s) = -6.64007 3.29408 -4.07674
# Velocity P-wave (km/s) = 5.98010 6.38477 1.58172
#
# Compressibility (1/GPa) = 0.02111100
#
# Stress axis : x y z
#
# Youngs Moduli (GPa) = 106.94903 106.94903 36.00822
#
# Poissons Ratio (x) = -0.07604 0.24110
# Poissons Ratio (y) = -0.07604 0.24110
# Poissons Ratio (z) = 0.71610 0.71610
#
# Static dielectric constant tensor:
#      x y z
#    x 1.779650 0.000000 0.000000 
#    y 0.000000 1.779650 0.000000 
#    z 0.000000 0.000000 1.778540 
# 
# From -- ./inp_files/520.got.cif
#   From: 2010.05.17/outbox.cif.g08.bks.cpg/sg78_cif.got.tgz:520.got - 2010.06.03 18:45:56.
