data_PCOD9541008
_publ_section_title
;
Structure prediction by ZEFSAII (Michael W. Deem and Ramdas Pophale) SiO2 
 PCOD9541008
Probable space group: P 4
;
_chemical_formula_sum "Si O2"
_cell_formula_units_Z 32
_cell_length_a 11.151610
_cell_length_b 11.151610
_cell_length_c 11.890600
_cell_angle_alpha 90.000000
_cell_angle_beta 90.000000
_cell_angle_gamma 90.000000
_cell_volume 1478.696058
_symmetry_space_group_name_H-M "P 4"
_symmetry_group_IT_number 75
_symmetry_cell_setting 'tetragonal'
loop_
_space_group_symop_operation_xyz
x,y,z
-y,x,z
-x,-y,z
y,-x,z
loop_
_atom_site_type_symbol
_atom_site_label
_atom_site_fract_x
_atom_site_fract_y
_atom_site_fract_z
Si Si1 0.775756 0.262377 0.910360
Si Si2 0.144050 0.480579 0.923783
Si Si3 0.865873 0.498798 0.320330
Si Si4 0.299257 0.524828 0.132419
Si Si5 0.811101 0.938849 0.717559
Si Si6 0.850639 0.871468 0.127849
Si Si7 0.237969 0.855168 0.369835
Si Si8 0.317221 0.092924 0.502341
O O1 0.650071 0.193737 0.883609
O O2 0.779237 0.403866 0.879320
O O3 0.893222 0.216140 0.842800
O O4 0.802917 0.235372 0.041655
O O5 0.000000 0.500000 0.908449
O O6 0.184543 0.495901 0.053413
O O7 0.765136 0.435710 0.248027
O O8 0.824497 0.633728 0.321723
O O9 0.881903 0.443850 0.444445
O O10 0.000000 0.500000 0.270344
O O11 0.375680 0.402254 0.116731
O O12 0.698843 0.921765 0.634481
O O13 0.927225 0.856211 0.693740
O O14 0.843331 0.849031 0.262051
O O15 0.987895 0.835305 0.103151
O O16 0.202703 0.765025 0.466624
O O17 0.256935 0.982509 0.432642
#
# Coordination Sequence:
#
# PCOD9541008 Si02
#       8
#     4   4   4   4   4   4   4   4
#     4  12  27  46  67 105 137 184 239 291 364 433
#     4  12  25  45  72 100 142 188 236 298 362 436
#     4  10  23  37  56  93 133 177 225 289 342 426
#     4  11  22  40  65  96 137 189 237 290 354 436
#     4  11  23  44  71  97 133 175 231 301 367 443
#     4  11  22  37  63  96 139 176 222 293 358 437
#     4  11  21  38  60  94 129 171 223 273 351 428
#     4  11  22  39  64  91 129 175 225 282 353 430
#
# _framework density 21.640688000000001
#
# number of rings (size 3 to 8) (size 9 to 14) (size 15 to 20)
#    0.000    0.875    3.750    4.125    1.750    2.500 
#    2.250    0.625    0.000    0.000    0.000    0.000 
#    0.000    0.000    0.000    0.000    0.000    0.000 
#
# Total GULP energy -178245.364209 kJ/mol
# GULP energy per Si atom -5570.167632 kJ/mol
# Density = 2.159143 g / cm^3
# Si number density = 21.640688 Si / 1000 Ang^3
#
#
#
# Elastic Constant Matrix: (Units=GPa)
#
#
# Indices 1 2 3 4 5 6 
#
# 1 55.1266 51.8034 4.3915 0.0000 0.0000 -2.0088
# 2 51.8034 55.1266 4.3915 0.0000 0.0000 2.0088
# 3 4.3915 4.3915 70.0532 0.0000 0.0000 0.0000
# 4 0.0000 0.0000 0.0000 27.5259 0.0000 0.0000
# 5 0.0000 0.0000 0.0000 0.0000 27.5259 0.0000
# 6 -2.0088 2.0088 0.0000 0.0000 0.0000 26.7440
#
#
#
# Elastic Compliance Matrix: (Units=1/GPa)
#
#
# Indices 1 2 3 4 5 6 
#
# 1 0.170186 -0.160786 -0.000589 0.000000 0.000000 0.024861
# 2 -0.160786 0.170186 -0.000589 0.000000 0.000000 -0.024861
# 3 -0.000589 -0.000589 0.014349 0.000000 0.000000 0.000000
# 4 0.000000 0.000000 0.000000 0.036329 0.000000 0.000000
# 5 0.000000 0.000000 0.000000 0.000000 0.036329 0.000000
# 6 0.024861 -0.024861 0.000000 0.000000 0.000000 0.041126
#
#
# Mechanical properties :
#
#
# Convention : Reuss Voigt Hill
#
# Bulk Modulus (GPa) = 32.47572 33.49768 32.98670
# Shear Modulus (GPa) = 6.22899 24.34052 15.28476
#
# Velocity S-wave (km/s) = 1.69842 3.35738 2.66051
# Velocity P-wave (km/s) = 4.34575 5.52648 4.97129
#
# Compressibility (1/GPa) = 0.03079224
#
# Stress axis : x y z
#
# Youngs Moduli (GPa) = 5.87593 5.87593 69.69253
#
# Poissons Ratio (x) = 0.94476 0.04107
# Poissons Ratio (y) = 0.94476 0.04107
# Poissons Ratio (z) = 0.00346 0.00346
#
# Static dielectric constant tensor:
#      x y z
#    x 1.807760 0.000000 0.000000 
#    y 0.000000 1.807760 0.000000 
#    z 0.000000 0.000000 1.841890 
# 
# From -- ./inp_files/611.got.cif
#   From: 2010.05.17/outbox.cif.g08.bks.cpg/sg75_cif.got.tgz:611.got - 2010.06.03 18:42:43.
