data_PCOD9541180
_publ_section_title
;
Structure prediction by ZEFSAII (Michael W. Deem and Ramdas Pophale) SiO2 
 PCOD9541180
Probable space group: P 41
;
_chemical_formula_sum "Si O2"
_cell_formula_units_Z 24
_cell_length_a 12.910985
_cell_length_b 12.910985
_cell_length_c 7.954333
_cell_angle_alpha 90.000000
_cell_angle_beta 90.000000
_cell_angle_gamma 90.000000
_cell_volume 1325.935876
_symmetry_space_group_name_H-M "P 41"
_symmetry_group_IT_number 76
_symmetry_cell_setting 'tetragonal'
loop_
_space_group_symop_operation_xyz
x,y,z
-y,x,1/4+z
-x,-y,1/2+z
y,-x,3/4+z
loop_
_atom_site_type_symbol
_atom_site_label
_atom_site_fract_x
_atom_site_fract_y
_atom_site_fract_z
Si Si1 0.403622 0.878409 0.261150
Si Si2 0.832814 0.374796 0.129848
Si Si3 0.486996 0.778055 0.928385
Si Si4 0.238252 0.705525 0.299104
Si Si5 0.891826 0.340838 0.494036
Si Si6 0.409291 0.399000 0.986711
O O1 0.514400 0.887510 0.353293
O O2 0.330634 0.785386 0.325133
O O3 0.344379 0.986360 0.274414
O O4 0.433137 0.847579 0.069435
O O5 0.869501 0.320128 0.299661
O O6 0.712389 0.402682 0.153496
O O7 0.835657 0.306775 0.960766
O O8 0.543275 0.846813 0.785766
O O9 0.413151 0.691868 0.853494
O O10 0.587644 0.722722 0.013226
O O11 0.170969 0.727330 0.130398
O O12 0.407268 0.489897 0.851483
#
# Coordination Sequence:
#
# PCOD9541180 Si02
#       6
#     4   4   4   4   4   4
#     4  11  20  37  62  77 114 157 184 239 289 328
#     4  11  22  36  54  85 115 152 193 226 276 341
#     4   9  20  37  51  79 120 148 192 229 267 337
#     4   9  22  36  54  84 112 141 194 236 279 342
#     4  10  21  40  54  82 115 148 194 241 277 330
#     4  12  23  32  53  79 120 164 189 225 274 334
#
# _framework density 18.100422999999999
#
# number of rings (size 3 to 8) (size 9 to 14) (size 15 to 20)
#    1.000    0.667    1.667    4.000    7.000    0.000 
#    0.000    0.000    0.000    0.000    4.333    0.000 
#    0.000    0.000    0.000    0.000    0.000    0.000 
#
# Total GULP energy -133800.898862 kJ/mol
# GULP energy per Si atom -5575.037453 kJ/mol
# Density = 1.805923 g / cm^3
# Si number density = 18.100423 Si / 1000 Ang^3
#
#
#
# Elastic Constant Matrix: (Units=GPa)
#
#
# Indices 1 2 3 4 5 6 
#
# 1 36.0378 -5.2975 3.3550 0.0000 0.0000 2.6118
# 2 -5.2975 36.0378 3.3550 0.0000 0.0000 -2.6118
# 3 3.3550 3.3550 94.8498 0.0000 0.0000 0.0000
# 4 0.0000 0.0000 0.0000 8.6287 0.0000 0.0000
# 5 0.0000 0.0000 0.0000 0.0000 8.6287 0.0000
# 6 2.6118 -2.6118 0.0000 0.0000 0.0000 1.4601
#
#
#
# Elastic Compliance Matrix: (Units=1/GPa)
#
#
# Indices 1 2 3 4 5 6 
#
# 1 0.032021 0.000763 -0.001160 0.000000 0.000000 -0.055912
# 2 0.000763 0.032021 -0.001160 0.000000 0.000000 0.055912
# 3 -0.001160 -0.001160 0.010625 0.000000 0.000000 0.000000
# 4 0.000000 0.000000 0.000000 0.115893 0.000000 0.000000
# 5 0.000000 0.000000 0.000000 0.000000 0.115893 0.000000
# 6 -0.055912 0.055912 0.000000 0.000000 0.000000 0.884889
#
#
# Mechanical properties :
#
#
# Convention : Reuss Voigt Hill
#
# Bulk Modulus (GPa) = 13.97546 18.86115 16.41831
# Shear Modulus (GPa) = 4.10406 14.77768 9.44087
#
# Velocity S-wave (km/s) = 1.50742 2.86042 2.28630
# Velocity P-wave (km/s) = 3.28140 4.62085 4.00748
#
# Compressibility (1/GPa) = 0.07155397
#
# Stress axis : x y z
#
# Youngs Moduli (GPa) = 31.22957 31.22957 94.11743
#
# Poissons Ratio (x) = -0.02382 0.10914
# Poissons Ratio (y) = -0.02382 0.10914
# Poissons Ratio (z) = 0.03621 0.03621
#
# Static dielectric constant tensor:
#      x y z
#    x 1.597070 0.000000 0.000000 
#    y 0.000000 1.597070 0.000000 
#    z 0.000000 0.000000 1.684960 
# 
# From -- ./inp_files/543.got.cif
#   From: 2010.05.17/outbox.cif.g08.bks.cpg/sg76_cif.got.tgz:543.got - 2010.06.03 18:43:17.
