data_PCOD9541674
_publ_section_title
;
Structure prediction by ZEFSAII (Michael W. Deem and Ramdas Pophale) SiO2 
 PCOD9541674
Probable space group: P 43
;
_chemical_formula_sum "Si O2"
_cell_formula_units_Z 32
_cell_length_a 10.562643
_cell_length_b 10.562643
_cell_length_c 11.532606
_cell_angle_alpha 90.000000
_cell_angle_beta 90.000000
_cell_angle_gamma 90.000000
_cell_volume 1286.686245
_symmetry_space_group_name_H-M "P 43"
_symmetry_group_IT_number 78
_symmetry_cell_setting 'tetragonal'
loop_
_space_group_symop_operation_xyz
x,y,z
-y,x,3/4+z
-x,-y,1/2+z
y,-x,1/4+z
loop_
_atom_site_type_symbol
_atom_site_label
_atom_site_fract_x
_atom_site_fract_y
_atom_site_fract_z
Si Si1 0.259808 0.625900 0.963610
Si Si2 0.225479 0.833579 0.141641
Si Si3 0.991832 0.349201 0.086955
Si Si4 0.947266 0.026435 0.306914
Si Si5 0.189254 0.607722 0.311560
Si Si6 0.593305 0.267715 0.899132
Si Si7 0.239282 0.229171 0.495915
Si Si8 0.426409 0.965032 0.688744
O O1 0.299647 0.661978 0.832289
O O2 0.106727 0.623267 0.944313
O O3 0.299518 0.739757 0.052253
O O4 0.283566 0.489725 0.028433
O O5 0.281705 0.949497 0.219554
O O6 0.170670 0.731917 0.234671
O O7 0.110128 0.886453 0.069381
O O8 0.123088 0.358860 0.155550
O O9 0.874956 0.295536 0.158688
O O10 0.952831 0.491700 0.054933
O O11 0.849193 0.139445 0.324381
O O12 0.040107 0.020107 0.419232
O O13 0.280632 0.651114 0.414814
O O14 0.280873 0.512103 0.244341
O O15 0.064372 0.531621 0.341675
O O16 0.146183 0.325712 0.431090
#
# Coordination Sequence:
#
# PCOD9541674 Si02
#       8
#     4   4   4   4   4   4   4   4
#     4  10  21  44  68  99 133 184 231 295 361 439
#     4  10  21  43  69  98 135 189 239 281 359 446
#     4  10  24  43  68 103 135 191 240 294 364 444
#     4  12  24  40  67 106 148 189 233 300 368 446
#     4  10  22  40  67  92 133 178 233 300 349 439
#     4   9  21  44  65  94 127 176 240 288 362 433
#     4  12  23  44  66 102 146 181 239 308 374 429
#     4  11  24  42  68 100 143 182 237 300 373 436
#
# _framework density 24.870089
#
# number of rings (size 3 to 8) (size 9 to 14) (size 15 to 20)
#    0.000    1.500    2.500    1.500    3.500    0.000 
#   13.500    0.000    0.000    0.000    0.000    0.000 
#    0.000    0.000    0.000    0.000    0.000    0.000 
#
# Total GULP energy -178279.310601 kJ/mol
# GULP energy per Si atom -5571.228456 kJ/mol
# Density = 2.481348 g / cm^3
# Si number density = 24.870089 Si / 1000 Ang^3
#
#
#
# Elastic Constant Matrix: (Units=GPa)
#
#
# Indices 1 2 3 4 5 6 
#
# 1 381.4878 -337.1611 18.0611 0.0000 0.0000 14.7130
# 2 -337.1611 381.4878 18.0611 0.0000 0.0000 -14.7130
# 3 18.0611 18.0611 101.2510 0.0000 0.0000 0.0000
# 4 0.0000 0.0000 0.0000 35.0107 0.0000 0.0000
# 5 0.0000 0.0000 0.0000 0.0000 35.0107 0.0000
# 6 14.7130 -14.7130 0.0000 0.0000 0.0000 29.7865
#
#
#
# Elastic Compliance Matrix: (Units=1/GPa)
#
#
# Indices 1 2 3 4 5 6 
#
# 1 0.013909 0.012488 -0.004709 0.000000 0.000000 -0.000702
# 2 0.012488 0.013909 -0.004709 0.000000 0.000000 0.000702
# 3 -0.004709 -0.004709 0.011556 0.000000 0.000000 0.000000
# 4 0.000000 0.000000 0.000000 0.028563 0.000000 0.000000
# 5 0.000000 0.000000 0.000000 0.000000 0.028563 0.000000
# 6 -0.000702 0.000702 0.000000 0.000000 0.000000 0.034265
#
#
# Mechanical properties :
#
#
# Convention : Reuss Voigt Hill
#
# Bulk Modulus (GPa) = 21.97055 29.12765 25.54910
# Shear Modulus (GPa) = 35.76695 97.64597 66.70646
#
# Velocity S-wave (km/s) = 3.79641 6.27277 5.18461
# Velocity P-wave (km/s) = 5.29814 8.01254 6.79232
#
# Compressibility (1/GPa) = 0.04551547
#
# Stress axis : x y z
#
# Youngs Moduli (GPa) = 71.89808 71.89808 86.53284
#
# Poissons Ratio (x) = -0.89789 0.40745
# Poissons Ratio (y) = -0.89789 0.40745
# Poissons Ratio (z) = 0.33854 0.33854
#
# Static dielectric constant tensor:
#      x y z
#    x 1.996150 0.000000 0.000000 
#    y 0.000000 1.996150 0.000000 
#    z 0.000000 0.000000 2.146990 
# 
# From -- ./inp_files/1008.got.cif
#   From: 2010.05.17/outbox.cif.g08.bks.cpg/sg78_cif.got.tgz:1008.got - 2010.06.03 18:45:56.
