data_PCOD9541856
_publ_section_title
;
Structure prediction by ZEFSAII (Michael W. Deem and Ramdas Pophale) SiO2 
 PCOD9541856
Probable space group: I 4
;
_chemical_formula_sum "Si O2"
_cell_formula_units_Z 52
_cell_length_a 17.128806
_cell_length_b 17.128806
_cell_length_c 8.453149
_cell_angle_alpha 90.000000
_cell_angle_beta 90.000000
_cell_angle_gamma 90.000000
_cell_volume 2480.120062
_symmetry_space_group_name_H-M "I 4"
_symmetry_group_IT_number 79
_symmetry_cell_setting 'tetragonal'
loop_
_space_group_symop_operation_xyz
x,y,z
-y,x,z
-x,-y,z
y,-x,z
1/2+x,1/2+y,1/2+z
1/2-y,1/2+x,1/2+z
1/2-x,1/2-y,1/2+z
1/2+y,1/2-x,1/2+z
loop_
_atom_site_type_symbol
_atom_site_label
_atom_site_fract_x
_atom_site_fract_y
_atom_site_fract_z
Si Si1 0.340514 0.392062 0.198130
Si Si2 0.553363 0.380424 0.850704
Si Si3 0.973435 0.370793 0.900866
Si Si4 0.824623 0.169717 0.136798
Si Si5 0.000000 0.500000 0.149896
Si Si6 0.696763 0.461452 0.379475
Si Si7 0.814709 0.297741 0.863028
O O1 0.350477 0.460058 0.331981
O O2 0.403191 0.325058 0.235560
O O3 0.256244 0.355421 0.228846
O O4 0.349454 0.428314 0.026069
O O5 0.599301 0.462789 0.835416
O O6 0.589876 0.325210 0.716159
O O7 0.998775 0.422497 0.753362
O O8 0.879623 0.361461 0.904744
O O9 0.011653 0.285915 0.890721
O O10 0.000523 0.421572 0.048236
O O11 0.764085 0.171586 0.283324
O O12 0.820049 0.090644 0.033541
O O13 0.806226 0.240206 0.014452
#
# Coordination Sequence:
#
# PCOD9541856 Si02
#       7
#     8   8   8   8   4   8   8
#     4  10  20  41  65  95 126 178 214 270 325 399
#     4  11  24  40  61  95 132 172 224 269 325 398
#     4  10  22  41  62  94 120 165 208 268 319 386
#     4  11  24  41  65  95 131 175 216 279 327 405
#     4  10  22  42  66  88 128 160 214 264 324 386
#     4  10  22  38  67  93 129 167 222 261 338 391
#     4  10  23  42  65  94 132 166 225 268 336 390
#
# _framework density 20.966726999999999
#
# number of rings (size 3 to 8) (size 9 to 14) (size 15 to 20)
#    0.000    1.692    1.538    1.846    6.462    4.000 
#    0.000    3.077    0.000    0.000    0.000    0.000 
#    0.000    0.000    0.000    0.000    0.000    0.000 
#
# Total GULP energy -145170.722157 kJ/mol
# GULP energy per Si atom -5583.489314 kJ/mol
# Density = 2.091901 g / cm^3
# Si number density = 20.966727 Si / 1000 Ang^3
#
#
#
# Elastic Constant Matrix: (Units=GPa)
#
#
# Indices 1 2 3 4 5 6 
#
# 1 59.4645 5.3128 33.7627 0.0000 0.0000 -6.9997
# 2 5.3128 59.4645 33.7627 0.0000 0.0000 6.9997
# 3 33.7627 33.7627 116.7907 0.0000 0.0000 0.0000
# 4 0.0000 0.0000 0.0000 41.9034 0.0000 0.0000
# 5 0.0000 0.0000 0.0000 0.0000 41.9034 0.0000
# 6 -6.9997 6.9997 0.0000 0.0000 0.0000 33.0777
#
#
#
# Elastic Compliance Matrix: (Units=1/GPa)
#
#
# Indices 1 2 3 4 5 6 
#
# 1 0.020816 0.001280 -0.006388 0.000000 0.000000 0.004134
# 2 0.001280 0.020816 -0.006388 0.000000 0.000000 -0.004134
# 3 -0.006388 -0.006388 0.012256 0.000000 0.000000 0.000000
# 4 0.000000 0.000000 0.000000 0.023864 0.000000 0.000000
# 5 0.000000 0.000000 0.000000 0.000000 0.023864 0.000000
# 6 0.004134 -0.004134 0.000000 0.000000 0.000000 0.031981
#
#
# Mechanical properties :
#
#
# Convention : Reuss Voigt Hill
#
# Bulk Modulus (GPa) = 32.36556 42.37735 37.37145
# Shear Modulus (GPa) = 29.96049 34.23567 32.09808
#
# Velocity S-wave (km/s) = 3.78425 4.04525 3.91692
# Velocity P-wave (km/s) = 5.87913 6.48647 6.19025
#
# Compressibility (1/GPa) = 0.03089704
#
# Stress axis : x y z
#
# Youngs Moduli (GPa) = 48.04050 48.04050 81.59578
#
# Poissons Ratio (x) = -0.06151 0.52121
# Poissons Ratio (y) = -0.06151 0.52121
# Poissons Ratio (z) = 0.30687 0.30687
#
# Static dielectric constant tensor:
#      x y z
#    x 1.751960 0.000000 0.000000 
#    y 0.000000 1.751960 0.000000 
#    z 0.000000 0.000000 1.765110 
# 
# From -- ./inp_files/711.got.cif
#   From: 2010.05.17/outbox.cif.g08.bks.cpg/sg79_cif.got.tgz:711.got - 2010.06.03 18:47:27.
