data_PCOD9541446
_publ_section_title
;
Structure prediction by ZEFSAII (Michael W. Deem and Ramdas Pophale) SiO2 
 PCOD9541446
Probable space group: P 41
;
_chemical_formula_sum "Si O2"
_cell_formula_units_Z 20
_cell_length_a 9.757274
_cell_length_b 9.757274
_cell_length_c 8.380750
_cell_angle_alpha 90.000000
_cell_angle_beta 90.000000
_cell_angle_gamma 90.000000
_cell_volume 797.884241
_symmetry_space_group_name_H-M "P 41"
_symmetry_group_IT_number 76
_symmetry_cell_setting 'tetragonal'
loop_
_space_group_symop_operation_xyz
x,y,z
-y,x,1/4+z
-x,-y,1/2+z
y,-x,3/4+z
loop_
_atom_site_type_symbol
_atom_site_label
_atom_site_fract_x
_atom_site_fract_y
_atom_site_fract_z
Si Si1 0.158873 0.048895 0.509530
Si Si2 0.542485 0.774379 0.313448
Si Si3 0.291928 0.753811 0.075411
Si Si4 0.701129 0.048293 0.305094
Si Si5 0.262184 0.473773 0.894918
O O1 0.261969 0.168864 0.453058
O O2 0.034369 0.123485 0.600281
O O3 0.202817 0.942912 0.649720
O O4 0.434076 0.765782 0.171653
O O5 0.611899 0.629471 0.361606
O O6 0.468976 0.816435 0.477080
O O7 0.653881 0.892323 0.296688
O O8 0.253348 0.891284 0.974816
O O9 0.301815 0.624254 0.956625
O O10 0.577330 0.151432 0.270501
#
# Coordination Sequence:
#
# PCOD9541446 Si02
#       5
#     4   4   4   4   4
#     4  12  28  50  81 117 164 217 279 348 417 507
#     4  12  28  49  78 112 168 211 278 342 421 496
#     4  12  30  49  83 119 165 221 277 348 428 497
#     4  12  27  51  78 117 157 219 277 340 420 507
#     4  12  29  47  78 117 160 216 275 346 410 503
#
# _framework density 25.066291
#
# number of rings (size 3 to 8) (size 9 to 14) (size 15 to 20)
#    0.000    0.000    2.000    6.000   16.800    0.000 
#    0.000    0.000    0.000    0.000    0.000    0.000 
#    0.000    0.000    0.000    0.000    0.000    0.000 
#
# Total GULP energy -111842.600333 kJ/mol
# GULP energy per Si atom -5592.130017 kJ/mol
# Density = 2.500924 g / cm^3
# Si number density = 25.066291 Si / 1000 Ang^3
#
#
#
# Elastic Constant Matrix: (Units=GPa)
#
#
# Indices 1 2 3 4 5 6 
#
# 1 96.6336 65.9942 42.4218 0.0000 0.0000 3.5837
# 2 65.9942 96.6336 42.4218 0.0000 0.0000 -3.5837
# 3 42.4218 42.4218 136.7995 0.0000 0.0000 0.0000
# 4 0.0000 0.0000 0.0000 55.6039 0.0000 0.0000
# 5 0.0000 0.0000 0.0000 0.0000 55.6039 0.0000
# 6 3.5837 -3.5837 0.0000 0.0000 0.0000 10.8289
#
#
#
# Elastic Compliance Matrix: (Units=1/GPa)
#
#
# Indices 1 2 3 4 5 6 
#
# 1 0.021356 -0.014020 -0.002275 0.000000 0.000000 -0.011708
# 2 -0.014020 0.021356 -0.002275 0.000000 0.000000 0.011708
# 3 -0.002275 -0.002275 0.008721 0.000000 0.000000 0.000000
# 4 0.000000 0.000000 0.000000 0.017984 0.000000 0.000000
# 5 0.000000 0.000000 0.000000 0.000000 0.017984 0.000000
# 6 -0.011708 0.011708 0.000000 0.000000 0.000000 0.100095
#
#
# Mechanical properties :
#
#
# Convention : Reuss Voigt Hill
#
# Bulk Modulus (GPa) = 69.96404 70.19361 70.07882
# Shear Modulus (GPa) = 21.79589 36.35593 29.07591
#
# Velocity S-wave (km/s) = 2.95198 3.81253 3.40951
# Velocity P-wave (km/s) = 6.29215 6.88800 6.59680
#
# Compressibility (1/GPa) = 0.01429306
#
# Stress axis : x y z
#
# Youngs Moduli (GPa) = 46.82488 46.82488 114.66789
#
# Poissons Ratio (x) = 0.65650 0.26085
# Poissons Ratio (y) = 0.65650 0.26085
# Poissons Ratio (z) = 0.10652 0.10652
#
# Static dielectric constant tensor:
#      x y z
#    x 2.073350 0.000000 0.000000 
#    y 0.000000 2.073350 0.000000 
#    z 0.000000 0.000000 2.122430 
# 
# From -- ./inp_files/437.got.cif
#   From: 2010.05.17/outbox.cif.g08.bks.cpg/sg76_cif.got.tgz:437.got - 2010.06.03 18:43:17.
