data_PCOD9541936
_publ_section_title
;
Structure prediction by ZEFSAII (Michael W. Deem and Ramdas Pophale) SiO2 
 PCOD9541936
Probable space group: I 4
;
_chemical_formula_sum "Si O2"
_cell_formula_units_Z 64
_cell_length_a 22.745460
_cell_length_b 22.745460
_cell_length_c 5.711927
_cell_angle_alpha 90.000000
_cell_angle_beta 90.000000
_cell_angle_gamma 90.000000
_cell_volume 2955.099423
_symmetry_space_group_name_H-M "I 4"
_symmetry_group_IT_number 79
_symmetry_cell_setting 'tetragonal'
loop_
_space_group_symop_operation_xyz
x,y,z
-y,x,z
-x,-y,z
y,-x,z
1/2+x,1/2+y,1/2+z
1/2-y,1/2+x,1/2+z
1/2-x,1/2-y,1/2+z
1/2+y,1/2-x,1/2+z
loop_
_atom_site_type_symbol
_atom_site_label
_atom_site_fract_x
_atom_site_fract_y
_atom_site_fract_z
Si Si1 0.679690 0.181956 0.166970
Si Si2 0.408119 0.627150 0.643062
Si Si3 0.528725 0.590576 0.326473
Si Si4 0.780903 0.442641 0.765273
Si Si5 0.938468 0.276849 0.459807
Si Si6 0.969594 0.227454 0.963835
Si Si7 0.196604 0.198504 0.890662
Si Si8 0.670766 0.393780 0.033688
O O1 0.681322 0.115881 0.263346
O O2 0.621361 0.188986 0.010894
O O3 0.681253 0.235868 0.350440
O O4 0.740584 0.190448 0.025997
O O5 0.411216 0.558073 0.588041
O O6 0.465242 0.658601 0.530579
O O7 0.354019 0.659511 0.509364
O O8 0.386728 0.632191 0.906739
O O9 0.465652 0.569341 0.242760
O O10 0.555618 0.648215 0.205574
O O11 0.763336 0.470356 0.512280
O O12 0.805998 0.497077 0.917114
O O13 0.717268 0.424742 0.865575
O O14 0.932853 0.248300 0.199346
O O15 0.947259 0.239983 0.702673
O O16 0.161860 0.203374 0.646414
#
# Coordination Sequence:
#
# PCOD9541936 Si02
#       8
#     8   8   8   8   8   8   8   8
#     4  12  23  43  65 102 145 179 223 295 343 439
#     4  11  23  40  62  86 126 179 218 286 338 411
#     4  10  26  40  57  84 120 178 240 290 336 393
#     4  10  26  40  68 100 133 178 234 272 353 420
#     4  10  25  43  67  98 139 180 222 276 349 411
#     4  10  24  43  66  97 133 180 228 273 340 421
#     4  11  25  38  64 100 137 168 221 272 373 395
#     4  11  24  41  63  94 128 176 225 295 343 418
#
# _framework density 21.657478000000001
#
# number of rings (size 3 to 8) (size 9 to 14) (size 15 to 20)
#    0.750    0.625    2.500    1.500   10.500    1.000 
#    0.000    1.250    0.000    0.000    0.000    2.625 
#    0.000    0.000    0.000    0.000    0.000    0.000 
#
# Total GULP energy -178160.541839 kJ/mol
# GULP energy per Si atom -5567.516932 kJ/mol
# Density = 2.160818 g / cm^3
# Si number density = 21.657478 Si / 1000 Ang^3
#
#
#
# Elastic Constant Matrix: (Units=GPa)
#
#
# Indices 1 2 3 4 5 6 
#
# 1 56.2844 -17.5060 -5.7550 0.0000 0.0000 3.9436
# 2 -17.5060 56.2844 -5.7550 0.0000 0.0000 -3.9436
# 3 -5.7550 -5.7550 58.3477 0.0000 0.0000 0.0000
# 4 0.0000 0.0000 0.0000 13.9168 0.0000 0.0000
# 5 0.0000 0.0000 0.0000 0.0000 13.9168 0.0000
# 6 3.9436 -3.9436 0.0000 0.0000 0.0000 15.9486
#
#
#
# Elastic Compliance Matrix: (Units=1/GPa)
#
#
# Indices 1 2 3 4 5 6 
#
# 1 0.020243 0.006323 0.002620 0.000000 0.000000 -0.003442
# 2 0.006323 0.020243 0.002620 0.000000 0.000000 0.003442
# 3 0.002620 0.002620 0.017656 0.000000 0.000000 0.000000
# 4 0.000000 0.000000 0.000000 0.071855 0.000000 0.000000
# 5 0.000000 0.000000 0.000000 0.000000 0.071855 0.000000
# 6 -0.003442 0.003442 0.000000 0.000000 0.000000 0.064403
#
#
# Mechanical properties :
#
#
# Convention : Reuss Voigt Hill
#
# Bulk Modulus (GPa) = 12.30511 12.54270 12.42391
# Shear Modulus (GPa) = 18.50360 22.08528 20.29444
#
# Velocity S-wave (km/s) = 2.92614 3.19682 3.06447
# Velocity P-wave (km/s) = 4.13647 4.40797 4.27438
#
# Compressibility (1/GPa) = 0.08126702
#
# Stress axis : x y z
#
# Youngs Moduli (GPa) = 49.40090 49.40090 56.63947
#
# Poissons Ratio (x) = -0.31235 -0.14841
# Poissons Ratio (y) = -0.31235 -0.14841
# Poissons Ratio (z) = -0.12944 -0.12944
#
# Static dielectric constant tensor:
#      x y z
#    x 1.978670 0.000000 0.000000 
#    y 0.000000 1.978670 0.000000 
#    z 0.000000 0.000000 1.994200 
# 
# From -- ./inp_files/293.got.cif
#   From: 2010.05.17/outbox.cif.g08.bks.cpg/sg79_cif.got.tgz:293.got - 2010.06.03 18:47:27.
