data_PCOD9541633
_publ_section_title
;
Structure prediction by ZEFSAII (Michael W. Deem and Ramdas Pophale) SiO2 
 PCOD9541633
Probable space group: P 43
;
_chemical_formula_sum "Si O2"
_cell_formula_units_Z 20
_cell_length_a 10.499855
_cell_length_b 10.499855
_cell_length_c 6.444537
_cell_angle_alpha 90.000000
_cell_angle_beta 90.000000
_cell_angle_gamma 90.000000
_cell_volume 710.490581
_symmetry_space_group_name_H-M "P 43"
_symmetry_group_IT_number 78
_symmetry_cell_setting 'tetragonal'
loop_
_space_group_symop_operation_xyz
x,y,z
-y,x,3/4+z
-x,-y,1/2+z
y,-x,1/4+z
loop_
_atom_site_type_symbol
_atom_site_label
_atom_site_fract_x
_atom_site_fract_y
_atom_site_fract_z
Si Si1 0.093213 0.154991 0.199150
Si Si2 0.418623 0.276482 0.518923
Si Si3 0.717963 0.604591 0.643947
Si Si4 0.914362 0.440498 0.895166
Si Si5 0.928395 0.317309 0.507158
O O1 0.018623 0.218481 0.393972
O O2 0.136583 0.017286 0.280489
O O3 0.198432 0.263897 0.134783
O O4 0.378731 0.377355 0.340965
O O5 0.310048 0.217008 0.672317
O O6 0.537934 0.313722 0.669614
O O7 0.427203 0.157287 0.360303
O O8 0.809778 0.501397 0.745827
O O9 0.953995 0.322510 0.752586
O O10 0.021412 0.542473 0.940468
#
# Coordination Sequence:
#
# PCOD9541633 Si02
#       5
#     4   4   4   4   4
#     4  11  24  46  68 117 186 237 283 363 455 538
#     4  11  22  44  74 110 157 220 294 367 437 536
#     4  10  25  44  74 111 166 219 299 365 452 535
#     4  10  21  39  71 106 149 208 282 354 424 518
#     4  10  20  39  67 108 156 218 284 341 424 531
#
# _framework density 28.149563000000001
#
# number of rings (size 3 to 8) (size 9 to 14) (size 15 to 20)
#    0.000    1.600    4.000    0.000    0.000    4.800 
#    7.200    0.000    4.400    0.000    0.000    0.000 
#    0.000    0.000    0.000    0.000    0.000    0.000 
#
# Total GULP energy -111591.005834 kJ/mol
# GULP energy per Si atom -5579.550292 kJ/mol
# Density = 2.808549 g / cm^3
# Si number density = 28.149563 Si / 1000 Ang^3
#
#
#
# Elastic Constant Matrix: (Units=GPa)
#
#
# Indices 1 2 3 4 5 6 
#
# 1 103.3643 49.9154 111.9456 0.0000 0.0000 13.1487
# 2 49.9154 103.3643 111.9456 0.0000 0.0000 -13.1487
# 3 111.9456 111.9456 250.9177 0.0000 0.0000 0.0000
# 4 0.0000 0.0000 0.0000 95.0184 0.0000 0.0000
# 5 0.0000 0.0000 0.0000 0.0000 95.0184 0.0000
# 6 13.1487 -13.1487 0.0000 0.0000 0.0000 45.9895
#
#
#
# Elastic Compliance Matrix: (Units=1/GPa)
#
#
# Indices 1 2 3 4 5 6 
#
# 1 0.020251 -0.001521 -0.008356 0.000000 0.000000 -0.006225
# 2 -0.001521 0.020251 -0.008356 0.000000 0.000000 0.006225
# 3 -0.008356 -0.008356 0.011441 0.000000 0.000000 0.000000
# 4 0.000000 0.000000 0.000000 0.010524 0.000000 0.000000
# 5 0.000000 0.000000 0.000000 0.000000 0.010524 0.000000
# 6 -0.006225 0.006225 0.000000 0.000000 0.000000 0.025304
#
#
# Mechanical properties :
#
#
# Convention : Reuss Voigt Hill
#
# Bulk Modulus (GPa) = 64.61579 111.69552 88.15565
# Shear Modulus (GPa) = 35.73457 59.46126 47.59791
#
# Velocity S-wave (km/s) = 3.56680 4.60100 4.11651
# Velocity P-wave (km/s) = 6.32195 8.24567 7.34704
#
# Compressibility (1/GPa) = 0.01547609
#
# Stress axis : x y z
#
# Youngs Moduli (GPa) = 49.38082 49.38082 87.40209
#
# Poissons Ratio (x) = 0.07513 0.73034
# Poissons Ratio (y) = 0.07513 0.73034
# Poissons Ratio (z) = 0.41263 0.41263
#
# Static dielectric constant tensor:
#      x y z
#    x -0.653050 0.000000 0.000000 
#    y 0.000000 -0.653050 0.000000 
#    z 0.000000 0.000000 2.562620 
# 
# From -- ./inp_files/483.got.cif
#   From: 2010.05.17/outbox.cif.g08.bks.cpg/sg78_cif.got.tgz:483.got - 2010.06.03 18:45:56.
