data_PCOD9541522
_publ_section_title
;
Structure prediction by ZEFSAII (Michael W. Deem and Ramdas Pophale) SiO2 
 PCOD9541522
Probable space group: P 42
;
_chemical_formula_sum "Si O2"
_cell_formula_units_Z 20
_cell_length_a 5.187025
_cell_length_b 5.187025
_cell_length_c 28.840930
_cell_angle_alpha 90.000000
_cell_angle_beta 90.000000
_cell_angle_gamma 90.000000
_cell_volume 775.971807
_symmetry_space_group_name_H-M "P 42"
_symmetry_group_IT_number 77
_symmetry_cell_setting 'tetragonal'
loop_
_space_group_symop_operation_xyz
x,y,z
-y,x,1/2+z
-x,-y,z
y,-x,1/2+z
loop_
_atom_site_type_symbol
_atom_site_label
_atom_site_fract_x
_atom_site_fract_y
_atom_site_fract_z
Si Si1 0.500000 0.000000 0.047271
Si Si2 0.000000 0.500000 0.895490
Si Si3 0.659764 0.760745 0.486062
Si Si4 0.319790 0.250575 0.719173
Si Si5 0.828848 0.240392 0.116550
Si Si6 0.751576 0.319072 0.319256
O O1 0.423967 0.776110 0.084217
O O2 0.278568 0.936306 0.009198
O O3 0.187600 0.649752 0.931098
O O4 0.132548 0.294416 0.862024
O O5 0.500000 0.500000 0.494422
O O6 0.500000 0.000000 0.506811
O O7 0.500000 0.500000 0.717675
O O8 0.179839 0.243102 0.670005
O O9 0.179149 0.246027 0.768831
O O10 0.500000 0.000000 0.720025
O O11 0.000000 0.500000 0.115114
O O12 0.000000 0.000000 0.100067
O O13 0.500000 0.500000 0.318845
O O14 0.000000 0.500000 0.323785
#
# Coordination Sequence:
#
# PCOD9541522 Si02
#       6
#     2   2   4   4   4   4
#     4  12  28  45  84 104 158 208 275 328 406 468
#     4  10  24  49  74 114 152 204 275 330 408 478
#     4  10  26  51  75 109 154 199 272 336 405 462
#     4   9  21  44  74 112 160 201 252 316 391 477
#     4  11  28  47  77 115 158 205 261 323 397 478
#     4  10  22  47  75 113 158 204 257 320 396 483
#
# _framework density 25.774134
#
# number of rings (size 3 to 8) (size 9 to 14) (size 15 to 20)
#    0.600    1.200    0.000    1.200   11.200    1.600 
#   21.600    0.000    0.000    0.000    0.000    0.000 
#    0.000    0.000    0.000    0.000    0.000    0.000 
#
# Total GULP energy -111728.317747 kJ/mol
# GULP energy per Si atom -5586.415887 kJ/mol
# Density = 2.571547 g / cm^3
# Si number density = 25.774134 Si / 1000 Ang^3
#
#
#
# Elastic Constant Matrix: (Units=GPa)
#
#
# Indices 1 2 3 4 5 6 
#
# 1 154.7802 62.6085 52.4188 0.0000 0.0000 1.6677
# 2 62.6085 154.7802 52.4188 0.0000 0.0000 -1.6677
# 3 52.4188 52.4188 265.7473 0.0000 0.0000 0.0000
# 4 0.0000 0.0000 0.0000 43.8884 0.0000 0.0000
# 5 0.0000 0.0000 0.0000 0.0000 43.8884 0.0000
# 6 1.6677 -1.6677 0.0000 0.0000 0.0000 57.2581
#
#
#
# Elastic Compliance Matrix: (Units=1/GPa)
#
#
# Indices 1 2 3 4 5 6 
#
# 1 0.007972 -0.002889 -0.001003 0.000000 0.000000 -0.000316
# 2 -0.002889 0.007972 -0.001003 0.000000 0.000000 0.000316
# 3 -0.001003 -0.001003 0.004159 0.000000 0.000000 0.000000
# 4 0.000000 0.000000 0.000000 0.022785 0.000000 0.000000
# 5 0.000000 0.000000 0.000000 0.000000 0.022785 0.000000
# 6 -0.000316 0.000316 0.000000 0.000000 0.000000 0.017483
#
#
# Mechanical properties :
#
#
# Convention : Reuss Voigt Hill
#
# Bulk Modulus (GPa) = 96.94774 101.13333 99.04054
# Shear Modulus (GPa) = 51.87652 56.19775 54.03713
#
# Velocity S-wave (km/s) = 4.49122 4.67453 4.58379
# Velocity P-wave (km/s) = 8.03684 8.27397 8.15626
#
# Compressibility (1/GPa) = 0.01031484
#
# Stress axis : x y z
#
# Youngs Moduli (GPa) = 125.43579 125.43579 240.46786
#
# Poissons Ratio (x) = 0.36233 0.24113
# Poissons Ratio (y) = 0.36233 0.24113
# Poissons Ratio (z) = 0.12578 0.12578
#
# Static dielectric constant tensor:
#      x y z
#    x 2.022190 0.000000 0.000000 
#    y 0.000000 2.022190 0.000000 
#    z 0.000000 0.000000 2.049770 
# 
# From -- ./inp_files/1743.got.cif
#   From: 2010.05.17/outbox.cif.g08.bks.cpg/sg77_cif.got.tgz:1743.got - 2010.06.03 18:44:51.
