data_PCOD9541241
_publ_section_title
;
Structure prediction by ZEFSAII (Michael W. Deem and Ramdas Pophale) SiO2 
 PCOD9541241
Probable space group: P 41
;
_chemical_formula_sum "Si O2"
_cell_formula_units_Z 16
_cell_length_a 11.753359
_cell_length_b 11.753359
_cell_length_c 5.245100
_cell_angle_alpha 90.000000
_cell_angle_beta 90.000000
_cell_angle_gamma 90.000000
_cell_volume 724.565708
_symmetry_space_group_name_H-M "P 41"
_symmetry_group_IT_number 76
_symmetry_cell_setting 'tetragonal'
loop_
_space_group_symop_operation_xyz
x,y,z
-y,x,1/4+z
-x,-y,1/2+z
y,-x,3/4+z
loop_
_atom_site_type_symbol
_atom_site_label
_atom_site_fract_x
_atom_site_fract_y
_atom_site_fract_z
Si Si1 0.116211 0.301021 0.560010
Si Si2 0.765184 0.316290 0.475626
Si Si3 0.156615 0.056821 0.057931
Si Si4 0.426008 0.824878 0.820570
O O1 0.234077 0.240215 0.474306
O O2 0.018103 0.206950 0.542889
O O3 0.103224 0.388848 0.320147
O O4 0.122006 0.369815 0.819116
O O5 0.638945 0.296352 0.363679
O O6 0.804284 0.441540 0.538032
O O7 0.850544 0.254754 0.277882
O O8 0.125486 0.958320 0.862382
#
# Coordination Sequence:
#
# PCOD9541241 Si02
#       4
#     4   4   4   4
#     4   9  23  41  60  98 122 170 207 261 321 369
#     4   9  23  42  64  96 127 166 216 259 320 379
#     4  10  22  41  66  98 126 171 209 270 316 393
#     4  10  22  42  62  94 129 165 212 260 317 377
#
# _framework density 22.082191999999999
#
# number of rings (size 3 to 8) (size 9 to 14) (size 15 to 20)
#    1.500    1.000    0.000    0.000    7.000    2.000 
#    9.000    0.000    0.000    0.000    0.000    0.000 
#    0.000    0.000    0.000    0.000    0.000    0.000 
#
# Total GULP energy -89158.345760 kJ/mol
# GULP energy per Si atom -5572.396610 kJ/mol
# Density = 2.203193 g / cm^3
# Si number density = 22.082192 Si / 1000 Ang^3
#
#
#
# Elastic Constant Matrix: (Units=GPa)
#
#
# Indices 1 2 3 4 5 6 
#
# 1 127.3205 34.8580 21.8820 0.0000 0.0000 -2.7609
# 2 34.8580 127.3205 21.8820 0.0000 0.0000 2.7609
# 3 21.8820 21.8820 115.2899 0.0000 0.0000 0.0000
# 4 0.0000 0.0000 0.0000 4.9250 0.0000 0.0000
# 5 0.0000 0.0000 0.0000 0.0000 4.9250 0.0000
# 6 -2.7609 2.7609 0.0000 0.0000 0.0000 13.4720
#
#
#
# Elastic Compliance Matrix: (Units=1/GPa)
#
#
# Indices 1 2 3 4 5 6 
#
# 1 0.008724 -0.002225 -0.001233 0.000000 0.000000 0.002244
# 2 -0.002225 0.008724 -0.001233 0.000000 0.000000 -0.002244
# 3 -0.001233 -0.001233 0.009142 0.000000 0.000000 0.000000
# 4 0.000000 0.000000 0.000000 0.203047 0.000000 0.000000
# 5 0.000000 0.000000 0.000000 0.000000 0.203047 0.000000
# 6 0.002244 -0.002244 0.000000 0.000000 0.000000 0.075148
#
#
# Mechanical properties :
#
#
# Convention : Reuss Voigt Hill
#
# Bulk Modulus (GPa) = 58.11971 58.57498 58.34735
# Shear Modulus (GPa) = 9.56110 24.08498 16.82304
#
# Velocity S-wave (km/s) = 2.08307 3.30615 2.76313
# Velocity P-wave (km/s) = 5.67119 6.41542 6.05475
#
# Compressibility (1/GPa) = 0.01720587
#
# Stress axis : x y z
#
# Youngs Moduli (GPa) = 114.62565 114.62565 109.38501
#
# Poissons Ratio (x) = 0.25506 0.13493
# Poissons Ratio (y) = 0.25506 0.13493
# Poissons Ratio (z) = 0.14139 0.14139
#
# Static dielectric constant tensor:
#      x y z
#    x 1.817260 0.000000 0.000000 
#    y 0.000000 1.817260 0.000000 
#    z 0.000000 0.000000 1.873380 
# 
# From -- ./inp_files/42.got.cif
#   From: 2010.05.17/outbox.cif.g08.bks.cpg/sg76_cif.got.tgz:42.got - 2010.06.03 18:43:17.
