data_PCOD9541649
_publ_section_title
;
Structure prediction by ZEFSAII (Michael W. Deem and Ramdas Pophale) SiO2 
 PCOD9541649
Probable space group: P 43
;
_chemical_formula_sum "Si O2"
_cell_formula_units_Z 24
_cell_length_a 7.724668
_cell_length_b 7.724668
_cell_length_c 17.244990
_cell_angle_alpha 90.000000
_cell_angle_beta 90.000000
_cell_angle_gamma 90.000000
_cell_volume 1029.017102
_symmetry_space_group_name_H-M "P 43"
_symmetry_group_IT_number 78
_symmetry_cell_setting 'tetragonal'
loop_
_space_group_symop_operation_xyz
x,y,z
-y,x,3/4+z
-x,-y,1/2+z
y,-x,1/4+z
loop_
_atom_site_type_symbol
_atom_site_label
_atom_site_fract_x
_atom_site_fract_y
_atom_site_fract_z
Si Si1 0.116444 0.972584 0.414000
Si Si2 0.546823 0.153748 0.997639
Si Si3 0.938955 0.195131 0.761432
Si Si4 0.694331 0.310744 0.136133
Si Si5 0.453492 0.356350 0.554388
Si Si6 0.705604 0.570070 0.461848
O O1 0.211361 0.128239 0.370364
O O2 0.268248 0.893610 0.465842
O O3 0.041038 0.840840 0.351372
O O4 0.954286 0.033543 0.464652
O O5 0.390654 0.018140 0.986009
O O6 0.553420 0.196695 0.089301
O O7 0.478245 0.324411 0.952295
O O8 0.728958 0.182701 0.745301
O O9 0.695045 0.346365 0.228038
O O10 0.662050 0.492773 0.094034
O O11 0.640375 0.425698 0.522355
O O12 0.494312 0.238029 0.629351
#
# Coordination Sequence:
#
# PCOD9541649 Si02
#       6
#     4   4   4   4   4   4
#     4  12  22  44  63 101 138 185 231 292 349 428
#     4   9  21  39  62  95 131 182 230 283 358 408
#     4  10  24  38  72  91 143 180 231 291 348 415
#     4  10  21  36  67  97 136 182 228 297 348 422
#     4   9  17  36  64 102 128 173 244 282 352 413
#     4   8  17  35  64  94 130 174 224 295 331 418
#
# _framework density 23.323229999999999
#
# number of rings (size 3 to 8) (size 9 to 14) (size 15 to 20)
#    1.000    1.333    1.667    1.000    4.667    1.333 
#    3.000    0.000    0.000    0.000    0.000    0.000 
#    0.000    0.000    0.000    0.000    0.000    0.000 
#
# Total GULP energy -133629.122475 kJ/mol
# GULP energy per Si atom -5567.880103 kJ/mol
# Density = 2.327014 g / cm^3
# Si number density = 23.323230 Si / 1000 Ang^3
#
#
#
# Elastic Constant Matrix: (Units=GPa)
#
#
# Indices 1 2 3 4 5 6 
#
# 1 47.0619 -12.2979 14.2536 0.0000 0.0000 -1.7932
# 2 -12.2979 47.0619 14.2536 0.0000 0.0000 1.7932
# 3 14.2536 14.2536 128.5438 0.0000 0.0000 0.0000
# 4 0.0000 0.0000 0.0000 21.8718 0.0000 0.0000
# 5 0.0000 0.0000 0.0000 0.0000 21.8718 0.0000
# 6 -1.7932 1.7932 0.0000 0.0000 0.0000 12.2541
#
#
#
# Elastic Compliance Matrix: (Units=1/GPa)
#
#
# Indices 1 2 3 4 5 6 
#
# 1 0.024320 0.007323 -0.003509 0.000000 0.000000 0.002487
# 2 0.007323 0.024320 -0.003509 0.000000 0.000000 -0.002487
# 3 -0.003509 -0.003509 0.008558 0.000000 0.000000 0.000000
# 4 0.000000 0.000000 0.000000 0.045721 0.000000 0.000000
# 5 0.000000 0.000000 0.000000 0.000000 0.045721 0.000000
# 6 0.002487 -0.002487 0.000000 0.000000 0.000000 0.082333
#
#
# Mechanical properties :
#
#
# Convention : Reuss Voigt Hill
#
# Bulk Modulus (GPa) = 17.29865 28.34289 22.82077
# Shear Modulus (GPa) = 20.02962 24.96342 22.49652
#
# Velocity S-wave (km/s) = 2.93368 3.27513 3.10910
# Velocity P-wave (km/s) = 4.34837 5.14593 4.76387
#
# Compressibility (1/GPa) = 0.05780798
#
# Stress axis : x y z
#
# Youngs Moduli (GPa) = 41.11906 41.11906 116.85563
#
# Poissons Ratio (x) = -0.30111 0.41001
# Poissons Ratio (y) = -0.30111 0.41001
# Poissons Ratio (z) = 0.14427 0.14427
#
# Static dielectric constant tensor:
#      x y z
#    x 1.923990 0.000000 0.000000 
#    y 0.000000 1.923990 0.000000 
#    z 0.000000 0.000000 1.885390 
# 
# From -- ./inp_files/1218.got.cif
#   From: 2010.05.17/outbox.cif.g08.bks.cpg/sg78_cif.got.tgz:1218.got - 2010.06.03 18:45:56.
