data_PCOD9541826
_publ_section_title
;
Structure prediction by ZEFSAII (Michael W. Deem and Ramdas Pophale) SiO2 
 PCOD9541826
Probable space group: I 4
;
_chemical_formula_sum "Si O2"
_cell_formula_units_Z 44
_cell_length_a 13.650203
_cell_length_b 13.650203
_cell_length_c 9.231625
_cell_angle_alpha 90.000000
_cell_angle_beta 90.000000
_cell_angle_gamma 90.000000
_cell_volume 1720.110610
_symmetry_space_group_name_H-M "I 4"
_symmetry_group_IT_number 79
_symmetry_cell_setting 'tetragonal'
loop_
_space_group_symop_operation_xyz
x,y,z
-y,x,z
-x,-y,z
y,-x,z
1/2+x,1/2+y,1/2+z
1/2-y,1/2+x,1/2+z
1/2-x,1/2-y,1/2+z
1/2+y,1/2-x,1/2+z
loop_
_atom_site_type_symbol
_atom_site_label
_atom_site_fract_x
_atom_site_fract_y
_atom_site_fract_z
Si Si1 0.614745 0.603937 0.646120
Si Si2 0.948959 0.189729 0.846935
Si Si3 0.868464 0.421036 0.405866
Si Si4 0.440085 0.355547 0.061563
Si Si5 0.288505 0.247099 0.210399
Si Si6 0.000000 0.500000 0.652185
O O1 0.507126 0.634491 0.698202
O O2 0.620099 0.588567 0.473452
O O3 0.693644 0.685948 0.674239
O O4 0.026195 0.145556 0.731987
O O5 0.858728 0.231109 0.752913
O O6 0.995859 0.285730 0.920650
O O7 0.805913 0.328458 0.355806
O O8 0.936351 0.430349 0.546175
O O9 0.551332 0.376754 0.004905
O O10 0.368714 0.260447 0.077158
O O11 0.437860 0.065482 0.262820
#
# Coordination Sequence:
#
# PCOD9541826 Si02
#       6
#     8   8   8   8   8   4
#     4  11  23  39  61  88 122 168 221 276 331 388
#     4  10  20  34  59  91 120 155 205 264 322 388
#     4  10  21  38  60  90 126 170 215 261 327 391
#     4   8  14  29  54  83 114 145 186 246 313 379
#     4  10  21  35  57  88 119 156 207 265 322 383
#     4  10  22  38  58  84 126 172 212 262 322 398
#
# _framework density 25.579751000000002
#
# number of rings (size 3 to 8) (size 9 to 14) (size 15 to 20)
#    0.000    2.182    0.000    4.364    0.000    8.727 
#    0.000    0.000    0.000    0.000    0.000    7.636 
#    0.000    0.000    0.000    0.000    0.000    0.000 
#
# Total GULP energy -122719.502522 kJ/mol
# GULP energy per Si atom -5578.159206 kJ/mol
# Density = 2.552153 g / cm^3
# Si number density = 25.579751 Si / 1000 Ang^3
#
#
#
# Elastic Constant Matrix: (Units=GPa)
#
#
# Indices 1 2 3 4 5 6 
#
# 1 118.4145 59.9470 29.1722 0.0000 0.0000 2.1522
# 2 59.9470 118.4145 29.1722 0.0000 0.0000 -2.1522
# 3 29.1722 29.1722 110.2366 0.0000 0.0000 0.0000
# 4 0.0000 0.0000 0.0000 24.5132 0.0000 0.0000
# 5 0.0000 0.0000 0.0000 0.0000 24.5132 0.0000
# 6 2.1522 -2.1522 0.0000 0.0000 0.0000 49.5570
#
#
#
# Elastic Compliance Matrix: (Units=1/GPa)
#
#
# Indices 1 2 3 4 5 6 
#
# 1 0.011648 -0.005510 -0.001624 0.000000 0.000000 -0.000745
# 2 -0.005510 0.011648 -0.001624 0.000000 0.000000 0.000745
# 3 -0.001624 -0.001624 0.009931 0.000000 0.000000 0.000000
# 4 0.000000 0.000000 0.000000 0.040794 0.000000 0.000000
# 5 0.000000 0.000000 0.000000 0.000000 0.040794 0.000000
# 6 -0.000745 0.000745 0.000000 0.000000 0.000000 0.020243
#
#
# Mechanical properties :
#
#
# Convention : Reuss Voigt Hill
#
# Bulk Modulus (GPa) = 63.65475 64.84980 64.25227
# Shear Modulus (GPa) = 31.68290 34.96829 33.32559
#
# Velocity S-wave (km/s) = 3.52318 3.70135 3.61336
# Velocity P-wave (km/s) = 6.44122 6.60861 6.52545
#
# Compressibility (1/GPa) = 0.01570975
#
# Stress axis : x y z
#
# Youngs Moduli (GPa) = 85.85052 85.85052 100.69398
#
# Poissons Ratio (x) = 0.47306 0.16356
# Poissons Ratio (y) = 0.47306 0.16356
# Poissons Ratio (z) = 0.13945 0.13945
#
# Static dielectric constant tensor:
#      x y z
#    x 2.090110 0.000000 0.000000 
#    y 0.000000 2.090110 0.000000 
#    z 0.000000 0.000000 2.111630 
# 
# From -- ./inp_files/1029.got.cif
#   From: 2010.05.17/outbox.cif.g08.bks.cpg/sg79_cif.got.tgz:1029.got - 2010.06.03 18:47:27.
