data_PCOD9541093
_publ_section_title
;
Structure prediction by ZEFSAII (Michael W. Deem and Ramdas Pophale) SiO2 
 PCOD9541093
Probable space group: P 41
;
_chemical_formula_sum "Si O2"
_cell_formula_units_Z 28
_cell_length_a 18.137443
_cell_length_b 18.137443
_cell_length_c 5.346650
_cell_angle_alpha 90.000000
_cell_angle_beta 90.000000
_cell_angle_gamma 90.000000
_cell_volume 1758.870547
_symmetry_space_group_name_H-M "P 41"
_symmetry_group_IT_number 76
_symmetry_cell_setting 'tetragonal'
loop_
_space_group_symop_operation_xyz
x,y,z
-y,x,1/4+z
-x,-y,1/2+z
y,-x,3/4+z
loop_
_atom_site_type_symbol
_atom_site_label
_atom_site_fract_x
_atom_site_fract_y
_atom_site_fract_z
Si Si1 0.453319 0.012774 0.021300
Si Si2 0.719798 0.358086 0.775008
Si Si3 0.602843 0.135555 0.424140
Si Si4 0.164942 0.560636 0.025058
Si Si5 0.409933 0.558571 0.042162
Si Si6 0.640455 0.221053 0.911449
Si Si7 0.297933 0.513312 0.672358
O O1 0.491654 0.984306 0.281428
O O2 0.427353 0.094367 0.099274
O O3 0.392718 0.953089 0.936134
O O4 0.802145 0.369041 0.667660
O O5 0.650590 0.376984 0.589036
O O6 0.706624 0.279699 0.903736
O O7 0.710859 0.426513 0.960961
O O8 0.513351 0.147938 0.435482
O O9 0.640592 0.169626 0.667483
O O10 0.630021 0.174489 0.167550
O O11 0.236234 0.536414 0.872004
O O12 0.491802 0.587820 0.991384
O O13 0.377821 0.518316 0.796146
O O14 0.569198 0.273320 0.870576
#
# Coordination Sequence:
#
# PCOD9541093 Si02
#       7
#     4   4   4   4   4   4   4
#     4  10  19  33  56  77  94 116 149 208 265 311
#     4  11  22  34  48  63  91 124 161 205 254 302
#     4  10  20  36  49  73  93 120 154 201 256 307
#     4   9  20  32  52  71  91 115 157 206 260 296
#     4  11  25  33  42  59  80 118 170 218 262 299
#     4  11  22  33  51  65  95 127 159 199 253 297
#     4  10  20  35  46  62  86 122 158 213 250 300
#
# _framework density 15.919306000000001
#
# number of rings (size 3 to 8) (size 9 to 14) (size 15 to 20)
#    0.000    1.714    1.429    4.286   14.000    0.000 
#    0.000    0.000    0.000    0.000    0.000    0.000 
#    0.000    0.000    0.000    0.000    0.000    0.000 
#
# Total GULP energy -155941.862864 kJ/mol
# GULP energy per Si atom -5569.352245 kJ/mol
# Density = 1.588307 g / cm^3
# Si number density = 15.919306 Si / 1000 Ang^3
#
#
#
# Elastic Constant Matrix: (Units=GPa)
#
#
# Indices 1 2 3 4 5 6 
#
# 1 53.0098 22.9529 16.7909 0.0000 0.0000 -1.4459
# 2 22.9529 53.0098 16.7909 0.0000 0.0000 1.4459
# 3 16.7909 16.7909 73.8320 0.0000 0.0000 0.0000
# 4 0.0000 0.0000 0.0000 14.8199 0.0000 0.0000
# 5 0.0000 0.0000 0.0000 0.0000 14.8199 0.0000
# 6 -1.4459 1.4459 0.0000 0.0000 0.0000 8.0784
#
#
#
# Elastic Compliance Matrix: (Units=1/GPa)
#
#
# Indices 1 2 3 4 5 6 
#
# 1 0.024245 -0.009609 -0.003328 0.000000 0.000000 0.006059
# 2 -0.009609 0.024245 -0.003328 0.000000 0.000000 -0.006059
# 3 -0.003328 -0.003328 0.015058 0.000000 0.000000 0.000000
# 4 0.000000 0.000000 0.000000 0.067477 0.000000 0.000000
# 5 0.000000 0.000000 0.000000 0.000000 0.067477 0.000000
# 6 0.006059 -0.006059 0.000000 0.000000 0.000000 0.125955
#
#
# Mechanical properties :
#
#
# Convention : Reuss Voigt Hill
#
# Bulk Modulus (GPa) = 32.24151 32.54676 32.39413
# Shear Modulus (GPa) = 13.61191 15.76480 14.68835
#
# Velocity S-wave (km/s) = 2.92731 3.15031 3.04085
# Velocity P-wave (km/s) = 5.63228 5.80705 5.72033
#
# Compressibility (1/GPa) = 0.03101592
#
# Stress axis : x y z
#
# Youngs Moduli (GPa) = 41.24646 41.24646 66.40910
#
# Poissons Ratio (x) = 0.39632 0.22104
# Poissons Ratio (y) = 0.39632 0.22104
# Poissons Ratio (z) = 0.13729 0.13729
#
# Static dielectric constant tensor:
#      x y z
#    x 1.582020 0.000000 0.000000 
#    y 0.000000 1.582020 0.000000 
#    z 0.000000 0.000000 1.690340 
# 
# From -- ./inp_files/286.got.cif
#   From: 2010.05.17/outbox.cif.g08.bks.cpg/sg76_cif.got.tgz:286.got - 2010.06.03 18:43:17.
