data_PCOD9541424
_publ_section_title
;
Structure prediction by ZEFSAII (Michael W. Deem and Ramdas Pophale) SiO2 
 PCOD9541424
Probable space group: P 41
;
_chemical_formula_sum "Si O2"
_cell_formula_units_Z 16
_cell_length_a 9.412685
_cell_length_b 9.412685
_cell_length_c 8.383626
_cell_angle_alpha 90.000000
_cell_angle_beta 90.000000
_cell_angle_gamma 90.000000
_cell_volume 742.777853
_symmetry_space_group_name_H-M "P 41"
_symmetry_group_IT_number 76
_symmetry_cell_setting 'tetragonal'
loop_
_space_group_symop_operation_xyz
x,y,z
-y,x,1/4+z
-x,-y,1/2+z
y,-x,3/4+z
loop_
_atom_site_type_symbol
_atom_site_label
_atom_site_fract_x
_atom_site_fract_y
_atom_site_fract_z
Si Si1 0.646378 1.000000 0.438590
Si Si2 0.246476 0.666712 0.483926
Si Si3 0.788669 0.500000 0.438591
Si Si4 0.246475 0.333289 0.393256
O O1 0.557574 0.107423 0.326936
O O2 0.724327 0.106703 0.556108
O O3 0.724328 0.893295 0.321074
O O4 0.557572 0.892577 0.550244
O O5 0.378436 0.694882 0.603297
O O6 0.233591 0.500001 0.438590
O O7 0.262467 0.737536 0.313592
O O8 0.694884 0.378434 0.523887
#
# Coordination Sequence:
#
# PCOD9541424 Si02
#       4
#     4   4   4   4
#     4  12  24  44  68 110 146 188 226 298 358 420
#     4  12  26  42  72 111 143 182 239 295 357 416
#     4  12  24  44  72 104 148 184 238 292 354 418
#     4  12  26  42  72 111 143 182 239 295 357 416
#
# _framework density 21.540761
#
# number of rings (size 3 to 8) (size 9 to 14) (size 15 to 20)
#    0.000    0.000    7.500    1.500    3.500    0.000 
#    0.000    0.000    0.000   36.000    0.000    0.000 
#    0.000    0.000    0.000    0.000    0.000    0.000 
#
# Total GULP energy -89433.254741 kJ/mol
# GULP energy per Si atom -5589.578421 kJ/mol
# Density = 2.149173 g / cm^3
# Si number density = 21.540761 Si / 1000 Ang^3
#
#
#
# Elastic Constant Matrix: (Units=GPa)
#
#
# Indices 1 2 3 4 5 6 
#
# 1 66.4739 47.6890 57.7202 0.0000 0.0000 -0.0017
# 2 47.6890 66.4739 57.7202 0.0000 0.0000 0.0017
# 3 57.7202 57.7202 176.4244 0.0000 0.0000 0.0000
# 4 0.0000 0.0000 0.0000 36.4629 0.0000 0.0000
# 5 0.0000 0.0000 0.0000 0.0000 36.4629 0.0000
# 6 -0.0017 0.0017 0.0000 0.0000 0.0000 -44.3655
#
#
#
# Elastic Compliance Matrix: (Units=1/GPa)
#
#
# Indices 1 2 3 4 5 6 
#
# 1 0.033162 -0.020072 -0.004283 0.000000 0.000000 -0.000002
# 2 -0.020072 0.033162 -0.004283 0.000000 0.000000 0.000002
# 3 -0.004283 -0.004283 0.008470 0.000000 0.000000 0.000000
# 4 0.000000 0.000000 0.000000 0.027425 0.000000 0.000000
# 5 0.000000 0.000000 0.000000 0.000000 0.027425 0.000000
# 6 -0.000002 0.000002 0.000000 0.000000 0.000000 -0.022540
#
#
# Mechanical properties :
#
#
# Convention : Reuss Voigt Hill
#
# Bulk Modulus (GPa) = 57.07800 70.62568 63.85184
# Shear Modulus (GPa) = 29.37388 15.46157 22.41773
#
# Velocity S-wave (km/s) = 3.69676 2.68205 3.22951
# Velocity P-wave (km/s) = 6.69153 6.51532 6.60401
#
# Compressibility (1/GPa) = 0.01751988
#
# Stress axis : x y z
#
# Youngs Moduli (GPa) = 30.15498 30.15498 118.05826
#
# Poissons Ratio (x) = 0.60527 0.50560
# Poissons Ratio (y) = 0.60527 0.50560
# Poissons Ratio (z) = 0.12914 0.12914
#
# Static dielectric constant tensor:
#      x y z
#    x 1.792840 0.000000 0.000000 
#    y 0.000000 1.792840 0.000000 
#    z 0.000000 0.000000 1.830620 
# 
# From -- ./inp_files/404.got.cif
#   From: 2010.05.17/outbox.cif.g08.bks.cpg/sg76_cif.got.tgz:404.got - 2010.06.03 18:43:17.
