data_PCOD9541603
_publ_section_title
;
Structure prediction by ZEFSAII (Michael W. Deem and Ramdas Pophale) SiO2 
 PCOD9541603
Probable space group: P 43
;
_chemical_formula_sum "Si O2"
_cell_formula_units_Z 32
_cell_length_a 11.953456
_cell_length_b 11.953456
_cell_length_c 10.138321
_cell_angle_alpha 90.000000
_cell_angle_beta 90.000000
_cell_angle_gamma 90.000000
_cell_volume 1448.615115
_symmetry_space_group_name_H-M "P 43"
_symmetry_group_IT_number 78
_symmetry_cell_setting 'tetragonal'
loop_
_space_group_symop_operation_xyz
x,y,z
-y,x,3/4+z
-x,-y,1/2+z
y,-x,1/4+z
loop_
_atom_site_type_symbol
_atom_site_label
_atom_site_fract_x
_atom_site_fract_y
_atom_site_fract_z
Si Si1 0.457082 0.588937 0.746900
Si Si2 0.221235 0.695115 0.683356
Si Si3 0.541228 0.808405 0.628373
Si Si4 0.437203 0.017338 0.347883
Si Si5 0.865732 0.698265 0.757737
Si Si6 0.784359 0.910991 0.148147
Si Si7 0.668495 0.898742 0.412563
Si Si8 0.021725 0.905393 0.281732
O O1 0.462517 0.496923 0.632967
O O2 0.332539 0.638545 0.738220
O O3 0.536067 0.696012 0.714382
O O4 0.121097 0.606083 0.685632
O O5 0.226604 0.757672 0.540713
O O6 0.182729 0.789851 0.786089
O O7 0.563796 0.924094 0.705998
O O8 0.415611 0.826253 0.577102
O O9 0.621378 0.799584 0.503178
O O10 0.347542 0.916627 0.369846
O O11 0.560694 0.980910 0.394833
O O12 0.972343 0.749601 0.832060
O O13 0.699915 0.872728 0.262401
O O14 0.900055 0.923807 0.221162
O O15 0.781248 0.940128 0.486721
O O16 0.000451 0.912962 0.441545
#
# Coordination Sequence:
#
# PCOD9541603 Si02
#       8
#     4   4   4   4   4   4   4   4
#     4  11  24  41  62  89 127 168 210 269 324 375
#     4  10  20  36  63  91 116 161 212 258 312 376
#     4  10  20  39  61  86 122 161 209 270 308 376
#     4  10  19  37  64  88 119 164 211 258 313 380
#     4   9  19  35  58  92 118 153 208 259 306 372
#     4  10  19  35  64  89 120 166 205 249 308 386
#     4  10  21  38  62  90 126 160 209 263 318 368
#     4  10  22  41  60  89 128 171 204 262 321 387
#
# _framework density 22.090063000000001
#
# number of rings (size 3 to 8) (size 9 to 14) (size 15 to 20)
#    0.000    2.000    2.500    1.500    1.750    1.000 
#    6.750    2.500    0.000    0.000    0.000    0.000 
#    0.000    0.000    0.000    0.000    0.000    0.000 
#
# Total GULP energy -178297.953253 kJ/mol
# GULP energy per Si atom -5571.811039 kJ/mol
# Density = 2.203979 g / cm^3
# Si number density = 22.090063 Si / 1000 Ang^3
#
#
#
# Elastic Constant Matrix: (Units=GPa)
#
#
# Indices 1 2 3 4 5 6 
#
# 1 64.8436 11.1145 19.4070 0.0000 0.0000 -3.3890
# 2 11.1145 64.8436 19.4070 0.0000 0.0000 3.3890
# 3 19.4070 19.4070 26.5050 0.0000 0.0000 0.0000
# 4 0.0000 0.0000 0.0000 29.2159 0.0000 0.0000
# 5 0.0000 0.0000 0.0000 0.0000 29.2159 0.0000
# 6 -3.3890 3.3890 0.0000 0.0000 0.0000 14.1422
#
#
#
# Elastic Compliance Matrix: (Units=1/GPa)
#
#
# Indices 1 2 3 4 5 6 
#
# 1 0.020114 0.000922 -0.015402 0.000000 0.000000 0.004599
# 2 0.000922 0.020114 -0.015402 0.000000 0.000000 -0.004599
# 3 -0.015402 -0.015402 0.060284 0.000000 0.000000 0.000000
# 4 0.000000 0.000000 0.000000 0.034228 0.000000 0.000000
# 5 0.000000 0.000000 0.000000 0.000000 0.034228 0.000000
# 6 0.004599 -0.004599 0.000000 0.000000 0.000000 0.072914
#
#
# Mechanical properties :
#
#
# Convention : Reuss Voigt Hill
#
# Bulk Modulus (GPa) = 24.54231 28.44989 26.49610
# Shear Modulus (GPa) = 15.86147 21.59907 18.73027
#
# Velocity S-wave (km/s) = 2.68253 3.13033 2.91504
# Velocity P-wave (km/s) = 4.55289 5.09630 4.83224
#
# Compressibility (1/GPa) = 0.04074595
#
# Stress axis : x y z
#
# Youngs Moduli (GPa) = 49.71704 49.71704 16.58818
#
# Poissons Ratio (x) = -0.04583 0.25550
# Poissons Ratio (y) = -0.04583 0.25550
# Poissons Ratio (z) = 0.76576 0.76576
#
# Static dielectric constant tensor:
#      x y z
#    x 1.834850 0.000000 0.000000 
#    y 0.000000 1.834850 0.000000 
#    z 0.000000 0.000000 1.926280 
# 
# From -- ./inp_files/987.got.cif
#   From: 2010.05.17/outbox.cif.g08.bks.cpg/sg78_cif.got.tgz:987.got - 2010.06.03 18:45:56.
