data_PCOD9541952
_publ_section_title
;
Structure prediction by ZEFSAII (Michael W. Deem and Ramdas Pophale) SiO2 
 PCOD9541952
Probable space group: I 4
;
_chemical_formula_sum "Si O2"
_cell_formula_units_Z 48
_cell_length_a 10.998494
_cell_length_b 10.998494
_cell_length_c 17.686009
_cell_angle_alpha 90.000000
_cell_angle_beta 90.000000
_cell_angle_gamma 90.000000
_cell_volume 2139.421156
_symmetry_space_group_name_H-M "I 4"
_symmetry_group_IT_number 79
_symmetry_cell_setting 'tetragonal'
loop_
_space_group_symop_operation_xyz
x,y,z
-y,x,z
-x,-y,z
y,-x,z
1/2+x,1/2+y,1/2+z
1/2-y,1/2+x,1/2+z
1/2-x,1/2-y,1/2+z
1/2+y,1/2-x,1/2+z
loop_
_atom_site_type_symbol
_atom_site_label
_atom_site_fract_x
_atom_site_fract_y
_atom_site_fract_z
Si Si1 0.961755 0.646695 0.861160
Si Si2 0.983872 0.646910 0.039211
Si Si3 0.679901 0.848701 0.673448
Si Si4 0.892690 0.712179 0.621945
Si Si5 0.429010 0.315369 0.957544
Si Si6 0.287840 0.785045 0.325915
O O1 0.829890 0.696661 0.832150
O O2 0.000000 0.500000 0.849017
O O3 0.066352 0.734402 0.826377
O O4 0.962700 0.673676 0.951777
O O5 0.101173 0.686355 0.088134
O O6 0.000000 0.500000 0.039591
O O7 0.874268 0.687626 0.092309
O O8 0.819862 0.810423 0.669194
O O9 0.638125 0.776703 0.747766
O O10 0.663161 0.993909 0.670336
O O11 0.932207 0.776127 0.544201
O O12 0.566347 0.349306 0.941992
O O13 0.370961 0.222769 0.899550
#
# Coordination Sequence:
#
# PCOD9541952 Si02
#       6
#     8   8   8   8   8   8
#     4  11  24  44  70  99 139 188 238 292 357 435
#     4   9  21  39  64  90 124 171 224 272 336 419
#     4  11  24  38  63  97 132 171 217 286 352 415
#     4  11  20  40  66  93 129 170 224 281 345 418
#     4  11  22  39  67  99 129 176 237 301 353 416
#     4  12  25  41  66 103 143 183 233 294 367 428
#
# _framework density 22.435973000000001
#
# number of rings (size 3 to 8) (size 9 to 14) (size 15 to 20)
#    0.000    1.167    3.333    3.000    2.333    5.333 
#    0.000    1.667    0.000    0.500    0.000    0.000 
#    0.000    0.000    0.000    0.000    0.000    0.000 
#
# Total GULP energy -133626.546388 kJ/mol
# GULP energy per Si atom -5567.772766 kJ/mol
# Density = 2.238491 g / cm^3
# Si number density = 22.435973 Si / 1000 Ang^3
#
#
#
# Elastic Constant Matrix: (Units=GPa)
#
#
# Indices 1 2 3 4 5 6 
#
# 1 70.9469 19.9459 9.6805 0.0000 0.0000 7.0705
# 2 19.9459 70.9469 9.6805 0.0000 0.0000 -7.0705
# 3 9.6805 9.6805 113.2817 0.0000 0.0000 0.0000
# 4 0.0000 0.0000 0.0000 26.8222 0.0000 0.0000
# 5 0.0000 0.0000 0.0000 0.0000 26.8222 0.0000
# 6 7.0705 -7.0705 0.0000 0.0000 0.0000 28.1777
#
#
#
# Elastic Compliance Matrix: (Units=1/GPa)
#
#
# Indices 1 2 3 4 5 6 
#
# 1 0.016140 -0.004934 -0.000958 0.000000 0.000000 -0.005288
# 2 -0.004934 0.016140 -0.000958 0.000000 0.000000 0.005288
# 3 -0.000958 -0.000958 0.008991 0.000000 0.000000 0.000000
# 4 0.000000 0.000000 0.000000 0.037283 0.000000 0.000000
# 5 0.000000 0.000000 0.000000 0.000000 0.037283 0.000000
# 6 -0.005288 0.005288 0.000000 0.000000 0.000000 0.038143
#
#
# Mechanical properties :
#
#
# Convention : Reuss Voigt Hill
#
# Bulk Modulus (GPa) = 36.26773 37.08767 36.67770
# Shear Modulus (GPa) = 28.26972 30.75566 29.51269
#
# Velocity S-wave (km/s) = 3.55352 3.70647 3.63080
# Velocity P-wave (km/s) = 5.74776 5.90623 5.82754
#
# Compressibility (1/GPa) = 0.02757272
#
# Stress axis : x y z
#
# Youngs Moduli (GPa) = 61.95864 61.95864 111.21966
#
# Poissons Ratio (x) = 0.30569 0.10650
# Poissons Ratio (y) = 0.30569 0.10650
# Poissons Ratio (z) = 0.05933 0.05933
#
# Static dielectric constant tensor:
#      x y z
#    x 1.905970 0.000000 0.000000 
#    y 0.000000 1.905970 0.000000 
#    z 0.000000 0.000000 1.934190 
# 
# From -- ./inp_files/1587.got.cif
#   From: 2010.05.17/outbox.cif.g08.bks.cpg/sg79_cif.got.tgz:1587.got - 2010.06.03 18:47:27.
