data_PCOD9541119
_publ_section_title
;
Structure prediction by ZEFSAII (Michael W. Deem and Ramdas Pophale) SiO2 
 PCOD9541119
Probable space group: P 41
;
_chemical_formula_sum "Si O2"
_cell_formula_units_Z 32
_cell_length_a 8.789064
_cell_length_b 8.789064
_cell_length_c 17.811758
_cell_angle_alpha 90.000000
_cell_angle_beta 90.000000
_cell_angle_gamma 90.000000
_cell_volume 1375.916377
_symmetry_space_group_name_H-M "P 41"
_symmetry_group_IT_number 76
_symmetry_cell_setting 'tetragonal'
loop_
_space_group_symop_operation_xyz
x,y,z
-y,x,1/4+z
-x,-y,1/2+z
y,-x,3/4+z
loop_
_atom_site_type_symbol
_atom_site_label
_atom_site_fract_x
_atom_site_fract_y
_atom_site_fract_z
Si Si1 0.182864 0.377774 0.794070
Si Si2 0.022110 0.845456 0.374098
Si Si3 0.272203 0.825331 0.743476
Si Si4 0.395585 0.511576 0.442403
Si Si5 0.251679 0.345884 0.564028
Si Si6 0.747156 0.438753 0.446357
Si Si7 0.149168 0.863681 0.897525
Si Si8 0.427535 0.086055 0.917491
O O1 0.108650 0.217048 0.817236
O O2 0.343496 0.377510 0.749934
O O3 0.200525 0.481729 0.867986
O O4 0.066424 0.457942 0.736602
O O5 0.982200 0.747887 0.448666
O O6 0.182935 0.814964 0.337163
O O7 0.986019 0.015869 0.401280
O O8 0.446743 0.797033 0.762033
O O9 0.156908 0.812612 0.811328
O O10 0.226609 0.682329 0.691035
O O11 0.284912 0.384596 0.477638
O O12 0.362623 0.589609 0.362007
O O13 0.564519 0.439591 0.443567
O O14 0.139085 0.473674 0.597453
O O15 0.834735 0.280219 0.450556
O O16 0.308041 0.953666 0.906392
#
# Coordination Sequence:
#
# PCOD9541119 Si02
#       8
#     4   4   4   4   4   4   4   4
#     4  10  19  41  63  91 124 172 226 262 327 412
#     4  10  25  39  63  94 131 185 217 266 341 419
#     4  10  20  40  66  92 122 177 223 263 334 418
#     4  11  20  37  69 102 127 169 224 296 327 390
#     4  11  23  40  68  99 137 173 235 278 344 402
#     4  11  19  37  67  99 124 159 224 283 329 388
#     4  11  23  39  66  94 132 173 220 279 343 412
#     4  10  21  39  66  91 127 180 225 269 327 405
#
# _framework density 23.257225999999999
#
# number of rings (size 3 to 8) (size 9 to 14) (size 15 to 20)
#    0.000    1.500    5.000    1.500    7.000    0.000 
#    0.000    2.500    5.500    0.000    0.000    0.000 
#    0.000    0.000    0.000    0.000    0.000    0.000 
#
# Total GULP energy -178648.744072 kJ/mol
# GULP energy per Si atom -5582.773252 kJ/mol
# Density = 2.320429 g / cm^3
# Si number density = 23.257226 Si / 1000 Ang^3
#
#
#
# Elastic Constant Matrix: (Units=GPa)
#
#
# Indices 1 2 3 4 5 6 
#
# 1 89.5324 19.0208 -5.6477 0.0000 0.0000 -0.8970
# 2 19.0208 89.5324 -5.6477 0.0000 0.0000 0.8970
# 3 -5.6477 -5.6477 22.6806 0.0000 0.0000 0.0000
# 4 0.0000 0.0000 0.0000 21.8323 0.0000 0.0000
# 5 0.0000 0.0000 0.0000 0.0000 21.8323 0.0000
# 6 -0.8970 0.8970 0.0000 0.0000 0.0000 18.0713
#
#
#
# Elastic Compliance Matrix: (Units=1/GPa)
#
#
# Indices 1 2 3 4 5 6 
#
# 1 0.011829 -0.002371 0.002355 0.000000 0.000000 0.000705
# 2 -0.002371 0.011829 0.002355 0.000000 0.000000 -0.000705
# 3 0.002355 0.002355 0.045263 0.000000 0.000000 0.000000
# 4 0.000000 0.000000 0.000000 0.045804 0.000000 0.000000
# 5 0.000000 0.000000 0.000000 0.000000 0.045804 0.000000
# 6 0.000705 -0.000705 0.000000 0.000000 0.000000 0.055406
#
#
# Mechanical properties :
#
#
# Convention : Reuss Voigt Hill
#
# Bulk Modulus (GPa) = 13.58744 24.13288 18.86016
# Shear Modulus (GPa) = 21.20530 25.28183 23.24357
#
# Velocity S-wave (km/s) = 3.02283 3.30062 3.16478
# Velocity P-wave (km/s) = 4.24715 4.99245 4.63480
#
# Compressibility (1/GPa) = 0.07359739
#
# Stress axis : x y z
#
# Youngs Moduli (GPa) = 84.54114 84.54114 22.09290
#
# Poissons Ratio (x) = 0.20048 -0.05203
# Poissons Ratio (y) = 0.20048 -0.05203
# Poissons Ratio (z) = -0.19909 -0.19909
#
# Static dielectric constant tensor:
#      x y z
#    x 1.929050 0.000000 0.000000 
#    y 0.000000 1.929050 0.000000 
#    z 0.000000 0.000000 2.010050 
# 
# From -- ./inp_files/1457.got.cif
#   From: 2010.05.17/outbox.cif.g08.bks.cpg/sg76_cif.got.tgz:1457.got - 2010.06.03 18:43:17.
