data_PCOD9541780
_publ_section_title
;
Structure prediction by ZEFSAII (Michael W. Deem and Ramdas Pophale) SiO2 
 PCOD9541780
Probable space group: P 43
;
_chemical_formula_sum "Si O2"
_cell_formula_units_Z 28
_cell_length_a 14.481870
_cell_length_b 14.481870
_cell_length_c 5.310038
_cell_angle_alpha 90.000000
_cell_angle_beta 90.000000
_cell_angle_gamma 90.000000
_cell_volume 1113.645376
_symmetry_space_group_name_H-M "P 43"
_symmetry_group_IT_number 78
_symmetry_cell_setting 'tetragonal'
loop_
_space_group_symop_operation_xyz
x,y,z
-y,x,3/4+z
-x,-y,1/2+z
y,-x,1/4+z
loop_
_atom_site_type_symbol
_atom_site_label
_atom_site_fract_x
_atom_site_fract_y
_atom_site_fract_z
Si Si1 0.982599 0.143345 0.645900
Si Si2 0.384586 0.575602 0.890782
Si Si3 0.246071 0.068639 0.413106
Si Si4 0.721573 0.253642 0.139929
Si Si5 0.074996 0.566483 0.897695
Si Si6 0.399416 0.235258 0.011825
Si Si7 0.865541 0.557405 0.054603
O O1 0.994138 0.205867 0.392318
O O2 0.066532 0.086757 0.776260
O O3 0.949966 0.204227 0.886495
O O4 0.393228 0.486405 0.717802
O O5 0.325327 0.659334 0.779526
O O6 0.323577 0.552706 0.134845
O O7 0.226073 0.176219 0.473496
O O8 0.357158 0.063260 0.427013
O O9 0.734532 0.299410 0.865380
O O10 0.651393 0.172397 0.197295
O O11 0.126839 0.468518 0.848327
O O12 0.972381 0.547190 0.984783
O O13 0.145795 0.614292 0.087598
O O14 0.474243 0.198523 0.209868
#
# Coordination Sequence:
#
# PCOD9541780 Si02
#       7
#     4   4   4   4   4   4   4
#     4  12  28  53  85 115 163 210 266 337 424 499
#     4  12  28  46  76 110 155 211 270 335 411 493
#     4  12  27  50  80 122 162 207 276 346 401 499
#     4  12  27  47  77 113 158 210 270 339 411 491
#     4  12  26  50  75 114 163 209 270 338 412 503
#     4  12  23  51  73 110 160 205 269 342 405 493
#     4  12  27  47  80 112 155 220 267 329 422 490
#
# _framework density 25.142655999999999
#
# number of rings (size 3 to 8) (size 9 to 14) (size 15 to 20)
#    0.000    0.000    4.286    5.143    8.000    0.000 
#    0.000    0.000    0.000    0.000    0.000    0.000 
#    0.000    0.000    0.000    0.000    0.000    0.000 
#
# Total GULP energy -156511.501521 kJ/mol
# GULP energy per Si atom -5589.696483 kJ/mol
# Density = 2.508543 g / cm^3
# Si number density = 25.142656 Si / 1000 Ang^3
#
#
#
# Elastic Constant Matrix: (Units=GPa)
#
#
# Indices 1 2 3 4 5 6 
#
# 1 101.4152 24.8923 38.9184 0.0000 0.0000 6.8927
# 2 24.8923 101.4152 38.9184 0.0000 0.0000 -6.8927
# 3 38.9184 38.9184 107.7733 0.0000 0.0000 0.0000
# 4 0.0000 0.0000 0.0000 42.8916 0.0000 0.0000
# 5 0.0000 0.0000 0.0000 0.0000 42.8916 0.0000
# 6 6.8927 -6.8927 0.0000 0.0000 0.0000 43.6275
#
#
#
# Elastic Compliance Matrix: (Units=1/GPa)
#
#
# Indices 1 2 3 4 5 6 
#
# 1 0.011817 -0.001634 -0.003677 0.000000 0.000000 -0.002125
# 2 -0.001634 0.011817 -0.003677 0.000000 0.000000 0.002125
# 3 -0.003677 -0.003677 0.011935 0.000000 0.000000 0.000000
# 4 0.000000 0.000000 0.000000 0.023315 0.000000 0.000000
# 5 0.000000 0.000000 0.000000 0.000000 0.023315 0.000000
# 6 -0.002125 0.002125 0.000000 0.000000 0.000000 0.023593
#
#
# Mechanical properties :
#
#
# Convention : Reuss Voigt Hill
#
# Bulk Modulus (GPa) = 56.84423 57.34018 57.09221
# Shear Modulus (GPa) = 38.57085 39.74044 39.15565
#
# Velocity S-wave (km/s) = 3.92098 3.97999 3.95060
# Velocity P-wave (km/s) = 6.56937 6.63143 6.60047
#
# Compressibility (1/GPa) = 0.01759193
#
# Stress axis : x y z
#
# Youngs Moduli (GPa) = 84.62330 84.62330 83.78990
#
# Poissons Ratio (x) = 0.13825 0.30812
# Poissons Ratio (y) = 0.13825 0.30812
# Poissons Ratio (z) = 0.31119 0.31119
#
# Static dielectric constant tensor:
#      x y z
#    x 1.998170 0.000000 0.000000 
#    y 0.000000 1.998170 0.000000 
#    z 0.000000 0.000000 2.177260 
# 
# From -- ./inp_files/230.got.cif
#   From: 2010.05.17/outbox.cif.g08.bks.cpg/sg78_cif.got.tgz:230.got - 2010.06.03 18:45:56.
