data_PCOD9541753
_publ_section_title
;
Structure prediction by ZEFSAII (Michael W. Deem and Ramdas Pophale) SiO2 
 PCOD9541753
Probable space group: P 43
;
_chemical_formula_sum "Si O2"
_cell_formula_units_Z 24
_cell_length_a 11.947445
_cell_length_b 11.947445
_cell_length_c 7.143015
_cell_angle_alpha 90.000000
_cell_angle_beta 90.000000
_cell_angle_gamma 90.000000
_cell_volume 1019.604262
_symmetry_space_group_name_H-M "P 43"
_symmetry_group_IT_number 78
_symmetry_cell_setting 'tetragonal'
loop_
_space_group_symop_operation_xyz
x,y,z
-y,x,3/4+z
-x,-y,1/2+z
y,-x,1/4+z
loop_
_atom_site_type_symbol
_atom_site_label
_atom_site_fract_x
_atom_site_fract_y
_atom_site_fract_z
Si Si1 0.498580 0.172329 0.070720
Si Si2 0.435192 0.361321 0.788169
Si Si3 0.339192 0.803879 0.910416
Si Si4 0.136102 0.954671 0.808824
Si Si5 0.906047 0.684234 0.571635
Si Si6 0.243042 0.110291 0.124597
O O1 0.553505 0.191410 0.274175
O O2 0.372481 0.129563 0.075398
O O3 0.492654 0.285646 0.947555
O O4 0.578225 0.088357 0.956003
O O5 0.525642 0.390310 0.632689
O O6 0.324506 0.305672 0.700626
O O7 0.238855 0.869729 0.810145
O O8 0.352645 0.862595 0.114064
O O9 0.106268 0.024783 0.628091
O O10 0.173726 0.048689 0.961251
O O11 0.813913 0.770232 0.649360
O O12 0.022342 0.748272 0.542436
#
# Coordination Sequence:
#
# PCOD9541753 Si02
#       6
#     4   4   4   4   4   4
#     4  12  25  46  72 110 143 195 249 300 383 440
#     4  12  23  44  72 106 150 194 248 310 367 451
#     4  11  25  46  69 106 143 193 243 307 373 440
#     4  11  23  47  71 101 145 194 248 308 373 443
#     4  11  25  49  70 105 148 189 248 308 366 449
#     4  11  23  46  74 100 149 191 238 311 366 441
#
# _framework density 23.538546
#
# number of rings (size 3 to 8) (size 9 to 14) (size 15 to 20)
#    0.000    0.667    6.667    1.000    4.667    2.667 
#    3.000    0.000    0.000    0.000    0.000    0.000 
#    0.000    0.000    0.000    0.000    0.000    0.000 
#
# Total GULP energy -134475.858244 kJ/mol
# GULP energy per Si atom -5603.160760 kJ/mol
# Density = 2.348497 g / cm^3
# Si number density = 23.538546 Si / 1000 Ang^3
#
#
#
# Elastic Constant Matrix: (Units=GPa)
#
#
# Indices 1 2 3 4 5 6 
#
# 1 111.8814 18.2096 28.8098 0.0000 0.0000 10.2081
# 2 18.2096 111.8814 28.8098 0.0000 0.0000 -10.2081
# 3 28.8098 28.8098 106.3358 0.0000 0.0000 0.0000
# 4 0.0000 0.0000 0.0000 25.3350 0.0000 0.0000
# 5 0.0000 0.0000 0.0000 0.0000 25.3350 0.0000
# 6 10.2081 -10.2081 0.0000 0.0000 0.0000 33.9222
#
#
#
# Elastic Compliance Matrix: (Units=1/GPa)
#
#
# Indices 1 2 3 4 5 6 
#
# 1 0.010080 -0.001345 -0.002367 0.000000 0.000000 -0.003438
# 2 -0.001345 0.010080 -0.002367 0.000000 0.000000 0.003438
# 3 -0.002367 -0.002367 0.010687 0.000000 0.000000 0.000000
# 4 0.000000 0.000000 0.000000 0.039471 0.000000 0.000000
# 5 0.000000 0.000000 0.000000 0.000000 0.039471 0.000000
# 6 -0.003438 0.003438 0.000000 0.000000 0.000000 0.031548
#
#
# Mechanical properties :
#
#
# Convention : Reuss Voigt Hill
#
# Bulk Modulus (GPa) = 53.50360 53.52855 53.51607
# Shear Modulus (GPa) = 31.30407 33.86973 32.58690
#
# Velocity S-wave (km/s) = 3.65075 3.79741 3.72480
# Velocity P-wave (km/s) = 6.36790 6.48207 6.42524
#
# Compressibility (1/GPa) = 0.01869033
#
# Stress axis : x y z
#
# Youngs Moduli (GPa) = 99.20606 99.20606 93.57542
#
# Poissons Ratio (x) = 0.13342 0.22146
# Poissons Ratio (y) = 0.13342 0.22146
# Poissons Ratio (z) = 0.23478 0.23478
#
# Static dielectric constant tensor:
#      x y z
#    x 1.871650 0.000000 0.000000 
#    y 0.000000 1.871650 0.000000 
#    z 0.000000 0.000000 1.887310 
# 
# From -- ./inp_files/557.got.cif
#   From: 2010.05.17/outbox.cif.g08.bks.cpg/sg78_cif.got.tgz:557.got - 2010.06.03 18:45:56.
