data_PCOD9541525
_publ_section_title
;
Structure prediction by ZEFSAII (Michael W. Deem and Ramdas Pophale) SiO2 
 PCOD9541525
Probable space group: P 42
;
_chemical_formula_sum "Si O2"
_cell_formula_units_Z 22
_cell_length_a 8.464182
_cell_length_b 8.464182
_cell_length_c 13.692068
_cell_angle_alpha 90.000000
_cell_angle_beta 90.000000
_cell_angle_gamma 90.000000
_cell_volume 980.932297
_symmetry_space_group_name_H-M "P 42"
_symmetry_group_IT_number 77
_symmetry_cell_setting 'tetragonal'
loop_
_space_group_symop_operation_xyz
x,y,z
-y,x,1/2+z
-x,-y,z
y,-x,1/2+z
loop_
_atom_site_type_symbol
_atom_site_label
_atom_site_fract_x
_atom_site_fract_y
_atom_site_fract_z
Si Si1 0.916582 0.718027 0.802010
Si Si2 0.542827 0.671351 0.055625
Si Si3 0.640389 0.124280 0.919859
Si Si4 0.256841 0.593854 0.774075
Si Si5 0.000000 0.000000 0.174725
Si Si6 0.151813 0.151707 0.992629
O O1 0.775525 0.589811 0.804142
O O2 0.954388 0.759475 0.914123
O O3 0.076979 0.649987 0.757196
O O4 0.898806 0.879359 0.740967
O O5 0.500000 0.500000 0.017198
O O6 0.580404 0.660733 0.169861
O O7 0.408746 0.795655 0.023373
O O8 0.696347 0.740169 0.005237
O O9 0.668452 0.271255 0.845030
O O10 0.500000 0.000000 0.889910
O O11 0.788253 0.011279 0.943304
O O12 0.084041 0.117371 0.098613
#
# Coordination Sequence:
#
# PCOD9541525 Si02
#       6
#     4   4   4   4   2   4
#     4  11  24  39  69  99 142 182 237 298 359 425
#     4  11  24  42  68  99 141 190 240 288 361 433
#     4  10  23  43  70  97 142 187 239 296 360 431
#     4  11  23  44  68 102 138 189 236 292 364 429
#     4  12  20  38  66 100 142 178 238 284 362 420
#     4  11  23  40  68 101 139 186 234 303 351 425
#
# _framework density 22.427643
#
# number of rings (size 3 to 8) (size 9 to 14) (size 15 to 20)
#    0.000    1.091    1.818    4.909    5.091    3.636 
#    0.000    1.818    4.000    0.000    0.000    0.000 
#    0.000    0.000    0.000    0.000    0.000    0.000 
#
# Total GULP energy -122720.214240 kJ/mol
# GULP energy per Si atom -5578.191556 kJ/mol
# Density = 2.237660 g / cm^3
# Si number density = 22.427643 Si / 1000 Ang^3
#
#
#
# Elastic Constant Matrix: (Units=GPa)
#
#
# Indices 1 2 3 4 5 6 
#
# 1 92.6849 33.9890 29.5807 0.0000 0.0000 -17.7164
# 2 33.9890 92.6849 29.5807 0.0000 0.0000 17.7164
# 3 29.5807 29.5807 105.5955 0.0000 0.0000 0.0000
# 4 0.0000 0.0000 0.0000 28.9124 0.0000 0.0000
# 5 0.0000 0.0000 0.0000 0.0000 28.9124 0.0000
# 6 -17.7164 17.7164 0.0000 0.0000 0.0000 44.6368
#
#
#
# Elastic Compliance Matrix: (Units=1/GPa)
#
#
# Indices 1 2 3 4 5 6 
#
# 1 0.015744 -0.006661 -0.002544 0.000000 0.000000 0.008893
# 2 -0.006661 0.015744 -0.002544 0.000000 0.000000 -0.008893
# 3 -0.002544 -0.002544 0.010896 0.000000 0.000000 0.000000
# 4 0.000000 0.000000 0.000000 0.034587 0.000000 0.000000
# 5 0.000000 0.000000 0.000000 0.000000 0.034587 0.000000
# 6 0.008893 -0.008893 0.000000 0.000000 0.000000 0.029462
#
#
# Mechanical properties :
#
#
# Convention : Reuss Voigt Hill
#
# Bulk Modulus (GPa) = 52.95642 53.02959 52.99300
# Shear Modulus (GPa) = 29.27155 33.67996 31.47575
#
# Velocity S-wave (km/s) = 3.61661 3.87940 3.75031
# Velocity P-wave (km/s) = 6.41118 6.61532 6.51405
#
# Compressibility (1/GPa) = 0.01888345
#
# Stress axis : x y z
#
# Youngs Moduli (GPa) = 63.51678 63.51678 91.78016
#
# Poissons Ratio (x) = 0.42310 0.23352
# Poissons Ratio (y) = 0.42310 0.23352
# Poissons Ratio (z) = 0.16161 0.16161
#
# Static dielectric constant tensor:
#      x y z
#    x 1.980890 0.000000 0.000000 
#    y 0.000000 1.980890 0.000000 
#    z 0.000000 0.000000 1.789350 
# 
# From -- ./inp_files/1085.got.cif
#   From: 2010.05.17/outbox.cif.g08.bks.cpg/sg77_cif.got.tgz:1085.got - 2010.06.03 18:44:51.
