data_PCOD9541850
_publ_section_title
;
Structure prediction by ZEFSAII (Michael W. Deem and Ramdas Pophale) SiO2 
 PCOD9541850
Probable space group: I 4
;
_chemical_formula_sum "Si O2"
_cell_formula_units_Z 44
_cell_length_a 10.469018
_cell_length_b 10.469018
_cell_length_c 17.463284
_cell_angle_alpha 90.000000
_cell_angle_beta 90.000000
_cell_angle_gamma 90.000000
_cell_volume 1913.981827
_symmetry_space_group_name_H-M "I 4"
_symmetry_group_IT_number 79
_symmetry_cell_setting 'tetragonal'
loop_
_space_group_symop_operation_xyz
x,y,z
-y,x,z
-x,-y,z
y,-x,z
1/2+x,1/2+y,1/2+z
1/2-y,1/2+x,1/2+z
1/2-x,1/2-y,1/2+z
1/2+y,1/2-x,1/2+z
loop_
_atom_site_type_symbol
_atom_site_label
_atom_site_fract_x
_atom_site_fract_y
_atom_site_fract_z
Si Si1 0.519359 0.703737 0.246940
Si Si2 0.876831 0.713346 0.417963
Si Si3 0.500000 0.000000 0.998987
Si Si4 0.271953 0.935140 0.577896
Si Si5 0.126798 0.701265 0.316372
Si Si6 0.105403 0.817457 0.149220
O O1 0.390047 0.635333 0.269397
O O2 0.514889 0.709396 0.154742
O O3 0.559813 0.835916 0.285684
O O4 0.907041 0.792635 0.496260
O O5 0.754274 0.771891 0.378212
O O6 0.888610 0.566596 0.449228
O O7 0.991964 0.717338 0.357730
O O8 0.535308 0.117343 0.053520
O O9 0.335008 0.800442 0.603196
O O10 0.126192 0.784680 0.238869
O O11 0.954561 0.831617 0.133603
#
# Coordination Sequence:
#
# PCOD9541850 Si02
#       6
#     8   8   4   8   8   8
#     4  10  24  42  62  95 130 175 219 258 325 393
#     4  10  23  40  63  97 128 166 218 265 328 377
#     4   8  22  40  58  94 122 164 212 258 318 390
#     4   9  22  39  62  90 125 172 208 266 317 384
#     4  11  22  40  67  93 130 173 208 279 314 389
#     4  10  20  38  61  92 127 161 216 261 318 382
#
# _framework density 22.988724999999999
#
# number of rings (size 3 to 8) (size 9 to 14) (size 15 to 20)
#    1.091    1.091    1.818    0.000    5.091    4.727 
#    0.000    0.000    0.000    2.182    0.000    0.000 
#    0.000    0.000    0.000    0.000    0.000    0.000 
#
# Total GULP energy -122597.917099 kJ/mol
# GULP energy per Si atom -5572.632595 kJ/mol
# Density = 2.293640 g / cm^3
# Si number density = 22.988725 Si / 1000 Ang^3
#
#
#
# Elastic Constant Matrix: (Units=GPa)
#
#
# Indices 1 2 3 4 5 6 
#
# 1 28.2037 23.2208 12.7683 0.0000 0.0000 8.0459
# 2 23.2208 28.2037 12.7683 0.0000 0.0000 -8.0459
# 3 12.7683 12.7683 112.2950 0.0000 0.0000 0.0000
# 4 0.0000 0.0000 0.0000 18.6912 0.0000 0.0000
# 5 0.0000 0.0000 0.0000 0.0000 18.6912 0.0000
# 6 8.0459 -8.0459 0.0000 0.0000 0.0000 23.0896
#
#
#
# Elastic Compliance Matrix: (Units=1/GPa)
#
#
# Indices 1 2 3 4 5 6 
#
# 1 -0.790413 0.811023 -0.002343 0.000000 0.000000 0.558040
# 2 0.811023 -0.790413 -0.002343 0.000000 0.000000 -0.558040
# 3 -0.002343 -0.002343 0.009438 0.000000 0.000000 0.000000
# 4 0.000000 0.000000 0.000000 0.053501 0.000000 0.000000
# 5 0.000000 0.000000 0.000000 0.000000 0.053501 0.000000
# 6 0.558040 -0.558040 0.000000 0.000000 0.000000 -0.345603
#
#
# Mechanical properties :
#
#
# Convention : Reuss Voigt Hill
#
# Bulk Modulus (GPa) = 24.22257 29.57968 26.90112
# Shear Modulus (GPa) = -1.46675 20.09072 9.31199
#
# Velocity S-wave (km/s) = -0.79963 2.95945 2.01481
# Velocity P-wave (km/s) = 3.11561 4.95709 4.14004
#
# Compressibility (1/GPa) = 0.04128382
#
# Stress axis : x y z
#
# Youngs Moduli (GPa) = -1.26516 -1.26516 105.95449
#
# Poissons Ratio (x) = 1.02607 0.24829
# Poissons Ratio (y) = 1.02607 0.24829
# Poissons Ratio (z) = -0.00296 -0.00296
#
# Static dielectric constant tensor:
#      x y z
#    x 1.886660 0.000000 0.000000 
#    y 0.000000 1.886660 0.000000 
#    z 0.000000 0.000000 1.890120 
# 
# From -- ./inp_files/1528.got.cif
#   From: 2010.05.17/outbox.cif.g08.bks.cpg/sg79_cif.got.tgz:1528.got - 2010.06.03 18:47:27.
