data_PCOD9541353
_publ_section_title
;
Structure prediction by ZEFSAII (Michael W. Deem and Ramdas Pophale) SiO2 
 PCOD9541353
Probable space group: P 41
;
_chemical_formula_sum "Si O2"
_cell_formula_units_Z 16
_cell_length_a 7.445998
_cell_length_b 7.445998
_cell_length_c 12.940471
_cell_angle_alpha 90.000000
_cell_angle_beta 90.000000
_cell_angle_gamma 90.000000
_cell_volume 717.457061
_symmetry_space_group_name_H-M "P 41"
_symmetry_group_IT_number 76
_symmetry_cell_setting 'tetragonal'
loop_
_space_group_symop_operation_xyz
x,y,z
-y,x,1/4+z
-x,-y,1/2+z
y,-x,3/4+z
loop_
_atom_site_type_symbol
_atom_site_label
_atom_site_fract_x
_atom_site_fract_y
_atom_site_fract_z
Si Si1 0.273945 0.994625 0.957610
Si Si2 0.345109 0.902513 0.401309
Si Si3 0.994624 0.273946 0.879336
Si Si4 0.345109 0.097487 0.185637
O O1 0.094371 0.094371 0.918473
O O2 0.995128 0.707034 0.830762
O O3 0.269666 0.784884 0.927583
O O4 0.215116 0.730334 0.409364
O O5 0.559975 0.894876 0.409792
O O6 0.292966 0.004874 0.506184
O O7 0.301896 0.999999 0.293473
O O8 0.105124 0.440025 0.927154
#
# Coordination Sequence:
#
# PCOD9541353 Si02
#       4
#     4   4   4   4
#     4  11  23  41  64  90 126 165 206 259 314 372
#     4  11  22  39  65  93 123 165 210 255 313 375
#     4  11  23  41  64  90 126 165 206 259 314 372
#     4  11  22  39  65  93 123 165 210 255 313 375
#
# _framework density 22.300986000000002
#
# number of rings (size 3 to 8) (size 9 to 14) (size 15 to 20)
#    0.000    1.000    0.000    9.000    0.000    0.000 
#    0.000   22.500    0.000    0.000    0.000    0.000 
#    0.000    0.000    0.000    0.000    0.000    0.000 
#
# Total GULP energy -89210.472660 kJ/mol
# GULP energy per Si atom -5575.654541 kJ/mol
# Density = 2.225023 g / cm^3
# Si number density = 22.300986 Si / 1000 Ang^3
#
#
#
# Elastic Constant Matrix: (Units=GPa)
#
#
# Indices 1 2 3 4 5 6 
#
# 1 88.8627 30.8350 18.2858 0.0000 0.0000 0.0000
# 2 30.8350 88.8627 18.2858 0.0000 0.0000 0.0000
# 3 18.2858 18.2858 140.7102 0.0000 0.0000 0.0000
# 4 0.0000 0.0000 0.0000 24.9010 0.0000 0.0000
# 5 0.0000 0.0000 0.0000 0.0000 24.9010 0.0000
# 6 0.0000 0.0000 0.0000 0.0000 0.0000 22.4231
#
#
#
# Elastic Compliance Matrix: (Units=1/GPa)
#
#
# Indices 1 2 3 4 5 6 
#
# 1 0.012966 -0.004267 -0.001131 0.000000 0.000000 0.000000
# 2 -0.004267 0.012966 -0.001131 0.000000 0.000000 0.000000
# 3 -0.001131 -0.001131 0.007401 0.000000 0.000000 0.000000
# 4 0.000000 0.000000 0.000000 0.040159 0.000000 0.000000
# 5 0.000000 0.000000 0.000000 0.000000 0.040159 0.000000
# 6 0.000000 0.000000 0.000000 0.000000 0.000000 0.044597
#
#
# Mechanical properties :
#
#
# Convention : Reuss Voigt Hill
#
# Bulk Modulus (GPa) = 49.31457 50.36096 49.83776
# Shear Modulus (GPa) = 28.07985 31.18028 29.63007
#
# Velocity S-wave (km/s) = 3.55227 3.74325 3.64901
# Velocity P-wave (km/s) = 6.24388 6.42759 6.33640
#
# Compressibility (1/GPa) = 0.02027798
#
# Stress axis : x y z
#
# Youngs Moduli (GPa) = 77.12192 77.12192 135.12331
#
# Poissons Ratio (x) = 0.32905 0.15277
# Poissons Ratio (y) = 0.32905 0.15277
# Poissons Ratio (z) = 0.08719 0.08719
#
# Static dielectric constant tensor:
#      x y z
#    x 1.856190 0.000000 0.000000 
#    y 0.000000 1.856190 0.000000 
#    z 0.000000 0.000000 1.830970 
# 
# From -- ./inp_files/748.got.cif
#   From: 2010.05.17/outbox.cif.g08.bks.cpg/sg76_cif.got.tgz:748.got - 2010.06.03 18:43:17.
