data_PCOD9541678
_publ_section_title
;
Structure prediction by ZEFSAII (Michael W. Deem and Ramdas Pophale) SiO2 
 PCOD9541678
Probable space group: P 43
;
_chemical_formula_sum "Si O2"
_cell_formula_units_Z 28
_cell_length_a 11.308713
_cell_length_b 11.308713
_cell_length_c 9.084240
_cell_angle_alpha 90.000000
_cell_angle_beta 90.000000
_cell_angle_gamma 90.000000
_cell_volume 1161.756107
_symmetry_space_group_name_H-M "P 43"
_symmetry_group_IT_number 78
_symmetry_cell_setting 'tetragonal'
loop_
_space_group_symop_operation_xyz
x,y,z
-y,x,3/4+z
-x,-y,1/2+z
y,-x,1/4+z
loop_
_atom_site_type_symbol
_atom_site_label
_atom_site_fract_x
_atom_site_fract_y
_atom_site_fract_z
Si Si1 0.618922 0.574150 0.709660
Si Si2 0.303209 0.176436 0.325470
Si Si3 0.951316 0.510397 0.966033
Si Si4 0.201356 0.179500 0.005106
Si Si5 0.782344 0.412889 0.536782
Si Si6 0.762281 0.685831 0.064758
Si Si7 0.300924 0.960564 0.048989
O O1 0.518717 0.587427 0.586373
O O2 0.635103 0.695991 0.797810
O O3 0.731346 0.530420 0.613356
O O4 0.409435 0.083750 0.335644
O O5 0.224961 0.170934 0.178432
O O6 0.231099 0.192494 0.473618
O O7 0.833897 0.592159 0.958883
O O8 0.079165 0.570392 0.992511
O O9 0.969147 0.422098 0.827784
O O10 0.205942 0.040927 0.965352
O O11 0.313042 0.229145 0.913849
O O12 0.088045 0.247824 0.950908
O O13 0.702146 0.365937 0.397675
O O14 0.848711 0.673491 0.201547
#
# Coordination Sequence:
#
# PCOD9541678 Si02
#       7
#     4   4   4   4   4   4   4
#     4  12  27  44  68 101 151 198 239 312 382 461
#     4  11  25  44  67 107 148 189 251 311 365 478
#     4  11  25  45  76 103 148 200 248 308 388 450
#     4  10  21  47  66 101 137 186 246 301 376 442
#     4  11  25  45  73 104 147 197 247 313 387 458
#     4  11  26  43  72 113 143 185 266 307 373 462
#     4  10  23  44  72 101 144 193 241 316 377 455
#
# _framework density 24.101443
#
# number of rings (size 3 to 8) (size 9 to 14) (size 15 to 20)
#    0.000    1.143    2.857    1.714   10.000    1.143 
#    2.571    2.857    0.000    0.000    0.000    0.000 
#    0.000    0.000    0.000    0.000    0.000    0.000 
#
# Total GULP energy -155989.832232 kJ/mol
# GULP energy per Si atom -5571.065437 kJ/mol
# Density = 2.404659 g / cm^3
# Si number density = 24.101443 Si / 1000 Ang^3
#
#
#
# Elastic Constant Matrix: (Units=GPa)
#
#
# Indices 1 2 3 4 5 6 
#
# 1 83.7577 47.3001 15.8989 0.0000 0.0000 -8.4287
# 2 47.3001 83.7577 15.8989 0.0000 0.0000 8.4287
# 3 15.8989 15.8989 75.1609 0.0000 0.0000 0.0000
# 4 0.0000 0.0000 0.0000 33.4252 0.0000 0.0000
# 5 0.0000 0.0000 0.0000 0.0000 33.4252 0.0000
# 6 -8.4287 8.4287 0.0000 0.0000 0.0000 39.6260
#
#
#
# Elastic Compliance Matrix: (Units=1/GPa)
#
#
# Indices 1 2 3 4 5 6 
#
# 1 0.019232 -0.011189 -0.001701 0.000000 0.000000 0.006471
# 2 -0.011189 0.019232 -0.001701 0.000000 0.000000 -0.006471
# 3 -0.001701 -0.001701 0.014025 0.000000 0.000000 0.000000
# 4 0.000000 0.000000 0.000000 0.029918 0.000000 0.000000
# 5 0.000000 0.000000 0.000000 0.000000 0.029918 0.000000
# 6 0.006471 -0.006471 0.000000 0.000000 0.000000 0.027989
#
#
# Mechanical properties :
#
#
# Convention : Reuss Voigt Hill
#
# Bulk Modulus (GPa) = 42.90891 44.54135 43.72513
# Shear Modulus (GPa) = 28.20648 32.20050 30.20349
#
# Velocity S-wave (km/s) = 3.42471 3.65915 3.54387
# Velocity P-wave (km/s) = 5.78622 6.03104 5.90990
#
# Compressibility (1/GPa) = 0.02330518
#
# Stress axis : x y z
#
# Youngs Moduli (GPa) = 51.99658 51.99658 71.30341
#
# Poissons Ratio (x) = 0.58179 0.12131
# Poissons Ratio (y) = 0.58179 0.12131
# Poissons Ratio (z) = 0.08846 0.08846
#
# Static dielectric constant tensor:
#      x y z
#    x 1.972600 0.000000 0.000000 
#    y 0.000000 1.972600 0.000000 
#    z 0.000000 0.000000 2.059640 
# 
# From -- ./inp_files/614.got.cif
#   From: 2010.05.17/outbox.cif.g08.bks.cpg/sg78_cif.got.tgz:614.got - 2010.06.03 18:45:56.
