data_PCOD9541502
_publ_section_title
;
Structure prediction by ZEFSAII (Michael W. Deem and Ramdas Pophale) SiO2 
 PCOD9541502
Probable space group: P 42
;
_chemical_formula_sum "Si O2"
_cell_formula_units_Z 20
_cell_length_a 7.849371
_cell_length_b 7.849371
_cell_length_c 12.681681
_cell_angle_alpha 90.000000
_cell_angle_beta 90.000000
_cell_angle_gamma 90.000000
_cell_volume 781.351657
_symmetry_space_group_name_H-M "P 42"
_symmetry_group_IT_number 77
_symmetry_cell_setting 'tetragonal'
loop_
_space_group_symop_operation_xyz
x,y,z
-y,x,1/2+z
-x,-y,z
y,-x,1/2+z
loop_
_atom_site_type_symbol
_atom_site_label
_atom_site_fract_x
_atom_site_fract_y
_atom_site_fract_z
Si Si1 0.670063 0.255652 0.035510
Si Si2 0.215792 0.400781 0.303794
Si Si3 0.255354 0.426021 0.762590
Si Si4 0.813662 0.025732 0.642847
Si Si5 0.602323 0.171293 0.487478
O O1 0.575969 0.203507 0.141965
O O2 0.860976 0.200349 0.067253
O O3 0.597130 0.179919 0.927992
O O4 0.684170 0.462131 0.014577
O O5 0.376072 0.273219 0.291669
O O6 0.308733 0.573411 0.265193
O O7 0.062423 0.323128 0.235324
O O8 0.158194 0.353677 0.864354
O O9 0.766685 0.177666 0.561596
O O10 0.000000 0.000000 0.690476
O O11 0.500000 0.000000 0.516225
#
# Coordination Sequence:
#
# PCOD9541502 Si02
#       5
#     4   4   4   4   4
#     4  10  22  40  64  95 131 174 222 277 341 403
#     4  10  23  39  67 103 128 174 233 275 348 413
#     4  10  21  38  71  95 133 168 225 293 331 408
#     4  11  24  42  65  90 135 178 223 278 342 411
#     4   9  20  40  64  92 133 174 218 273 345 406
#
# _framework density 25.596668999999999
#
# number of rings (size 3 to 8) (size 9 to 14) (size 15 to 20)
#    0.000    2.000    2.000    0.000    2.800    8.800 
#    0.000    0.000    4.400    0.000    0.000    0.000 
#    0.000    0.000    0.000    0.000    0.000    0.000 
#
# Total GULP energy -111557.860115 kJ/mol
# GULP energy per Si atom -5577.893006 kJ/mol
# Density = 2.553841 g / cm^3
# Si number density = 25.596669 Si / 1000 Ang^3
#
#
#
# Elastic Constant Matrix: (Units=GPa)
#
#
# Indices 1 2 3 4 5 6 
#
# 1 70.3961 24.3427 12.9281 0.0000 0.0000 -7.3019
# 2 24.3427 70.3961 12.9281 0.0000 0.0000 7.3019
# 3 12.9281 12.9281 213.8023 0.0000 0.0000 0.0000
# 4 0.0000 0.0000 0.0000 13.2604 0.0000 0.0000
# 5 0.0000 0.0000 0.0000 0.0000 13.2604 0.0000
# 6 -7.3019 7.3019 0.0000 0.0000 0.0000 12.1664
#
#
#
# Elastic Compliance Matrix: (Units=1/GPa)
#
#
# Indices 1 2 3 4 5 6 
#
# 1 0.018775 -0.008043 -0.000649 0.000000 0.000000 0.016095
# 2 -0.008043 0.018775 -0.000649 0.000000 0.000000 -0.016095
# 3 -0.000649 -0.000649 0.004756 0.000000 0.000000 0.000000
# 4 0.000000 0.000000 0.000000 0.075412 0.000000 0.000000
# 5 0.000000 0.000000 0.000000 0.000000 0.075412 0.000000
# 6 0.016095 -0.016095 0.000000 0.000000 0.000000 0.101513
#
#
# Mechanical properties :
#
#
# Convention : Reuss Voigt Hill
#
# Bulk Modulus (GPa) = 42.32848 50.55469 46.44159
# Shear Modulus (GPa) = 15.56667 28.03051 21.79859
#
# Velocity S-wave (km/s) = 2.46875 3.31280 2.92142
# Velocity P-wave (km/s) = 4.96980 5.86738 5.43715
#
# Compressibility (1/GPa) = 0.02362476
#
# Stress axis : x y z
#
# Youngs Moduli (GPa) = 53.26210 53.26210 210.27395
#
# Poissons Ratio (x) = 0.42837 0.13646
# Poissons Ratio (y) = 0.42837 0.13646
# Poissons Ratio (z) = 0.03457 0.03457
#
# Static dielectric constant tensor:
#      x y z
#    x 2.131130 0.000000 0.000000 
#    y 0.000000 2.131130 0.000000 
#    z 0.000000 0.000000 1.978500 
# 
# From -- ./inp_files/796.got.cif
#   From: 2010.05.17/outbox.cif.g08.bks.cpg/sg77_cif.got.tgz:796.got - 2010.06.03 18:44:51.
