data_PCOD9541456
_publ_section_title
;
Structure prediction by ZEFSAII (Michael W. Deem and Ramdas Pophale) SiO2 
 PCOD9541456
Probable space group: P 41
;
_chemical_formula_sum "Si O2"
_cell_formula_units_Z 28
_cell_length_a 12.000000
_cell_length_b 12.000000
_cell_length_c 9.000000
_cell_angle_alpha 90.000000
_cell_angle_beta 90.000000
_cell_angle_gamma 90.000000
_cell_volume 1296.000000
_symmetry_space_group_name_H-M "P 41"
_symmetry_group_IT_number 76
_symmetry_cell_setting 'tetragonal'
loop_
_space_group_symop_operation_xyz
x,y,z
-y,x,1/4+z
-x,-y,1/2+z
y,-x,3/4+z
loop_
_atom_site_type_symbol
_atom_site_label
_atom_site_fract_x
_atom_site_fract_y
_atom_site_fract_z
Si Si1 0.728520 0.572609 0.082400
Si Si2 0.911667 0.575490 0.585234
Si Si3 0.474506 0.376990 0.098804
Si Si4 0.843178 0.342016 0.040063
Si Si5 0.722005 0.690141 0.779334
Si Si6 0.132144 0.297741 0.788447
Si Si7 0.103860 0.675967 0.201436
O O1 0.654384 0.571417 0.231655
O O2 0.771753 0.447295 0.088103
O O3 0.828506 0.651695 0.131956
O O4 0.687658 0.613294 0.922498
O O5 0.824686 0.630726 0.698917
O O6 0.873001 0.607144 0.417026
O O7 0.919351 0.444319 0.623899
O O8 0.032253 0.633347 0.595656
O O9 0.529230 0.414032 0.252393
O O10 0.376463 0.298002 0.158396
O O11 0.793862 0.222590 0.084868
O O12 0.839950 0.348867 0.860425
O O13 0.742281 0.811324 0.848091
O O14 0.007295 0.260671 0.752612
#
# Coordination Sequence:
#
# PCOD9541456 Si02
#       7
#     4   4   4   4   4   4   4
#     4  12  22  40  70  98 135 179 232 293 358 425
#     4  11  24  44  69 104 136 184 241 296 352 437
#     4  12  26  40  60  96 143 190 229 290 364 442
#     4  11  23  43  71 100 138 182 235 295 362 426
#     4  12  24  42  69 103 139 181 244 293 357 431
#     4  11  24  44  68 102 139 185 235 293 359 422
#     4  11  23  43  71 101 142 183 236 294 354 433
#
# _framework density 21.604938000000001
#
# number of rings (size 3 to 8) (size 9 to 14) (size 15 to 20)
#    0.000    0.571    4.286    5.143    0.000    0.000 
#    5.143    0.000   12.571    0.000    0.000    0.000 
#    0.000    0.000    0.000    0.000    0.000    0.000 
#
# Total GULP energy -156252.274313 kJ/mol
# GULP energy per Si atom -5580.438368 kJ/mol
# Density = 2.155576 g / cm^3
# Si number density = 21.604938 Si / 1000 Ang^3
#
#
#
# Elastic Constant Matrix: (Units=GPa)
#
#
# Indices 1 2 3 4 5 6 
#
# 1 61.8545 42.2144 19.7804 0.0000 0.0000 -1.8720
# 2 42.2144 61.8545 19.7804 0.0000 0.0000 1.8720
# 3 19.7804 19.7804 101.9635 0.0000 0.0000 0.0000
# 4 0.0000 0.0000 0.0000 32.5177 0.0000 0.0000
# 5 0.0000 0.0000 0.0000 0.0000 32.5177 0.0000
# 6 -1.8720 1.8720 0.0000 0.0000 0.0000 22.7336
#
#
#
# Elastic Compliance Matrix: (Units=1/GPa)
#
#
# Indices 1 2 3 4 5 6 
#
# 1 0.031051 -0.020677 -0.002013 0.000000 0.000000 0.004260
# 2 -0.020677 0.031051 -0.002013 0.000000 0.000000 -0.004260
# 3 -0.002013 -0.002013 0.010588 0.000000 0.000000 0.000000
# 4 0.000000 0.000000 0.000000 0.030753 0.000000 0.000000
# 5 0.000000 0.000000 0.000000 0.000000 0.030753 0.000000
# 6 0.004260 -0.004260 0.000000 0.000000 0.000000 0.044689
#
#
# Mechanical properties :
#
#
# Convention : Reuss Voigt Hill
#
# Bulk Modulus (GPa) = 42.94367 43.24699 43.09533
# Shear Modulus (GPa) = 21.18185 27.14695 24.16440
#
# Velocity S-wave (km/s) = 3.13456 3.54858 3.34798
# Velocity P-wave (km/s) = 5.74635 6.07047 5.91063
#
# Compressibility (1/GPa) = 0.02328632
#
# Stress axis : x y z
#
# Youngs Moduli (GPa) = 32.20493 32.20493 94.44416
#
# Poissons Ratio (x) = 0.66590 0.19007
# Poissons Ratio (y) = 0.66590 0.19007
# Poissons Ratio (z) = 0.06481 0.06481
#
# Static dielectric constant tensor:
#      x y z
#    x 1.904430 0.000000 0.000000 
#    y 0.000000 1.904430 0.000000 
#    z 0.000000 0.000000 1.786050 
# 
# From -- ./inp_files/591.got.cif
#   From: 2010.05.17/outbox.ucp.g08.bks.cvg/sg76_cif.got.tgz:591.got - 2010.06.11 16:41:58.
