data_PCOD9541225
_publ_section_title
;
Structure prediction by ZEFSAII (Michael W. Deem and Ramdas Pophale) SiO2 
 PCOD9541225
Probable space group: P 41
;
_chemical_formula_sum "Si O2"
_cell_formula_units_Z 24
_cell_length_a 10.081108
_cell_length_b 10.081108
_cell_length_c 9.914752
_cell_angle_alpha 90.000000
_cell_angle_beta 90.000000
_cell_angle_gamma 90.000000
_cell_volume 1007.623738
_symmetry_space_group_name_H-M "P 41"
_symmetry_group_IT_number 76
_symmetry_cell_setting 'tetragonal'
loop_
_space_group_symop_operation_xyz
x,y,z
-y,x,1/4+z
-x,-y,1/2+z
y,-x,3/4+z
loop_
_atom_site_type_symbol
_atom_site_label
_atom_site_fract_x
_atom_site_fract_y
_atom_site_fract_z
Si Si1 0.950208 0.647558 0.757570
Si Si2 0.144771 0.624832 0.342529
Si Si3 0.912549 0.879610 0.959146
Si Si4 0.377295 0.222591 0.877093
Si Si5 0.522424 0.389462 0.281041
Si Si6 0.335533 0.864238 0.733485
O O1 0.861377 0.518655 0.777489
O O2 0.962163 0.745156 0.883518
O O3 0.886083 0.724803 0.631442
O O4 0.085544 0.587008 0.696913
O O5 0.153982 0.759877 0.256511
O O6 0.241521 0.605967 0.469514
O O7 0.002013 0.636177 0.416216
O O8 0.910310 0.997078 0.843402
O O9 0.438957 0.338806 0.965228
O O10 0.218727 0.232463 0.896932
O O11 0.534935 0.416958 0.439051
O O12 0.536329 0.232483 0.248073
#
# Coordination Sequence:
#
# PCOD9541225 Si02
#       6
#     4   4   4   4   4   4
#     4  11  24  43  74 101 140 190 247 295 367 444
#     4  11  24  43  74 101 140 190 247 295 367 444
#     4  12  30  45  75 118 150 192 252 314 377 445
#     4   9  22  42  66  92 139 183 230 294 361 430
#     4  10  22  39  65  94 138 186 232 296 365 431
#     4   9  22  42  66  92 139 183 230 294 361 430
#
# _framework density 23.818415000000002
#
# number of rings (size 3 to 8) (size 9 to 14) (size 15 to 20)
#    1.000    0.667    0.000    3.000   11.667    4.000 
#    0.000    0.000    0.000    0.000    0.000    0.000 
#    0.000    0.000    0.000    0.000    0.000    0.000 
#
# Total GULP energy -133756.954894 kJ/mol
# GULP energy per Si atom -5573.206454 kJ/mol
# Density = 2.376420 g / cm^3
# Si number density = 23.818415 Si / 1000 Ang^3
#
#
#
# Elastic Constant Matrix: (Units=GPa)
#
#
# Indices 1 2 3 4 5 6 
#
# 1 68.9525 -13.1812 31.0770 0.0000 0.0000 -4.0572
# 2 -13.1812 68.9525 31.0770 0.0000 0.0000 4.0572
# 3 31.0770 31.0770 110.9974 0.0000 0.0000 0.0000
# 4 0.0000 0.0000 0.0000 29.0000 0.0000 0.0000
# 5 0.0000 0.0000 0.0000 0.0000 29.0000 0.0000
# 6 -4.0572 4.0572 0.0000 0.0000 0.0000 17.8665
#
#
#
# Elastic Compliance Matrix: (Units=1/GPa)
#
#
# Indices 1 2 3 4 5 6 
#
# 1 0.019259 0.006804 -0.007297 0.000000 0.000000 0.002828
# 2 0.006804 0.019259 -0.007297 0.000000 0.000000 -0.002828
# 3 -0.007297 -0.007297 0.013095 0.000000 0.000000 0.000000
# 4 0.000000 0.000000 0.000000 0.034483 0.000000 0.000000
# 5 0.000000 0.000000 0.000000 0.000000 0.034483 0.000000
# 6 0.002828 -0.002828 0.000000 0.000000 0.000000 0.057255
#
#
# Mechanical properties :
#
#
# Convention : Reuss Voigt Hill
#
# Bulk Modulus (GPa) = 27.75289 38.53867 33.14578
# Shear Modulus (GPa) = 24.33993 28.50195 26.42094
#
# Velocity S-wave (km/s) = 3.20018 3.46299 3.33418
# Velocity P-wave (km/s) = 5.03309 5.67495 5.36363
#
# Compressibility (1/GPa) = 0.03603228
#
# Stress axis : x y z
#
# Youngs Moduli (GPa) = 51.92493 51.92493 76.36376
#
# Poissons Ratio (x) = -0.35329 0.55722
# Poissons Ratio (y) = -0.35329 0.55722
# Poissons Ratio (z) = 0.37889 0.37889
#
# Static dielectric constant tensor:
#      x y z
#    x 2.008450 0.000000 0.000000 
#    y 0.000000 2.008450 0.000000 
#    z 0.000000 0.000000 2.019210 
# 
# From -- ./inp_files/575.got.cif
#   From: 2010.05.17/outbox.cif.g08.bks.cpg/sg76_cif.got.tgz:575.got - 2010.06.03 18:43:17.
