data_PCOD9541176
_publ_section_title
;
Structure prediction by ZEFSAII (Michael W. Deem and Ramdas Pophale) SiO2 
 PCOD9541176
Probable space group: P 41
;
_chemical_formula_sum "Si O2"
_cell_formula_units_Z 20
_cell_length_a 11.870683
_cell_length_b 11.870683
_cell_length_c 6.830443
_cell_angle_alpha 90.000000
_cell_angle_beta 90.000000
_cell_angle_gamma 90.000000
_cell_volume 962.498999
_symmetry_space_group_name_H-M "P 41"
_symmetry_group_IT_number 76
_symmetry_cell_setting 'tetragonal'
loop_
_space_group_symop_operation_xyz
x,y,z
-y,x,1/4+z
-x,-y,1/2+z
y,-x,3/4+z
loop_
_atom_site_type_symbol
_atom_site_label
_atom_site_fract_x
_atom_site_fract_y
_atom_site_fract_z
Si Si1 0.246252 0.333540 0.213130
Si Si2 0.359738 0.047336 0.466901
Si Si3 0.849330 0.504973 0.045270
Si Si4 0.095583 0.870560 0.031052
Si Si5 0.467342 0.229888 0.189150
O O1 0.192042 0.409836 0.380770
O O2 0.180477 0.214239 0.200326
O O3 0.376388 0.317493 0.271013
O O4 0.241919 0.407660 0.018369
O O5 0.402944 0.095180 0.673621
O O6 0.225946 0.055400 0.436426
O O7 0.415402 0.116628 0.285393
O O8 0.419468 0.928908 0.433863
O O9 0.764313 0.457836 0.205802
O O10 0.118120 0.992380 0.128419
#
# Coordination Sequence:
#
# PCOD9541176 Si02
#       5
#     4   4   4   4   4
#     4  10  24  44  67  99 134 172 228 274 340 404
#     4  10  21  39  66  97 128 175 230 271 323 398
#     4  11  20  41  70  92 132 175 227 281 325 397
#     4  11  24  45  64 100 142 179 221 277 343 404
#     4  10  23  41  67 100 126 175 222 279 335 393
#
# _framework density 20.779242
#
# number of rings (size 3 to 8) (size 9 to 14) (size 15 to 20)
#    0.000    1.600    4.000    0.000    0.000    6.400 
#   10.800    0.000    0.000    0.000    0.000    0.000 
#    0.000    0.000    0.000    0.000    0.000    0.000 
#
# Total GULP energy -111466.710199 kJ/mol
# GULP energy per Si atom -5573.335510 kJ/mol
# Density = 2.073195 g / cm^3
# Si number density = 20.779242 Si / 1000 Ang^3
#
#
#
# Elastic Constant Matrix: (Units=GPa)
#
#
# Indices 1 2 3 4 5 6 
#
# 1 83.8441 43.5037 27.6919 0.0000 0.0000 5.9923
# 2 43.5037 83.8441 27.6919 0.0000 0.0000 -5.9923
# 3 27.6919 27.6919 92.2527 0.0000 0.0000 0.0000
# 4 0.0000 0.0000 0.0000 16.8833 0.0000 0.0000
# 5 0.0000 0.0000 0.0000 0.0000 16.8833 0.0000
# 6 5.9923 -5.9923 0.0000 0.0000 0.0000 16.0622
#
#
#
# Elastic Compliance Matrix: (Units=1/GPa)
#
#
# Indices 1 2 3 4 5 6 
#
# 1 0.018455 -0.009424 -0.002711 0.000000 0.000000 -0.010401
# 2 -0.009424 0.018455 -0.002711 0.000000 0.000000 0.010401
# 3 -0.002711 -0.002711 0.012467 0.000000 0.000000 0.000000
# 4 0.000000 0.000000 0.000000 0.059230 0.000000 0.000000
# 5 0.000000 0.000000 0.000000 0.000000 0.059230 0.000000
# 6 -0.010401 0.010401 0.000000 0.000000 0.000000 0.070019
#
#
# Mechanical properties :
#
#
# Convention : Reuss Voigt Hill
#
# Bulk Modulus (GPa) = 50.79674 50.85731 50.82703
# Shear Modulus (GPa) = 18.24082 20.70264 19.47173
#
# Velocity S-wave (km/s) = 2.96605 3.15987 3.06449
# Velocity P-wave (km/s) = 6.01904 6.15152 6.08564
#
# Compressibility (1/GPa) = 0.01968630
#
# Stress axis : x y z
#
# Youngs Moduli (GPa) = 54.18505 54.18505 80.20944
#
# Poissons Ratio (x) = 0.51063 0.21745
# Poissons Ratio (y) = 0.51063 0.21745
# Poissons Ratio (z) = 0.14690 0.14690
#
# Static dielectric constant tensor:
#      x y z
#    x 1.803980 0.000000 0.000000 
#    y 0.000000 1.803980 0.000000 
#    z 0.000000 0.000000 1.766840 
# 
# From -- ./inp_files/147.got.cif
#   From: 2010.05.17/outbox.cif.g08.bks.cpg/sg76_cif.got.tgz:147.got - 2010.06.03 18:43:17.
