data_PCOD9541433
_publ_section_title
;
Structure prediction by ZEFSAII (Michael W. Deem and Ramdas Pophale) SiO2 
 PCOD9541433
Probable space group: P 41
;
_chemical_formula_sum "Si O2"
_cell_formula_units_Z 24
_cell_length_a 7.058396
_cell_length_b 7.058396
_cell_length_c 19.324579
_cell_angle_alpha 90.000000
_cell_angle_beta 90.000000
_cell_angle_gamma 90.000000
_cell_volume 962.768963
_symmetry_space_group_name_H-M "P 41"
_symmetry_group_IT_number 76
_symmetry_cell_setting 'tetragonal'
loop_
_space_group_symop_operation_xyz
x,y,z
-y,x,1/4+z
-x,-y,1/2+z
y,-x,3/4+z
loop_
_atom_site_type_symbol
_atom_site_label
_atom_site_fract_x
_atom_site_fract_y
_atom_site_fract_z
Si Si1 0.907544 0.678881 0.701910
Si Si2 0.314870 0.900763 0.524353
Si Si3 0.276660 0.119699 0.320540
Si Si4 0.487336 0.732689 0.309979
Si Si5 0.115956 0.015513 0.656447
Si Si6 0.574041 0.433919 0.660856
O O1 0.846588 0.845469 0.753766
O O2 0.705396 0.620021 0.669907
O O3 0.000856 0.490143 0.734805
O O4 0.065944 0.793278 0.659693
O O5 0.362354 0.694450 0.552879
O O6 0.259921 0.028580 0.591170
O O7 0.430133 0.641002 0.384238
O O8 0.128629 0.847023 0.477383
O O9 0.349835 0.322199 0.343609
O O10 0.434947 0.956248 0.314919
O O11 0.131180 0.063350 0.379762
O O12 0.403126 0.672442 0.234416
#
# Coordination Sequence:
#
# PCOD9541433 Si02
#       6
#     4   4   4   4   4   4
#     4  12  27  49  80 119 152 215 270 331 414 485
#     4  12  29  48  81 116 166 210 273 332 415 487
#     4  12  25  50  77 112 159 205 266 330 407 476
#     4  12  29  49  77 118 160 213 266 336 402 488
#     4  12  26  51  79 112 165 208 264 341 399 485
#     4  12  26  49  78 111 158 207 267 332 399 485
#
# _framework density 24.928099
#
# number of rings (size 3 to 8) (size 9 to 14) (size 15 to 20)
#    0.000    0.000    5.000    4.000    7.000    2.667 
#    0.000    0.000    0.000    0.000    0.000    0.000 
#    0.000    0.000    0.000    0.000    0.000    0.000 
#
# Total GULP energy -133845.464469 kJ/mol
# GULP energy per Si atom -5576.894353 kJ/mol
# Density = 2.487136 g / cm^3
# Si number density = 24.928099 Si / 1000 Ang^3
#
#
#
# Elastic Constant Matrix: (Units=GPa)
#
#
# Indices 1 2 3 4 5 6 
#
# 1 104.1294 11.1283 21.6077 0.0000 0.0000 -1.3720
# 2 11.1283 104.1294 21.6077 0.0000 0.0000 1.3720
# 3 21.6077 21.6077 85.6268 0.0000 0.0000 0.0000
# 4 0.0000 0.0000 0.0000 41.7343 0.0000 0.0000
# 5 0.0000 0.0000 0.0000 0.0000 41.7343 0.0000
# 6 -1.3720 1.3720 0.0000 0.0000 0.0000 20.0722
#
#
#
# Elastic Compliance Matrix: (Units=1/GPa)
#
#
# Indices 1 2 3 4 5 6 
#
# 1 0.010179 -0.000596 -0.002418 0.000000 0.000000 0.000736
# 2 -0.000596 0.010179 -0.002418 0.000000 0.000000 -0.000736
# 3 -0.002418 -0.002418 0.012899 0.000000 0.000000 0.000000
# 4 0.000000 0.000000 0.000000 0.023961 0.000000 0.000000
# 5 0.000000 0.000000 0.000000 0.000000 0.023961 0.000000
# 6 0.000736 -0.000736 0.000000 0.000000 0.000000 0.049921
#
#
# Mechanical properties :
#
#
# Convention : Reuss Voigt Hill
#
# Bulk Modulus (GPa) = 44.65886 44.73035 44.69461
# Shear Modulus (GPa) = 33.46103 36.67762 35.06932
#
# Velocity S-wave (km/s) = 3.66772 3.83996 3.75483
# Velocity P-wave (km/s) = 5.99084 6.13540 6.06355
#
# Compressibility (1/GPa) = 0.02239197
#
# Stress axis : x y z
#
# Youngs Moduli (GPa) = 98.24534 98.24534 77.52508
#
# Poissons Ratio (x) = 0.05852 0.18747
# Poissons Ratio (y) = 0.05852 0.18747
# Poissons Ratio (z) = 0.23758 0.23758
#
# Static dielectric constant tensor:
#      x y z
#    x 2.100490 0.000000 0.000000 
#    y 0.000000 2.100490 0.000000 
#    z 0.000000 0.000000 2.325890 
# 
# From -- ./inp_files/1205.got.cif
#   From: 2010.05.17/outbox.cif.g08.bks.cpg/sg76_cif.got.tgz:1205.got - 2010.06.03 18:43:17.
