data_PCOD9541271
_publ_section_title
;
Structure prediction by ZEFSAII (Michael W. Deem and Ramdas Pophale) SiO2 
 PCOD9541271
Probable space group: P 41
;
_chemical_formula_sum "Si O2"
_cell_formula_units_Z 28
_cell_length_a 15.656932
_cell_length_b 15.656932
_cell_length_c 5.479530
_cell_angle_alpha 90.000000
_cell_angle_beta 90.000000
_cell_angle_gamma 90.000000
_cell_volume 1343.249352
_symmetry_space_group_name_H-M "P 41"
_symmetry_group_IT_number 76
_symmetry_cell_setting 'tetragonal'
loop_
_space_group_symop_operation_xyz
x,y,z
-y,x,1/4+z
-x,-y,1/2+z
y,-x,3/4+z
loop_
_atom_site_type_symbol
_atom_site_label
_atom_site_fract_x
_atom_site_fract_y
_atom_site_fract_z
Si Si1 0.165012 0.666227 0.421480
Si Si2 0.002947 0.633885 0.169247
Si Si3 0.247062 0.494384 0.593058
Si Si4 0.565324 0.606419 0.599682
Si Si5 0.644388 0.142603 0.601932
Si Si6 0.109603 0.494085 0.965988
Si Si7 0.744957 0.284769 0.418500
O O1 0.062832 0.672013 0.379491
O O2 0.197327 0.567458 0.441109
O O3 0.198112 0.704003 0.676374
O O4 0.208445 0.705172 0.179621
O O5 0.946653 0.555124 0.267533
O O6 0.072792 0.587840 0.999480
O O7 0.931591 0.684493 0.018348
O O8 0.345413 0.519040 0.619432
O O9 0.219551 0.401357 0.501886
O O10 0.205220 0.499099 0.863690
O O11 0.487901 0.598335 0.789280
O O12 0.644519 0.669080 0.655626
O O13 0.566356 0.103041 0.449456
O O14 0.706370 0.189766 0.417613
#
# Coordination Sequence:
#
# PCOD9541271 Si02
#       7
#     4   4   4   4   4   4   4
#     4  11  24  43  62  87 123 165 212 261 335 394
#     4  11  20  35  63  92 119 159 208 272 328 408
#     4  10  23  37  57  81 119 160 216 280 329 384
#     4  11  26  39  58  79 111 172 243 292 321 358
#     4  11  24  36  64  84 127 161 215 270 343 391
#     4  11  19  35  59  95 118 154 206 270 335 393
#     4  11  28  43  61  86 127 173 212 279 333 384
#
# _framework density 20.844978000000001
#
# number of rings (size 3 to 8) (size 9 to 14) (size 15 to 20)
#    0.000    1.143    2.857    3.429   14.000    0.000 
#    0.000    0.000    0.000    0.000    0.000    0.000 
#    0.000    0.000    4.857    0.000    0.000    0.000 
#
# Total GULP energy -156352.312882 kJ/mol
# GULP energy per Si atom -5584.011174 kJ/mol
# Density = 2.079753 g / cm^3
# Si number density = 20.844978 Si / 1000 Ang^3
#
#
#
# Elastic Constant Matrix: (Units=GPa)
#
#
# Indices 1 2 3 4 5 6 
#
# 1 76.7043 34.5391 34.1797 0.0000 0.0000 -0.2172
# 2 34.5391 76.7043 34.1797 0.0000 0.0000 0.2172
# 3 34.1797 34.1797 99.0597 0.0000 0.0000 0.0000
# 4 0.0000 0.0000 0.0000 27.4344 0.0000 0.0000
# 5 0.0000 0.0000 0.0000 0.0000 27.4344 0.0000
# 6 -0.2172 0.2172 0.0000 0.0000 0.0000 11.3726
#
#
#
# Elastic Compliance Matrix: (Units=1/GPa)
#
#
# Indices 1 2 3 4 5 6 
#
# 1 0.017565 -0.006156 -0.003936 0.000000 0.000000 0.000453
# 2 -0.006156 0.017565 -0.003936 0.000000 0.000000 -0.000453
# 3 -0.003936 -0.003936 0.012811 0.000000 0.000000 0.000000
# 4 0.000000 0.000000 0.000000 0.036451 0.000000 0.000000
# 5 0.000000 0.000000 0.000000 0.000000 0.036451 0.000000
# 6 0.000453 -0.000453 0.000000 0.000000 0.000000 0.087948
#
#
# Mechanical properties :
#
#
# Convention : Reuss Voigt Hill
#
# Bulk Modulus (GPa) = 50.29563 50.91839 50.60701
# Shear Modulus (GPa) = 20.53603 23.21960 21.87782
#
# Velocity S-wave (km/s) = 3.14216 3.34116 3.24319
# Velocity P-wave (km/s) = 6.11106 6.27413 6.19313
#
# Compressibility (1/GPa) = 0.01988244
#
# Stress axis : x y z
#
# Youngs Moduli (GPa) = 56.93292 56.93292 78.05617
#
# Poissons Ratio (x) = 0.35050 0.30725
# Poissons Ratio (y) = 0.35050 0.30725
# Poissons Ratio (z) = 0.22410 0.22410
#
# Static dielectric constant tensor:
#      x y z
#    x 1.781530 0.000000 0.000000 
#    y 0.000000 1.781530 0.000000 
#    z 0.000000 0.000000 1.858900 
# 
# From -- ./inp_files/248.got.cif
#   From: 2010.05.17/outbox.cif.g08.bks.cpg/sg76_cif.got.tgz:248.got - 2010.06.03 18:43:17.
