data_PCOD9541605
_publ_section_title
;
Structure prediction by ZEFSAII (Michael W. Deem and Ramdas Pophale) SiO2 
 PCOD9541605
Probable space group: P 43
;
_chemical_formula_sum "Si O2"
_cell_formula_units_Z 28
_cell_length_a 8.778757
_cell_length_b 8.778757
_cell_length_c 17.125643
_cell_angle_alpha 90.000000
_cell_angle_beta 90.000000
_cell_angle_gamma 90.000000
_cell_volume 1319.814642
_symmetry_space_group_name_H-M "P 43"
_symmetry_group_IT_number 78
_symmetry_cell_setting 'tetragonal'
loop_
_space_group_symop_operation_xyz
x,y,z
-y,x,3/4+z
-x,-y,1/2+z
y,-x,1/4+z
loop_
_atom_site_type_symbol
_atom_site_label
_atom_site_fract_x
_atom_site_fract_y
_atom_site_fract_z
Si Si1 0.799667 0.561020 0.787260
Si Si2 0.666472 0.009345 0.898578
Si Si3 0.775501 0.158760 0.259345
Si Si4 0.557065 0.811906 0.767321
Si Si5 0.772029 0.847203 0.536013
Si Si6 0.924948 0.671773 0.402874
Si Si7 0.076990 0.671871 0.896865
O O1 0.877929 0.573243 0.702891
O O2 0.656976 0.668436 0.786474
O O3 0.760627 0.386657 0.801326
O O4 0.925554 0.630873 0.845817
O O5 0.782151 0.098924 0.842884
O O6 0.552867 0.915071 0.844530
O O7 0.767019 0.900021 0.952796
O O8 0.611716 0.235425 0.245486
O O9 0.740770 0.987295 0.228118
O O10 0.829964 0.205076 0.346201
O O11 0.639582 0.920094 0.703600
O O12 0.728362 0.016195 0.568000
O O13 0.830433 0.799501 0.449975
O O14 0.852010 0.500065 0.403184
#
# Coordination Sequence:
#
# PCOD9541605 Si02
#       7
#     4   4   4   4   4   4   4
#     4  10  19  36  61  85 115 159 208 252 303 355
#     4  10  20  36  58  86 116 156 202 256 298 364
#     4  10  20  36  61  87 121 158 204 250 304 368
#     4  10  19  36  61  85 115 159 208 252 303 355
#     4  10  20  36  61  87 121 158 204 250 304 368
#     4   9  19  37  59  91 121 160 201 256 302 361
#     4   9  19  37  59  91 121 160 201 256 302 361
#
# _framework density 21.2151
#
# number of rings (size 3 to 8) (size 9 to 14) (size 15 to 20)
#    0.000    2.286    2.857    0.000    0.000    0.000 
#    5.143    4.286    0.000    0.000    0.000    0.000 
#    0.000    0.000    0.000    0.000    0.000    0.000 
#
# Total GULP energy -156015.769831 kJ/mol
# GULP energy per Si atom -5571.991780 kJ/mol
# Density = 2.116681 g / cm^3
# Si number density = 21.215100 Si / 1000 Ang^3
#
#
#
# Elastic Constant Matrix: (Units=GPa)
#
#
# Indices 1 2 3 4 5 6 
#
# 1 43.3756 21.8854 10.3042 0.0000 0.0000 2.7226
# 2 21.8854 43.3756 10.3042 0.0000 0.0000 -2.7226
# 3 10.3042 10.3042 66.5158 0.0000 0.0000 0.0000
# 4 0.0000 0.0000 0.0000 23.7540 0.0000 0.0000
# 5 0.0000 0.0000 0.0000 0.0000 23.7540 0.0000
# 6 2.7226 -2.7226 0.0000 0.0000 0.0000 19.0203
#
#
#
# Elastic Compliance Matrix: (Units=1/GPa)
#
#
# Indices 1 2 3 4 5 6 
#
# 1 0.032198 -0.016086 -0.002496 0.000000 0.000000 -0.006912
# 2 -0.016086 0.032198 -0.002496 0.000000 0.000000 0.006912
# 3 -0.002496 -0.002496 0.015807 0.000000 0.000000 0.000000
# 4 0.000000 0.000000 0.000000 0.042098 0.000000 0.000000
# 5 0.000000 0.000000 0.000000 0.000000 0.042098 0.000000
# 6 -0.006912 0.006912 0.000000 0.000000 0.000000 0.054554
#
#
# Mechanical properties :
#
#
# Convention : Reuss Voigt Hill
#
# Bulk Modulus (GPa) = 26.28372 26.47274 26.37823
# Shear Modulus (GPa) = 18.26207 20.69054 19.47631
#
# Velocity S-wave (km/s) = 2.93713 3.12633 3.03320
# Velocity P-wave (km/s) = 4.89064 5.05344 4.97271
#
# Compressibility (1/GPa) = 0.03804637
#
# Stress axis : x y z
#
# Youngs Moduli (GPa) = 31.05816 31.05816 63.26194
#
# Poissons Ratio (x) = 0.49961 0.15789
# Poissons Ratio (y) = 0.49961 0.15789
# Poissons Ratio (z) = 0.07752 0.07752
#
# Static dielectric constant tensor:
#      x y z
#    x 1.768920 0.000000 0.000000 
#    y 0.000000 1.768920 0.000000 
#    z 0.000000 0.000000 1.866830 
# 
# From -- ./inp_files/1411.got.cif
#   From: 2010.05.17/outbox.cif.g08.bks.cpg/sg78_cif.got.tgz:1411.got - 2010.06.03 18:45:56.
