data_PCOD9541088
_publ_section_title
;
Structure prediction by ZEFSAII (Michael W. Deem and Ramdas Pophale) SiO2 
 PCOD9541088
Probable space group: P 41
;
_chemical_formula_sum "Si O2"
_cell_formula_units_Z 32
_cell_length_a 11.686422
_cell_length_b 11.686422
_cell_length_c 8.623750
_cell_angle_alpha 90.000000
_cell_angle_beta 90.000000
_cell_angle_gamma 90.000000
_cell_volume 1177.766745
_symmetry_space_group_name_H-M "P 41"
_symmetry_group_IT_number 76
_symmetry_cell_setting 'tetragonal'
loop_
_space_group_symop_operation_xyz
x,y,z
-y,x,1/4+z
-x,-y,1/2+z
y,-x,3/4+z
loop_
_atom_site_type_symbol
_atom_site_label
_atom_site_fract_x
_atom_site_fract_y
_atom_site_fract_z
Si Si1 0.502532 0.401066 0.668000
Si Si2 0.191784 0.714204 0.984260
Si Si3 0.821051 0.664504 0.265013
Si Si4 0.676759 0.594487 0.523360
Si Si5 0.052135 0.245300 0.071508
Si Si6 0.949162 0.439104 0.276123
Si Si7 0.918880 0.890331 0.139370
Si Si8 0.544681 0.819141 0.981285
O O1 0.539837 0.392465 0.843286
O O2 0.590448 0.492312 0.577483
O O3 0.497581 0.276088 0.599351
O O4 0.199506 0.847141 0.936384
O O5 0.200176 0.670717 0.161080
O O6 0.296055 0.660926 0.882822
O O7 0.083577 0.644763 0.917677
O O8 0.697141 0.643912 0.350752
O O9 0.888554 0.714139 0.414257
O O10 0.862107 0.762237 0.143235
O O11 0.859983 0.536147 0.226035
O O12 0.795455 0.536658 0.582272
O O13 0.980646 0.347632 0.145751
O O14 0.962803 0.150778 0.017931
O O15 0.060698 0.516324 0.303437
O O16 0.045746 0.899688 0.222195
#
# Coordination Sequence:
#
# PCOD9541088 Si02
#       8
#     4   4   4   4   4   4   4   4
#     4  10  22  38  67  94 126 179 224 277 329 406
#     4  11  22  40  68  92 125 175 229 275 341 416
#     4  10  21  36  58  92 127 161 205 281 337 385
#     4  10  18  39  66  91 122 173 227 267 327 417
#     4  10  21  41  67  90 117 172 232 270 325 416
#     4  12  21  34  62  94 124 166 213 274 337 393
#     4  10  22  43  67  91 123 173 225 274 329 396
#     4  11  21  37  61  94 134 165 217 280 335 401
#
# _framework density 27.170067
#
# number of rings (size 3 to 8) (size 9 to 14) (size 15 to 20)
#    0.000    1.500    3.750    5.250    0.000    1.000 
#    0.000    6.250    0.000    0.000    0.000    0.000 
#    0.000    0.000    0.000    0.000    0.000    0.000 
#
# Total GULP energy -178592.865256 kJ/mol
# GULP energy per Si atom -5581.027039 kJ/mol
# Density = 2.710823 g / cm^3
# Si number density = 27.170067 Si / 1000 Ang^3
#
#
#
# Elastic Constant Matrix: (Units=GPa)
#
#
# Indices 1 2 3 4 5 6 
#
# 1 117.0401 36.0150 28.3072 0.0000 0.0000 2.5888
# 2 36.0150 117.0401 28.3072 0.0000 0.0000 -2.5888
# 3 28.3072 28.3072 91.2833 0.0000 0.0000 0.0000
# 4 0.0000 0.0000 0.0000 38.5433 0.0000 0.0000
# 5 0.0000 0.0000 0.0000 0.0000 38.5433 0.0000
# 6 2.5888 -2.5888 0.0000 0.0000 0.0000 28.9113
#
#
#
# Elastic Compliance Matrix: (Units=1/GPa)
#
#
# Indices 1 2 3 4 5 6 
#
# 1 0.009897 -0.002516 -0.002289 0.000000 0.000000 -0.001111
# 2 -0.002516 0.009897 -0.002289 0.000000 0.000000 0.001111
# 3 -0.002289 -0.002289 0.012374 0.000000 0.000000 0.000000
# 4 0.000000 0.000000 0.000000 0.025945 0.000000 0.000000
# 5 0.000000 0.000000 0.000000 0.000000 0.025945 0.000000
# 6 -0.001111 0.001111 0.000000 0.000000 0.000000 0.034788
#
#
# Mechanical properties :
#
#
# Convention : Reuss Voigt Hill
#
# Bulk Modulus (GPa) = 55.61680 56.73581 56.17630
# Shear Modulus (GPa) = 35.96471 36.71519 36.33995
#
# Velocity S-wave (km/s) = 3.64220 3.68001 3.66115
# Velocity P-wave (km/s) = 6.18076 6.24369 6.21230
#
# Compressibility (1/GPa) = 0.01798018
#
# Stress axis : x y z
#
# Youngs Moduli (GPa) = 101.04568 101.04568 80.81260
#
# Poissons Ratio (x) = 0.25427 0.18495
# Poissons Ratio (y) = 0.25427 0.18495
# Poissons Ratio (z) = 0.23125 0.23125
#
# Static dielectric constant tensor:
#      x y z
#    x 2.326000 0.000000 0.000000 
#    y 0.000000 2.326000 0.000000 
#    z 0.000000 0.000000 2.288240 
# 
# From -- ./inp_files/982.got.cif
#   From: 2010.05.17/outbox.cif.g08.bks.cpg/sg76_cif.got.tgz:982.got - 2010.06.03 18:43:17.
