data_PCOD9541273
_publ_section_title
;
Structure prediction by ZEFSAII (Michael W. Deem and Ramdas Pophale) SiO2 
 PCOD9541273
Probable space group: P 41
;
_chemical_formula_sum "Si O2"
_cell_formula_units_Z 28
_cell_length_a 8.250687
_cell_length_b 8.250687
_cell_length_c 19.452490
_cell_angle_alpha 90.000000
_cell_angle_beta 90.000000
_cell_angle_gamma 90.000000
_cell_volume 1324.205614
_symmetry_space_group_name_H-M "P 41"
_symmetry_group_IT_number 76
_symmetry_cell_setting 'tetragonal'
loop_
_space_group_symop_operation_xyz
x,y,z
-y,x,1/4+z
-x,-y,1/2+z
y,-x,3/4+z
loop_
_atom_site_type_symbol
_atom_site_label
_atom_site_fract_x
_atom_site_fract_y
_atom_site_fract_z
Si Si1 0.580345 0.459113 0.905670
Si Si2 0.242083 0.123466 0.040033
Si Si3 0.505370 0.077451 0.628579
Si Si4 0.639481 0.951516 0.758216
Si Si5 0.175498 0.234037 0.625473
Si Si6 0.371413 0.484956 0.029227
Si Si7 0.033409 0.061463 0.169387
O O1 0.746019 0.562681 0.906661
O O2 0.638847 0.276616 0.921924
O O3 0.521201 0.477523 0.828219
O O4 0.437910 0.515919 0.953589
O O5 0.313930 0.302515 0.039982
O O6 0.089705 0.113970 0.093024
O O7 0.376192 0.002210 0.073169
O O8 0.184272 0.075512 0.963790
O O9 0.326134 0.119301 0.600491
O O10 0.502345 0.976401 0.699531
O O11 0.600610 0.780482 0.792947
O O12 0.803487 0.948129 0.714177
O O13 0.667543 0.086122 0.815855
O O14 0.052417 0.112731 0.662242
#
# Coordination Sequence:
#
# PCOD9541273 Si02
#       7
#     4   4   4   4   4   4   4
#     4  10  24  44  65  98 131 176 229 275 349 403
#     4  11  24  43  70  99 140 179 230 286 354 413
#     4   9  22  42  66  96 132 176 220 289 331 416
#     4  11  22  42  67  96 138 173 230 275 351 410
#     4  10  23  40  69  98 131 175 228 287 340 410
#     4  12  25  44  68  99 137 183 222 290 342 426
#     4  11  22  43  65 104 131 180 227 284 345 420
#
# _framework density 21.144753000000001
#
# number of rings (size 3 to 8) (size 9 to 14) (size 15 to 20)
#    0.857    0.571    1.429    4.286    2.000    2.286 
#    2.571    0.000    0.000    0.000    0.000    0.000 
#    0.000    0.000    0.000    0.000    0.000    0.000 
#
# Total GULP energy -156069.858032 kJ/mol
# GULP energy per Si atom -5573.923501 kJ/mol
# Density = 2.109663 g / cm^3
# Si number density = 21.144753 Si / 1000 Ang^3
#
#
#
# Elastic Constant Matrix: (Units=GPa)
#
#
# Indices 1 2 3 4 5 6 
#
# 1 88.6701 26.4760 18.1862 0.0000 0.0000 -9.4599
# 2 26.4760 88.6701 18.1862 0.0000 0.0000 9.4599
# 3 18.1862 18.1862 45.9051 0.0000 0.0000 0.0000
# 4 0.0000 0.0000 0.0000 28.0844 0.0000 0.0000
# 5 0.0000 0.0000 0.0000 0.0000 28.0844 0.0000
# 6 -9.4599 9.4599 0.0000 0.0000 0.0000 36.8610
#
#
#
# Elastic Compliance Matrix: (Units=1/GPa)
#
#
# Indices 1 2 3 4 5 6 
#
# 1 0.013684 -0.003757 -0.003933 0.000000 0.000000 0.004476
# 2 -0.003757 0.013684 -0.003933 0.000000 0.000000 -0.004476
# 3 -0.003933 -0.003933 0.024900 0.000000 0.000000 0.000000
# 4 0.000000 0.000000 0.000000 0.035607 0.000000 0.000000
# 5 0.000000 0.000000 0.000000 0.000000 0.035607 0.000000
# 6 0.004476 -0.004476 0.000000 0.000000 0.000000 0.029426
#
#
# Mechanical properties :
#
#
# Convention : Reuss Voigt Hill
#
# Bulk Modulus (GPa) = 34.45546 38.77137 36.61342
# Shear Modulus (GPa) = 26.90687 29.29909 28.10298
#
# Velocity S-wave (km/s) = 3.57109 3.72646 3.64960
# Velocity P-wave (km/s) = 5.77356 6.07382 5.92559
#
# Compressibility (1/GPa) = 0.02902297
#
# Stress axis : x y z
#
# Youngs Moduli (GPa) = 73.08032 73.08032 40.16042
#
# Poissons Ratio (x) = 0.27454 0.15794
# Poissons Ratio (y) = 0.27454 0.15794
# Poissons Ratio (z) = 0.28741 0.28741
#
# Static dielectric constant tensor:
#      x y z
#    x 1.784400 0.000000 0.000000 
#    y 0.000000 1.784400 0.000000 
#    z 0.000000 0.000000 1.764630 
# 
# From -- ./inp_files/1279.got.cif
#   From: 2010.05.17/outbox.cif.g08.bks.cpg/sg76_cif.got.tgz:1279.got - 2010.06.03 18:43:17.
