data_PCOD9541401
_publ_section_title
;
Structure prediction by ZEFSAII (Michael W. Deem and Ramdas Pophale) SiO2 
 PCOD9541401
Probable space group: P 41
;
_chemical_formula_sum "Si O2"
_cell_formula_units_Z 28
_cell_length_a 13.731374
_cell_length_b 13.731374
_cell_length_c 6.702190
_cell_angle_alpha 90.000000
_cell_angle_beta 90.000000
_cell_angle_gamma 90.000000
_cell_volume 1263.702160
_symmetry_space_group_name_H-M "P 41"
_symmetry_group_IT_number 76
_symmetry_cell_setting 'tetragonal'
loop_
_space_group_symop_operation_xyz
x,y,z
-y,x,1/4+z
-x,-y,1/2+z
y,-x,3/4+z
loop_
_atom_site_type_symbol
_atom_site_label
_atom_site_fract_x
_atom_site_fract_y
_atom_site_fract_z
Si Si1 0.874079 0.945006 0.554390
Si Si2 0.291090 0.009464 0.359754
Si Si3 0.139880 0.386465 0.330522
Si Si4 0.408765 0.200184 0.423380
Si Si5 0.151073 0.261136 0.941587
Si Si6 0.642031 0.304869 0.907174
Si Si7 0.527088 0.628965 0.668769
O O1 0.822874 0.852590 0.452380
O O2 0.972145 0.901803 0.649600
O O3 0.807364 0.986761 0.730710
O O4 0.274930 0.945614 0.557572
O O5 0.326959 0.118394 0.399290
O O6 0.370315 0.952161 0.224805
O O7 0.235328 0.373086 0.466977
O O8 0.146819 0.490539 0.224985
O O9 0.136873 0.304421 0.160803
O O10 0.379839 0.273949 0.599492
O O11 0.421545 0.270729 0.232081
O O12 0.236165 0.321009 0.834925
O O13 0.543385 0.353851 0.980754
O O14 0.457763 0.598214 0.853541
#
# Coordination Sequence:
#
# PCOD9541401 Si02
#       7
#     4   4   4   4   4   4   4
#     4  12  25  45  75 104 141 181 239 292 363 427
#     4  11  28  44  71 104 145 184 239 290 362 432
#     4  11  24  50  67 105 148 183 237 296 347 435
#     4  12  26  43  76 102 144 193 237 291 369 421
#     4  11  25  48  69 106 145 186 230 301 353 429
#     4  11  25  45  74 102 143 187 243 291 358 424
#     4  12  25  45  72 105 142 184 243 301 358 426
#
# _framework density 22.157119000000002
#
# number of rings (size 3 to 8) (size 9 to 14) (size 15 to 20)
#    0.000    0.571    2.857    4.286    8.000    0.000 
#    0.000    0.000    0.000    0.000    0.000    0.000 
#    0.000    0.000    0.000    0.000    0.000    0.000 
#
# Total GULP energy -156861.745946 kJ/mol
# GULP energy per Si atom -5602.205212 kJ/mol
# Density = 2.210669 g / cm^3
# Si number density = 22.157119 Si / 1000 Ang^3
#
#
#
# Elastic Constant Matrix: (Units=GPa)
#
#
# Indices 1 2 3 4 5 6 
#
# 1 61.5751 -11.7188 9.5471 0.0000 0.0000 -13.2940
# 2 -11.7188 61.5751 9.5471 0.0000 0.0000 13.2940
# 3 9.5471 9.5471 75.8285 0.0000 0.0000 0.0000
# 4 0.0000 0.0000 0.0000 39.3128 0.0000 0.0000
# 5 0.0000 0.0000 0.0000 0.0000 39.3128 0.0000
# 6 -13.2940 13.2940 0.0000 0.0000 0.0000 36.1786
#
#
#
# Elastic Compliance Matrix: (Units=1/GPa)
#
#
# Indices 1 2 3 4 5 6 
#
# 1 0.018408 0.002666 -0.002653 0.000000 0.000000 0.005784
# 2 0.002666 0.018408 -0.002653 0.000000 0.000000 -0.005784
# 3 -0.002653 -0.002653 0.013856 0.000000 0.000000 0.000000
# 4 0.000000 0.000000 0.000000 0.025437 0.000000 0.000000
# 5 0.000000 0.000000 0.000000 0.000000 0.025437 0.000000
# 6 0.005784 -0.005784 0.000000 0.000000 0.000000 0.031892
#
#
# Mechanical properties :
#
#
# Convention : Reuss Voigt Hill
#
# Bulk Modulus (GPa) = 22.03111 23.74770 22.88940
# Shear Modulus (GPa) = 32.49945 35.73441 34.11693
#
# Velocity S-wave (km/s) = 3.83400 4.02029 3.92825
# Velocity P-wave (km/s) = 5.43729 5.68256 5.56128
#
# Compressibility (1/GPa) = 0.04539037
#
# Stress axis : x y z
#
# Youngs Moduli (GPa) = 54.32435 54.32435 72.17216
#
# Poissons Ratio (x) = -0.14482 0.19149
# Poissons Ratio (y) = -0.14482 0.19149
# Poissons Ratio (z) = 0.14414 0.14414
#
# Static dielectric constant tensor:
#      x y z
#    x 1.788380 0.000000 0.000000 
#    y 0.000000 1.788380 0.000000 
#    z 0.000000 0.000000 1.798490 
# 
# From -- ./inp_files/276.got.cif
#   From: 2010.05.17/outbox.cif.g08.bks.cpg/sg76_cif.got.tgz:276.got - 2010.06.03 18:43:17.
