data_PCOD9541727
_publ_section_title
;
Structure prediction by ZEFSAII (Michael W. Deem and Ramdas Pophale) SiO2 
 PCOD9541727
Probable space group: P 43
;
_chemical_formula_sum "Si O2"
_cell_formula_units_Z 24
_cell_length_a 7.495979
_cell_length_b 7.495979
_cell_length_c 16.773098
_cell_angle_alpha 90.000000
_cell_angle_beta 90.000000
_cell_angle_gamma 90.000000
_cell_volume 942.475364
_symmetry_space_group_name_H-M "P 43"
_symmetry_group_IT_number 78
_symmetry_cell_setting 'tetragonal'
loop_
_space_group_symop_operation_xyz
x,y,z
-y,x,3/4+z
-x,-y,1/2+z
y,-x,1/4+z
loop_
_atom_site_type_symbol
_atom_site_label
_atom_site_fract_x
_atom_site_fract_y
_atom_site_fract_z
Si Si1 0.237831 0.616597 0.056830
Si Si2 0.760255 0.305356 0.820684
Si Si3 0.587762 0.734387 0.126697
Si Si4 0.185300 0.026104 0.219247
Si Si5 0.657159 0.695178 0.841164
Si Si6 0.053546 0.231408 0.454377
O O1 0.235858 0.432106 0.104887
O O2 0.396635 0.743595 0.084506
O O3 0.300501 0.550759 0.969669
O O4 0.047915 0.702827 0.034655
O O5 0.730478 0.512202 0.803457
O O6 0.807544 0.179635 0.746293
O O7 0.906962 0.280705 0.889420
O O8 0.683792 0.555342 0.097234
O O9 0.703474 0.915098 0.134186
O O10 0.275495 0.137997 0.290389
O O11 0.978940 0.067346 0.208338
O O12 0.753207 0.700148 0.927862
#
# Coordination Sequence:
#
# PCOD9541727 Si02
#       6
#     4   4   4   4   4   4
#     4   9  22  45  75 104 142 198 250 305 379 447
#     4  11  26  47  74 105 157 194 253 318 376 458
#     4   9  23  44  74 110 138 199 247 308 379 443
#     4  12  26  49  67 119 148 201 250 309 389 448
#     4  11  25  47  76 108 149 198 255 309 381 450
#     4  10  24  46  72 106 150 192 251 307 376 454
#
# _framework density 25.464853000000002
#
# number of rings (size 3 to 8) (size 9 to 14) (size 15 to 20)
#    1.000    0.667    1.667    1.000   11.667    2.667 
#    3.000    0.000    0.000    0.000    0.000    0.000 
#    0.000    0.000    0.000    0.000    0.000    0.000 
#
# Total GULP energy -134223.115360 kJ/mol
# GULP energy per Si atom -5592.629807 kJ/mol
# Density = 2.540689 g / cm^3
# Si number density = 25.464853 Si / 1000 Ang^3
#
#
#
# Elastic Constant Matrix: (Units=GPa)
#
#
# Indices 1 2 3 4 5 6 
#
# 1 104.6826 20.0079 12.4572 0.0000 0.0000 6.9867
# 2 20.0079 104.6826 12.4572 0.0000 0.0000 -6.9867
# 3 12.4572 12.4572 56.3112 0.0000 0.0000 0.0000
# 4 0.0000 0.0000 0.0000 36.1705 0.0000 0.0000
# 5 0.0000 0.0000 0.0000 0.0000 36.1705 0.0000
# 6 6.9867 -6.9867 0.0000 0.0000 0.0000 40.1792
#
#
#
# Elastic Compliance Matrix: (Units=1/GPa)
#
#
# Indices 1 2 3 4 5 6 
#
# 1 0.010275 -0.001884 -0.001856 0.000000 0.000000 -0.002114
# 2 -0.001884 0.010275 -0.001856 0.000000 0.000000 0.002114
# 3 -0.001856 -0.001856 0.018580 0.000000 0.000000 0.000000
# 4 0.000000 0.000000 0.000000 0.027647 0.000000 0.000000
# 5 0.000000 0.000000 0.000000 0.000000 0.027647 0.000000
# 6 -0.002114 0.002114 0.000000 0.000000 0.000000 0.025624
#
#
# Mechanical properties :
#
#
# Convention : Reuss Voigt Hill
#
# Bulk Modulus (GPa) = 35.79560 39.50232 37.64896
# Shear Modulus (GPa) = 35.57409 37.22099 36.39754
#
# Velocity S-wave (km/s) = 3.74168 3.82732 3.78474
# Velocity P-wave (km/s) = 5.72314 5.92261 5.82373
#
# Compressibility (1/GPa) = 0.02793640
#
# Stress axis : x y z
#
# Youngs Moduli (GPa) = 97.32563 97.32563 53.82211
#
# Poissons Ratio (x) = 0.18337 0.09990
# Poissons Ratio (y) = 0.18337 0.09990
# Poissons Ratio (z) = 0.18066 0.18066
#
# Static dielectric constant tensor:
#      x y z
#    x 1.997730 0.000000 0.000000 
#    y 0.000000 1.997730 0.000000 
#    z 0.000000 0.000000 2.032340 
# 
# From -- ./inp_files/1243.got.cif
#   From: 2010.05.17/outbox.cif.g08.bks.cpg/sg78_cif.got.tgz:1243.got - 2010.06.03 18:45:56.
