data_PCOD9541189
_publ_section_title
;
Structure prediction by ZEFSAII (Michael W. Deem and Ramdas Pophale) SiO2 
 PCOD9541189
Probable space group: P 41
;
_chemical_formula_sum "Si O2"
_cell_formula_units_Z 28
_cell_length_a 7.923183
_cell_length_b 7.923183
_cell_length_c 21.746370
_cell_angle_alpha 90.000000
_cell_angle_beta 90.000000
_cell_angle_gamma 90.000000
_cell_volume 1365.168148
_symmetry_space_group_name_H-M "P 41"
_symmetry_group_IT_number 76
_symmetry_cell_setting 'tetragonal'
loop_
_space_group_symop_operation_xyz
x,y,z
-y,x,1/4+z
-x,-y,1/2+z
y,-x,3/4+z
loop_
_atom_site_type_symbol
_atom_site_label
_atom_site_fract_x
_atom_site_fract_y
_atom_site_fract_z
Si Si1 0.229008 0.868486 0.370900
Si Si2 0.037079 0.577899 0.674257
Si Si3 0.683655 0.968413 0.752924
Si Si4 0.069040 0.086475 0.144168
Si Si5 0.362299 0.156047 0.062058
Si Si6 0.143464 0.493152 0.396822
Si Si7 0.712592 0.475127 0.602440
O O1 0.423385 0.876133 0.390018
O O2 0.167960 0.688891 0.390525
O O3 0.215902 0.910956 0.299184
O O4 0.104026 0.006089 0.400330
O O5 0.102921 0.586824 0.743711
O O6 0.067402 0.765448 0.647964
O O7 0.840349 0.533861 0.657319
O O8 0.806059 0.886192 0.702206
O O9 0.591257 0.830006 0.795803
O O10 0.559351 0.088194 0.714907
O O11 0.167364 0.115933 0.080213
O O12 0.383261 0.354192 0.079818
O O13 0.451004 0.019810 0.105644
O O14 0.313761 0.396685 0.374305
#
# Coordination Sequence:
#
# PCOD9541189 Si02
#       7
#     4   4   4   4   4   4   4
#     4  11  25  39  63 100 129 172 218 271 332 401
#     4  10  21  41  65  93 130 166 219 271 323 395
#     4  10  21  44  64  88 131 165 220 270 322 397
#     4  10  21  41  68  93 125 177 219 266 340 392
#     4  10  22  41  68  95 126 177 220 271 337 396
#     4  11  25  41  64 102 131 177 217 271 346 383
#     4  10  23  43  68  95 130 172 227 272 328 408
#
# _framework density 20.510292
#
# number of rings (size 3 to 8) (size 9 to 14) (size 15 to 20)
#    0.000    1.714    0.000    5.143    6.000    2.286 
#    7.714    0.000    0.000    0.000    0.000    0.000 
#    0.000    0.000    0.000    0.000    0.000    0.000 
#
# Total GULP energy -156064.569696 kJ/mol
# GULP energy per Si atom -5573.734632 kJ/mol
# Density = 2.046361 g / cm^3
# Si number density = 20.510292 Si / 1000 Ang^3
#
#
#
# Elastic Constant Matrix: (Units=GPa)
#
#
# Indices 1 2 3 4 5 6 
#
# 1 47.5989 26.9272 18.4269 0.0000 0.0000 7.0270
# 2 26.9272 47.5989 18.4269 0.0000 0.0000 -7.0270
# 3 18.4269 18.4269 75.2262 0.0000 0.0000 0.0000
# 4 0.0000 0.0000 0.0000 18.6862 0.0000 0.0000
# 5 0.0000 0.0000 0.0000 0.0000 18.6862 0.0000
# 6 7.0270 -7.0270 0.0000 0.0000 0.0000 7.8976
#
#
#
# Elastic Compliance Matrix: (Units=1/GPa)
#
#
# Indices 1 2 3 4 5 6 
#
# 1 0.068857 -0.053590 -0.003740 0.000000 0.000000 -0.108950
# 2 -0.053590 0.068857 -0.003740 0.000000 0.000000 0.108950
# 3 -0.003740 -0.003740 0.015125 0.000000 0.000000 0.000000
# 4 0.000000 0.000000 0.000000 0.053515 0.000000 0.000000
# 5 0.000000 0.000000 0.000000 0.000000 0.053515 0.000000
# 6 -0.108950 0.108950 0.000000 0.000000 0.000000 0.320501
#
#
# Mechanical properties :
#
#
# Convention : Reuss Voigt Hill
#
# Bulk Modulus (GPa) = 32.57211 33.10955 32.84083
# Shear Modulus (GPa) = 7.01514 16.16353 11.58933
#
# Velocity S-wave (km/s) = 1.85141 2.81030 2.37966
# Velocity P-wave (km/s) = 4.52611 5.16801 4.85767
#
# Compressibility (1/GPa) = 0.03070111
#
# Stress axis : x y z
#
# Youngs Moduli (GPa) = 14.52279 14.52279 66.11394
#
# Poissons Ratio (x) = 0.77827 0.24725
# Poissons Ratio (y) = 0.77827 0.24725
# Poissons Ratio (z) = 0.05431 0.05431
#
# Static dielectric constant tensor:
#      x y z
#    x 1.768170 0.000000 0.000000 
#    y 0.000000 1.768170 0.000000 
#    z 0.000000 0.000000 1.743700 
# 
# From -- ./inp_files/1360.got.cif
#   From: 2010.05.17/outbox.cif.g08.bks.cpg/sg76_cif.got.tgz:1360.got - 2010.06.03 18:43:17.
