data_PCOD9541968
_publ_section_title
;
Structure prediction by ZEFSAII (Michael W. Deem and Ramdas Pophale) SiO2 
 PCOD9541968
Probable space group: I 4
;
_chemical_formula_sum "Si O2"
_cell_formula_units_Z 56
_cell_length_a 15.131867
_cell_length_b 15.131867
_cell_length_c 11.815004
_cell_angle_alpha 90.000000
_cell_angle_beta 90.000000
_cell_angle_gamma 90.000000
_cell_volume 2705.321624
_symmetry_space_group_name_H-M "I 4"
_symmetry_group_IT_number 79
_symmetry_cell_setting 'tetragonal'
loop_
_space_group_symop_operation_xyz
x,y,z
-y,x,z
-x,-y,z
y,-x,z
1/2+x,1/2+y,1/2+z
1/2-y,1/2+x,1/2+z
1/2-x,1/2-y,1/2+z
1/2+y,1/2-x,1/2+z
loop_
_atom_site_type_symbol
_atom_site_label
_atom_site_fract_x
_atom_site_fract_y
_atom_site_fract_z
Si Si1 0.404339 0.091345 0.511970
Si Si2 0.904339 0.591345 0.456482
Si Si3 0.934340 0.221481 0.862723
Si Si4 0.387955 0.292701 0.979168
Si Si5 0.207299 0.887955 0.989284
Si Si6 0.421561 0.371577 0.734226
Si Si7 0.721481 0.565660 0.105729
O O1 0.508217 0.098708 0.543634
O O2 0.377632 0.188099 0.471251
O O3 0.328467 0.065689 0.600211
O O4 0.401292 0.008217 0.424817
O O5 0.828467 0.565689 0.368241
O O6 0.877632 0.688099 0.497200
O O7 0.847255 0.185088 0.922760
O O8 0.939400 0.191791 0.734226
O O9 0.016932 0.185882 0.934270
O O10 0.391641 0.320166 0.847473
O O11 0.314912 0.347255 0.045692
O O12 0.483068 0.314118 0.034182
O O13 0.179834 0.891641 0.120978
O O14 0.528544 0.382462 0.734226
#
# Coordination Sequence:
#
# PCOD9541968 Si02
#       7
#     8   8   8   8   8   8   8
#     4   9  21  43  65  86 124 167 216 265 306 373
#     4   9  21  43  65  86 124 167 216 265 306 373
#     4  11  23  40  64  96 129 168 206 265 326 385
#     4  11  22  41  65  95 132 163 214 260 321 387
#     4  11  22  41  65  95 132 163 214 260 321 387
#     4  11  22  40  66  97 129 175 211 259 319 386
#     4  11  23  40  64  96 129 168 206 265 326 385
#
# _framework density 20.699943000000001
#
# number of rings (size 3 to 8) (size 9 to 14) (size 15 to 20)
#    0.000    1.571    2.857    1.714    2.000    0.571 
#    0.000   14.286   15.714    0.000    0.000    0.000 
#    0.000    0.000    0.000    0.000    0.000    0.000 
#
# Total GULP energy -156093.746034 kJ/mol
# GULP energy per Si atom -5574.776644 kJ/mol
# Density = 2.065283 g / cm^3
# Si number density = 20.699943 Si / 1000 Ang^3
#
#
#
# Elastic Constant Matrix: (Units=GPa)
#
#
# Indices 1 2 3 4 5 6 
#
# 1 87.9901 9.4990 23.1746 0.0000 0.0000 6.9263
# 2 9.4990 87.9901 23.1746 0.0000 0.0000 -6.9263
# 3 23.1746 23.1746 132.4352 0.0000 0.0000 0.0000
# 4 0.0000 0.0000 0.0000 6.7671 0.0000 0.0000
# 5 0.0000 0.0000 0.0000 0.0000 6.7671 0.0000
# 6 6.9263 -6.9263 0.0000 0.0000 0.0000 28.9456
#
#
#
# Elastic Compliance Matrix: (Units=1/GPa)
#
#
# Indices 1 2 3 4 5 6 
#
# 1 0.012245 -0.001057 -0.001958 0.000000 0.000000 -0.003183
# 2 -0.001057 0.012245 -0.001958 0.000000 0.000000 0.003183
# 3 -0.001958 -0.001958 0.008236 0.000000 0.000000 0.000000
# 4 0.000000 0.000000 0.000000 0.147774 0.000000 0.000000
# 5 0.000000 0.000000 0.000000 0.000000 0.147774 0.000000
# 6 -0.003183 0.003183 0.000000 0.000000 0.000000 0.036071
#
#
# Mechanical properties :
#
#
# Convention : Reuss Voigt Hill
#
# Bulk Modulus (GPa) = 43.89536 46.67911 45.28724
# Shear Modulus (GPa) = 13.09299 25.33376 19.21337
#
# Velocity S-wave (km/s) = 2.51771 3.50216 3.04992
# Velocity P-wave (km/s) = 5.45008 6.24122 5.85902
#
# Compressibility (1/GPa) = 0.02278145
#
# Stress axis : x y z
#
# Youngs Moduli (GPa) = 81.66459 81.66459 121.41726
#
# Poissons Ratio (x) = 0.08631 0.23771
# Poissons Ratio (y) = 0.08631 0.23771
# Poissons Ratio (z) = 0.15989 0.15989
#
# Static dielectric constant tensor:
#      x y z
#    x 1.786600 0.000000 0.000000 
#    y 0.000000 1.786600 0.000000 
#    z 0.000000 0.000000 1.683150 
# 
# From -- ./inp_files/1166.got.cif
#   From: 2010.05.17/outbox.cif.g08.bks.cpg/sg79_cif.got.tgz:1166.got - 2010.06.03 18:47:27.
