data_PCOD9541090
_publ_section_title
;
Structure prediction by ZEFSAII (Michael W. Deem and Ramdas Pophale) SiO2 
 PCOD9541090
Probable space group: P 41
;
_chemical_formula_sum "Si O2"
_cell_formula_units_Z 28
_cell_length_a 18.898961
_cell_length_b 18.898961
_cell_length_c 5.036090
_cell_angle_alpha 90.000000
_cell_angle_beta 90.000000
_cell_angle_gamma 90.000000
_cell_volume 1798.743926
_symmetry_space_group_name_H-M "P 41"
_symmetry_group_IT_number 76
_symmetry_cell_setting 'tetragonal'
loop_
_space_group_symop_operation_xyz
x,y,z
-y,x,1/4+z
-x,-y,1/2+z
y,-x,3/4+z
loop_
_atom_site_type_symbol
_atom_site_label
_atom_site_fract_x
_atom_site_fract_y
_atom_site_fract_z
Si Si1 0.015476 0.211508 0.361930
Si Si2 0.291073 0.129274 0.072741
Si Si3 0.903449 0.740937 0.363762
Si Si4 0.429603 0.063385 0.137639
Si Si5 0.039357 0.413841 0.886282
Si Si6 0.954424 0.097667 0.001695
Si Si7 0.792160 0.832014 0.083785
O O1 0.038502 0.226632 0.661019
O O2 0.952688 0.266847 0.315104
O O3 0.982721 0.137202 0.267608
O O4 0.079537 0.226624 0.154225
O O5 0.373468 0.126827 0.142798
O O6 0.240012 0.166444 0.289301
O O7 0.273449 0.155311 0.780089
O O8 0.914860 0.657258 0.386248
O O9 0.832514 0.765521 0.215082
O O10 0.512589 0.082466 0.143290
O O11 0.414655 0.010427 0.379341
O O12 0.416588 0.015554 0.878569
O O13 0.896697 0.150712 0.870345
O O14 0.919637 0.023457 0.080196
#
# Coordination Sequence:
#
# PCOD9541090 Si02
#       7
#     4   4   4   4   4   4   4
#     4  11  22  34  48  60  84 116 146 199 245 275
#     4  11  20  36  49  66  87 117 148 189 234 287
#     4  12  20  37  48  66  88 117 148 190 235 293
#     4  10  19  31  52  74  92 111 144 189 246 290
#     4  10  19  32  51  75  91 112 142 191 246 292
#     4  11  25  34  44  62  80 117 164 215 245 277
#     4  11  25  34  48  65  86 122 158 187 247 280
#
# _framework density 15.566420000000001
#
# number of rings (size 3 to 8) (size 9 to 14) (size 15 to 20)
#    0.000    1.143    4.286    3.429    4.000    0.000 
#    0.000    0.000    0.000    0.000    0.000    0.000 
#    0.000    0.000    0.000    0.000    0.000    2.857 
#
# Total GULP energy -156316.618306 kJ/mol
# GULP energy per Si atom -5582.736368 kJ/mol
# Density = 1.553099 g / cm^3
# Si number density = 15.566420 Si / 1000 Ang^3
#
#
#
# Elastic Constant Matrix: (Units=GPa)
#
#
# Indices 1 2 3 4 5 6 
#
# 1 81.6413 18.1266 4.8005 0.0000 0.0000 -0.7673
# 2 18.1266 81.6413 4.8005 0.0000 0.0000 0.7673
# 3 4.8005 4.8005 78.6826 0.0000 0.0000 0.0000
# 4 0.0000 0.0000 0.0000 14.5296 0.0000 0.0000
# 5 0.0000 0.0000 0.0000 0.0000 14.5296 0.0000
# 6 -0.7673 0.7673 0.0000 0.0000 0.0000 10.1565
#
#
#
# Elastic Compliance Matrix: (Units=1/GPa)
#
#
# Indices 1 2 3 4 5 6 
#
# 1 0.012928 -0.002845 -0.000615 0.000000 0.000000 0.001192
# 2 -0.002845 0.012928 -0.000615 0.000000 0.000000 -0.001192
# 3 -0.000615 -0.000615 0.012784 0.000000 0.000000 0.000000
# 4 0.000000 0.000000 0.000000 0.068825 0.000000 0.000000
# 5 0.000000 0.000000 0.000000 0.000000 0.068825 0.000000
# 6 0.001192 -0.001192 0.000000 0.000000 0.000000 0.098639
#
#
# Mechanical properties :
#
#
# Convention : Reuss Voigt Hill
#
# Bulk Modulus (GPa) = 32.79902 33.04671 32.92286
# Shear Modulus (GPa) = 17.05066 22.12564 19.58815
#
# Velocity S-wave (km/s) = 3.31320 3.77420 3.55118
# Velocity P-wave (km/s) = 5.97934 6.34573 6.16526
#
# Compressibility (1/GPa) = 0.03048872
#
# Stress axis : x y z
#
# Youngs Moduli (GPa) = 77.35256 77.35256 78.22065
#
# Poissons Ratio (x) = 0.22010 0.04812
# Poissons Ratio (y) = 0.22010 0.04812
# Poissons Ratio (z) = 0.04758 0.04758
#
# Static dielectric constant tensor:
#      x y z
#    x 1.545780 0.000000 0.000000 
#    y 0.000000 1.545780 0.000000 
#    z 0.000000 0.000000 1.556920 
# 
# From -- ./inp_files/323.got.cif
#   From: 2010.05.17/outbox.cif.g08.bks.cpg/sg76_cif.got.tgz:323.got - 2010.06.03 18:43:17.
