data_PCOD9541288
_publ_section_title
;
Structure prediction by ZEFSAII (Michael W. Deem and Ramdas Pophale) SiO2 
 PCOD9541288
Probable space group: P 41
;
_chemical_formula_sum "Si O2"
_cell_formula_units_Z 24
_cell_length_a 10.639169
_cell_length_b 10.639169
_cell_length_c 8.089124
_cell_angle_alpha 90.000000
_cell_angle_beta 90.000000
_cell_angle_gamma 90.000000
_cell_volume 915.623452
_symmetry_space_group_name_H-M "P 41"
_symmetry_group_IT_number 76
_symmetry_cell_setting 'tetragonal'
loop_
_space_group_symop_operation_xyz
x,y,z
-y,x,1/4+z
-x,-y,1/2+z
y,-x,3/4+z
loop_
_atom_site_type_symbol
_atom_site_label
_atom_site_fract_x
_atom_site_fract_y
_atom_site_fract_z
Si Si1 0.233835 0.836532 0.158540
Si Si2 0.925836 0.135039 0.218481
Si Si3 0.125160 0.481110 0.628433
Si Si4 0.090818 0.650191 0.335950
Si Si5 0.688848 0.730066 0.564907
Si Si6 0.480033 0.346961 0.474925
O O1 0.366484 0.833276 0.256968
O O2 0.119256 0.791521 0.275289
O O3 0.211861 0.977008 0.088378
O O4 0.232004 0.743368 0.997599
O O5 0.795988 0.210112 0.195536
O O6 0.007837 0.108423 0.060459
O O7 0.070740 0.597182 0.519698
O O8 0.222825 0.553121 0.749877
O O9 0.017117 0.415614 0.732643
O O10 0.225172 0.591908 0.284236
O O11 0.689760 0.581644 0.584944
O O12 0.546139 0.401736 0.635872
#
# Coordination Sequence:
#
# PCOD9541288 Si02
#       6
#     4   4   4   4   4   4
#     4  11  23  47  71 106 155 198 256 322 386 463
#     4  10  23  45  72 103 151 200 245 311 380 451
#     4  12  26  45  78 107 153 208 256 322 392 466
#     4  12  25  48  72 110 150 202 258 316 385 468
#     4  11  25  45  74 105 151 201 254 315 383 459
#     4  12  28  46  75 107 152 195 249 316 384 461
#
# _framework density 26.211645999999998
#
# number of rings (size 3 to 8) (size 9 to 14) (size 15 to 20)
#    0.000    0.667    3.333    4.000    7.000    1.333 
#    0.000    0.000    0.000    0.000    0.000    0.000 
#    0.000    0.000    0.000    0.000    0.000    0.000 
#
# Total GULP energy -134365.281372 kJ/mol
# GULP energy per Si atom -5598.553390 kJ/mol
# Density = 2.615199 g / cm^3
# Si number density = 26.211646 Si / 1000 Ang^3
#
#
#
# Elastic Constant Matrix: (Units=GPa)
#
#
# Indices 1 2 3 4 5 6 
#
# 1 36.9401 31.7197 20.9261 0.0000 0.0000 -5.9508
# 2 31.7197 36.9401 20.9261 0.0000 0.0000 5.9508
# 3 20.9261 20.9261 98.8948 0.0000 0.0000 0.0000
# 4 0.0000 0.0000 0.0000 55.6305 0.0000 0.0000
# 5 0.0000 0.0000 0.0000 0.0000 55.6305 0.0000
# 6 -5.9508 5.9508 0.0000 0.0000 0.0000 35.9017
#
#
#
# Elastic Compliance Matrix: (Units=1/GPa)
#
#
# Indices 1 2 3 4 5 6 
#
# 1 0.162314 -0.145592 -0.003538 0.000000 0.000000 0.051036
# 2 -0.145592 0.162314 -0.003538 0.000000 0.000000 -0.051036
# 3 -0.003538 -0.003538 0.011609 0.000000 0.000000 0.000000
# 4 0.000000 0.000000 0.000000 0.017976 0.000000 0.000000
# 5 0.000000 0.000000 0.000000 0.000000 0.017976 0.000000
# 6 0.051036 -0.051036 0.000000 0.000000 0.000000 0.044773
#
#
# Mechanical properties :
#
#
# Convention : Reuss Voigt Hill
#
# Bulk Modulus (GPa) = 32.36364 35.54654 33.95509
# Shear Modulus (GPa) = 6.82503 36.04608 21.43556
#
# Velocity S-wave (km/s) = 1.61538 3.71238 2.86280
# Velocity P-wave (km/s) = 3.98160 5.65389 4.88977
#
# Compressibility (1/GPa) = 0.03089887
#
# Stress axis : x y z
#
# Youngs Moduli (GPa) = 6.16091 6.16091 86.13913
#
# Poissons Ratio (x) = 0.89698 0.30478
# Poissons Ratio (y) = 0.89698 0.30478
# Poissons Ratio (z) = 0.02180 0.02180
#
# Static dielectric constant tensor:
#      x y z
#    x 2.102090 0.000000 0.000000 
#    y 0.000000 2.102090 0.000000 
#    z 0.000000 0.000000 2.108500 
# 
# From -- ./inp_files/555.got.cif
#   From: 2010.05.17/outbox.cif.g08.bks.cpg/sg76_cif.got.tgz:555.got - 2010.06.03 18:43:17.
