data_PCOD9541264
_publ_section_title
;
Structure prediction by ZEFSAII (Michael W. Deem and Ramdas Pophale) SiO2 
 PCOD9541264
Probable space group: P 41
;
_chemical_formula_sum "Si O2"
_cell_formula_units_Z 32
_cell_length_a 8.143330
_cell_length_b 8.143330
_cell_length_c 18.977320
_cell_angle_alpha 90.000000
_cell_angle_beta 90.000000
_cell_angle_gamma 90.000000
_cell_volume 1258.458649
_symmetry_space_group_name_H-M "P 41"
_symmetry_group_IT_number 76
_symmetry_cell_setting 'tetragonal'
loop_
_space_group_symop_operation_xyz
x,y,z
-y,x,1/4+z
-x,-y,1/2+z
y,-x,3/4+z
loop_
_atom_site_type_symbol
_atom_site_label
_atom_site_fract_x
_atom_site_fract_y
_atom_site_fract_z
Si Si1 0.191143 0.137161 0.480450
Si Si2 0.494421 0.539421 0.093202
Si Si3 0.531715 0.020179 0.420944
Si Si4 0.709612 0.148455 0.540772
Si Si5 0.367910 0.206284 0.029769
Si Si6 0.295600 0.996167 0.785168
Si Si7 0.958282 0.044081 0.859261
Si Si8 0.490616 0.750412 0.226906
O O1 0.149527 0.323916 0.461263
O O2 0.369660 0.106761 0.448484
O O3 0.195200 0.112825 0.564559
O O4 0.078128 0.003058 0.439734
O O5 0.427131 0.356844 0.076974
O O6 0.505938 0.599551 0.173023
O O7 0.665765 0.537653 0.052203
O O8 0.378985 0.683814 0.060951
O O9 0.681744 0.121034 0.457238
O O10 0.536445 0.841836 0.458237
O O11 0.550617 0.022257 0.338238
O O12 0.630714 0.973437 0.567194
O O13 0.893978 0.132762 0.567701
O O14 0.181759 0.247860 0.007133
O O15 0.148193 0.048336 0.837211
O O16 0.352890 0.131711 0.729945
#
# Coordination Sequence:
#
# PCOD9541264 Si02
#       8
#     4   4   4   4   4   4   4   4
#     4  12  24  45  75 109 146 202 248 328 382 471
#     4  12  25  49  72 111 152 203 257 318 398 469
#     4  10  22  47  70 107 151 194 260 318 382 472
#     4   9  21  45  71 105 143 194 252 306 377 472
#     4   9  24  45  72 107 147 204 243 321 385 460
#     4  11  25  46  71 108 151 195 254 319 387 472
#     4  11  25  44  74 106 148 197 253 307 400 455
#     4  12  28  45  73 111 152 197 261 325 389 481
#
# _framework density 25.427934
#
# number of rings (size 3 to 8) (size 9 to 14) (size 15 to 20)
#    0.750    0.500    2.500    2.250    5.250    1.000 
#    2.250    0.000    0.000    0.000    0.000    0.000 
#    0.000    0.000    0.000    0.000    0.000    0.000 
#
# Total GULP energy -178801.496494 kJ/mol
# GULP energy per Si atom -5587.546765 kJ/mol
# Density = 2.537006 g / cm^3
# Si number density = 25.427934 Si / 1000 Ang^3
#
#
#
# Elastic Constant Matrix: (Units=GPa)
#
#
# Indices 1 2 3 4 5 6 
#
# 1 99.4332 17.1305 16.8434 0.0000 0.0000 -0.6280
# 2 17.1305 99.4332 16.8434 0.0000 0.0000 0.6280
# 3 16.8434 16.8434 96.9834 0.0000 0.0000 0.0000
# 4 0.0000 0.0000 0.0000 38.1323 0.0000 0.0000
# 5 0.0000 0.0000 0.0000 0.0000 38.1323 0.0000
# 6 -0.6280 0.6280 0.0000 0.0000 0.0000 37.4210
#
#
#
# Elastic Compliance Matrix: (Units=1/GPa)
#
#
# Indices 1 2 3 4 5 6 
#
# 1 0.010593 -0.001561 -0.001569 0.000000 0.000000 0.000204
# 2 -0.001561 0.010593 -0.001569 0.000000 0.000000 -0.000204
# 3 -0.001569 -0.001569 0.010856 0.000000 0.000000 0.000000
# 4 0.000000 0.000000 0.000000 0.026224 0.000000 0.000000
# 5 0.000000 0.000000 0.000000 0.000000 0.026224 0.000000
# 6 0.000204 -0.000204 0.000000 0.000000 0.000000 0.026730
#
#
# Mechanical properties :
#
#
# Convention : Reuss Voigt Hill
#
# Bulk Modulus (GPa) = 44.15808 44.16493 44.16151
# Shear Modulus (GPa) = 39.01227 39.07262 39.04245
#
# Velocity S-wave (km/s) = 3.92117 3.92420 3.92269
# Velocity P-wave (km/s) = 6.15666 6.15945 6.15806
#
# Compressibility (1/GPa) = 0.02264591
#
# Stress axis : x y z
#
# Youngs Moduli (GPa) = 94.40320 94.40320 92.11572
#
# Poissons Ratio (x) = 0.14732 0.14450
# Poissons Ratio (y) = 0.14732 0.14450
# Poissons Ratio (z) = 0.14809 0.14809
#
# Static dielectric constant tensor:
#      x y z
#    x 2.033650 0.000000 0.000000 
#    y 0.000000 2.033650 0.000000 
#    z 0.000000 0.000000 2.098360 
# 
# From -- ./inp_files/1468.got.cif
#   From: 2010.05.17/outbox.cif.g08.bks.cpg/sg76_cif.got.tgz:1468.got - 2010.06.03 18:43:17.
