data_PCOD9541736
_publ_section_title
;
Structure prediction by ZEFSAII (Michael W. Deem and Ramdas Pophale) SiO2 
 PCOD9541736
Probable space group: P 43
;
_chemical_formula_sum "Si O2"
_cell_formula_units_Z 24
_cell_length_a 5.853818
_cell_length_b 5.853818
_cell_length_c 28.590281
_cell_angle_alpha 90.000000
_cell_angle_beta 90.000000
_cell_angle_gamma 90.000000
_cell_volume 979.708453
_symmetry_space_group_name_H-M "P 43"
_symmetry_group_IT_number 78
_symmetry_cell_setting 'tetragonal'
loop_
_space_group_symop_operation_xyz
x,y,z
-y,x,3/4+z
-x,-y,1/2+z
y,-x,1/4+z
loop_
_atom_site_type_symbol
_atom_site_label
_atom_site_fract_x
_atom_site_fract_y
_atom_site_fract_z
Si Si1 0.187168 0.073290 0.489100
Si Si2 0.526274 0.038136 0.903122
Si Si3 0.198175 0.380144 0.864082
Si Si4 0.880399 0.821200 0.561901
Si Si5 0.187273 0.693704 0.935963
Si Si6 0.529101 0.516239 0.272596
O O1 0.286969 0.329162 0.502300
O O2 0.973897 0.112907 0.455404
O O3 0.360729 0.950300 0.454175
O O4 0.089770 0.901242 0.528576
O O5 0.369042 0.258804 0.899376
O O6 0.662900 0.038184 0.854533
O O7 0.383719 0.806161 0.905034
O O8 0.052980 0.537685 0.898865
O O9 0.340131 0.485184 0.821980
O O10 0.049776 0.195614 0.837634
O O11 0.647746 0.711865 0.538528
O O12 0.301515 0.595239 0.982508
#
# Coordination Sequence:
#
# PCOD9541736 Si02
#       6
#     4   4   4   4   4   4
#     4  11  25  50  78 109 155 207 259 327 399 480
#     4  10  26  48  72 108 150 196 254 320 398 474
#     4  11  25  48  71 106 152 193 261 324 383 491
#     4  11  25  50  78 109 155 207 259 327 399 480
#     4  11  25  48  71 106 152 193 261 324 383 491
#     4  10  26  46  68 114 152 194 260 324 384 472
#
# _framework density 24.497087000000001
#
# number of rings (size 3 to 8) (size 9 to 14) (size 15 to 20)
#    0.000    1.333    1.667    1.000    9.333    5.333 
#    6.000    0.000    0.000    0.000    0.000    0.000 
#    0.000    0.000    0.000    0.000    0.000    0.000 
#
# Total GULP energy -133603.985789 kJ/mol
# GULP energy per Si atom -5566.832741 kJ/mol
# Density = 2.444133 g / cm^3
# Si number density = 24.497087 Si / 1000 Ang^3
#
#
#
# Elastic Constant Matrix: (Units=GPa)
#
#
# Indices 1 2 3 4 5 6 
#
# 1 33.6642 15.9790 35.2257 0.0000 0.0000 -39.1307
# 2 15.9790 33.6642 35.2257 0.0000 0.0000 39.1307
# 3 35.2257 35.2257 124.3693 0.0000 0.0000 0.0000
# 4 0.0000 0.0000 0.0000 13.6677 0.0000 0.0000
# 5 0.0000 0.0000 0.0000 0.0000 13.6677 0.0000
# 6 -39.1307 39.1307 0.0000 0.0000 0.0000 -108.1443
#
#
#
# Elastic Compliance Matrix: (Units=1/GPa)
#
#
# Indices 1 2 3 4 5 6 
#
# 1 0.027710 0.005972 -0.009540 0.000000 0.000000 -0.007866
# 2 0.005972 0.027710 -0.009540 0.000000 0.000000 0.007866
# 3 -0.009540 -0.009540 0.013445 0.000000 0.000000 0.000000
# 4 0.000000 0.000000 0.000000 0.073165 0.000000 0.000000
# 5 0.000000 0.000000 0.000000 0.000000 0.073165 0.000000
# 6 -0.007866 0.007866 0.000000 0.000000 0.000000 -0.003555
#
#
# Mechanical properties :
#
#
# Convention : Reuss Voigt Hill
#
# Bulk Modulus (GPa) = 23.44686 40.50651 31.97668
# Shear Modulus (GPa) = 19.83559 -9.14395 5.34582
#
# Velocity S-wave (km/s) = 2.84863 -1.93411 1.47884
# Velocity P-wave (km/s) = 4.51793 3.40344 3.99969
#
# Compressibility (1/GPa) = 0.04264964
#
# Stress axis : x y z
#
# Youngs Moduli (GPa) = 36.08785 36.08785 74.37850
#
# Poissons Ratio (x) = -0.21553 0.70958
# Poissons Ratio (y) = -0.21553 0.70958
# Poissons Ratio (z) = 0.34428 0.34428
#
# Static dielectric constant tensor:
#      x y z
#    x 2.175840 0.000000 0.000000 
#    y 0.000000 2.175840 0.000000 
#    z 0.000000 0.000000 2.011260 
# 
# From -- ./inp_files/1683.got.cif
#   From: 2010.05.17/outbox.cif.g08.bks.cpg/sg78_cif.got.tgz:1683.got - 2010.06.03 18:45:56.
