data_PCOD9541260
_publ_section_title
;
Structure prediction by ZEFSAII (Michael W. Deem and Ramdas Pophale) SiO2 
 PCOD9541260
Probable space group: P 41
;
_chemical_formula_sum "Si O2"
_cell_formula_units_Z 28
_cell_length_a 11.058742
_cell_length_b 11.058742
_cell_length_c 9.969256
_cell_angle_alpha 90.000000
_cell_angle_beta 90.000000
_cell_angle_gamma 90.000000
_cell_volume 1219.197885
_symmetry_space_group_name_H-M "P 41"
_symmetry_group_IT_number 76
_symmetry_cell_setting 'tetragonal'
loop_
_space_group_symop_operation_xyz
x,y,z
-y,x,1/4+z
-x,-y,1/2+z
y,-x,3/4+z
loop_
_atom_site_type_symbol
_atom_site_label
_atom_site_fract_x
_atom_site_fract_y
_atom_site_fract_z
Si Si1 0.741644 0.540573 0.328200
Si Si2 0.538578 0.106873 0.811487
Si Si3 0.158500 0.560491 0.077700
Si Si4 0.521915 0.394569 0.454323
Si Si5 0.035515 0.091022 0.771469
Si Si6 0.209845 0.224600 0.447309
Si Si7 0.210193 0.704667 0.483482
O O1 0.795017 0.536297 0.180181
O O2 0.844486 0.506429 0.434813
O O3 0.637047 0.451462 0.377764
O O4 0.689276 0.675831 0.331033
O O5 0.511727 0.255055 0.416146
O O6 0.402889 0.115766 0.754844
O O7 0.563513 0.977437 0.877993
O O8 0.207204 0.699006 0.073779
O O9 0.536926 0.418108 0.613852
O O10 0.652343 0.131939 0.710686
O O11 0.905137 0.144080 0.722119
O O12 0.058477 0.978045 0.675694
O O13 0.155450 0.170990 0.754738
O O14 0.298178 0.239437 0.575843
#
# Coordination Sequence:
#
# PCOD9541260 Si02
#       7
#     4   4   4   4   4   4   4
#     4  10  23  44  62  96 143 169 227 278 348 405
#     4  11  24  43  67 102 136 183 225 289 347 412
#     4  11  24  39  65 103 135 169 231 289 321 411
#     4  10  23  41  66  95 137 176 219 276 345 411
#     4  10  22  46  72 100 135 191 244 288 347 437
#     4  10  23  44  70  95 137 188 236 272 350 434
#     4  10  23  41  74  95 133 188 230 274 354 430
#
# _framework density 22.965919
#
# number of rings (size 3 to 8) (size 9 to 14) (size 15 to 20)
#    0.000    1.714    0.000    4.286   12.000    1.143 
#    5.143    1.429    0.000    0.000    0.000    0.000 
#    0.000    0.000    0.000    0.000    0.000    0.000 
#
# Total GULP energy -156104.885445 kJ/mol
# GULP energy per Si atom -5575.174480 kJ/mol
# Density = 2.291365 g / cm^3
# Si number density = 22.965919 Si / 1000 Ang^3
#
#
#
# Elastic Constant Matrix: (Units=GPa)
#
#
# Indices 1 2 3 4 5 6 
#
# 1 114.5259 52.6542 11.1017 0.0000 0.0000 -2.3195
# 2 52.6542 114.5259 11.1017 0.0000 0.0000 2.3195
# 3 11.1017 11.1017 52.4025 0.0000 0.0000 0.0000
# 4 0.0000 0.0000 0.0000 27.1447 0.0000 0.0000
# 5 0.0000 0.0000 0.0000 0.0000 27.1447 0.0000
# 6 -2.3195 2.3195 0.0000 0.0000 0.0000 10.6620
#
#
#
# Elastic Compliance Matrix: (Units=1/GPa)
#
#
# Indices 1 2 3 4 5 6 
#
# 1 0.011293 -0.005138 -0.001304 0.000000 0.000000 0.003574
# 2 -0.005138 0.011293 -0.001304 0.000000 0.000000 -0.003574
# 3 -0.001304 -0.001304 0.019636 0.000000 0.000000 0.000000
# 4 0.000000 0.000000 0.000000 0.036840 0.000000 0.000000
# 5 0.000000 0.000000 0.000000 0.000000 0.036840 0.000000
# 6 0.003574 -0.003574 0.000000 0.000000 0.000000 0.095347
#
#
# Mechanical properties :
#
#
# Convention : Reuss Voigt Hill
#
# Bulk Modulus (GPa) = 37.41200 47.90772 42.65986
# Shear Modulus (GPa) = 21.21811 26.76339 23.99075
#
# Velocity S-wave (km/s) = 3.04286 3.41743 3.23557
# Velocity P-wave (km/s) = 5.35452 6.03965 5.70738
#
# Compressibility (1/GPa) = 0.02672939
#
# Stress axis : x y z
#
# Youngs Moduli (GPa) = 88.55339 88.55339 50.92809
#
# Poissons Ratio (x) = 0.45498 0.06641
# Poissons Ratio (y) = 0.45498 0.06641
# Poissons Ratio (z) = 0.11547 0.11547
#
# Static dielectric constant tensor:
#      x y z
#    x 1.941150 0.000000 0.000000 
#    y 0.000000 1.941150 0.000000 
#    z 0.000000 0.000000 1.903780 
# 
# From -- ./inp_files/625.got.cif
#   From: 2010.05.17/outbox.cif.g08.bks.cpg/sg76_cif.got.tgz:625.got - 2010.06.03 18:43:17.
