data_PCOD9541984
_publ_section_title
;
Structure prediction by ZEFSAII (Michael W. Deem and Ramdas Pophale) SiO2 
 PCOD9541984
Probable space group: I 4
;
_chemical_formula_sum "Si O2"
_cell_formula_units_Z 40
_cell_length_a 14.181232
_cell_length_b 14.181232
_cell_length_c 8.409200
_cell_angle_alpha 90.000000
_cell_angle_beta 90.000000
_cell_angle_gamma 90.000000
_cell_volume 1691.151852
_symmetry_space_group_name_H-M "I 4"
_symmetry_group_IT_number 79
_symmetry_cell_setting 'tetragonal'
loop_
_space_group_symop_operation_xyz
x,y,z
-y,x,z
-x,-y,z
y,-x,z
1/2+x,1/2+y,1/2+z
1/2-y,1/2+x,1/2+z
1/2-x,1/2-y,1/2+z
1/2+y,1/2-x,1/2+z
loop_
_atom_site_type_symbol
_atom_site_label
_atom_site_fract_x
_atom_site_fract_y
_atom_site_fract_z
Si Si1 0.854285 0.940757 0.006060
Si Si2 0.822995 0.177005 0.294388
Si Si3 0.559243 0.645715 0.082716
Si Si4 0.848332 0.651668 0.044388
Si Si5 0.702076 1.000000 0.794388
O O1 0.822505 0.914426 0.181552
O O2 0.950490 0.883303 0.982251
O O3 0.768851 0.924849 0.886688
O O4 0.822505 0.085574 0.407224
O O5 0.736728 0.166798 0.170892
O O6 0.833202 0.263273 0.417884
O O7 0.450490 0.616697 0.106525
O O8 0.575151 0.731149 0.202088
O O9 0.847274 0.557647 0.153187
O O10 0.942353 0.652726 0.935589
#
# Coordination Sequence:
#
# PCOD9541984 Si02
#       5
#     8   8   8   8   8
#     4  11  23  42  75 117 156 190 230 320 395 481
#     4  12  24  47  72 112 157 194 254 308 400 466
#     4  11  23  42  75 117 156 190 230 320 395 481
#     4  12  28  46  76 107 154 217 256 322 372 460
#     4  12  26  49  72 115 156 202 264 304 382 452
#
# _framework density 23.652519999999999
#
# number of rings (size 3 to 8) (size 9 to 14) (size 15 to 20)
#    0.000    0.400    4.000    4.800    0.000    3.200 
#    0.000    0.000    0.000   16.800    0.000    0.000 
#    0.000    0.000    0.000    0.000    0.000    0.000 
#
# Total GULP energy -111790.004704 kJ/mol
# GULP energy per Si atom -5589.500235 kJ/mol
# Density = 2.359869 g / cm^3
# Si number density = 23.652520 Si / 1000 Ang^3
#
#
#
# Elastic Constant Matrix: (Units=GPa)
#
#
# Indices 1 2 3 4 5 6 
#
# 1 82.2933 52.2044 79.4021 0.0000 0.0000 0.0000
# 2 52.2044 82.2933 79.4021 0.0000 0.0000 0.0000
# 3 79.4021 79.4021 217.4105 0.0000 0.0000 0.0000
# 4 0.0000 0.0000 0.0000 57.7255 0.0000 0.0000
# 5 0.0000 0.0000 0.0000 0.0000 57.7255 0.0000
# 6 0.0000 0.0000 0.0000 0.0000 0.0000 26.7870
#
#
#
# Elastic Compliance Matrix: (Units=1/GPa)
#
#
# Indices 1 2 3 4 5 6 
#
# 1 0.023153 -0.010081 -0.004774 0.000000 0.000000 0.000000
# 2 -0.010081 0.023153 -0.004774 0.000000 0.000000 0.000000
# 3 -0.004774 -0.004774 0.008087 0.000000 0.000000 0.000000
# 4 0.000000 0.000000 0.000000 0.017323 0.000000 0.000000
# 5 0.000000 0.000000 0.000000 0.000000 0.017323 0.000000
# 6 0.000000 0.000000 0.000000 0.000000 0.000000 0.037332
#
#
# Mechanical properties :
#
#
# Convention : Reuss Voigt Hill
#
# Bulk Modulus (GPa) = 66.07526 89.33494 77.70510
# Shear Modulus (GPa) = 29.29529 39.84684 34.57107
#
# Velocity S-wave (km/s) = 3.52315 4.10893 3.82727
# Velocity P-wave (km/s) = 6.67432 7.76935 7.24256
#
# Compressibility (1/GPa) = 0.01513426
#
# Stress axis : x y z
#
# Youngs Moduli (GPa) = 43.19020 43.19020 123.65867
#
# Poissons Ratio (x) = 0.43542 0.59036
# Poissons Ratio (y) = 0.43542 0.59036
# Poissons Ratio (z) = 0.20619 0.20619
#
# Static dielectric constant tensor:
#      x y z
#    x 1.954600 0.000000 0.000000 
#    y 0.000000 1.954600 0.000000 
#    z 0.000000 0.000000 1.910920 
# 
# From -- ./inp_files/552.got.cif
#   From: 2010.05.17/outbox.cif.g08.bks.cpg/sg79_cif.got.tgz:552.got - 2010.06.03 18:47:27.
