data_PCOD9541785
_publ_section_title
;
Structure prediction by ZEFSAII (Michael W. Deem and Ramdas Pophale) SiO2 
 PCOD9541785
Probable space group: P 43
;
_chemical_formula_sum "Si O2"
_cell_formula_units_Z 20
_cell_length_a 5.067161
_cell_length_b 5.067161
_cell_length_c 29.007291
_cell_angle_alpha 90.000000
_cell_angle_beta 90.000000
_cell_angle_gamma 90.000000
_cell_volume 744.794702
_symmetry_space_group_name_H-M "P 43"
_symmetry_group_IT_number 78
_symmetry_cell_setting 'tetragonal'
loop_
_space_group_symop_operation_xyz
x,y,z
-y,x,3/4+z
-x,-y,1/2+z
y,-x,1/4+z
loop_
_atom_site_type_symbol
_atom_site_label
_atom_site_fract_x
_atom_site_fract_y
_atom_site_fract_z
Si Si1 0.980422 0.253226 0.355260
Si Si2 0.007178 0.031395 0.944066
Si Si3 0.719988 0.505715 0.718766
Si Si4 0.664082 0.128607 0.274958
Si Si5 0.233556 0.724631 0.313195
O O1 0.907380 0.183878 0.407130
O O2 0.190117 0.488757 0.350242
O O3 0.737630 0.296665 0.320364
O O4 0.082838 0.972361 0.335385
O O5 0.709884 0.127838 0.936206
O O6 0.221703 0.265553 0.944686
O O7 0.982949 0.903071 0.994577
O O8 0.858488 0.439219 0.767759
O O9 0.477806 0.676336 0.738317
O O10 0.491178 0.880209 0.293239
#
# Coordination Sequence:
#
# PCOD9541785 Si02
#       5
#     4   4   4   4   4
#     4  12  30  49  78 121 162 209 281 343 411 500
#     4  12  30  49  78 121 162 209 281 343 411 500
#     4  12  25  50  76 114 153 213 267 329 410 494
#     4  12  26  50  88 104 168 214 266 342 424 494
#     4  12  25  50  76 114 153 213 267 329 410 494
#
# _framework density 26.853038000000002
#
# number of rings (size 3 to 8) (size 9 to 14) (size 15 to 20)
#    0.000    0.000    8.000    0.000   11.200    0.000 
#    0.000    2.000    0.000    0.000    0.000    0.000 
#    0.000    0.000    0.000    0.000    0.000    0.000 
#
# Total GULP energy -111623.175864 kJ/mol
# GULP energy per Si atom -5581.158793 kJ/mol
# Density = 2.679192 g / cm^3
# Si number density = 26.853038 Si / 1000 Ang^3
#
#
#
# Elastic Constant Matrix: (Units=GPa)
#
#
# Indices 1 2 3 4 5 6 
#
# 1 129.3180 51.1402 20.4497 0.0000 0.0000 3.8981
# 2 51.1402 129.3180 20.4497 0.0000 0.0000 -3.8981
# 3 20.4497 20.4497 87.5751 0.0000 0.0000 0.0000
# 4 0.0000 0.0000 0.0000 33.7121 0.0000 0.0000
# 5 0.0000 0.0000 0.0000 0.0000 33.7121 0.0000
# 6 3.8981 -3.8981 0.0000 0.0000 0.0000 37.7391
#
#
#
# Elastic Compliance Matrix: (Units=1/GPa)
#
#
# Indices 1 2 3 4 5 6 
#
# 1 0.009388 -0.003537 -0.001366 0.000000 0.000000 -0.001335
# 2 -0.003537 0.009388 -0.001366 0.000000 0.000000 0.001335
# 3 -0.001366 -0.001366 0.012057 0.000000 0.000000 0.000000
# 4 0.000000 0.000000 0.000000 0.029663 0.000000 0.000000
# 5 0.000000 0.000000 0.000000 0.000000 0.029663 0.000000
# 6 -0.001335 0.001335 0.000000 0.000000 0.000000 0.026774
#
#
# Mechanical properties :
#
#
# Convention : Reuss Voigt Hill
#
# Bulk Modulus (GPa) = 54.66304 58.92115 56.79210
# Shear Modulus (GPa) = 36.88177 37.97744 37.42960
#
# Velocity S-wave (km/s) = 3.71005 3.76476 3.73751
# Velocity P-wave (km/s) = 6.22521 6.39434 6.31034
#
# Compressibility (1/GPa) = 0.01829390
#
# Stress axis : x y z
#
# Youngs Moduli (GPa) = 106.52133 106.52133 82.94035
#
# Poissons Ratio (x) = 0.37673 0.11332
# Poissons Ratio (y) = 0.37673 0.11332
# Poissons Ratio (z) = 0.14554 0.14554
#
# Static dielectric constant tensor:
#      x y z
#    x 2.150520 0.000000 0.000000 
#    y 0.000000 2.150520 0.000000 
#    z 0.000000 0.000000 2.116350 
# 
# From -- ./inp_files/1725.got.cif
#   From: 2010.05.17/outbox.cif.g08.bks.cpg/sg78_cif.got.tgz:1725.got - 2010.06.03 18:45:56.
