data_PCOD9541868
_publ_section_title
;
Structure prediction by ZEFSAII (Michael W. Deem and Ramdas Pophale) SiO2 
 PCOD9541868
Probable space group: I 4
;
_chemical_formula_sum "Si O2"
_cell_formula_units_Z 34
_cell_length_a 12.843890
_cell_length_b 12.843890
_cell_length_c 7.768388
_cell_angle_alpha 90.000000
_cell_angle_beta 90.000000
_cell_angle_gamma 90.000000
_cell_volume 1281.516091
_symmetry_space_group_name_H-M "I 4"
_symmetry_group_IT_number 79
_symmetry_cell_setting 'tetragonal'
loop_
_space_group_symop_operation_xyz
x,y,z
-y,x,z
-x,-y,z
y,-x,z
1/2+x,1/2+y,1/2+z
1/2-y,1/2+x,1/2+z
1/2-x,1/2-y,1/2+z
1/2+y,1/2-x,1/2+z
loop_
_atom_site_type_symbol
_atom_site_label
_atom_site_fract_x
_atom_site_fract_y
_atom_site_fract_z
Si Si1 0.220089 0.104318 0.485140
Si Si2 0.921786 0.595622 0.222366
Si Si3 0.552803 0.227954 0.497386
Si Si4 0.718175 0.343220 0.329948
Si Si5 0.500000 0.500000 0.915950
O O1 0.333197 0.076822 0.575846
O O2 0.260183 0.189458 0.347350
O O3 0.168841 0.164357 0.648015
O O4 0.128183 0.028036 0.423506
O O5 0.867237 0.612345 0.405275
O O6 0.000000 0.500000 0.233314
O O7 0.993407 0.692473 0.166262
O O8 0.632313 0.321672 0.479315
O O9 0.459072 0.245763 0.362903
#
# Coordination Sequence:
#
# PCOD9541868 Si02
#       5
#     8   8   8   8   2
#     4  10  23  42  67  97 130 174 220 274 332 390
#     4  10  21  38  60  96 127 169 216 271 325 392
#     4  10  22  38  65  94 131 174 218 273 330 393
#     4  10  22  41  64  99 132 172 220 274 327 401
#     4  12  24  44  76  98 128 184 232 274 316 416
#
# _framework density 26.531075000000001
#
# number of rings (size 3 to 8) (size 9 to 14) (size 15 to 20)
#    0.000    1.882    0.000    3.529    6.588    0.471 
#    4.235    0.000    0.000    1.412    0.000    0.000 
#    0.000    0.000    0.000    0.000    0.000    0.000 
#
# Total GULP energy -94843.744740 kJ/mol
# GULP energy per Si atom -5579.043808 kJ/mol
# Density = 2.647069 g / cm^3
# Si number density = 26.531075 Si / 1000 Ang^3
#
#
#
# Elastic Constant Matrix: (Units=GPa)
#
#
# Indices 1 2 3 4 5 6 
#
# 1 124.5742 37.5328 8.2894 0.0000 0.0000 10.7349
# 2 37.5328 124.5742 8.2894 0.0000 0.0000 -10.7349
# 3 8.2894 8.2894 36.9035 0.0000 0.0000 0.0000
# 4 0.0000 0.0000 0.0000 34.5293 0.0000 0.0000
# 5 0.0000 0.0000 0.0000 0.0000 34.5293 0.0000
# 6 10.7349 -10.7349 0.0000 0.0000 0.0000 25.8600
#
#
#
# Elastic Compliance Matrix: (Units=1/GPa)
#
#
# Indices 1 2 3 4 5 6 
#
# 1 0.009557 -0.003243 -0.001418 0.000000 0.000000 -0.005313
# 2 -0.003243 0.009557 -0.001418 0.000000 0.000000 0.005313
# 3 -0.001418 -0.001418 0.027735 0.000000 0.000000 0.000000
# 4 0.000000 0.000000 0.000000 0.028961 0.000000 0.000000
# 5 0.000000 0.000000 0.000000 0.000000 0.028961 0.000000
# 6 -0.005313 0.005313 0.000000 0.000000 0.000000 0.043081
#
#
# Mechanical properties :
#
#
# Convention : Reuss Voigt Hill
#
# Bulk Modulus (GPa) = 28.82714 43.80836 36.31775
# Shear Modulus (GPa) = 29.14220 34.44641 31.79431
#
# Velocity S-wave (km/s) = 3.31783 3.60716 3.46552
# Velocity P-wave (km/s) = 5.05632 5.82209 5.45267
#
# Compressibility (1/GPa) = 0.03468953
#
# Stress axis : x y z
#
# Youngs Moduli (GPa) = 104.63995 104.63995 36.05570
#
# Poissons Ratio (x) = 0.33932 0.05114
# Poissons Ratio (y) = 0.33932 0.05114
# Poissons Ratio (z) = 0.14840 0.14840
#
# Static dielectric constant tensor:
#      x y z
#    x 2.055600 0.000000 0.000000 
#    y 0.000000 2.055600 0.000000 
#    z 0.000000 0.000000 2.172730 
# 
# From -- ./inp_files/968.got.cif
#   From: 2010.05.17/outbox.cif.g08.bks.cpg/sg79_cif.got.tgz:968.got - 2010.06.03 18:47:27.
