data_PCOD9541130
_publ_section_title
;
Structure prediction by ZEFSAII (Michael W. Deem and Ramdas Pophale) SiO2 
 PCOD9541130
Probable space group: P 41
;
_chemical_formula_sum "Si O2"
_cell_formula_units_Z 24
_cell_length_a 12.004651
_cell_length_b 12.004651
_cell_length_c 8.079716
_cell_angle_alpha 90.000000
_cell_angle_beta 90.000000
_cell_angle_gamma 90.000000
_cell_volume 1164.381169
_symmetry_space_group_name_H-M "P 41"
_symmetry_group_IT_number 76
_symmetry_cell_setting 'tetragonal'
loop_
_space_group_symop_operation_xyz
x,y,z
-y,x,1/4+z
-x,-y,1/2+z
y,-x,3/4+z
loop_
_atom_site_type_symbol
_atom_site_label
_atom_site_fract_x
_atom_site_fract_y
_atom_site_fract_z
Si Si1 0.143234 0.967434 0.875000
Si Si2 0.842352 0.400166 0.312435
Si Si3 0.633115 0.112161 0.920428
Si Si4 0.261757 0.176354 0.747558
Si Si5 0.109305 0.352934 0.290758
Si Si6 0.408092 0.152512 0.428402
O O1 0.217715 0.049886 0.761799
O O2 0.046122 0.909306 0.769036
O O3 0.231286 0.882652 0.958666
O O4 0.833680 0.529916 0.266013
O O5 0.802039 0.376730 0.497758
O O6 0.975278 0.373977 0.302185
O O7 0.793672 0.329190 0.162812
O O8 0.748411 0.152937 0.992938
O O9 0.637346 0.148255 0.729075
O O10 0.617316 0.979970 0.926125
O O11 0.340303 0.193959 0.587998
O O12 0.160882 0.458233 0.196767
#
# Coordination Sequence:
#
# PCOD9541130 Si02
#       6
#     4   4   4   4   4   4
#     4  11  26  40  56  88 136 178 213 248 307 383
#     4   9  20  37  57  88 112 155 205 259 301 363
#     4  10  20  35  63  86 118 154 201 259 310 359
#     4  11  22  38  59  92 118 161 206 251 314 368
#     4   9  20  37  61  84 118 163 212 249 303 354
#     4  10  20  39  62  86 122 155 205 264 303 363
#
# _framework density 20.611809000000001
#
# number of rings (size 3 to 8) (size 9 to 14) (size 15 to 20)
#    0.000    2.000    1.667    1.000   11.667    4.000 
#    0.000    0.000    0.000    0.000    4.333    0.000 
#    0.000    0.000    0.000    0.000    0.000    0.000 
#
# Total GULP energy -133999.911199 kJ/mol
# GULP energy per Si atom -5583.329633 kJ/mol
# Density = 2.056490 g / cm^3
# Si number density = 20.611809 Si / 1000 Ang^3
#
#
#
# Elastic Constant Matrix: (Units=GPa)
#
#
# Indices 1 2 3 4 5 6 
#
# 1 61.5879 13.2044 43.9740 0.0000 0.0000 -2.3177
# 2 13.2044 61.5879 43.9740 0.0000 0.0000 2.3177
# 3 43.9740 43.9740 163.9207 0.0000 0.0000 0.0000
# 4 0.0000 0.0000 0.0000 18.6878 0.0000 0.0000
# 5 0.0000 0.0000 0.0000 0.0000 18.6878 0.0000
# 6 -2.3177 2.3177 0.0000 0.0000 0.0000 -1.8563
#
#
#
# Elastic Compliance Matrix: (Units=1/GPa)
#
#
# Indices 1 2 3 4 5 6 
#
# 1 0.018996 0.000536 -0.005240 0.000000 0.000000 -0.023049
# 2 0.000536 0.018996 -0.005240 0.000000 0.000000 0.023049
# 3 -0.005240 -0.005240 0.008912 0.000000 0.000000 0.000000
# 4 0.000000 0.000000 0.000000 0.053511 0.000000 0.000000
# 5 0.000000 0.000000 0.000000 0.000000 0.053511 0.000000
# 6 -0.023049 0.023049 0.000000 0.000000 0.000000 -0.481155
#
#
# Mechanical properties :
#
#
# Convention : Reuss Voigt Hill
#
# Bulk Modulus (GPa) = 37.01453 54.37795 45.69624
# Shear Modulus (GPa) = -16.75956 19.50014 1.37029
#
# Velocity S-wave (km/s) = -2.85459 3.07916 0.81624
# Velocity P-wave (km/s) = 2.67058 6.25146 4.80691
#
# Compressibility (1/GPa) = 0.02701642
#
# Stress axis : x y z
#
# Youngs Moduli (GPa) = 52.64318 52.64318 112.21185
#
# Poissons Ratio (x) = -0.02821 0.58795
# Poissons Ratio (y) = -0.02821 0.58795
# Poissons Ratio (z) = 0.27583 0.27583
#
# Static dielectric constant tensor:
#      x y z
#    x 1.731470 0.000000 0.000000 
#    y 0.000000 1.731470 0.000000 
#    z 0.000000 0.000000 1.792690 
# 
# From -- ./inp_files/551.got.cif
#   From: 2010.05.17/outbox.cif.g08.bks.cpg/sg76_cif.got.tgz:551.got - 2010.06.03 18:43:17.
