data_PCOD9541606
_publ_section_title
;
Structure prediction by ZEFSAII (Michael W. Deem and Ramdas Pophale) SiO2 
 PCOD9541606
Probable space group: P 43
;
_chemical_formula_sum "Si O2"
_cell_formula_units_Z 32
_cell_length_a 13.111501
_cell_length_b 13.111501
_cell_length_c 9.667368
_cell_angle_alpha 90.000000
_cell_angle_beta 90.000000
_cell_angle_gamma 90.000000
_cell_volume 1661.931332
_symmetry_space_group_name_H-M "P 43"
_symmetry_group_IT_number 78
_symmetry_cell_setting 'tetragonal'
loop_
_space_group_symop_operation_xyz
x,y,z
-y,x,3/4+z
-x,-y,1/2+z
y,-x,1/4+z
loop_
_atom_site_type_symbol
_atom_site_label
_atom_site_fract_x
_atom_site_fract_y
_atom_site_fract_z
Si Si1 0.233413 0.665750 0.469890
Si Si2 0.974343 0.730215 0.860951
Si Si3 0.189417 0.104226 0.375860
Si Si4 0.767698 0.438294 0.700335
Si Si5 0.893583 0.251788 0.620624
Si Si6 0.575877 0.554780 0.803080
Si Si7 0.644917 0.138948 0.862293
Si Si8 0.038493 0.215985 0.886445
O O1 0.147110 0.701731 0.573785
O O2 0.196349 0.582119 0.359391
O O3 0.334620 0.626408 0.544183
O O4 0.274466 0.768282 0.390993
O O5 0.878344 0.797891 0.902069
O O6 0.932750 0.649729 0.748902
O O7 0.043081 0.802383 0.765362
O O8 0.037263 0.704968 0.996365
O O9 0.155949 0.030997 0.249591
O O10 0.799864 0.331467 0.633338
O O11 0.651111 0.472055 0.729465
O O12 0.816178 0.531509 0.615493
O O13 0.849937 0.137799 0.594857
O O14 0.964835 0.245205 0.758723
O O15 0.476763 0.557787 0.708907
O O16 0.687914 0.081699 0.727099
#
# Coordination Sequence:
#
# PCOD9541606 Si02
#       8
#     4   4   4   4   4   4   4   4
#     4   9  16  36  61  83 107 151 190 233 288 346
#     4  10  22  35  52  83 116 151 188 243 283 335
#     4  10  19  37  56  78 115 152 195 230 286 341
#     4  10  19  36  62  80 113 151 192 232 293 344
#     4  12  23  36  55  86 119 152 194 241 291 335
#     4   9  19  36  63  88 111 145 191 236 286 348
#     4   9  19  36  59  79 109 151 194 233 285 353
#     4  11  21  36  60  83 112 155 200 236 284 354
#
# _framework density 19.254707
#
# number of rings (size 3 to 8) (size 9 to 14) (size 15 to 20)
#    0.000    2.000    2.500    2.250    0.000    4.000 
#    2.250    0.000    2.750    0.000    0.000    0.000 
#    0.000    0.000    0.000    0.000    0.000    0.000 
#
# Total GULP energy -178172.471693 kJ/mol
# GULP energy per Si atom -5567.889740 kJ/mol
# Density = 1.921088 g / cm^3
# Si number density = 19.254707 Si / 1000 Ang^3
#
#
#
# Elastic Constant Matrix: (Units=GPa)
#
#
# Indices 1 2 3 4 5 6 
#
# 1 34.0485 4.7655 -4.0699 0.0000 0.0000 2.9746
# 2 4.7655 34.0485 -4.0699 0.0000 0.0000 -2.9746
# 3 -4.0699 -4.0699 51.5959 0.0000 0.0000 0.0000
# 4 0.0000 0.0000 0.0000 17.7414 0.0000 0.0000
# 5 0.0000 0.0000 0.0000 0.0000 17.7414 0.0000
# 6 2.9746 -2.9746 0.0000 0.0000 0.0000 18.8352
#
#
#
# Elastic Compliance Matrix: (Units=1/GPa)
#
#
# Indices 1 2 3 4 5 6 
#
# 1 0.030739 -0.004542 0.002066 0.000000 0.000000 -0.005572
# 2 -0.004542 0.030739 0.002066 0.000000 0.000000 0.005572
# 3 0.002066 0.002066 0.019707 0.000000 0.000000 0.000000
# 4 0.000000 0.000000 0.000000 0.056365 0.000000 0.000000
# 5 0.000000 0.000000 0.000000 0.000000 0.056365 0.000000
# 6 -0.005572 0.005572 0.000000 0.000000 0.000000 0.054852
#
#
# Mechanical properties :
#
#
# Convention : Reuss Voigt Hill
#
# Bulk Modulus (GPa) = 12.44281 12.54937 12.49609
# Shear Modulus (GPa) = 18.09125 19.06807 18.57966
#
# Velocity S-wave (km/s) = 3.06858 3.15033 3.10972
# Velocity P-wave (km/s) = 4.36247 4.44572 4.40429
#
# Compressibility (1/GPa) = 0.08036771
#
# Stress axis : x y z
#
# Youngs Moduli (GPa) = 32.53154 32.53154 50.74243
#
# Poissons Ratio (x) = 0.14776 -0.10486
# Poissons Ratio (y) = 0.14776 -0.10486
# Poissons Ratio (z) = -0.06722 -0.06722
#
# Static dielectric constant tensor:
#      x y z
#    x 1.698880 0.000000 0.000000 
#    y 0.000000 1.698880 0.000000 
#    z 0.000000 0.000000 1.680470 
# 
# From -- ./inp_files/684.got.cif
#   From: 2010.05.17/outbox.cif.g08.bks.cpg/sg78_cif.got.tgz:684.got - 2010.06.03 18:45:56.
