data_PCOD9541760
_publ_section_title
;
Structure prediction by ZEFSAII (Michael W. Deem and Ramdas Pophale) SiO2 
 PCOD9541760
Probable space group: P 43
;
_chemical_formula_sum "Si O2"
_cell_formula_units_Z 24
_cell_length_a 7.474948
_cell_length_b 7.474948
_cell_length_c 17.541630
_cell_angle_alpha 90.000000
_cell_angle_beta 90.000000
_cell_angle_gamma 90.000000
_cell_volume 980.135903
_symmetry_space_group_name_H-M "P 43"
_symmetry_group_IT_number 78
_symmetry_cell_setting 'tetragonal'
loop_
_space_group_symop_operation_xyz
x,y,z
-y,x,3/4+z
-x,-y,1/2+z
y,-x,1/4+z
loop_
_atom_site_type_symbol
_atom_site_label
_atom_site_fract_x
_atom_site_fract_y
_atom_site_fract_z
Si Si1 0.945218 0.511481 0.052100
Si Si2 0.993608 0.124196 0.511107
Si Si3 0.034521 0.167312 0.124226
Si Si4 0.409525 0.746893 0.018432
Si Si5 0.446248 0.423618 0.361497
Si Si6 0.561045 0.952179 0.632892
O O1 0.042947 0.378355 0.109770
O O2 0.668310 0.508756 0.190744
O O3 0.944936 0.721507 0.069356
O O4 0.019771 0.497414 0.966296
O O5 0.786461 0.174460 0.499933
O O6 0.020579 0.929306 0.546333
O O7 0.112151 0.113489 0.435670
O O8 0.224636 0.073613 0.138458
O O9 0.427654 0.584174 0.079573
O O10 0.495795 0.912604 0.065576
O O11 0.245909 0.491351 0.367338
O O12 0.450785 0.260024 0.301741
#
# Coordination Sequence:
#
# PCOD9541760 Si02
#       6
#     4   4   4   4   4   4
#     4  12  24  44  72 103 150 196 250 318 385 467
#     4  11  24  46  73 109 147 199 255 316 387 461
#     4  11  24  46  75 107 149 197 254 316 384 460
#     4  11  26  47  78 109 155 203 261 327 396 480
#     4  12  25  48  72 113 152 202 259 324 402 473
#     4  11  25  47  74 111 149 199 261 319 390 473
#
# _framework density 24.4864
#
# number of rings (size 3 to 8) (size 9 to 14) (size 15 to 20)
#    0.000    0.667    3.333    4.000    0.000    2.667 
#    6.000    0.000    0.000    0.000    0.000    0.000 
#    0.000    0.000    0.000    0.000    0.000    0.000 
#
# Total GULP energy -134217.376051 kJ/mol
# GULP energy per Si atom -5592.390669 kJ/mol
# Density = 2.443067 g / cm^3
# Si number density = 24.486400 Si / 1000 Ang^3
#
#
#
# Elastic Constant Matrix: (Units=GPa)
#
#
# Indices 1 2 3 4 5 6 
#
# 1 92.0472 11.5421 38.6974 0.0000 0.0000 -5.4303
# 2 11.5421 92.0472 38.6974 0.0000 0.0000 5.4303
# 3 38.6974 38.6974 122.3156 0.0000 0.0000 0.0000
# 4 0.0000 0.0000 0.0000 33.1853 0.0000 0.0000
# 5 0.0000 0.0000 0.0000 0.0000 33.1853 0.0000
# 6 -5.4303 5.4303 0.0000 0.0000 0.0000 39.5511
#
#
#
# Elastic Compliance Matrix: (Units=1/GPa)
#
#
# Indices 1 2 3 4 5 6 
#
# 1 0.012649 -0.000007 -0.003999 0.000000 0.000000 0.001738
# 2 -0.000007 0.012649 -0.003999 0.000000 0.000000 -0.001738
# 3 -0.003999 -0.003999 0.010706 0.000000 0.000000 0.000000
# 4 0.000000 0.000000 0.000000 0.030134 0.000000 0.000000
# 5 0.000000 0.000000 0.000000 0.000000 0.030134 0.000000
# 6 0.001738 -0.001738 0.000000 0.000000 0.000000 0.025761
#
#
# Mechanical properties :
#
#
# Convention : Reuss Voigt Hill
#
# Bulk Modulus (GPa) = 50.02100 53.80932 51.91516
# Shear Modulus (GPa) = 34.55221 35.68255 35.11738
#
# Velocity S-wave (km/s) = 3.76051 3.82152 3.79114
# Velocity P-wave (km/s) = 6.27118 6.44166 6.35699
#
# Compressibility (1/GPa) = 0.01999160
#
# Stress axis : x y z
#
# Youngs Moduli (GPa) = 79.05871 79.05871 93.40354
#
# Poissons Ratio (x) = 0.00057 0.37357
# Poissons Ratio (y) = 0.00057 0.37357
# Poissons Ratio (z) = 0.31619 0.31619
#
# Static dielectric constant tensor:
#      x y z
#    x 1.956370 0.000000 0.000000 
#    y 0.000000 1.956370 0.000000 
#    z 0.000000 0.000000 1.963540 
# 
# From -- ./inp_files/1107.got.cif
#   From: 2010.05.17/outbox.cif.g08.bks.cpg/sg78_cif.got.tgz:1107.got - 2010.06.03 18:45:56.
