data_PCOD9541545
_publ_section_title
;
Structure prediction by ZEFSAII (Michael W. Deem and Ramdas Pophale) SiO2 
 PCOD9541545
Probable space group: P 42
;
_chemical_formula_sum "Si O2"
_cell_formula_units_Z 16
_cell_length_a 8.611123
_cell_length_b 8.611123
_cell_length_c 7.238755
_cell_angle_alpha 90.000000
_cell_angle_beta 90.000000
_cell_angle_gamma 90.000000
_cell_volume 536.764102
_symmetry_space_group_name_H-M "P 42"
_symmetry_group_IT_number 77
_symmetry_cell_setting 'tetragonal'
loop_
_space_group_symop_operation_xyz
x,y,z
-y,x,1/2+z
-x,-y,z
y,-x,1/2+z
loop_
_atom_site_type_symbol
_atom_site_label
_atom_site_fract_x
_atom_site_fract_y
_atom_site_fract_z
Si Si1 0.230302 0.170212 0.926060
Si Si2 0.315064 0.497079 0.044218
Si Si3 0.658932 0.990566 0.261131
Si Si4 0.168698 0.331702 0.381990
O O1 0.052366 0.200178 0.880937
O O2 0.270123 0.006251 0.830261
O O3 0.294975 0.347098 0.908641
O O4 0.266488 0.145653 0.141490
O O5 0.500000 0.500000 0.086035
O O6 0.215513 0.457386 0.227351
O O7 0.267153 0.660980 0.951196
O O8 0.500000 0.000000 0.371375
O O9 0.615214 0.110636 0.089937
#
# Coordination Sequence:
#
# PCOD9541545 Si02
#       4
#     4   4   4   4
#     4  10  27  52  84 129 174 229 303 367 445 537
#     4  12  26  48  87 125 175 234 295 369 454 527
#     4  10  24  50  87 126 176 227 299 369 445 535
#     4  10  28  48  87 130 175 233 299 371 448 535
#
# _framework density 29.808252
#
# number of rings (size 3 to 8) (size 9 to 14) (size 15 to 20)
#    1.500    0.000    0.000    2.250   14.000    0.000 
#    4.500    5.000    0.000    0.000    0.000    0.000 
#    0.000    0.000    0.000    0.000    0.000    0.000 
#
# Total GULP energy -89165.024482 kJ/mol
# GULP energy per Si atom -5572.814030 kJ/mol
# Density = 2.974041 g / cm^3
# Si number density = 29.808252 Si / 1000 Ang^3
#
#
#
# Elastic Constant Matrix: (Units=GPa)
#
#
# Indices 1 2 3 4 5 6 
#
# 1 199.4248 81.3786 25.1257 0.0000 0.0000 -1.5538
# 2 81.3786 199.4248 25.1257 0.0000 0.0000 1.5538
# 3 25.1257 25.1257 113.6879 0.0000 0.0000 0.0000
# 4 0.0000 0.0000 0.0000 -184.3051 0.0000 0.0000
# 5 0.0000 0.0000 0.0000 0.0000 -184.3051 0.0000
# 6 -1.5538 1.5538 0.0000 0.0000 0.0000 64.3931
#
#
#
# Elastic Compliance Matrix: (Units=1/GPa)
#
#
# Indices 1 2 3 4 5 6 
#
# 1 0.006092 -0.002384 -0.000819 0.000000 0.000000 0.000205
# 2 -0.002384 0.006092 -0.000819 0.000000 0.000000 -0.000205
# 3 -0.000819 -0.000819 0.009158 0.000000 0.000000 0.000000
# 4 0.000000 0.000000 0.000000 -0.005426 0.000000 0.000000
# 5 0.000000 0.000000 0.000000 0.000000 -0.005426 0.000000
# 6 0.000205 -0.000205 0.000000 0.000000 0.000000 0.015539
#
#
# Mechanical properties :
#
#
# Convention : Reuss Voigt Hill
#
# Bulk Modulus (GPa) = 75.21000 86.19971 80.70485
# Shear Modulus (GPa) = 129.83886 -35.44957 47.19465
#
# Velocity S-wave (km/s) = 6.60701 -3.45230 3.98335
# Velocity P-wave (km/s) = 9.13726 3.61797 6.94907
#
# Compressibility (1/GPa) = 0.01329610
#
# Stress axis : x y z
#
# Youngs Moduli (GPa) = 164.14303 164.14303 109.19152
#
# Poissons Ratio (x) = 0.39138 0.08948
# Poissons Ratio (y) = 0.39138 0.08948
# Poissons Ratio (z) = 0.13451 0.13451
#
# Static dielectric constant tensor:
#      x y z
#    x 2.632200 0.000000 0.000000 
#    y 0.000000 2.632200 0.000000 
#    z 0.000000 0.000000 2.334340 
# 
# From -- ./inp_files/283.got.cif
#   From: 2010.05.17/outbox.cif.g08.bks.cpg/sg77_cif.got.tgz:283.got - 2010.06.03 18:44:51.
