data_PCOD9541795
_publ_section_title
;
Structure prediction by ZEFSAII (Michael W. Deem and Ramdas Pophale) SiO2 
 PCOD9541795
Probable space group: P 43
;
_chemical_formula_sum "Si O2"
_cell_formula_units_Z 32
_cell_length_a 9.000000
_cell_length_b 9.000000
_cell_length_c 21.000000
_cell_angle_alpha 90.000000
_cell_angle_beta 90.000000
_cell_angle_gamma 90.000000
_cell_volume 1701.000000
_symmetry_space_group_name_H-M "P 43"
_symmetry_group_IT_number 78
_symmetry_cell_setting 'tetragonal'
loop_
_space_group_symop_operation_xyz
x,y,z
-y,x,3/4+z
-x,-y,1/2+z
y,-x,1/4+z
loop_
_atom_site_type_symbol
_atom_site_label
_atom_site_fract_x
_atom_site_fract_y
_atom_site_fract_z
Si Si1 0.461064 0.967942 0.372890
Si Si2 0.064213 0.891029 0.378708
Si Si3 0.203826 0.737388 0.138564
Si Si4 0.468517 0.541728 0.081703
Si Si5 0.206615 0.778093 0.620326
Si Si6 0.440462 0.636898 0.703280
Si Si7 0.727930 0.220753 0.975814
Si Si8 0.694958 0.240091 0.784030
O O1 0.632287 0.940662 0.384147
O O2 0.384016 0.874252 0.431041
O O3 0.416938 0.890864 0.305878
O O4 0.383924 0.126373 0.371159
O O5 0.112965 0.831071 0.448409
O O6 0.164899 0.800813 0.328147
O O7 0.896974 0.847956 0.365395
O O8 0.109792 0.065814 0.377127
O O9 0.338162 0.657747 0.100261
O O10 0.260382 0.750144 0.211149
O O11 0.672118 0.238259 0.176061
O O12 0.547540 0.489159 0.147339
O O13 0.568858 0.598540 0.022774
O O14 0.279775 0.804416 0.551260
O O15 0.606995 0.699985 0.711230
O O16 0.608460 0.388652 0.805208
#
# Coordination Sequence:
#
# PCOD9541795 Si02
#       8
#     4   4   4   4   4   4   4   4
#     4   9  20  36  57  87 119 161 197 256 314 357
#     4  10  21  37  59  89 116 167 206 255 305 372
#     4  11  20  36  64  87 123 158 212 252 305 372
#     4  11  20  35  61  99 122 152 203 269 308 350
#     4  10  22  37  58  88 124 156 203 251 315 373
#     4  12  20  36  64  93 124 153 202 264 310 355
#     4  10  18  37  63  84 112 164 211 248 291 378
#     4   9  17  34  58  83 114 155 214 243 290 369
#
# _framework density 18.812463000000001
#
# number of rings (size 3 to 8) (size 9 to 14) (size 15 to 20)
#    0.000    2.000    6.250    1.500    0.000    1.000 
#    0.000    5.000    2.750    0.000    0.000    0.000 
#    0.000    0.000    0.000    0.000    0.000    0.000 
#
# Total GULP energy -178363.029251 kJ/mol
# GULP energy per Si atom -5573.844664 kJ/mol
# Density = 1.876965 g / cm^3
# Si number density = 18.812463 Si / 1000 Ang^3
#
#
#
# Elastic Constant Matrix: (Units=GPa)
#
#
# Indices 1 2 3 4 5 6 
#
# 1 69.5530 5.9050 10.1706 0.0000 0.0000 4.0550
# 2 5.9050 69.5530 10.1706 0.0000 0.0000 -4.0550
# 3 10.1706 10.1706 96.4961 0.0000 0.0000 0.0000
# 4 0.0000 0.0000 0.0000 13.7980 0.0000 0.0000
# 5 0.0000 0.0000 0.0000 0.0000 13.7980 0.0000
# 6 4.0550 -4.0550 0.0000 0.0000 0.0000 22.6190
#
#
#
# Elastic Compliance Matrix: (Units=1/GPa)
#
#
# Indices 1 2 3 4 5 6 
#
# 1 0.014859 -0.001219 -0.001438 0.000000 0.000000 -0.002883
# 2 -0.001219 0.014859 -0.001438 0.000000 0.000000 0.002883
# 3 -0.001438 -0.001438 0.010666 0.000000 0.000000 0.000000
# 4 0.000000 0.000000 0.000000 0.072474 0.000000 0.000000
# 5 0.000000 0.000000 0.000000 0.000000 0.072474 0.000000
# 6 -0.002883 0.002883 0.000000 0.000000 0.000000 0.045244
#
#
# Mechanical properties :
#
#
# Convention : Reuss Voigt Hill
#
# Bulk Modulus (GPa) = 31.06023 32.01051 31.53537
# Shear Modulus (GPa) = 20.04015 24.00003 22.02009
#
# Velocity S-wave (km/s) = 3.26737 3.57564 3.42498
# Velocity P-wave (km/s) = 5.54803 5.83948 5.69562
#
# Compressibility (1/GPa) = 0.03219551
#
# Stress axis : x y z
#
# Youngs Moduli (GPa) = 67.29776 67.29776 93.75444
#
# Poissons Ratio (x) = 0.08206 0.13479
# Poissons Ratio (y) = 0.08206 0.13479
# Poissons Ratio (z) = 0.09675 0.09675
#
# Static dielectric constant tensor:
#      x y z
#    x 1.684920 0.000000 0.000000 
#    y 0.000000 1.684920 0.000000 
#    z 0.000000 0.000000 1.653840 
# 
# From -- ./inp_files/1496.got.cif
#   From: 2010.05.17/outbox.ucp.g08.bks.cvg/sg78_cif.got.tgz:1496.got - 2010.06.11 16:42:09.
