data_PCOD9541970
_publ_section_title
;
Structure prediction by ZEFSAII (Michael W. Deem and Ramdas Pophale) SiO2 
 PCOD9541970
Probable space group: I 4
;
_chemical_formula_sum "Si O2"
_cell_formula_units_Z 50
_cell_length_a 9.344316
_cell_length_b 9.344316
_cell_length_c 27.688817
_cell_angle_alpha 90.000000
_cell_angle_beta 90.000000
_cell_angle_gamma 90.000000
_cell_volume 2417.683432
_symmetry_space_group_name_H-M "I 4"
_symmetry_group_IT_number 79
_symmetry_cell_setting 'tetragonal'
loop_
_space_group_symop_operation_xyz
x,y,z
-y,x,z
-x,-y,z
y,-x,z
1/2+x,1/2+y,1/2+z
1/2-y,1/2+x,1/2+z
1/2-x,1/2-y,1/2+z
1/2+y,1/2-x,1/2+z
loop_
_atom_site_type_symbol
_atom_site_label
_atom_site_fract_x
_atom_site_fract_y
_atom_site_fract_z
Si Si1 0.466547 0.259693 0.681900
Si Si2 0.886845 0.209423 0.859565
Si Si3 0.876940 0.650398 0.081365
Si Si4 0.060448 0.340054 0.288757
Si Si5 0.110024 0.211378 0.433771
Si Si6 0.000000 0.000000 0.309342
Si Si7 0.637944 0.829860 0.041142
O O1 0.616462 0.344996 0.681986
O O2 0.445348 0.167030 0.633766
O O3 0.452995 0.172775 0.731184
O O4 0.849257 0.277496 0.808034
O O5 0.826432 0.320560 0.898655
O O6 0.055688 0.186370 0.865512
O O7 0.773646 0.778850 0.070559
O O8 0.794500 0.503279 0.071945
O O9 0.999447 0.649897 0.040558
O O10 0.000000 0.500000 0.303663
O O11 0.001398 0.182064 0.306916
O O12 0.130965 0.258891 0.489043
O O13 0.941941 0.185061 0.425259
#
# Coordination Sequence:
#
# PCOD9541970 Si02
#       7
#     8   8   8   8   8   2   8
#     4  11  22  42  70 105 143 190 246 299 353 433
#     4  11  29  51  71 107 147 185 242 315 384 455
#     4  11  24  41  68  99 144 183 236 284 357 422
#     4  12  26  45  78 107 149 200 249 315 382 448
#     4  11  26  45  75 105 138 188 243 297 369 452
#     4  12  24  48  72 116 144 196 260 312 368 472
#     4  11  24  43  66 102 140 187 229 292 355 429
#
# _framework density 20.680955000000001
#
# number of rings (size 3 to 8) (size 9 to 14) (size 15 to 20)
#    0.000    0.800    4.800    0.960    8.960    0.640 
#    0.000    0.000    0.000    0.000    0.000    0.000 
#    0.000    0.000    0.000    0.000    0.000    0.000 
#
# Total GULP energy -139317.078182 kJ/mol
# GULP energy per Si atom -5572.683127 kJ/mol
# Density = 2.063388 g / cm^3
# Si number density = 20.680955 Si / 1000 Ang^3
#
#
#
# Elastic Constant Matrix: (Units=GPa)
#
#
# Indices 1 2 3 4 5 6 
#
# 1 111.3628 58.3466 35.5225 0.0000 0.0000 -2.0470
# 2 58.3466 111.3628 35.5225 0.0000 0.0000 2.0470
# 3 35.5225 35.5225 73.1223 0.0000 0.0000 0.0000
# 4 0.0000 0.0000 0.0000 33.4262 0.0000 0.0000
# 5 0.0000 0.0000 0.0000 0.0000 33.4262 0.0000
# 6 -2.0470 2.0470 0.0000 0.0000 0.0000 36.9962
#
#
#
# Elastic Compliance Matrix: (Units=1/GPa)
#
#
# Indices 1 2 3 4 5 6 
#
# 1 0.013170 -0.005773 -0.003593 0.000000 0.000000 0.001048
# 2 -0.005773 0.013170 -0.003593 0.000000 0.000000 -0.001048
# 3 -0.003593 -0.003593 0.017167 0.000000 0.000000 0.000000
# 4 0.000000 0.000000 0.000000 0.029917 0.000000 0.000000
# 5 0.000000 0.000000 0.000000 0.000000 0.029917 0.000000
# 6 0.001048 -0.001048 0.000000 0.000000 0.000000 0.027146
#
#
# Mechanical properties :
#
#
# Convention : Reuss Voigt Hill
#
# Bulk Modulus (GPa) = 56.85967 61.62570 59.24268
# Shear Modulus (GPa) = 30.81328 31.86680 31.34004
#
# Velocity S-wave (km/s) = 3.86416 3.92966 3.89704
# Velocity P-wave (km/s) = 6.88929 7.10300 6.99696
#
# Compressibility (1/GPa) = 0.01758716
#
# Stress axis : x y z
#
# Youngs Moduli (GPa) = 75.93080 75.93081 58.25159
#
# Poissons Ratio (x) = 0.43836 0.20931
# Poissons Ratio (y) = 0.43836 0.20931
# Poissons Ratio (z) = 0.27284 0.27284
#
# Static dielectric constant tensor:
#      x y z
#    x 1.771680 0.000000 0.000000 
#    y 0.000000 1.771680 0.000000 
#    z 0.000000 0.000000 1.735480 
# 
# From -- ./inp_files/2152.got.cif
#   From: 2010.05.17/outbox.cif.g08.bks.cpg/sg79_cif.got.tgz:2152.got - 2010.06.03 18:47:27.
