data_PCOD9541658
_publ_section_title
;
Structure prediction by ZEFSAII (Michael W. Deem and Ramdas Pophale) SiO2 
 PCOD9541658
Probable space group: P 43
;
_chemical_formula_sum "Si O2"
_cell_formula_units_Z 16
_cell_length_a 9.197206
_cell_length_b 9.197206
_cell_length_c 7.099740
_cell_angle_alpha 90.000000
_cell_angle_beta 90.000000
_cell_angle_gamma 90.000000
_cell_volume 600.557054
_symmetry_space_group_name_H-M "P 43"
_symmetry_group_IT_number 78
_symmetry_cell_setting 'tetragonal'
loop_
_space_group_symop_operation_xyz
x,y,z
-y,x,3/4+z
-x,-y,1/2+z
y,-x,1/4+z
loop_
_atom_site_type_symbol
_atom_site_label
_atom_site_fract_x
_atom_site_fract_y
_atom_site_fract_z
Si Si1 0.507548 0.319963 0.666300
Si Si2 0.730086 0.261693 0.147924
Si Si3 0.811413 0.915376 0.556278
Si Si4 0.954269 0.370321 0.439187
O O1 0.639512 0.419418 0.604148
O O2 0.401036 0.346109 0.485424
O O3 0.514766 0.144389 0.672521
O O4 0.868707 0.259329 0.295963
O O5 0.625350 0.123307 0.148313
O O6 0.795981 0.260437 0.942134
O O7 0.697537 0.952375 0.394878
O O8 0.952559 0.859514 0.441444
#
# Coordination Sequence:
#
# PCOD9541658 Si02
#       4
#     4   4   4   4
#     4  10  24  48  70  94 134 188 238 286 348 420
#     4  10  21  39  65 101 140 175 224 277 342 407
#     4  12  18  30  60 100 140 184 212 264 334 412
#     4  10  21  39  65 101 140 175 224 277 342 407
#
# _framework density 26.641935
#
# number of rings (size 3 to 8) (size 9 to 14) (size 15 to 20)
#    1.500    0.000    5.000    1.500    0.000    2.000 
#    0.000   10.000    0.000    0.000    0.000    0.000 
#    0.000    0.000    0.000    0.000    0.000    0.000 
#
# Total GULP energy -89441.464127 kJ/mol
# GULP energy per Si atom -5590.091508 kJ/mol
# Density = 2.658130 g / cm^3
# Si number density = 26.641935 Si / 1000 Ang^3
#
#
#
# Elastic Constant Matrix: (Units=GPa)
#
#
# Indices 1 2 3 4 5 6 
#
# 1 75.1719 17.8230 29.3009 0.0000 0.0000 -0.3870
# 2 17.8230 75.1719 29.3009 0.0000 0.0000 0.3870
# 3 29.3009 29.3009 176.0127 0.0000 0.0000 0.0000
# 4 0.0000 0.0000 0.0000 47.5627 0.0000 0.0000
# 5 0.0000 0.0000 0.0000 0.0000 47.5627 0.0000
# 6 -0.3870 0.3870 0.0000 0.0000 0.0000 21.0271
#
#
#
# Elastic Compliance Matrix: (Units=1/GPa)
#
#
# Indices 1 2 3 4 5 6 
#
# 1 0.014727 -0.002714 -0.002000 0.000000 0.000000 0.000321
# 2 -0.002714 0.014727 -0.002000 0.000000 0.000000 -0.000321
# 3 -0.002000 -0.002000 0.006347 0.000000 0.000000 0.000000
# 4 0.000000 0.000000 0.000000 0.021025 0.000000 0.000000
# 5 0.000000 0.000000 0.000000 0.000000 0.021025 0.000000
# 6 0.000321 -0.000321 0.000000 0.000000 0.000000 0.047570
#
#
# Mechanical properties :
#
#
# Convention : Reuss Voigt Hill
#
# Bulk Modulus (GPa) = 44.69323 53.24509 48.96916
# Shear Modulus (GPa) = 34.17464 39.89261 37.03362
#
# Velocity S-wave (km/s) = 3.58542 3.87377 3.73238
# Velocity P-wave (km/s) = 5.82686 6.32748 6.08232
#
# Compressibility (1/GPa) = 0.02237475
#
# Stress axis : x y z
#
# Youngs Moduli (GPa) = 67.90020 67.90020 157.54838
#
# Poissons Ratio (x) = 0.18428 0.31508
# Poissons Ratio (y) = 0.18428 0.31508
# Poissons Ratio (z) = 0.13579 0.13579
#
# Static dielectric constant tensor:
#      x y z
#    x 2.130830 0.000000 0.000000 
#    y 0.000000 2.130830 0.000000 
#    z 0.000000 0.000000 2.027010 
# 
# From -- ./inp_files/74.got.cif
#   From: 2010.05.17/outbox.cif.g08.bks.cpg/sg78_cif.got.tgz:74.got - 2010.06.03 18:45:56.
