data_PCOD9541844
_publ_section_title
;
Structure prediction by ZEFSAII (Michael W. Deem and Ramdas Pophale) SiO2 
 PCOD9541844
Probable space group: I 4
;
_chemical_formula_sum "Si O2"
_cell_formula_units_Z 64
_cell_length_a 11.436899
_cell_length_b 11.436899
_cell_length_c 28.066518
_cell_angle_alpha 90.000000
_cell_angle_beta 90.000000
_cell_angle_gamma 90.000000
_cell_volume 3671.175176
_symmetry_space_group_name_H-M "I 4"
_symmetry_group_IT_number 79
_symmetry_cell_setting 'tetragonal'
loop_
_space_group_symop_operation_xyz
x,y,z
-y,x,z
-x,-y,z
y,-x,z
1/2+x,1/2+y,1/2+z
1/2-y,1/2+x,1/2+z
1/2-x,1/2-y,1/2+z
1/2+y,1/2-x,1/2+z
loop_
_atom_site_type_symbol
_atom_site_label
_atom_site_fract_x
_atom_site_fract_y
_atom_site_fract_z
Si Si1 0.185311 0.037816 0.623400
Si Si2 0.183921 0.931396 0.886996
Si Si3 0.389159 0.923498 0.071299
Si Si4 0.939522 0.186981 0.246358
Si Si5 0.934138 0.813531 0.995938
Si Si6 0.736601 0.902989 0.727168
Si Si7 0.206707 0.628111 0.288566
Si Si8 0.858041 0.489959 0.672935
O O1 0.304204 0.064053 0.595541
O O2 0.199085 0.042572 0.680968
O O3 0.088503 0.134253 0.610837
O O4 0.264407 0.897895 0.843078
O O5 0.065731 0.855804 0.882115
O O6 0.226714 0.917389 0.941127
O O7 0.290588 0.905801 0.031928
O O8 0.333819 0.989325 0.117073
O O9 0.500000 0.000000 0.054252
O O10 0.899896 0.281227 0.285326
O O11 0.070958 0.138555 0.249500
O O12 0.923768 0.268212 0.199039
O O13 0.068970 0.856382 0.002281
O O14 0.812002 0.816580 0.760325
O O15 0.631338 0.837488 0.700448
O O16 0.687912 0.007059 0.760290
O O17 0.000000 0.500000 0.676983
#
# Coordination Sequence:
#
# PCOD9541844 Si02
#       8
#     8   8   8   8   8   8   8   8
#     4  10  21  35  53  83 120 151 181 228 287 346
#     4   9  18  33  58  91 116 139 182 240 303 347
#     4  10  23  36  61  82 113 152 197 240 289 348
#     4  11  24  38  53  76 117 165 201 229 268 335
#     4   9  20  40  63  85 114 148 187 250 307 349
#     4  11  20  30  55  85 116 147 182 227 285 346
#     4  12  20  32  59  86 117 150 184 229 291 344
#     4  10  20  37  53  80 112 151 191 236 276 328
#
# _framework density 17.433109000000002
#
# number of rings (size 3 to 8) (size 9 to 14) (size 15 to 20)
#    0.000    1.750    5.000    0.750    1.750    1.250 
#    0.000    1.250    8.250    0.000    0.000    1.750 
#    0.000    0.000    0.000    0.000    0.000    0.000 
#
# Total GULP energy -178283.932966 kJ/mol
# GULP energy per Si atom -5571.372905 kJ/mol
# Density = 1.739343 g / cm^3
# Si number density = 17.433109 Si / 1000 Ang^3
#
#
#
# Elastic Constant Matrix: (Units=GPa)
#
#
# Indices 1 2 3 4 5 6 
#
# 1 51.6046 33.4652 38.7768 0.0000 0.0000 6.4208
# 2 33.4652 51.6046 38.7768 0.0000 0.0000 -6.4208
# 3 38.7768 38.7768 109.3974 0.0000 0.0000 0.0000
# 4 0.0000 0.0000 0.0000 24.9849 0.0000 0.0000
# 5 0.0000 0.0000 0.0000 0.0000 24.9849 0.0000
# 6 6.4208 -6.4208 0.0000 0.0000 0.0000 16.2026
#
#
#
# Elastic Compliance Matrix: (Units=1/GPa)
#
#
# Indices 1 2 3 4 5 6 
#
# 1 0.046996 -0.029629 -0.006156 0.000000 0.000000 -0.030365
# 2 -0.029629 0.046996 -0.006156 0.000000 0.000000 0.030365
# 3 -0.006156 -0.006156 0.013505 0.000000 0.000000 0.000000
# 4 0.000000 0.000000 0.000000 0.040024 0.000000 0.000000
# 5 0.000000 0.000000 0.000000 0.000000 0.040024 0.000000
# 6 -0.030365 0.030365 0.000000 0.000000 0.000000 0.085785
#
#
# Mechanical properties :
#
#
# Convention : Reuss Voigt Hill
#
# Bulk Modulus (GPa) = 42.34501 48.29381 45.31941
# Shear Modulus (GPa) = 13.69546 20.00702 16.85124
#
# Velocity S-wave (km/s) = 2.80590 3.39137 3.11243
# Velocity P-wave (km/s) = 5.90255 6.56488 6.24251
#
# Compressibility (1/GPa) = 0.02361554
#
# Stress axis : x y z
#
# Youngs Moduli (GPa) = 21.27828 21.27828 74.04658
#
# Poissons Ratio (x) = 0.63046 0.45582
# Poissons Ratio (y) = 0.63046 0.45582
# Poissons Ratio (z) = 0.13099 0.13099
#
# Static dielectric constant tensor:
#      x y z
#    x 1.634420 0.000000 0.000000 
#    y 0.000000 1.634420 0.000000 
#    z 0.000000 0.000000 1.581320 
# 
# From -- ./inp_files/1995.got.cif
#   From: 2010.05.17/outbox.cif.g08.bks.cpg/sg79_cif.got.tgz:1995.got - 2010.06.03 18:47:27.
