data_PCOD9541628
_publ_section_title
;
Structure prediction by ZEFSAII (Michael W. Deem and Ramdas Pophale) SiO2 
 PCOD9541628
Probable space group: P 43
;
_chemical_formula_sum "Si O2"
_cell_formula_units_Z 32
_cell_length_a 11.195657
_cell_length_b 11.195657
_cell_length_c 13.918623
_cell_angle_alpha 90.000000
_cell_angle_beta 90.000000
_cell_angle_gamma 90.000000
_cell_volume 1744.598283
_symmetry_space_group_name_H-M "P 43"
_symmetry_group_IT_number 78
_symmetry_cell_setting 'tetragonal'
loop_
_space_group_symop_operation_xyz
x,y,z
-y,x,3/4+z
-x,-y,1/2+z
y,-x,1/4+z
loop_
_atom_site_type_symbol
_atom_site_label
_atom_site_fract_x
_atom_site_fract_y
_atom_site_fract_z
Si Si1 0.747588 0.585956 0.397830
Si Si2 0.269941 0.071587 0.769892
Si Si3 0.768839 0.464943 0.603424
Si Si4 0.360191 0.878801 0.496809
Si Si5 0.786931 0.063129 0.626026
Si Si6 0.364495 0.138133 0.564313
Si Si7 0.062833 0.154421 0.094938
Si Si8 0.157351 0.192737 0.423800
O O1 0.744145 0.548185 0.510298
O O2 0.632937 0.664909 0.369783
O O3 0.866918 0.662184 0.373196
O O4 0.766184 0.465795 0.337267
O O5 0.388006 0.113053 0.826037
O O6 0.157502 0.123329 0.826842
O O7 0.286663 0.125005 0.662184
O O8 0.250243 0.933135 0.750014
O O9 0.795809 0.540382 0.698858
O O10 0.265257 0.904421 0.412064
O O11 0.280713 0.829011 0.583952
O O12 0.410433 0.004914 0.537337
O O13 0.805981 0.037266 0.737855
O O14 0.826326 0.936402 0.583319
O O15 0.281126 0.172789 0.476534
O O16 0.936955 0.105877 0.138935
#
# Coordination Sequence:
#
# PCOD9541628 Si02
#       8
#     4   4   4   4   4   4   4   4
#     4  10  22  42  60  81 116 159 210 254 292 349
#     4   9  21  35  59  90 121 156 192 243 297 367
#     4  10  21  43  61  82 118 157 204 260 294 344
#     4  10  20  38  61  88 127 154 188 249 313 353
#     4  11  21  32  59  92 122 157 195 239 302 365
#     4   9  21  40  60  84 126 159 198 244 306 356
#     4  11  20  32  57  93 129 155 186 237 306 377
#     4  10  20  38  59  92 127 159 189 246 300 373
#
# _framework density 18.342331000000001
#
# number of rings (size 3 to 8) (size 9 to 14) (size 15 to 20)
#    0.000    2.000    2.500    0.750    5.250    2.000 
#    6.750    0.000    2.750    0.000    0.000    0.000 
#    0.000    0.000    0.000    0.000    0.000    0.000 
#
# Total GULP energy -178278.863870 kJ/mol
# GULP energy per Si atom -5571.214496 kJ/mol
# Density = 1.830058 g / cm^3
# Si number density = 18.342331 Si / 1000 Ang^3
#
#
#
# Elastic Constant Matrix: (Units=GPa)
#
#
# Indices 1 2 3 4 5 6 
#
# 1 59.6727 46.7268 18.5202 0.0000 0.0000 1.7250
# 2 46.7268 59.6727 18.5202 0.0000 0.0000 -1.7250
# 3 18.5202 18.5202 40.8252 0.0000 0.0000 0.0000
# 4 0.0000 0.0000 0.0000 20.0876 0.0000 0.0000
# 5 0.0000 0.0000 0.0000 0.0000 20.0876 0.0000
# 6 1.7250 -1.7250 0.0000 0.0000 0.0000 25.6951
#
#
#
# Elastic Compliance Matrix: (Units=1/GPa)
#
#
# Indices 1 2 3 4 5 6 
#
# 1 0.044906 -0.033745 -0.005063 0.000000 0.000000 -0.005280
# 2 -0.033745 0.044906 -0.005063 0.000000 0.000000 0.005280
# 3 -0.005063 -0.005063 0.029089 0.000000 0.000000 0.000000
# 4 0.000000 0.000000 0.000000 0.049782 0.000000 0.000000
# 5 0.000000 0.000000 0.000000 0.000000 0.049782 0.000000
# 6 -0.005280 0.005280 0.000000 0.000000 0.000000 0.039627
#
#
# Mechanical properties :
#
#
# Convention : Reuss Voigt Hill
#
# Bulk Modulus (GPa) = 32.09454 36.41168 34.25311
# Shear Modulus (GPa) = 14.03621 18.26761 16.15191
#
# Velocity S-wave (km/s) = 2.76929 3.15925 2.97068
# Velocity P-wave (km/s) = 5.26885 5.76213 5.52100
#
# Compressibility (1/GPa) = 0.03115795
#
# Stress axis : x y z
#
# Youngs Moduli (GPa) = 22.26855 22.26855 34.37777
#
# Poissons Ratio (x) = 0.75146 0.17406
# Poissons Ratio (y) = 0.75146 0.17406
# Poissons Ratio (z) = 0.11275 0.11275
#
# Static dielectric constant tensor:
#      x y z
#    x 1.657360 0.000000 0.000000 
#    y 0.000000 1.657360 0.000000 
#    z 0.000000 0.000000 1.627600 
# 
# From -- ./inp_files/953.got.cif
#   From: 2010.05.17/outbox.cif.g08.bks.cpg/sg78_cif.got.tgz:953.got - 2010.06.03 18:45:56.
