data_PCOD9541310
_publ_section_title
;
Structure prediction by ZEFSAII (Michael W. Deem and Ramdas Pophale) SiO2 
 PCOD9541310
Probable space group: P 41
;
_chemical_formula_sum "Si O2"
_cell_formula_units_Z 12
_cell_length_a 9.412923
_cell_length_b 9.412923
_cell_length_c 4.977080
_cell_angle_alpha 90.000000
_cell_angle_beta 90.000000
_cell_angle_gamma 90.000000
_cell_volume 440.984814
_symmetry_space_group_name_H-M "P 41"
_symmetry_group_IT_number 76
_symmetry_cell_setting 'tetragonal'
loop_
_space_group_symop_operation_xyz
x,y,z
-y,x,1/4+z
-x,-y,1/2+z
y,-x,3/4+z
loop_
_atom_site_type_symbol
_atom_site_label
_atom_site_fract_x
_atom_site_fract_y
_atom_site_fract_z
Si Si1 0.957242 0.409254 0.054260
Si Si2 0.175797 0.882844 0.073445
Si Si3 0.683138 0.379159 0.418158
O O1 0.803067 0.385494 0.186092
O O2 0.031351 0.517864 0.266729
O O3 0.046010 0.262965 0.075363
O O4 0.265430 0.741601 0.128436
O O5 0.016317 0.835065 0.016456
O O6 0.665072 0.532521 0.547645
#
# Coordination Sequence:
#
# PCOD9541310 Si02
#       3
#     4   4   4
#     4  11  25  50  77 112 154 206 252 322 380 460
#     4  10  24  48  72 112 149 205 260 321 385 459
#     4  11  25  46  75 118 155 207 256 321 387 467
#
# _framework density 27.211822000000002
#
# number of rings (size 3 to 8) (size 9 to 14) (size 15 to 20)
#    0.000    1.333    3.333    0.000    4.667    5.333 
#    6.000    0.000    0.000    0.000    0.000    0.000 
#    0.000    0.000    0.000    0.000    0.000    0.000 
#
# Total GULP energy -67354.404636 kJ/mol
# GULP energy per Si atom -5612.867053 kJ/mol
# Density = 2.714989 g / cm^3
# Si number density = 27.211822 Si / 1000 Ang^3
#
#
#
# Elastic Constant Matrix: (Units=GPa)
#
#
# Indices 1 2 3 4 5 6 
#
# 1 234.7167 71.9486 41.7321 0.0000 0.0000 19.9857
# 2 71.9486 234.7167 41.7321 0.0000 0.0000 -19.9857
# 3 41.7321 41.7321 93.1408 0.0000 0.0000 0.0000
# 4 0.0000 0.0000 0.0000 12.0692 0.0000 0.0000
# 5 0.0000 0.0000 0.0000 0.0000 12.0692 0.0000
# 6 19.9857 -19.9857 0.0000 0.0000 0.0000 59.7303
#
#
#
# Elastic Compliance Matrix: (Units=1/GPa)
#
#
# Indices 1 2 3 4 5 6 
#
# 1 0.005204 -0.001490 -0.001664 0.000000 0.000000 -0.002240
# 2 -0.001490 0.005204 -0.001664 0.000000 0.000000 0.002240
# 3 -0.001664 -0.001664 0.012228 0.000000 0.000000 0.000000
# 4 0.000000 0.000000 0.000000 0.082855 0.000000 0.000000
# 5 0.000000 0.000000 0.000000 0.000000 0.082855 0.000000
# 6 -0.002240 0.002240 0.000000 0.000000 0.000000 0.018241
#
#
# Mechanical properties :
#
#
# Convention : Reuss Voigt Hill
#
# Bulk Modulus (GPa) = 76.92785 97.04439 86.98612
# Shear Modulus (GPa) = 22.67005 43.91784 33.29395
#
# Velocity S-wave (km/s) = 2.88947 4.02173 3.50167
# Velocity P-wave (km/s) = 6.28199 7.57005 6.95590
#
# Compressibility (1/GPa) = 0.01299919
#
# Stress axis : x y z
#
# Youngs Moduli (GPa) = 192.16942 192.16942 81.78267
#
# Poissons Ratio (x) = 0.28633 0.13608
# Poissons Ratio (y) = 0.28633 0.13608
# Poissons Ratio (z) = 0.31976 0.31976
#
# Static dielectric constant tensor:
#      x y z
#    x 2.106390 0.000000 0.000000 
#    y 0.000000 2.106390 0.000000 
#    z 0.000000 0.000000 2.108150 
# 
# From -- ./inp_files/28.got.cif
#   From: 2010.05.17/outbox.cif.g08.bks.cpg/sg76_cif.got.tgz:28.got - 2010.06.03 18:43:17.
