data_PCOD9541034
_publ_section_title
;
Structure prediction by ZEFSAII (Michael W. Deem and Ramdas Pophale) SiO2 
 PCOD9541034
Probable space group: P 4
;
_chemical_formula_sum "Si O2"
_cell_formula_units_Z 28
_cell_length_a 8.127933
_cell_length_b 8.127933
_cell_length_c 18.544550
_cell_angle_alpha 90.000000
_cell_angle_beta 90.000000
_cell_angle_gamma 90.000000
_cell_volume 1225.114075
_symmetry_space_group_name_H-M "P 4"
_symmetry_group_IT_number 75
_symmetry_cell_setting 'tetragonal'
loop_
_space_group_symop_operation_xyz
x,y,z
-y,x,z
-x,-y,z
y,-x,z
loop_
_atom_site_type_symbol
_atom_site_label
_atom_site_fract_x
_atom_site_fract_y
_atom_site_fract_z
Si Si1 0.261127 0.904060 0.073840
Si Si2 0.915092 0.736073 0.514199
Si Si3 0.261127 0.904060 0.235167
Si Si4 0.414523 0.762805 0.934163
Si Si5 0.084908 0.263927 0.794808
Si Si6 0.762805 0.585478 0.374844
Si Si7 0.236003 0.414475 0.654504
O O1 0.329174 0.878060 0.154504
O O2 0.092811 0.797791 0.067632
O O3 0.378533 0.850006 0.009860
O O4 0.875509 0.639285 0.441257
O O5 0.865696 0.630198 0.583440
O O6 0.100783 0.800863 0.516003
O O7 0.378533 0.850006 0.299147
O O8 0.092811 0.797791 0.241376
O O9 0.300434 0.600143 0.929574
O O10 0.360715 0.875509 0.867750
O O11 0.134304 0.369802 0.725567
O O12 0.899217 0.199137 0.793004
O O13 0.600143 0.699566 0.379433
O O14 0.399557 0.300580 0.654504
#
# Coordination Sequence:
#
# PCOD9541034 Si02
#       7
#     4   4   4   4   4   4   4
#     4   9  19  37  60  85 113 147 190 238 286 340
#     4  11  24  41  62  88 116 149 193 239 282 335
#     4   9  19  37  60  85 113 147 190 238 286 340
#     4  11  24  39  56  83 118 153 191 236 286 340
#     4  11  24  41  62  88 116 149 193 239 282 335
#     4  11  24  39  56  83 118 153 191 236 286 340
#     4  11  24  41  62  90 122 153 188 231 280 336
#
# _framework density 22.855011999999999
#
# number of rings (size 3 to 8) (size 9 to 14) (size 15 to 20)
#    0.000    1.571    0.000    5.143    0.000   16.000 
#    0.000    4.286    0.000    0.000    0.000    0.000 
#    0.000    0.000    0.000    0.000    0.000    0.000 
#
# Total GULP energy -157073.037015 kJ/mol
# GULP energy per Si atom -5609.751322 kJ/mol
# Density = 2.280299 g / cm^3
# Si number density = 22.855012 Si / 1000 Ang^3
#
#
#
# Elastic Constant Matrix: (Units=GPa)
#
#
# Indices 1 2 3 4 5 6 
#
# 1 95.6806 60.8432 60.4573 0.0000 0.0000 -0.0058
# 2 60.8432 95.6806 60.4573 0.0000 0.0000 0.0058
# 3 60.4573 60.4573 188.0453 0.0000 0.0000 0.0000
# 4 0.0000 0.0000 0.0000 1062.5802 0.0000 0.0000
# 5 0.0000 0.0000 0.0000 0.0000 1062.5802 0.0000
# 6 -0.0058 0.0058 0.0000 0.0000 0.0000 48.8666
#
#
#
# Elastic Compliance Matrix: (Units=1/GPa)
#
#
# Indices 1 2 3 4 5 6 
#
# 1 0.018602 -0.010102 -0.002733 0.000000 0.000000 0.000003
# 2 -0.010102 0.018602 -0.002733 0.000000 0.000000 -0.000003
# 3 -0.002733 -0.002733 0.007075 0.000000 0.000000 0.000000
# 4 0.000000 0.000000 0.000000 0.000941 0.000000 0.000000
# 5 0.000000 0.000000 0.000000 0.000000 0.000941 0.000000
# 6 0.000003 -0.000003 0.000000 0.000000 0.000000 0.020464
#
#
# Mechanical properties :
#
#
# Convention : Reuss Voigt Hill
#
# Bulk Modulus (GPa) = 76.08153 82.54686 79.31420
# Shear Modulus (GPa) = 48.95104 447.98199 248.46651
#
# Velocity S-wave (km/s) = 4.63299 14.01556 10.43792
# Velocity P-wave (km/s) = 7.87277 17.26588 13.41810
#
# Compressibility (1/GPa) = 0.01314379
#
# Stress axis : x y z
#
# Youngs Moduli (GPa) = 53.75676 53.75676 141.34208
#
# Poissons Ratio (x) = 0.54308 0.38625
# Poissons Ratio (y) = 0.54308 0.38625
# Poissons Ratio (z) = 0.14690 0.14690
#
# Static dielectric constant tensor:
#      x y z
#    x 1.822920 0.000000 0.000000 
#    y 0.000000 1.822920 0.000000 
#    z 0.000000 0.000000 1.778740 
# 
# From -- ./inp_files/739.got.cif
#   From: 2010.05.17/outbox.cif.g08.bks.cpg/sg75_cif.got.tgz:739.got - 2010.06.03 18:42:43.
