data_PCOD9541922
_publ_section_title
;
Structure prediction by ZEFSAII (Michael W. Deem and Ramdas Pophale) SiO2 
 PCOD9541922
Probable space group: I 4
;
_chemical_formula_sum "Si O2"
_cell_formula_units_Z 48
_cell_length_a 19.494963
_cell_length_b 19.494963
_cell_length_c 5.518460
_cell_angle_alpha 90.000000
_cell_angle_beta 90.000000
_cell_angle_gamma 90.000000
_cell_volume 2097.310492
_symmetry_space_group_name_H-M "I 4"
_symmetry_group_IT_number 79
_symmetry_cell_setting 'tetragonal'
loop_
_space_group_symop_operation_xyz
x,y,z
-y,x,z
-x,-y,z
y,-x,z
1/2+x,1/2+y,1/2+z
1/2-y,1/2+x,1/2+z
1/2-x,1/2-y,1/2+z
1/2+y,1/2-x,1/2+z
loop_
_atom_site_type_symbol
_atom_site_label
_atom_site_fract_x
_atom_site_fract_y
_atom_site_fract_z
Si Si1 0.780225 0.382097 0.406180
Si Si2 0.403113 0.561794 0.015670
Si Si3 0.364687 0.097442 0.750924
Si Si4 0.863479 0.128876 0.021184
Si Si5 0.529862 0.823707 0.000940
Si Si6 0.961518 0.254788 0.097507
O O1 0.845733 0.349280 0.541573
O O2 0.712000 0.340510 0.470837
O O3 0.793305 0.402146 0.126923
O O4 0.762408 0.460865 0.494225
O O5 0.408782 0.480182 0.998766
O O6 0.376480 0.583278 0.280864
O O7 0.363498 0.589820 0.779626
O O8 0.366538 0.019364 0.669382
O O9 0.439994 0.122421 0.815850
O O10 0.310999 0.088604 0.972602
O O11 0.924254 0.183956 0.042496
O O12 0.478479 0.769069 0.879310
#
# Coordination Sequence:
#
# PCOD9541922 Si02
#       6
#     8   8   8   8   8   8
#     4  10  23  43  67  97 137 184 236 292 360 430
#     4  11  24  42  65 100 139 182 245 306 357 427
#     4  10  22  44  67 100 136 180 230 295 360 440
#     4  12  26  41  71 102 137 198 235 296 368 430
#     4  10  22  44  71  96 141 184 234 302 366 438
#     4  10  23  43  67  97 137 184 236 292 360 430
#
# _framework density 22.886451999999998
#
# number of rings (size 3 to 8) (size 9 to 14) (size 15 to 20)
#    0.000    1.500    0.000    4.000   11.667    1.333 
#    6.000   24.167    0.000    0.000    0.000    0.000 
#    0.000    0.000    0.000    0.000    0.000    0.000 
#
# Total GULP energy -133762.142764 kJ/mol
# GULP energy per Si atom -5573.422615 kJ/mol
# Density = 2.283436 g / cm^3
# Si number density = 22.886452 Si / 1000 Ang^3
#
#
#
# Elastic Constant Matrix: (Units=GPa)
#
#
# Indices 1 2 3 4 5 6 
#
# 1 37.6533 21.8629 20.1779 0.0000 0.0000 -4.3648
# 2 21.8629 37.6533 20.1779 0.0000 0.0000 4.3648
# 3 20.1779 20.1779 110.4310 0.0000 0.0000 0.0000
# 4 0.0000 0.0000 0.0000 28.7932 0.0000 0.0000
# 5 0.0000 0.0000 0.0000 0.0000 28.7932 0.0000
# 6 -4.3648 4.3648 0.0000 0.0000 0.0000 35.7296
#
#
#
# Elastic Compliance Matrix: (Units=1/GPa)
#
#
# Indices 1 2 3 4 5 6 
#
# 1 0.043547 -0.024369 -0.003504 0.000000 0.000000 0.008297
# 2 -0.024369 0.043547 -0.003504 0.000000 0.000000 -0.008297
# 3 -0.003504 -0.003504 0.010336 0.000000 0.000000 0.000000
# 4 0.000000 0.000000 0.000000 0.034730 0.000000 0.000000
# 5 0.000000 0.000000 0.000000 0.000000 0.034730 0.000000
# 6 0.008297 -0.008297 0.000000 0.000000 0.000000 0.030015
#
#
# Mechanical properties :
#
#
# Convention : Reuss Voigt Hill
#
# Bulk Modulus (GPa) = 28.83879 34.46390 31.65134
# Shear Modulus (GPa) = 18.43520 26.89778 22.66649
#
# Velocity S-wave (km/s) = 2.84122 3.43194 3.15046
# Velocity P-wave (km/s) = 4.83648 5.54938 5.20515
#
# Compressibility (1/GPa) = 0.03467552
#
# Stress axis : x y z
#
# Youngs Moduli (GPa) = 22.96352 22.96352 96.74911
#
# Poissons Ratio (x) = 0.55960 0.33903
# Poissons Ratio (y) = 0.55960 0.33903
# Poissons Ratio (z) = 0.08047 0.08047
#
# Static dielectric constant tensor:
#      x y z
#    x 1.837590 0.000000 0.000000 
#    y 0.000000 1.837590 0.000000 
#    z 0.000000 0.000000 2.128400 
# 
# From -- ./inp_files/217.got.cif
#   From: 2010.05.17/outbox.cif.g08.bks.cpg/sg79_cif.got.tgz:217.got - 2010.06.03 18:47:27.
