data_PCOD9541451
_publ_section_title
;
Structure prediction by ZEFSAII (Michael W. Deem and Ramdas Pophale) SiO2 
 PCOD9541451
Probable space group: P 41
;
_chemical_formula_sum "Si O2"
_cell_formula_units_Z 16
_cell_length_a 8.119202
_cell_length_b 8.119202
_cell_length_c 8.258042
_cell_angle_alpha 90.000000
_cell_angle_beta 90.000000
_cell_angle_gamma 90.000000
_cell_volume 544.382029
_symmetry_space_group_name_H-M "P 41"
_symmetry_group_IT_number 76
_symmetry_cell_setting 'tetragonal'
loop_
_space_group_symop_operation_xyz
x,y,z
-y,x,1/4+z
-x,-y,1/2+z
y,-x,3/4+z
loop_
_atom_site_type_symbol
_atom_site_label
_atom_site_fract_x
_atom_site_fract_y
_atom_site_fract_z
Si Si1 0.100588 0.104637 0.533290
Si Si2 0.385941 0.673124 0.315793
Si Si3 0.155839 0.287416 0.176103
Si Si4 0.486149 0.123153 0.109520
O O1 0.046404 0.390746 0.307812
O O2 0.132162 0.922171 0.473401
O O3 0.121592 0.092463 0.223418
O O4 0.359427 0.515693 0.426757
O O5 0.214932 0.742016 0.245529
O O6 0.450738 0.811989 0.437633
O O7 0.353230 0.264046 0.160355
O O8 0.110064 0.378976 0.004127
#
# Coordination Sequence:
#
# PCOD9541451 Si02
#       4
#     4   4   4   4
#     4  12  31  58  91 141 190 248 325 389 480 570
#     4  12  31  64  94 139 191 253 315 402 486 580
#     4  12  28  59  89 137 185 257 313 403 480 568
#     4  12  28  57  90 129 196 242 327 396 484 572
#
# _framework density 29.391123
#
# number of rings (size 3 to 8) (size 9 to 14) (size 15 to 20)
#    0.000    0.000    5.000    1.500    7.000    4.000 
#    9.000    5.000    0.000    0.000    0.000    0.000 
#    0.000    0.000    0.000    0.000    0.000    0.000 
#
# Total GULP energy -89391.139431 kJ/mol
# GULP energy per Si atom -5586.946214 kJ/mol
# Density = 2.932423 g / cm^3
# Si number density = 29.391123 Si / 1000 Ang^3
#
#
#
# Elastic Constant Matrix: (Units=GPa)
#
#
# Indices 1 2 3 4 5 6 
#
# 1 154.3312 83.1015 77.7945 0.0000 0.0000 -25.6762
# 2 83.1015 154.3312 77.7945 0.0000 0.0000 25.6762
# 3 77.7945 77.7945 171.5554 0.0000 0.0000 0.0000
# 4 0.0000 0.0000 0.0000 77.1842 0.0000 0.0000
# 5 0.0000 0.0000 0.0000 0.0000 77.1842 0.0000
# 6 -25.6762 25.6762 0.0000 0.0000 0.0000 75.3706
#
#
#
# Elastic Compliance Matrix: (Units=1/GPa)
#
#
# Indices 1 2 3 4 5 6 
#
# 1 0.012301 -0.006309 -0.002717 0.000000 0.000000 0.006340
# 2 -0.006309 0.012301 -0.002717 0.000000 0.000000 -0.006340
# 3 -0.002717 -0.002717 0.008293 0.000000 0.000000 0.000000
# 4 0.000000 0.000000 0.000000 0.012956 0.000000 0.000000
# 5 0.000000 0.000000 0.000000 0.000000 0.012956 0.000000
# 6 0.006340 -0.006340 0.000000 0.000000 0.000000 0.017587
#
#
# Mechanical properties :
#
#
# Convention : Reuss Voigt Hill
#
# Bulk Modulus (GPa) = 106.28270 106.39986 106.34128
# Shear Modulus (GPa) = 48.53540 62.04964 55.29252
#
# Velocity S-wave (km/s) = 4.06810 4.59973 4.34206
# Velocity P-wave (km/s) = 7.63583 8.03057 7.83569
#
# Compressibility (1/GPa) = 0.00940887
#
# Stress axis : x y z
#
# Youngs Moduli (GPa) = 81.29416 81.29416 120.57687
#
# Poissons Ratio (x) = 0.51285 0.32765
# Poissons Ratio (y) = 0.51285 0.32765
# Poissons Ratio (z) = 0.22090 0.22090
#
# Static dielectric constant tensor:
#      x y z
#    x 2.285270 0.000000 0.000000 
#    y 0.000000 2.285270 0.000000 
#    z 0.000000 0.000000 2.707620 
# 
# From -- ./inp_files/56.got.cif
#   From: 2010.05.17/outbox.cif.g08.bks.cpg/sg76_cif.got.tgz:56.got - 2010.06.03 18:43:17.
