data_PCOD9541092
_publ_section_title
;
Structure prediction by ZEFSAII (Michael W. Deem and Ramdas Pophale) SiO2 
 PCOD9541092
Probable space group: P 41
;
_chemical_formula_sum "Si O2"
_cell_formula_units_Z 32
_cell_length_a 7.948778
_cell_length_b 7.948778
_cell_length_c 18.872400
_cell_angle_alpha 90.000000
_cell_angle_beta 90.000000
_cell_angle_gamma 90.000000
_cell_volume 1192.416202
_symmetry_space_group_name_H-M "P 41"
_symmetry_group_IT_number 76
_symmetry_cell_setting 'tetragonal'
loop_
_space_group_symop_operation_xyz
x,y,z
-y,x,1/4+z
-x,-y,1/2+z
y,-x,3/4+z
loop_
_atom_site_type_symbol
_atom_site_label
_atom_site_fract_x
_atom_site_fract_y
_atom_site_fract_z
Si Si1 0.648766 0.200615 0.977260
Si Si2 0.986507 0.336186 0.177198
Si Si3 0.079035 0.618007 0.406340
Si Si4 0.763453 0.638043 0.488257
Si Si5 0.992266 0.013246 0.099248
Si Si6 0.595197 0.479575 0.350539
Si Si7 0.760189 0.487434 0.773627
Si Si8 0.861734 0.868149 0.976699
O O1 0.516923 0.109778 0.923960
O O2 0.743599 0.357138 0.943873
O O3 0.572442 0.266588 0.050628
O O4 0.786336 0.056878 0.989229
O O5 0.840140 0.242859 0.224513
O O6 0.995535 0.215774 0.108500
O O7 0.161348 0.380996 0.217223
O O8 0.940433 0.565728 0.462757
O O9 0.034076 0.806296 0.379393
O O10 0.099089 0.512219 0.335607
O O11 0.635555 0.544502 0.430328
O O12 0.709734 0.611360 0.569067
O O13 0.005213 0.880749 0.035163
O O14 0.136452 0.950466 0.152408
O O15 0.411181 0.509864 0.317802
O O16 0.757569 0.302374 0.737032
#
# Coordination Sequence:
#
# PCOD9541092 Si02
#       8
#     4   4   4   4   4   4   4   4
#     4   9  17  32  57  83 106 142 183 227 280 338
#     4   9  17  32  53  78 109 144 181 221 274 334
#     4   9  17  33  59  84 107 142 190 234 280 341
#     4  10  20  37  60  84 113 150 192 237 288 347
#     4   9  17  32  53  79 106 141 187 232 276 332
#     4  11  21  36  57  84 117 152 191 236 290 346
#     4  10  19  33  53  80 113 147 188 234 280 337
#     4   9  18  33  54  78 105 142 188 233 280 333
#
# _framework density 26.836264
#
# number of rings (size 3 to 8) (size 9 to 14) (size 15 to 20)
#    0.000    2.500    0.000    5.250    0.000    1.000 
#    0.000   11.250    0.000    0.000    0.000    0.000 
#    0.000    0.000    0.000    0.000    0.000    0.000 
#
# Total GULP energy -178403.005521 kJ/mol
# GULP energy per Si atom -5575.093923 kJ/mol
# Density = 2.677518 g / cm^3
# Si number density = 26.836264 Si / 1000 Ang^3
#
#
#
# Elastic Constant Matrix: (Units=GPa)
#
#
# Indices 1 2 3 4 5 6 
#
# 1 92.8567 -11.6674 14.7759 0.0000 0.0000 6.0516
# 2 -11.6674 92.8567 14.7759 0.0000 0.0000 -6.0516
# 3 14.7759 14.7759 51.3383 0.0000 0.0000 0.0000
# 4 0.0000 0.0000 0.0000 29.1673 0.0000 0.0000
# 5 0.0000 0.0000 0.0000 0.0000 29.1673 0.0000
# 6 6.0516 -6.0516 0.0000 0.0000 0.0000 2.3551
#
#
#
# Elastic Compliance Matrix: (Units=1/GPa)
#
#
# Indices 1 2 3 4 5 6 
#
# 1 0.013689 0.000069 -0.003960 0.000000 0.000000 -0.034997
# 2 0.000069 0.013689 -0.003960 0.000000 0.000000 0.034997
# 3 -0.003960 -0.003960 0.021758 0.000000 0.000000 0.000000
# 4 0.000000 0.000000 0.000000 0.034285 0.000000 0.000000
# 5 0.000000 0.000000 0.000000 0.000000 0.034285 0.000000
# 6 -0.034997 0.034997 0.000000 0.000000 0.000000 0.604469
#
#
# Mechanical properties :
#
#
# Convention : Reuss Voigt Hill
#
# Bulk Modulus (GPa) = 29.90858 30.31337 30.11098
# Shear Modulus (GPa) = 6.67538 26.74911 16.71225
#
# Velocity S-wave (km/s) = 1.57888 3.16056 2.49820
# Velocity P-wave (km/s) = 3.80695 4.96378 4.42334
#
# Compressibility (1/GPa) = 0.03343522
#
# Stress axis : x y z
#
# Youngs Moduli (GPa) = 73.05184 73.05184 45.96015
#
# Poissons Ratio (x) = -0.00506 0.18199
# Poissons Ratio (y) = -0.00506 0.18199
# Poissons Ratio (z) = 0.28927 0.28927
#
# Static dielectric constant tensor:
#      x y z
#    x 2.205940 0.000000 0.000000 
#    y 0.000000 2.205940 0.000000 
#    z 0.000000 0.000000 2.406990 
# 
# From -- ./inp_files/1584.got.cif
#   From: 2010.05.17/outbox.cif.g08.bks.cpg/sg76_cif.got.tgz:1584.got - 2010.06.03 18:43:17.
