data_PCOD9541263
_publ_section_title
;
Structure prediction by ZEFSAII (Michael W. Deem and Ramdas Pophale) SiO2 
 PCOD9541263
Probable space group: P 41
;
_chemical_formula_sum "Si O2"
_cell_formula_units_Z 20
_cell_length_a 5.168490
_cell_length_b 5.168490
_cell_length_c 28.845200
_cell_angle_alpha 90.000000
_cell_angle_beta 90.000000
_cell_angle_gamma 90.000000
_cell_volume 770.550160
_symmetry_space_group_name_H-M "P 41"
_symmetry_group_IT_number 76
_symmetry_cell_setting 'tetragonal'
loop_
_space_group_symop_operation_xyz
x,y,z
-y,x,1/4+z
-x,-y,1/2+z
y,-x,3/4+z
loop_
_atom_site_type_symbol
_atom_site_label
_atom_site_fract_x
_atom_site_fract_y
_atom_site_fract_z
Si Si1 0.836393 0.968644 0.876300
Si Si2 0.014543 0.107196 0.967171
Si Si3 0.663344 0.017118 0.055185
Si Si4 0.383648 0.501284 0.083000
Si Si5 0.614660 0.786160 0.674314
O O1 0.981080 0.700901 0.889251
O O2 0.605368 0.907695 0.841175
O O3 0.794248 0.083898 0.926747
O O4 0.218501 0.878007 0.954762
O O5 0.143852 0.382374 0.958033
O O6 0.450131 0.243153 0.055182
O O7 0.864948 0.056434 0.013979
O O8 0.534593 0.735031 0.058528
O O9 0.841191 0.034366 0.101172
O O10 0.447560 0.438751 0.137550
#
# Coordination Sequence:
#
# PCOD9541263 Si02
#       5
#     4   4   4   4   4
#     4  10  24  45  71 108 146 203 249 315 391 465
#     4  10  22  48  70 112 146 205 249 328 385 476
#     4  12  25  44  78 107 158 196 268 321 397 463
#     4  12  23  46  72 110 145 206 248 322 385 473
#     4  10  22  47  69 103 149 196 252 302 398 455
#
# _framework density 25.955480999999999
#
# number of rings (size 3 to 8) (size 9 to 14) (size 15 to 20)
#    1.200    0.000    4.000    1.200    5.600    0.000 
#    3.600    0.000    0.000    0.000    0.000    0.000 
#    0.000    0.000    0.000    0.000    0.000    0.000 
#
# Total GULP energy -111691.044775 kJ/mol
# GULP energy per Si atom -5584.552239 kJ/mol
# Density = 2.589641 g / cm^3
# Si number density = 25.955481 Si / 1000 Ang^3
#
#
#
# Elastic Constant Matrix: (Units=GPa)
#
#
# Indices 1 2 3 4 5 6 
#
# 1 126.4439 26.0919 4.2814 0.0000 0.0000 -3.1983
# 2 26.0919 126.4439 4.2814 0.0000 0.0000 3.1983
# 3 4.2814 4.2814 74.0471 0.0000 0.0000 0.0000
# 4 0.0000 0.0000 0.0000 25.4636 0.0000 0.0000
# 5 0.0000 0.0000 0.0000 0.0000 25.4636 0.0000
# 6 -3.1983 3.1983 0.0000 0.0000 0.0000 19.7543
#
#
#
# Elastic Compliance Matrix: (Units=1/GPa)
#
#
# Indices 1 2 3 4 5 6 
#
# 1 0.008323 -0.001746 -0.000380 0.000000 0.000000 0.001630
# 2 -0.001746 0.008323 -0.000380 0.000000 0.000000 -0.001630
# 3 -0.000380 -0.000380 0.013549 0.000000 0.000000 0.000000
# 4 0.000000 0.000000 0.000000 0.039272 0.000000 0.000000
# 5 0.000000 0.000000 0.000000 0.000000 0.039272 0.000000
# 6 0.001630 -0.001630 0.000000 0.000000 0.000000 0.051150
#
#
# Mechanical properties :
#
#
# Convention : Reuss Voigt Hill
#
# Bulk Modulus (GPa) = 39.71075 44.02714 41.86895
# Shear Modulus (GPa) = 28.85255 33.62166 31.23710
#
# Velocity S-wave (km/s) = 3.33771 3.60301 3.47290
# Velocity P-wave (km/s) = 5.49423 5.85733 5.67868
#
# Compressibility (1/GPa) = 0.02518210
#
# Stress axis : x y z
#
# Youngs Moduli (GPa) = 120.14884 120.14884 73.80678
#
# Poissons Ratio (x) = 0.20976 0.02807
# Poissons Ratio (y) = 0.20976 0.02807
# Poissons Ratio (z) = 0.04569 0.04569
#
# Static dielectric constant tensor:
#      x y z
#    x 2.075450 0.000000 0.000000 
#    y 0.000000 2.075450 0.000000 
#    z 0.000000 0.000000 2.051410 
# 
# From -- ./inp_files/1623.got.cif
#   From: 2010.05.17/outbox.cif.g08.bks.cpg/sg76_cif.got.tgz:1623.got - 2010.06.03 18:43:17.
