data_PCOD9541559
_publ_section_title
;
Structure prediction by ZEFSAII (Michael W. Deem and Ramdas Pophale) SiO2 
 PCOD9541559
Probable space group: P 42
;
_chemical_formula_sum "Si O2"
_cell_formula_units_Z 20
_cell_length_a 7.549868
_cell_length_b 7.549868
_cell_length_c 14.377382
_cell_angle_alpha 90.000000
_cell_angle_beta 90.000000
_cell_angle_gamma 90.000000
_cell_volume 819.518061
_symmetry_space_group_name_H-M "P 42"
_symmetry_group_IT_number 77
_symmetry_cell_setting 'tetragonal'
loop_
_space_group_symop_operation_xyz
x,y,z
-y,x,1/2+z
-x,-y,z
y,-x,1/2+z
loop_
_atom_site_type_symbol
_atom_site_label
_atom_site_fract_x
_atom_site_fract_y
_atom_site_fract_z
Si Si1 0.226661 0.166581 0.338250
Si Si2 0.319040 0.592833 0.140998
Si Si3 0.834726 0.603549 0.797323
Si Si4 0.238723 0.895279 0.030883
Si Si5 0.867622 0.769041 0.124738
O O1 0.427341 0.249025 0.342408
O O2 0.105606 0.233000 0.420612
O O3 0.147027 0.192082 0.235615
O O4 0.269197 0.958048 0.358222
O O5 0.500000 0.500000 0.166921
O O6 0.282143 0.708166 0.233490
O O7 0.811206 0.565387 0.113710
O O8 0.736994 0.635879 0.562990
O O9 0.000000 0.500000 0.743593
O O10 0.057008 0.815143 0.078618
O O11 0.257881 0.087903 0.074067
#
# Coordination Sequence:
#
# PCOD9541559 Si02
#       5
#     4   4   4   4   4
#     4   9  20  44  66  95 138 190 237 300 370 429
#     4  12  22  42  71  99 142 192 244 300 373 432
#     4   8  18  38  69  92 135 185 240 298 366 432
#     4  11  25  43  68 104 145 188 247 293 371 452
#     4  11  24  42  71 103 141 189 238 306 363 437
#
# _framework density 24.404585999999998
#
# number of rings (size 3 to 8) (size 9 to 14) (size 15 to 20)
#    1.200    0.400    4.000    0.600    5.600    3.200 
#    3.600    0.000    4.400    0.000    0.000    0.000 
#    0.000    0.000    0.000    0.000    0.000    0.000 
#
# Total GULP energy -111409.450970 kJ/mol
# GULP energy per Si atom -5570.472549 kJ/mol
# Density = 2.434904 g / cm^3
# Si number density = 24.404586 Si / 1000 Ang^3
#
#
#
# Elastic Constant Matrix: (Units=GPa)
#
#
# Indices 1 2 3 4 5 6 
#
# 1 95.5088 17.6977 16.3293 0.0000 0.0000 -3.8703
# 2 17.6977 95.5088 16.3293 0.0000 0.0000 3.8703
# 3 16.3293 16.3293 137.8154 0.0000 0.0000 0.0000
# 4 0.0000 0.0000 0.0000 17.0500 0.0000 0.0000
# 5 0.0000 0.0000 0.0000 0.0000 17.0500 0.0000
# 6 -3.8703 3.8703 0.0000 0.0000 0.0000 30.8899
#
#
#
# Elastic Compliance Matrix: (Units=1/GPa)
#
#
# Indices 1 2 3 4 5 6 
#
# 1 0.011080 -0.001934 -0.001084 0.000000 0.000000 0.001631
# 2 -0.001934 0.011080 -0.001084 0.000000 0.000000 -0.001631
# 3 -0.001084 -0.001084 0.007513 0.000000 0.000000 0.000000
# 4 0.000000 0.000000 0.000000 0.058651 0.000000 0.000000
# 5 0.000000 0.000000 0.000000 0.000000 0.058651 0.000000
# 6 0.001631 -0.001631 0.000000 0.000000 0.000000 0.032782
#
#
# Mechanical properties :
#
#
# Convention : Reuss Voigt Hill
#
# Bulk Modulus (GPa) = 46.57609 47.72728 47.15168
# Shear Modulus (GPa) = 25.62580 31.56309 28.59444
#
# Velocity S-wave (km/s) = 3.24395 3.60019 3.42670
# Velocity P-wave (km/s) = 5.75824 6.07297 5.91770
#
# Compressibility (1/GPa) = 0.02147024
#
# Stress axis : x y z
#
# Youngs Moduli (GPa) = 90.25311 90.25311 133.10458
#
# Poissons Ratio (x) = 0.17454 0.14424
# Poissons Ratio (y) = 0.17454 0.14424
# Poissons Ratio (z) = 0.09781 0.09781
#
# Static dielectric constant tensor:
#      x y z
#    x 2.139220 0.000000 0.000000 
#    y 0.000000 2.139220 0.000000 
#    z 0.000000 0.000000 1.945100 
# 
# From -- ./inp_files/938.got.cif
#   From: 2010.05.17/outbox.cif.g08.bks.cpg/sg77_cif.got.tgz:938.got - 2010.06.03 18:44:51.
