data_PCOD9541542
_publ_section_title
;
Structure prediction by ZEFSAII (Michael W. Deem and Ramdas Pophale) SiO2 
 PCOD9541542
Probable space group: P 42
;
_chemical_formula_sum "Si O2"
_cell_formula_units_Z 12
_cell_length_a 5.018213
_cell_length_b 5.018213
_cell_length_c 18.390602
_cell_angle_alpha 90.000000
_cell_angle_beta 90.000000
_cell_angle_gamma 90.000000
_cell_volume 463.120631
_symmetry_space_group_name_H-M "P 42"
_symmetry_group_IT_number 77
_symmetry_cell_setting 'tetragonal'
loop_
_space_group_symop_operation_xyz
x,y,z
-y,x,1/2+z
-x,-y,z
y,-x,1/2+z
loop_
_atom_site_type_symbol
_atom_site_label
_atom_site_fract_x
_atom_site_fract_y
_atom_site_fract_z
Si Si1 0.674002 0.764639 0.852150
Si Si2 0.000000 0.000000 0.486119
Si Si3 0.000000 0.000000 0.237173
Si Si4 0.699348 0.748704 0.107643
O O1 0.500000 0.500000 0.863630
O O2 0.500000 0.000000 0.819923
O O3 0.901710 0.766934 0.791526
O O4 0.784209 0.894266 0.926620
O O5 0.227436 0.926858 0.545698
O O6 0.142674 0.206605 0.182420
O O7 0.500000 0.500000 0.106520
O O8 0.500000 0.000000 0.095283
#
# Coordination Sequence:
#
# PCOD9541542 Si02
#       4
#     4   2   2   4
#     4  11  26  45  76 107 157 207 265 333 403 479
#     4  10  24  48  72 118 148 208 266 332 398 484
#     4  10  28  42  68 110 152 202 276 326 404 482
#     4  11  26  45  76 107 157 207 265 333 403 479
#
# _framework density 25.911176000000001
#
# number of rings (size 3 to 8) (size 9 to 14) (size 15 to 20)
#    0.000    1.333    0.000    2.000    9.333   10.667 
#    0.000    0.000    0.000    0.000    0.000    0.000 
#    0.000    0.000    0.000    0.000    0.000    0.000 
#
# Total GULP energy -66830.463653 kJ/mol
# GULP energy per Si atom -5569.205304 kJ/mol
# Density = 2.585220 g / cm^3
# Si number density = 25.911176 Si / 1000 Ang^3
#
#
#
# Elastic Constant Matrix: (Units=GPa)
#
#
# Indices 1 2 3 4 5 6 
#
# 1 180.8903 107.1280 57.6544 0.0000 0.0000 0.3832
# 2 107.1280 180.8903 57.6544 0.0000 0.0000 -0.3832
# 3 57.6544 57.6544 204.0125 0.0000 0.0000 0.0000
# 4 0.0000 0.0000 0.0000 -16.2951 0.0000 0.0000
# 5 0.0000 0.0000 0.0000 0.0000 -16.2951 0.0000
# 6 0.3832 -0.3832 0.0000 0.0000 0.0000 75.0424
#
#
#
# Elastic Compliance Matrix: (Units=1/GPa)
#
#
# Indices 1 2 3 4 5 6 
#
# 1 0.008736 -0.004821 -0.001106 0.000000 0.000000 -0.000069
# 2 -0.004821 0.008736 -0.001106 0.000000 0.000000 0.000069
# 3 -0.001106 -0.001106 0.005527 0.000000 0.000000 0.000000
# 4 0.000000 0.000000 0.000000 -0.061368 0.000000 0.000000
# 5 0.000000 0.000000 0.000000 0.000000 -0.061368 0.000000
# 6 -0.000069 0.000069 0.000000 0.000000 0.000000 0.013327
#
#
# Mechanical properties :
#
#
# Convention : Reuss Voigt Hill
#
# Bulk Modulus (GPa) = 111.96474 112.29628 112.13051
# Shear Modulus (GPa) = -72.08282 31.38086 -20.35098
#
# Velocity S-wave (km/s) = -5.28011 3.48385 -2.80556
# Velocity P-wave (km/s) = 2.47629 7.72114 5.73358
#
# Compressibility (1/GPa) = 0.00893138
#
# Stress axis : x y z
#
# Youngs Moduli (GPa) = 114.46414 114.46414 180.93045
#
# Poissons Ratio (x) = 0.55188 0.20018
# Poissons Ratio (y) = 0.55188 0.20018
# Poissons Ratio (z) = 0.12664 0.12664
#
# Static dielectric constant tensor:
#      x y z
#    x 3.348060 0.000000 0.000000 
#    y 0.000000 3.348060 0.000000 
#    z 0.000000 0.000000 2.006860 
# 
# From -- ./inp_files/1233.got.cif
#   From: 2010.05.17/outbox.cif.g08.bks.cpg/sg77_cif.got.tgz:1233.got - 2010.06.03 18:44:51.
