data_PCOD9541965
_publ_section_title
;
Structure prediction by ZEFSAII (Michael W. Deem and Ramdas Pophale) SiO2 
 PCOD9541965
Probable space group: I 4
;
_chemical_formula_sum "Si O2"
_cell_formula_units_Z 40
_cell_length_a 9.482956
_cell_length_b 9.482956
_cell_length_c 23.754119
_cell_angle_alpha 90.000000
_cell_angle_beta 90.000000
_cell_angle_gamma 90.000000
_cell_volume 2136.123701
_symmetry_space_group_name_H-M "I 4"
_symmetry_group_IT_number 79
_symmetry_cell_setting 'tetragonal'
loop_
_space_group_symop_operation_xyz
x,y,z
-y,x,z
-x,-y,z
y,-x,z
1/2+x,1/2+y,1/2+z
1/2-y,1/2+x,1/2+z
1/2-x,1/2-y,1/2+z
1/2+y,1/2-x,1/2+z
loop_
_atom_site_type_symbol
_atom_site_label
_atom_site_fract_x
_atom_site_fract_y
_atom_site_fract_z
Si Si1 0.895479 0.216219 0.164670
Si Si2 0.714363 0.398976 0.247679
Si Si3 0.139135 0.354768 0.990127
Si Si4 0.360447 0.835762 0.540744
Si Si5 0.778751 0.082579 0.879900
O O1 0.834499 0.321000 0.212125
O O2 0.861369 0.294286 0.105798
O O3 0.063208 0.182388 0.167775
O O4 0.681291 0.564723 0.236266
O O5 0.751487 0.395529 0.314019
O O6 0.123102 0.345177 0.922969
O O7 0.139788 0.502115 0.022243
O O8 0.274110 0.272465 0.009445
O O9 0.003693 0.272724 0.014759
O O10 0.920164 0.175221 0.890049
#
# Coordination Sequence:
#
# PCOD9541965 Si02
#       5
#     8   8   8   8   8
#     4  11  24  42  62  88 124 166 212 260 313 368
#     4   9  21  40  64  95 125 162 205 254 313 369
#     4  11  22  39  61  92 124 159 205 250 312 371
#     4  11  24  38  61  91 122 161 207 252 312 370
#     4   9  17  36  65  92 123 161 205 251 301 368
#
# _framework density 18.725508000000001
#
# number of rings (size 3 to 8) (size 9 to 14) (size 15 to 20)
#    0.000    1.800    4.000    1.200    2.800    1.600 
#    3.600    0.000    0.000    0.000    0.000    0.000 
#    0.000    0.000    0.000    0.000    0.000    0.000 
#
# Total GULP energy -111439.267131 kJ/mol
# GULP energy per Si atom -5571.963357 kJ/mol
# Density = 1.868289 g / cm^3
# Si number density = 18.725508 Si / 1000 Ang^3
#
#
#
# Elastic Constant Matrix: (Units=GPa)
#
#
# Indices 1 2 3 4 5 6 
#
# 1 76.9172 34.1615 45.9243 0.0000 0.0000 -2.9902
# 2 34.1615 76.9172 45.9243 0.0000 0.0000 2.9902
# 3 45.9243 45.9243 127.8384 0.0000 0.0000 0.0000
# 4 0.0000 0.0000 0.0000 36.4379 0.0000 0.0000
# 5 0.0000 0.0000 0.0000 0.0000 36.4379 0.0000
# 6 -2.9902 2.9902 0.0000 0.0000 0.0000 34.6849
#
#
#
# Elastic Compliance Matrix: (Units=1/GPa)
#
#
# Indices 1 2 3 4 5 6 
#
# 1 0.018241 -0.005434 -0.004601 0.000000 0.000000 0.002041
# 2 -0.005434 0.018241 -0.004601 0.000000 0.000000 -0.002041
# 3 -0.004601 -0.004601 0.011128 0.000000 0.000000 0.000000
# 4 0.000000 0.000000 0.000000 0.027444 0.000000 0.000000
# 5 0.000000 0.000000 0.000000 0.000000 0.027444 0.000000
# 6 0.002041 -0.002041 0.000000 0.000000 0.000000 0.029183
#
#
# Mechanical properties :
#
#
# Convention : Reuss Voigt Hill
#
# Bulk Modulus (GPa) = 54.52931 59.29923 56.91427
# Shear Modulus (GPa) = 29.92887 31.88964 30.90926
#
# Velocity S-wave (km/s) = 4.00220 4.13123 4.06723
# Velocity P-wave (km/s) = 7.10918 7.38190 7.24682
#
# Compressibility (1/GPa) = 0.01833876
#
# Stress axis : x y z
#
# Youngs Moduli (GPa) = 54.82302 54.82302 89.86467
#
# Poissons Ratio (x) = 0.29789 0.41344
# Poissons Ratio (y) = 0.29789 0.41344
# Poissons Ratio (z) = 0.25222 0.25222
#
# Static dielectric constant tensor:
#      x y z
#    x 1.597330 0.000000 0.000000 
#    y 0.000000 1.597330 0.000000 
#    z 0.000000 0.000000 1.656730 
# 
# From -- ./inp_files/1895.got.cif
#   From: 2010.05.17/outbox.cif.g08.bks.cpg/sg79_cif.got.tgz:1895.got - 2010.06.03 18:47:27.
