data_PCOD9541657
_publ_section_title
;
Structure prediction by ZEFSAII (Michael W. Deem and Ramdas Pophale) SiO2 
 PCOD9541657
Probable space group: P 43
;
_chemical_formula_sum "Si O2"
_cell_formula_units_Z 32
_cell_length_a 7.759066
_cell_length_b 7.759066
_cell_length_c 20.493467
_cell_angle_alpha 90.000000
_cell_angle_beta 90.000000
_cell_angle_gamma 90.000000
_cell_volume 1233.770350
_symmetry_space_group_name_H-M "P 43"
_symmetry_group_IT_number 78
_symmetry_cell_setting 'tetragonal'
loop_
_space_group_symop_operation_xyz
x,y,z
-y,x,3/4+z
-x,-y,1/2+z
y,-x,1/4+z
loop_
_atom_site_type_symbol
_atom_site_label
_atom_site_fract_x
_atom_site_fract_y
_atom_site_fract_z
Si Si1 0.395086 0.001497 0.357020
Si Si2 0.756303 0.996023 0.377078
Si Si3 0.445460 0.903360 0.218893
Si Si4 0.862512 0.295411 0.279069
Si Si5 0.265104 0.396156 0.844803
Si Si6 0.082274 0.914507 0.444353
Si Si7 0.245999 0.435520 0.431910
Si Si8 0.390927 0.598953 0.551271
O O1 0.561295 0.984553 0.403584
O O2 0.212798 0.950130 0.385566
O O3 0.433988 0.877675 0.295326
O O4 0.407055 0.193516 0.328057
O O5 0.776259 0.807720 0.341434
O O6 0.905225 0.015737 0.430483
O O7 0.774822 0.159318 0.329116
O O8 0.276354 0.012732 0.199922
O O9 0.585858 0.044772 0.200486
O O10 0.444183 0.741795 0.171885
O O11 0.878264 0.481906 0.311135
O O12 0.742626 0.315570 0.214420
O O13 0.031715 0.193939 0.256678
O O14 0.436150 0.484791 0.816349
O O15 0.349870 0.581971 0.473753
O O16 0.265857 0.461717 0.354833
#
# Coordination Sequence:
#
# PCOD9541657 Si02
#       8
#     4   4   4   4   4   4   4   4
#     4  11  22  44  70  96 142 187 231 298 365 413
#     4  11  24  43  66  98 137 182 229 291 362 428
#     4  10  23  42  62  97 137 179 232 291 355 428
#     4  11  22  42  69  96 129 185 229 292 353 426
#     4  10  24  41  64 102 136 174 243 282 357 435
#     4  11  25  41  66 102 137 174 241 293 354 432
#     4  10  21  39  63  95 129 180 234 280 363 419
#     4  10  21  42  64  98 133 179 237 287 349 439
#
# _framework density 25.936758000000001
#
# number of rings (size 3 to 8) (size 9 to 14) (size 15 to 20)
#    0.000    1.500    5.000    0.750    3.500    5.000 
#    0.000    1.250    0.000    0.000    0.000    0.000 
#    0.000    0.000    0.000    0.000    0.000    0.000 
#
# Total GULP energy -178517.481941 kJ/mol
# GULP energy per Si atom -5578.671311 kJ/mol
# Density = 2.587773 g / cm^3
# Si number density = 25.936758 Si / 1000 Ang^3
#
#
#
# Elastic Constant Matrix: (Units=GPa)
#
#
# Indices 1 2 3 4 5 6 
#
# 1 104.2613 5.5883 10.7461 0.0000 0.0000 -1.2275
# 2 5.5883 104.2613 10.7461 0.0000 0.0000 1.2275
# 3 10.7461 10.7461 47.7895 0.0000 0.0000 0.0000
# 4 0.0000 0.0000 0.0000 36.5962 0.0000 0.0000
# 5 0.0000 0.0000 0.0000 0.0000 36.5962 0.0000
# 6 -1.2275 1.2275 0.0000 0.0000 0.0000 29.4144
#
#
#
# Elastic Compliance Matrix: (Units=1/GPa)
#
#
# Indices 1 2 3 4 5 6 
#
# 1 0.009834 -0.000311 -0.002141 0.000000 0.000000 0.000423
# 2 -0.000311 0.009834 -0.002141 0.000000 0.000000 -0.000423
# 3 -0.002141 -0.002141 0.021888 0.000000 0.000000 0.000000
# 4 0.000000 0.000000 0.000000 0.027325 0.000000 0.000000
# 5 0.000000 0.000000 0.000000 0.000000 0.027325 0.000000
# 6 0.000423 -0.000423 0.000000 0.000000 0.000000 0.034032
#
#
# Mechanical properties :
#
#
# Convention : Reuss Voigt Hill
#
# Bulk Modulus (GPa) = 30.89489 34.49699 32.69594
# Shear Modulus (GPa) = 33.28561 35.80345 34.54453
#
# Velocity S-wave (km/s) = 3.58626 3.71942 3.65345
# Velocity P-wave (km/s) = 5.39312 5.63691 5.51636
#
# Compressibility (1/GPa) = 0.03236782
#
# Stress axis : x y z
#
# Youngs Moduli (GPa) = 101.69161 101.69161 45.68698
#
# Poissons Ratio (x) = 0.03166 0.09783
# Poissons Ratio (y) = 0.03166 0.09783
# Poissons Ratio (z) = 0.21774 0.21774
#
# Static dielectric constant tensor:
#      x y z
#    x 2.127900 0.000000 0.000000 
#    y 0.000000 2.127900 0.000000 
#    z 0.000000 0.000000 2.096560 
# 
# From -- ./inp_files/1499.got.cif
#   From: 2010.05.17/outbox.cif.g08.bks.cpg/sg78_cif.got.tgz:1499.got - 2010.06.03 18:45:56.
