data_PCOD9541039
_publ_section_title
;
Structure prediction by ZEFSAII (Michael W. Deem and Ramdas Pophale) SiO2 
 PCOD9541039
Probable space group: P 4
;
_chemical_formula_sum "Si O2"
_cell_formula_units_Z 22
_cell_length_a 8.149920
_cell_length_b 8.149920
_cell_length_c 15.076606
_cell_angle_alpha 90.000000
_cell_angle_beta 90.000000
_cell_angle_gamma 90.000000
_cell_volume 1001.406202
_symmetry_space_group_name_H-M "P 4"
_symmetry_group_IT_number 75
_symmetry_cell_setting 'tetragonal'
loop_
_space_group_symop_operation_xyz
x,y,z
-y,x,z
-x,-y,z
y,-x,z
loop_
_atom_site_type_symbol
_atom_site_label
_atom_site_fract_x
_atom_site_fract_y
_atom_site_fract_z
Si Si1 0.252371 0.121105 0.097680
Si Si2 0.086428 0.256107 0.371653
Si Si3 0.169426 0.777726 0.907816
Si Si4 0.372451 0.736361 0.535886
Si Si5 0.789589 0.183989 0.718160
Si Si6 0.500000 0.000000 0.231970
O O1 0.074374 0.206624 0.104710
O O2 0.392787 0.122262 0.170772
O O3 0.310373 0.192744 0.001951
O O4 0.120537 0.309668 0.472164
O O5 0.111532 0.392857 0.298282
O O6 0.901116 0.198762 0.357522
O O7 0.246729 0.730261 0.813455
O O8 0.970394 0.781692 0.907704
O O9 0.286302 0.563342 0.515417
O O10 0.325653 0.761356 0.638282
O O11 0.985017 0.220582 0.711766
#
# Coordination Sequence:
#
# PCOD9541039 Si02
#       6
#     4   4   4   4   4   2
#     4   9  18  35  58  84 117 157 202 252 307 369
#     4  11  24  42  63  85 112 153 206 258 309 372
#     4   7  12  27  52  81 113 148 191 244 293 347
#     4  11  24  40  57  83 120 157 195 249 317 382
#     4   9  17  32  57  87 116 151 197 247 301 362
#     4  12  22  34  58  90 118 150 202 260 314 364
#
# _framework density 21.969104999999999
#
# number of rings (size 3 to 8) (size 9 to 14) (size 15 to 20)
#    0.000    2.364    0.000    5.455    0.000    5.091 
#    0.000    5.455    0.000    4.909    0.000    0.000 
#    0.000    0.000    0.000    0.000    0.000    0.000 
#
# Total GULP energy -122486.018496 kJ/mol
# GULP energy per Si atom -5567.546295 kJ/mol
# Density = 2.191910 g / cm^3
# Si number density = 21.969105 Si / 1000 Ang^3
#
#
#
# Elastic Constant Matrix: (Units=GPa)
#
#
# Indices 1 2 3 4 5 6 
#
# 1 53.4648 21.2442 45.2119 0.0000 0.0000 0.2091
# 2 21.2442 53.4648 45.2119 0.0000 0.0000 -0.2091
# 3 45.2119 45.2119 186.3805 0.0000 0.0000 0.0000
# 4 0.0000 0.0000 0.0000 30.6257 0.0000 0.0000
# 5 0.0000 0.0000 0.0000 0.0000 30.6257 0.0000
# 6 0.2091 -0.2091 0.0000 0.0000 0.0000 3.6123
#
#
#
# Elastic Compliance Matrix: (Units=1/GPa)
#
#
# Indices 1 2 3 4 5 6 
#
# 1 0.025004 -0.006055 -0.004597 0.000000 0.000000 -0.001798
# 2 -0.006055 0.025004 -0.004597 0.000000 0.000000 0.001798
# 3 -0.004597 -0.004597 0.007595 0.000000 0.000000 0.000000
# 4 0.000000 0.000000 0.000000 0.032652 0.000000 0.000000
# 5 0.000000 0.000000 0.000000 0.000000 0.032652 0.000000
# 6 -0.001798 0.001798 0.000000 0.000000 0.000000 0.277042
#
#
# Mechanical properties :
#
#
# Convention : Reuss Voigt Hill
#
# Bulk Modulus (GPa) = 36.89140 57.40516 47.14828
# Shear Modulus (GPa) = 11.37700 25.08222 18.22961
#
# Velocity S-wave (km/s) = 2.27813 3.38258 2.88372
# Velocity P-wave (km/s) = 4.87326 6.43758 5.70925
#
# Compressibility (1/GPa) = 0.02710659
#
# Stress axis : x y z
#
# Youngs Moduli (GPa) = 39.99353 39.99353 131.65837
#
# Poissons Ratio (x) = 0.24218 0.60517
# Poissons Ratio (y) = 0.24218 0.60517
# Poissons Ratio (z) = 0.18383 0.18383
#
# Static dielectric constant tensor:
#      x y z
#    x 1.814490 0.000000 0.000000 
#    y 0.000000 1.814490 0.000000 
#    z 0.000000 0.000000 1.915440 
# 
# From -- ./inp_files/659.got.cif
#   From: 2010.05.17/outbox.cif.g08.bks.cpg/sg75_cif.got.tgz:659.got - 2010.06.03 18:42:43.
