data_PCOD9541190
_publ_section_title
;
Structure prediction by ZEFSAII (Michael W. Deem and Ramdas Pophale) SiO2 
 PCOD9541190
Probable space group: P 41
;
_chemical_formula_sum "Si O2"
_cell_formula_units_Z 28
_cell_length_a 10.753015
_cell_length_b 10.753015
_cell_length_c 9.081384
_cell_angle_alpha 90.000000
_cell_angle_beta 90.000000
_cell_angle_gamma 90.000000
_cell_volume 1050.056199
_symmetry_space_group_name_H-M "P 41"
_symmetry_group_IT_number 76
_symmetry_cell_setting 'tetragonal'
loop_
_space_group_symop_operation_xyz
x,y,z
-y,x,1/4+z
-x,-y,1/2+z
y,-x,3/4+z
loop_
_atom_site_type_symbol
_atom_site_label
_atom_site_fract_x
_atom_site_fract_y
_atom_site_fract_z
Si Si1 0.201699 0.338160 0.745390
Si Si2 0.555266 0.230668 0.288907
Si Si3 0.543065 0.039915 0.728255
Si Si4 0.459534 0.599632 0.174788
Si Si5 0.058402 0.113382 0.910442
Si Si6 0.136045 0.702506 0.303141
Si Si7 0.807001 0.700820 0.811220
O O1 0.112596 0.410394 0.628647
O O2 0.297128 0.261863 0.647290
O O3 0.144165 0.226883 0.850377
O O4 0.256289 0.427041 0.867906
O O5 0.476993 0.340465 0.361990
O O6 0.678729 0.215133 0.389982
O O7 0.489427 0.096587 0.289734
O O8 0.416738 0.066720 0.627516
O O9 0.663456 0.055707 0.619060
O O10 0.573819 0.536612 0.094676
O O11 0.421839 0.737926 0.132033
O O12 0.931019 0.168149 0.843593
O O13 0.095671 0.983461 0.830914
O O14 0.183536 0.740298 0.138578
#
# Coordination Sequence:
#
# PCOD9541190 Si02
#       7
#     4   4   4   4   4   4   4
#     4  10  23  39  64  98 131 179 228 289 359 424
#     4  11  22  39  64  96 136 169 231 290 354 422
#     4  11  22  41  68  94 139 184 223 287 362 434
#     4  10  23  40  62  90 126 167 217 276 336 411
#     4  10  22  42  66  94 134 182 234 299 358 427
#     4  10  21  41  65  93 134 180 236 280 353 440
#     4  10  23  40  65  95 130 183 223 285 350 426
#
# _framework density 26.665241999999999
#
# number of rings (size 3 to 8) (size 9 to 14) (size 15 to 20)
#    0.000    1.714    1.429    2.571    2.000    6.857 
#    0.000    0.000    0.000    0.000    0.000    0.000 
#    0.000    0.000    0.000    0.000    0.000    0.000 
#
# Total GULP energy -155935.910894 kJ/mol
# GULP energy per Si atom -5569.139675 kJ/mol
# Density = 2.660455 g / cm^3
# Si number density = 26.665242 Si / 1000 Ang^3
#
#
#
# Elastic Constant Matrix: (Units=GPa)
#
#
# Indices 1 2 3 4 5 6 
#
# 1 57.7563 3.8431 9.1817 0.0000 0.0000 3.7126
# 2 3.8431 57.7563 9.1817 0.0000 0.0000 -3.7126
# 3 9.1817 9.1817 134.0741 0.0000 0.0000 0.0000
# 4 0.0000 0.0000 0.0000 30.6796 0.0000 0.0000
# 5 0.0000 0.0000 0.0000 0.0000 30.6796 0.0000
# 6 3.7126 -3.7126 0.0000 0.0000 0.0000 45.4619
#
#
#
# Elastic Compliance Matrix: (Units=1/GPa)
#
#
# Indices 1 2 3 4 5 6 
#
# 1 0.017666 -0.001094 -0.001135 0.000000 0.000000 -0.001532
# 2 -0.001094 0.017666 -0.001135 0.000000 0.000000 0.001532
# 3 -0.001135 -0.001135 0.007614 0.000000 0.000000 0.000000
# 4 0.000000 0.000000 0.000000 0.032595 0.000000 0.000000
# 5 0.000000 0.000000 0.000000 0.000000 0.032595 0.000000
# 6 -0.001532 0.001532 0.000000 0.000000 0.000000 0.022247
#
#
# Mechanical properties :
#
#
# Convention : Reuss Voigt Hill
#
# Bulk Modulus (GPa) = 27.60991 32.66663 30.13827
# Shear Modulus (GPa) = 33.51614 36.52289 35.01952
#
# Velocity S-wave (km/s) = 3.54916 3.70494 3.62788
# Velocity P-wave (km/s) = 5.21269 5.52986 5.37361
#
# Compressibility (1/GPa) = 0.03621888
#
# Stress axis : x y z
#
# Youngs Moduli (GPa) = 56.60663 56.60663 131.33695
#
# Poissons Ratio (x) = 0.06190 0.14905
# Poissons Ratio (y) = 0.06190 0.14905
# Poissons Ratio (z) = 0.06424 0.06424
#
# Static dielectric constant tensor:
#      x y z
#    x 2.262220 0.000000 0.000000 
#    y 0.000000 2.262220 0.000000 
#    z 0.000000 0.000000 2.153790 
# 
# From -- ./inp_files/639.got.cif
#   From: 2010.05.17/outbox.cif.g08.bks.cpg/sg76_cif.got.tgz:639.got - 2010.06.03 18:43:17.
