data_PCOD9541614
_publ_section_title
;
Structure prediction by ZEFSAII (Michael W. Deem and Ramdas Pophale) SiO2 
 PCOD9541614
Probable space group: P 43
;
_chemical_formula_sum "Si O2"
_cell_formula_units_Z 32
_cell_length_a 12.008802
_cell_length_b 12.008802
_cell_length_c 11.326825
_cell_angle_alpha 90.000000
_cell_angle_beta 90.000000
_cell_angle_gamma 90.000000
_cell_volume 1633.456447
_symmetry_space_group_name_H-M "P 43"
_symmetry_group_IT_number 78
_symmetry_cell_setting 'tetragonal'
loop_
_space_group_symop_operation_xyz
x,y,z
-y,x,3/4+z
-x,-y,1/2+z
y,-x,1/4+z
loop_
_atom_site_type_symbol
_atom_site_label
_atom_site_fract_x
_atom_site_fract_y
_atom_site_fract_z
Si Si1 0.903539 0.719519 0.236620
Si Si2 0.775137 0.427190 0.845852
Si Si3 0.478651 0.974175 0.157572
Si Si4 0.709617 0.652598 0.783566
Si Si5 0.157027 0.790572 0.198327
Si Si6 0.723017 0.948640 0.089712
Si Si7 0.841321 0.743028 0.998645
Si Si8 0.080286 0.317530 0.112037
O O1 0.924976 0.612636 0.319071
O O2 0.821811 0.797573 0.317717
O O3 0.023537 0.780327 0.213012
O O4 0.869194 0.665941 0.110064
O O5 0.692169 0.521205 0.797859
O O6 0.724959 0.381664 0.967667
O O7 0.796214 0.326054 0.753615
O O8 0.894464 0.483448 0.875606
O O9 0.600640 0.923380 0.141068
O O10 0.423898 0.951534 0.284189
O O11 0.746629 0.701884 0.909748
O O12 0.813825 0.659816 0.694000
O O13 0.212891 0.886927 0.279671
O O14 0.765185 0.051489 0.167976
O O15 0.806803 0.848396 0.076840
O O16 0.708705 0.984512 0.953854
#
# Coordination Sequence:
#
# PCOD9541614 Si02
#       8
#     4   4   4   4   4   4   4   4
#     4  10  21  38  57  90 119 163 199 250 309 365
#     4  10  19  39  64  88 115 158 202 255 308 363
#     4  10  20  36  67  88 114 157 204 253 299 362
#     4  10  21  37  64  86 117 159 199 260 301 362
#     4   9  20  37  59  85 122 158 204 247 299 378
#     4  11  23  38  58  89 121 163 197 260 296 373
#     4  11  23  38  55  90 126 156 204 245 308 357
#     4   9  19  37  58  90 112 154 207 240 304 362
#
# _framework density 19.59036
#
# number of rings (size 3 to 8) (size 9 to 14) (size 15 to 20)
#    0.000    2.000    2.500    1.500    1.750    5.000 
#    6.750    0.000   11.000    0.000    0.000    0.000 
#    0.000    0.000    0.000    0.000    0.000    0.000 
#
# Total GULP energy -178351.382447 kJ/mol
# GULP energy per Si atom -5573.480701 kJ/mol
# Density = 1.954577 g / cm^3
# Si number density = 19.590360 Si / 1000 Ang^3
#
#
#
# Elastic Constant Matrix: (Units=GPa)
#
#
# Indices 1 2 3 4 5 6 
#
# 1 43.6223 14.9727 17.6221 0.0000 0.0000 -6.8384
# 2 14.9727 43.6223 17.6221 0.0000 0.0000 6.8384
# 3 17.6221 17.6221 138.6067 0.0000 0.0000 0.0000
# 4 0.0000 0.0000 0.0000 15.4910 0.0000 0.0000
# 5 0.0000 0.0000 0.0000 0.0000 15.4910 0.0000
# 6 -6.8384 6.8384 0.0000 0.0000 0.0000 -0.4360
#
#
#
# Elastic Compliance Matrix: (Units=1/GPa)
#
#
# Indices 1 2 3 4 5 6 
#
# 1 0.011296 0.007184 -0.002349 0.000000 0.000000 -0.064502
# 2 0.007184 0.011296 -0.002349 0.000000 0.000000 0.064502
# 3 -0.002349 -0.002349 0.007812 0.000000 0.000000 0.000000
# 4 0.000000 0.000000 0.000000 0.064554 0.000000 0.000000
# 5 0.000000 0.000000 0.000000 0.000000 0.064554 0.000000
# 6 -0.064502 0.064502 0.000000 0.000000 0.000000 -0.270232
#
#
# Mechanical properties :
#
#
# Convention : Reuss Voigt Hill
#
# Bulk Modulus (GPa) = 28.26993 36.25390 32.26191
# Shear Modulus (GPa) = -48.12339 17.81815 -15.15262
#
# Velocity S-wave (km/s) = -4.96167 3.01912 -2.78416
# Velocity P-wave (km/s) = 4.28513 5.54073 2.48368
#
# Compressibility (1/GPa) = 0.03537328
#
# Stress axis : x y z
#
# Youngs Moduli (GPa) = 88.52804 88.52804 128.00721
#
# Poissons Ratio (x) = -0.63595 0.30074
# Poissons Ratio (y) = -0.63595 0.30074
# Poissons Ratio (z) = 0.20799 0.20799
#
# Static dielectric constant tensor:
#      x y z
#    x 1.803500 0.000000 0.000000 
#    y 0.000000 1.803500 0.000000 
#    z 0.000000 0.000000 1.713480 
# 
# From -- ./inp_files/997.got.cif
#   From: 2010.05.17/outbox.cif.g08.bks.cpg/sg78_cif.got.tgz:997.got - 2010.06.03 18:45:56.
