data_PCOD9541631
_publ_section_title
;
Structure prediction by ZEFSAII (Michael W. Deem and Ramdas Pophale) SiO2 
 PCOD9541631
Probable space group: P 43
;
_chemical_formula_sum "Si O2"
_cell_formula_units_Z 32
_cell_length_a 8.010766
_cell_length_b 8.010766
_cell_length_c 18.632207
_cell_angle_alpha 90.000000
_cell_angle_beta 90.000000
_cell_angle_gamma 90.000000
_cell_volume 1195.672917
_symmetry_space_group_name_H-M "P 43"
_symmetry_group_IT_number 78
_symmetry_cell_setting 'tetragonal'
loop_
_space_group_symop_operation_xyz
x,y,z
-y,x,3/4+z
-x,-y,1/2+z
y,-x,1/4+z
loop_
_atom_site_type_symbol
_atom_site_label
_atom_site_fract_x
_atom_site_fract_y
_atom_site_fract_z
Si Si1 0.890383 0.567313 0.881370
Si Si2 0.961480 0.011128 0.605824
Si Si3 0.553099 0.691072 0.830006
Si Si4 0.999564 0.491506 0.167775
Si Si5 0.369374 0.867224 0.048895
Si Si6 0.478733 0.432991 0.720400
Si Si7 0.141218 0.854557 0.731210
Si Si8 0.301961 0.756991 0.329127
O O1 0.755048 0.681901 0.838124
O O2 0.900521 0.673611 0.953894
O O3 0.800476 0.388005 0.870351
O O4 0.071772 0.519930 0.850229
O O5 0.908437 0.829691 0.573678
O O6 0.021168 0.975721 0.685363
O O7 0.798900 0.122377 0.593991
O O8 0.108365 0.098954 0.562480
O O9 0.483682 0.869095 0.853313
O O10 0.514591 0.615475 0.753586
O O11 0.466440 0.563454 0.887514
O O12 0.997612 0.625664 0.231239
O O13 0.914823 0.330492 0.207887
O O14 0.174218 0.443930 0.133069
O O15 0.380574 0.693569 0.008388
O O16 0.617235 0.312236 0.755790
#
# Coordination Sequence:
#
# PCOD9541631 Si02
#       8
#     4   4   4   4   4   4   4   4
#     4   9  19  35  58  82 109 149 192 230 289 345
#     4  10  22  37  59  86 119 153 195 240 293 345
#     4   9  20  38  59  84 114 154 195 241 291 349
#     4   9  19  38  60  84 116 150 193 239 293 346
#     4  10  21  37  57  87 120 153 193 247 292 343
#     4  10  21  38  58  84 119 154 196 241 290 346
#     4  10  20  39  60  86 116 154 194 241 293 354
#     4   9  20  38  59  85 113 153 194 239 289 350
#
# _framework density 26.763175
#
# number of rings (size 3 to 8) (size 9 to 14) (size 15 to 20)
#    0.000    2.500    0.000    0.750    0.000   10.000 
#    0.000   17.500    0.000    0.000    0.000    0.000 
#    0.000    0.000    0.000    0.000    0.000    0.000 
#
# Total GULP energy -179018.839541 kJ/mol
# GULP energy per Si atom -5594.338736 kJ/mol
# Density = 2.670226 g / cm^3
# Si number density = 26.763175 Si / 1000 Ang^3
#
#
#
# Elastic Constant Matrix: (Units=GPa)
#
#
# Indices 1 2 3 4 5 6 
#
# 1 96.9874 6.7384 12.3119 0.0000 0.0000 0.4512
# 2 6.7384 96.9874 12.3119 0.0000 0.0000 -0.4512
# 3 12.3119 12.3119 75.9661 0.0000 0.0000 0.0000
# 4 0.0000 0.0000 0.0000 33.5435 0.0000 0.0000
# 5 0.0000 0.0000 0.0000 0.0000 33.5435 0.0000
# 6 0.4512 -0.4512 0.0000 0.0000 0.0000 14.6442
#
#
#
# Elastic Compliance Matrix: (Units=1/GPa)
#
#
# Indices 1 2 3 4 5 6 
#
# 1 0.010555 -0.000529 -0.001625 0.000000 0.000000 -0.000342
# 2 -0.000529 0.010555 -0.001625 0.000000 0.000000 0.000342
# 3 -0.001625 -0.001625 0.013691 0.000000 0.000000 0.000000
# 4 0.000000 0.000000 0.000000 0.029812 0.000000 0.000000
# 5 0.000000 0.000000 0.000000 0.000000 0.029812 0.000000
# 6 -0.000342 0.000342 0.000000 0.000000 0.000000 0.068307
#
#
# Mechanical properties :
#
#
# Convention : Reuss Voigt Hill
#
# Bulk Modulus (GPa) = 36.70588 36.96279 36.83434
# Shear Modulus (GPa) = 27.87523 32.25152 30.06337
#
# Velocity S-wave (km/s) = 3.23081 3.47518 3.35522
# Velocity P-wave (km/s) = 5.25950 5.47207 5.36684
#
# Compressibility (1/GPa) = 0.02724359
#
# Stress axis : x y z
#
# Youngs Moduli (GPa) = 94.73991 94.73991 73.04332
#
# Poissons Ratio (x) = 0.05008 0.11870
# Poissons Ratio (y) = 0.05008 0.11870
# Poissons Ratio (z) = 0.15395 0.15395
#
# Static dielectric constant tensor:
#      x y z
#    x 2.141470 0.000000 0.000000 
#    y 0.000000 2.141470 0.000000 
#    z 0.000000 0.000000 2.088370 
# 
# From -- ./inp_files/1533.got.cif
#   From: 2010.05.17/outbox.cif.g08.bks.cpg/sg78_cif.got.tgz:1533.got - 2010.06.03 18:45:56.
