data_PCOD9541315
_publ_section_title
;
Structure prediction by ZEFSAII (Michael W. Deem and Ramdas Pophale) SiO2 
 PCOD9541315
Probable space group: P 41
;
_chemical_formula_sum "Si O2"
_cell_formula_units_Z 12
_cell_length_a 5.403012
_cell_length_b 5.403012
_cell_length_c 16.059372
_cell_angle_alpha 90.000000
_cell_angle_beta 90.000000
_cell_angle_gamma 90.000000
_cell_volume 468.813838
_symmetry_space_group_name_H-M "P 41"
_symmetry_group_IT_number 76
_symmetry_cell_setting 'tetragonal'
loop_
_space_group_symop_operation_xyz
x,y,z
-y,x,1/4+z
-x,-y,1/2+z
y,-x,3/4+z
loop_
_atom_site_type_symbol
_atom_site_label
_atom_site_fract_x
_atom_site_fract_y
_atom_site_fract_z
Si Si1 0.357226 0.241229 0.846740
Si Si2 0.136745 0.547752 0.986489
Si Si3 0.873833 0.509687 0.820600
O O1 0.615995 0.364594 0.821623
O O2 0.107631 0.335355 0.800040
O O3 0.411391 0.961626 0.819451
O O4 0.305288 0.347675 0.938226
O O5 0.264333 0.803276 0.011367
O O6 0.932255 0.595893 0.915067
#
# Coordination Sequence:
#
# PCOD9541315 Si02
#       3
#     4   4   4
#     4  10  24  51  81 116 165 212 279 333 417 485
#     4  10  24  52  82 116 164 216 274 340 412 490
#     4  10  24  51  81 116 165 212 279 333 417 485
#
# _framework density 25.596516999999999
#
# number of rings (size 3 to 8) (size 9 to 14) (size 15 to 20)
#    2.000    0.000    0.000    2.000    0.000    2.667 
#   36.000    0.000    0.000    0.000    0.000    0.000 
#    0.000    0.000    0.000    0.000    0.000    0.000 
#
# Total GULP energy -66951.909421 kJ/mol
# GULP energy per Si atom -5579.325785 kJ/mol
# Density = 2.553826 g / cm^3
# Si number density = 25.596517 Si / 1000 Ang^3
#
#
#
# Elastic Constant Matrix: (Units=GPa)
#
#
# Indices 1 2 3 4 5 6 
#
# 1 115.2265 29.9758 12.1406 0.0000 0.0000 -5.9393
# 2 29.9758 115.2265 12.1406 0.0000 0.0000 5.9393
# 3 12.1406 12.1406 67.2242 0.0000 0.0000 0.0000
# 4 0.0000 0.0000 0.0000 40.2607 0.0000 0.0000
# 5 0.0000 0.0000 0.0000 0.0000 40.2607 0.0000
# 6 -5.9393 5.9393 0.0000 0.0000 0.0000 39.2223
#
#
#
# Elastic Compliance Matrix: (Units=1/GPa)
#
#
# Indices 1 2 3 4 5 6 
#
# 1 0.009542 -0.002441 -0.001283 0.000000 0.000000 0.001815
# 2 -0.002441 0.009542 -0.001283 0.000000 0.000000 -0.001815
# 3 -0.001283 -0.001283 0.015339 0.000000 0.000000 0.000000
# 4 0.000000 0.000000 0.000000 0.024838 0.000000 0.000000
# 5 0.000000 0.000000 0.000000 0.000000 0.024838 0.000000
# 6 0.001815 -0.001815 0.000000 0.000000 0.000000 0.026045
#
#
# Mechanical properties :
#
#
# Convention : Reuss Voigt Hill
#
# Bulk Modulus (GPa) = 40.96410 45.13237 43.04823
# Shear Modulus (GPa) = 38.97318 40.17677 39.57497
#
# Velocity S-wave (km/s) = 3.90628 3.96614 3.93632
# Velocity P-wave (km/s) = 6.03191 6.21645 6.12487
#
# Compressibility (1/GPa) = 0.02441162
#
# Stress axis : x y z
#
# Youngs Moduli (GPa) = 104.79792 104.79792 65.19402
#
# Poissons Ratio (x) = 0.25579 0.08361
# Poissons Ratio (y) = 0.25579 0.08361
# Poissons Ratio (z) = 0.13440 0.13440
#
# Static dielectric constant tensor:
#      x y z
#    x 2.098800 0.000000 0.000000 
#    y 0.000000 2.098800 0.000000 
#    z 0.000000 0.000000 2.015600 
# 
# From -- ./inp_files/1165.got.cif
#   From: 2010.05.17/outbox.cif.g08.bks.cpg/sg76_cif.got.tgz:1165.got - 2010.06.03 18:43:17.
