data_PCOD9541098
_publ_section_title
;
Structure prediction by ZEFSAII (Michael W. Deem and Ramdas Pophale) SiO2 
 PCOD9541098
Probable space group: P 41
;
_chemical_formula_sum "Si O2"
_cell_formula_units_Z 32
_cell_length_a 13.246924
_cell_length_b 13.246924
_cell_length_c 9.113560
_cell_angle_alpha 90.000000
_cell_angle_beta 90.000000
_cell_angle_gamma 90.000000
_cell_volume 1599.256581
_symmetry_space_group_name_H-M "P 41"
_symmetry_group_IT_number 76
_symmetry_cell_setting 'tetragonal'
loop_
_space_group_symop_operation_xyz
x,y,z
-y,x,1/4+z
-x,-y,1/2+z
y,-x,3/4+z
loop_
_atom_site_type_symbol
_atom_site_label
_atom_site_fract_x
_atom_site_fract_y
_atom_site_fract_z
Si Si1 0.326397 0.726186 0.653550
Si Si2 0.178571 0.612630 0.851276
Si Si3 0.965365 0.684862 0.954133
Si Si4 0.029121 0.456302 0.706519
Si Si5 0.736508 0.986636 0.156326
Si Si6 0.860782 0.793788 0.202058
Si Si7 0.107960 0.358948 0.152378
Si Si8 0.614728 0.480829 0.456700
O O1 0.227357 0.668951 0.711888
O O2 0.299560 0.794499 0.514282
O O3 0.356173 0.796796 0.794091
O O4 0.416293 0.648784 0.623906
O O5 0.278496 0.583122 0.948768
O O6 0.085550 0.677483 0.919506
O O7 0.117417 0.515218 0.791738
O O8 0.893545 0.689731 0.812702
O O9 0.933124 0.770686 0.066475
O O10 0.940933 0.583011 0.045969
O O11 0.994649 0.360772 0.801571
O O12 0.934707 0.529790 0.680679
O O13 0.784396 0.879079 0.159761
O O14 0.700359 0.021797 0.314056
O O15 0.815606 0.067438 0.090728
O O16 0.575872 0.526537 0.613262
#
# Coordination Sequence:
#
# PCOD9541098 Si02
#       8
#     4   4   4   4   4   4   4   4
#     4  10  21  38  60  82 120 160 189 227 291 350
#     4  10  20  37  60  84 112 154 193 233 288 345
#     4  10  20  33  57  87 114 138 191 248 280 329
#     4  10  19  35  61  86 111 145 192 243 287 336
#     4  10  21  38  58  79 118 157 188 231 289 348
#     4  10  21  39  57  84 117 153 190 235 287 339
#     4  10  19  34  57  88 113 146 191 234 284 339
#     4  10  21  40  60  82 117 155 192 235 288 344
#
# _framework density 20.009298000000001
#
# number of rings (size 3 to 8) (size 9 to 14) (size 15 to 20)
#    0.000    2.000    0.000    6.000    0.000    2.000 
#    0.000   16.250    0.000    0.000    0.000    0.000 
#    0.000    0.000    0.000    0.000    0.000    0.000 
#
# Total GULP energy -178260.775149 kJ/mol
# GULP energy per Si atom -5570.649223 kJ/mol
# Density = 1.996376 g / cm^3
# Si number density = 20.009298 Si / 1000 Ang^3
#
#
#
# Elastic Constant Matrix: (Units=GPa)
#
#
# Indices 1 2 3 4 5 6 
#
# 1 74.8183 38.8062 17.6787 0.0000 0.0000 -3.1891
# 2 38.8062 74.8183 17.6787 0.0000 0.0000 3.1891
# 3 17.6787 17.6787 69.8149 0.0000 0.0000 0.0000
# 4 0.0000 0.0000 0.0000 36.6840 0.0000 0.0000
# 5 0.0000 0.0000 0.0000 0.0000 36.6840 0.0000
# 6 -3.1891 3.1891 0.0000 0.0000 0.0000 38.2987
#
#
#
# Elastic Compliance Matrix: (Units=1/GPa)
#
#
# Indices 1 2 3 4 5 6 
#
# 1 0.018869 -0.009315 -0.002419 0.000000 0.000000 0.002347
# 2 -0.009315 0.018869 -0.002419 0.000000 0.000000 -0.002347
# 3 -0.002419 -0.002419 0.015549 0.000000 0.000000 0.000000
# 4 0.000000 0.000000 0.000000 0.027260 0.000000 0.000000
# 5 0.000000 0.000000 0.000000 0.000000 0.027260 0.000000
# 6 0.002347 -0.002347 0.000000 0.000000 0.000000 0.026501
#
#
# Mechanical properties :
#
#
# Convention : Reuss Voigt Hill
#
# Bulk Modulus (GPa) = 40.03303 40.86429 40.44866
# Shear Modulus (GPa) = 29.24976 32.01920 30.63448
#
# Velocity S-wave (km/s) = 3.82751 4.00461 3.91706
# Velocity P-wave (km/s) = 6.29156 6.46912 6.38096
#
# Compressibility (1/GPa) = 0.02497938
#
# Stress axis : x y z
#
# Youngs Moduli (GPa) = 52.99710 52.99710 64.31365
#
# Poissons Ratio (x) = 0.49368 0.15559
# Poissons Ratio (y) = 0.49368 0.15559
# Poissons Ratio (z) = 0.12821 0.12821
#
# Static dielectric constant tensor:
#      x y z
#    x 1.732820 0.000000 0.000000 
#    y 0.000000 1.732820 0.000000 
#    z 0.000000 0.000000 1.745300 
# 
# From -- ./inp_files/702.got.cif
#   From: 2010.05.17/outbox.cif.g08.bks.cpg/sg76_cif.got.tgz:702.got - 2010.06.03 18:43:17.
