data_PCOD9541751
_publ_section_title
;
Structure prediction by ZEFSAII (Michael W. Deem and Ramdas Pophale) SiO2 
 PCOD9541751
Probable space group: P 43
;
_chemical_formula_sum "Si O2"
_cell_formula_units_Z 24
_cell_length_a 11.117561
_cell_length_b 11.117561
_cell_length_c 7.356618
_cell_angle_alpha 90.000000
_cell_angle_beta 90.000000
_cell_angle_gamma 90.000000
_cell_volume 909.279181
_symmetry_space_group_name_H-M "P 43"
_symmetry_group_IT_number 78
_symmetry_cell_setting 'tetragonal'
loop_
_space_group_symop_operation_xyz
x,y,z
-y,x,3/4+z
-x,-y,1/2+z
y,-x,1/4+z
loop_
_atom_site_type_symbol
_atom_site_label
_atom_site_fract_x
_atom_site_fract_y
_atom_site_fract_z
Si Si1 0.711063 0.577442 0.883410
Si Si2 0.942025 0.349339 0.336614
Si Si3 0.560490 0.385548 0.476010
Si Si4 0.908924 0.423143 0.718587
Si Si5 0.150509 0.031064 0.014267
Si Si6 0.202497 0.833903 0.583688
O O1 0.761606 0.683662 0.758627
O O2 0.568222 0.593068 0.870600
O O3 0.792099 0.464863 0.831179
O O4 0.490380 0.629908 0.177372
O O5 0.054026 0.273451 0.419609
O O6 0.872210 0.399235 0.510384
O O7 0.868339 0.259204 0.209898
O O8 0.608917 0.277103 0.352590
O O9 0.465656 0.002629 0.483608
O O10 0.962930 0.295360 0.781935
O O11 0.088637 0.907271 0.081365
O O12 0.112684 0.122122 0.175635
#
# Coordination Sequence:
#
# PCOD9541751 Si02
#       6
#     4   4   4   4   4   4
#     4   9  20  40  66  92 143 178 241 292 361 423
#     4  11  26  47  74 107 151 191 256 302 391 434
#     4   8  17  34  57  86 123 171 222 283 346 417
#     4  11  26  46  72 108 141 197 245 310 368 455
#     4  12  28  46  79 106 152 191 251 307 385 450
#     4  11  23  45  70 103 144 198 231 318 363 455
#
# _framework density 26.394532000000002
#
# number of rings (size 3 to 8) (size 9 to 14) (size 15 to 20)
#    1.000    0.667    1.667    2.000    7.000    2.667 
#    0.000    0.000    0.000    0.000    0.000    0.000 
#    0.000    0.000    0.000    0.000    0.000    0.000 
#
# Total GULP energy -133771.814127 kJ/mol
# GULP energy per Si atom -5573.825589 kJ/mol
# Density = 2.633446 g / cm^3
# Si number density = 26.394532 Si / 1000 Ang^3
#
#
#
# Elastic Constant Matrix: (Units=GPa)
#
#
# Indices 1 2 3 4 5 6 
#
# 1 133.6868 50.8089 18.8696 0.0000 0.0000 -11.6453
# 2 50.8089 133.6868 18.8696 0.0000 0.0000 11.6453
# 3 18.8696 18.8696 46.3011 0.0000 0.0000 0.0000
# 4 0.0000 0.0000 0.0000 38.5214 0.0000 0.0000
# 5 0.0000 0.0000 0.0000 0.0000 38.5214 0.0000
# 6 -11.6453 11.6453 0.0000 0.0000 0.0000 43.0017
#
#
#
# Elastic Compliance Matrix: (Units=1/GPa)
#
#
# Indices 1 2 3 4 5 6 
#
# 1 0.009486 -0.003573 -0.002410 0.000000 0.000000 0.003537
# 2 -0.003573 0.009486 -0.002410 0.000000 0.000000 -0.003537
# 3 -0.002410 -0.002410 0.023562 0.000000 0.000000 0.000000
# 4 0.000000 0.000000 0.000000 0.025960 0.000000 0.000000
# 5 0.000000 0.000000 0.000000 0.000000 0.025960 0.000000
# 6 0.003537 -0.003537 0.000000 0.000000 0.000000 0.025170
#
#
# Mechanical properties :
#
#
# Convention : Reuss Voigt Hill
#
# Bulk Modulus (GPa) = 38.83668 54.53009 46.68339
# Shear Modulus (GPa) = 34.48430 39.01737 36.75083
#
# Velocity S-wave (km/s) = 3.61847 3.84896 3.73549
# Velocity P-wave (km/s) = 5.67482 6.36059 6.02747
#
# Compressibility (1/GPa) = 0.02574885
#
# Stress axis : x y z
#
# Youngs Moduli (GPa) = 105.41310 105.41310 42.44133
#
# Poissons Ratio (x) = 0.37668 0.10228
# Poissons Ratio (y) = 0.37668 0.10228
# Poissons Ratio (z) = 0.25403 0.25403
#
# Static dielectric constant tensor:
#      x y z
#    x 2.116150 0.000000 0.000000 
#    y 0.000000 2.116150 0.000000 
#    z 0.000000 0.000000 2.274920 
# 
# From -- ./inp_files/547.got.cif
#   From: 2010.05.17/outbox.cif.g08.bks.cpg/sg78_cif.got.tgz:547.got - 2010.06.03 18:45:56.
