data_PCOD9541778
_publ_section_title
;
Structure prediction by ZEFSAII (Michael W. Deem and Ramdas Pophale) SiO2 
 PCOD9541778
Probable space group: P 43
;
_chemical_formula_sum "Si O2"
_cell_formula_units_Z 20
_cell_length_a 8.486022
_cell_length_b 8.486022
_cell_length_c 10.418494
_cell_angle_alpha 90.000000
_cell_angle_beta 90.000000
_cell_angle_gamma 90.000000
_cell_volume 750.262522
_symmetry_space_group_name_H-M "P 43"
_symmetry_group_IT_number 78
_symmetry_cell_setting 'tetragonal'
loop_
_space_group_symop_operation_xyz
x,y,z
-y,x,3/4+z
-x,-y,1/2+z
y,-x,1/4+z
loop_
_atom_site_type_symbol
_atom_site_label
_atom_site_fract_x
_atom_site_fract_y
_atom_site_fract_z
Si Si1 0.290239 0.030068 0.665580
Si Si2 0.274489 0.835056 0.436928
Si Si3 0.768240 0.502998 0.030074
Si Si4 0.493928 0.711660 0.049430
Si Si5 0.168659 0.663179 0.175818
O O1 0.386598 0.184070 0.628086
O O2 0.243819 0.070545 0.813621
O O3 0.210148 0.976749 0.529724
O O4 0.417337 0.891782 0.687766
O O5 0.235174 0.681925 0.521598
O O6 0.185125 0.774212 0.305308
O O7 0.467681 0.861068 0.421421
O O8 0.595399 0.566602 0.997872
O O9 0.807688 0.554617 0.174343
O O10 0.349167 0.665207 0.132339
#
# Coordination Sequence:
#
# PCOD9541778 Si02
#       5
#     4   4   4   4   4
#     4  12  26  40  68 114 150 196 252 328 402 472
#     4  12  23  44  73 112 154 201 260 331 406 473
#     4  12  23  42  70 106 147 191 256 328 396 468
#     4  12  23  42  70 106 147 191 256 328 396 468
#     4  12  23  44  73 112 154 201 260 331 406 473
#
# _framework density 26.657335
#
# number of rings (size 3 to 8) (size 9 to 14) (size 15 to 20)
#    0.000    0.000    8.000    3.600    0.000    0.000 
#    0.000    0.000    0.000    4.800    0.000    0.000 
#    0.000    0.000    0.000    0.000    0.000    0.000 
#
# Total GULP energy -111436.172825 kJ/mol
# GULP energy per Si atom -5571.808641 kJ/mol
# Density = 2.659666 g / cm^3
# Si number density = 26.657335 Si / 1000 Ang^3
#
#
#
# Elastic Constant Matrix: (Units=GPa)
#
#
# Indices 1 2 3 4 5 6 
#
# 1 19.8519 58.3008 24.0596 0.0000 0.0000 1.4836
# 2 58.3008 19.8519 24.0596 0.0000 0.0000 -1.4836
# 3 24.0596 24.0596 211.4483 0.0000 0.0000 0.0000
# 4 0.0000 0.0000 0.0000 51.0986 0.0000 0.0000
# 5 0.0000 0.0000 0.0000 0.0000 51.0986 0.0000
# 6 1.4836 -1.4836 0.0000 0.0000 0.0000 12.3364
#
#
#
# Elastic Compliance Matrix: (Units=1/GPa)
#
#
# Indices 1 2 3 4 5 6 
#
# 1 -0.006005 0.019764 -0.001566 0.000000 0.000000 0.003099
# 2 0.019764 -0.006005 -0.001566 0.000000 0.000000 -0.003099
# 3 -0.001566 -0.001566 0.005086 0.000000 0.000000 0.000000
# 4 0.000000 0.000000 0.000000 0.019570 0.000000 0.000000
# 5 0.000000 0.000000 0.000000 0.000000 0.019570 0.000000
# 6 0.003099 -0.003099 0.000000 0.000000 0.000000 0.080316
#
#
# Mechanical properties :
#
#
# Convention : Reuss Voigt Hill
#
# Bulk Modulus (GPa) = 37.96223 51.55467 44.75845
# Shear Modulus (GPa) = 56.78881 32.55551 44.67216
#
# Velocity S-wave (km/s) = 4.62055 3.49844 4.09809
# Velocity P-wave (km/s) = 6.53741 5.97499 6.26252
#
# Compressibility (1/GPa) = 0.02634197
#
# Stress axis : x y z
#
# Youngs Moduli (GPa) = -166.52845 -166.52845 196.63457
#
# Poissons Ratio (x) = 3.29134 0.30785
# Poissons Ratio (y) = 3.29134 0.30785
# Poissons Ratio (z) = -0.26072 -0.26072
#
# Static dielectric constant tensor:
#      x y z
#    x 2.087310 0.000000 0.000000 
#    y 0.000000 2.087310 0.000000 
#    z 0.000000 0.000000 2.333600 
# 
# From -- ./inp_files/814.got.cif
#   From: 2010.05.17/outbox.cif.g08.bks.cpg/sg78_cif.got.tgz:814.got - 2010.06.03 18:45:56.
