data_PCOD9541880
_publ_section_title
;
Structure prediction by ZEFSAII (Michael W. Deem and Ramdas Pophale) SiO2 
 PCOD9541880
Probable space group: I 4
;
_chemical_formula_sum "Si O2"
_cell_formula_units_Z 58
_cell_length_a 18.011090
_cell_length_b 18.011090
_cell_length_c 8.806930
_cell_angle_alpha 90.000000
_cell_angle_beta 90.000000
_cell_angle_gamma 90.000000
_cell_volume 2856.962482
_symmetry_space_group_name_H-M "I 4"
_symmetry_group_IT_number 79
_symmetry_cell_setting 'tetragonal'
loop_
_space_group_symop_operation_xyz
x,y,z
-y,x,z
-x,-y,z
y,-x,z
1/2+x,1/2+y,1/2+z
1/2-y,1/2+x,1/2+z
1/2-x,1/2-y,1/2+z
1/2+y,1/2-x,1/2+z
loop_
_atom_site_type_symbol
_atom_site_label
_atom_site_fract_x
_atom_site_fract_y
_atom_site_fract_z
Si Si1 0.394651 0.223371 0.947230
Si Si2 0.931459 0.443715 0.493861
Si Si3 0.396447 0.826043 0.230367
Si Si4 0.500000 0.500000 0.801460
Si Si5 0.478495 0.679144 0.794025
Si Si6 0.329504 0.744005 0.952924
Si Si7 0.536469 0.217912 0.525925
Si Si8 0.647667 0.133005 0.732073
O O1 0.380963 0.154162 0.833797
O O2 0.456626 0.277649 0.882584
O O3 0.316590 0.266043 0.953651
O O4 0.413307 0.198094 0.118277
O O5 0.942011 0.379122 0.616815
O O6 0.852216 0.481037 0.533348
O O7 0.915727 0.408944 0.327996
O O8 0.000000 0.500000 0.492338
O O9 0.442837 0.777258 0.349555
O O10 0.349023 0.773688 0.120019
O O11 0.485342 0.591168 0.801509
O O12 0.402167 0.707559 0.873348
O O13 0.485743 0.709737 0.620332
O O14 0.309524 0.817167 0.854897
O O15 0.608213 0.189210 0.616619
#
# Coordination Sequence:
#
# PCOD9541880 Si02
#       8
#     8   8   8   2   8   8   8   8
#     4  11  20  41  65  94 130 167 222 282 340 417
#     4  11  24  37  59  94 139 189 224 255 317 405
#     4  10  23  39  64  95 132 179 220 268 336 400
#     4  12  24  48  76  98 120 184 228 310 368 416
#     4  11  23  42  69  98 126 170 231 286 354 414
#     4  10  21  40  65  95 123 164 223 280 337 410
#     4  10  23  39  58  92 135 174 220 273 325 400
#     4   9  23  37  58  93 130 172 220 262 331 399
#
# _framework density 20.301282
#
# number of rings (size 3 to 8) (size 9 to 14) (size 15 to 20)
#    0.000    1.655    2.759    0.828    5.793    2.207 
#    0.000    3.448    0.000    0.828    0.000    0.000 
#    0.000    0.000    0.000    0.000    0.000    0.000 
#
# Total GULP energy -161697.830900 kJ/mol
# GULP energy per Si atom -5575.787272 kJ/mol
# Density = 2.025508 g / cm^3
# Si number density = 20.301282 Si / 1000 Ang^3
#
#
#
# Elastic Constant Matrix: (Units=GPa)
#
#
# Indices 1 2 3 4 5 6 
#
# 1 85.8597 9.8716 37.4288 0.0000 0.0000 -6.8379
# 2 9.8716 85.8597 37.4288 0.0000 0.0000 6.8379
# 3 37.4288 37.4288 151.6171 0.0000 0.0000 0.0000
# 4 0.0000 0.0000 0.0000 13.6090 0.0000 0.0000
# 5 0.0000 0.0000 0.0000 0.0000 13.6090 0.0000
# 6 -6.8379 6.8379 0.0000 0.0000 0.0000 34.4950
#
#
#
# Elastic Compliance Matrix: (Units=1/GPa)
#
#
# Indices 1 2 3 4 5 6 
#
# 1 0.013296 -0.000351 -0.003196 0.000000 0.000000 0.002705
# 2 -0.000351 0.013296 -0.003196 0.000000 0.000000 -0.002705
# 3 -0.003196 -0.003196 0.008173 0.000000 0.000000 0.000000
# 4 0.000000 0.000000 0.000000 0.073481 0.000000 0.000000
# 5 0.000000 0.000000 0.000000 0.000000 0.073481 0.000000
# 6 0.002705 -0.002705 0.000000 0.000000 0.000000 0.030062
#
#
# Mechanical properties :
#
#
# Convention : Reuss Voigt Hill
#
# Bulk Modulus (GPa) = 46.99162 54.75501 50.87331
# Shear Modulus (GPa) = 21.51778 28.24977 24.88377
#
# Velocity S-wave (km/s) = 3.25918 3.73436 3.50483
# Velocity P-wave (km/s) = 6.11231 6.75453 6.44143
#
# Compressibility (1/GPa) = 0.02128039
#
# Stress axis : x y z
#
# Youngs Moduli (GPa) = 75.21196 75.21196 122.34940
#
# Poissons Ratio (x) = 0.02640 0.39098
# Poissons Ratio (y) = 0.02640 0.39098
# Poissons Ratio (z) = 0.24035 0.24035
#
# Static dielectric constant tensor:
#      x y z
#    x 1.744970 0.000000 0.000000 
#    y 0.000000 1.744970 0.000000 
#    z 0.000000 0.000000 1.762980 
# 
# From -- ./inp_files/737.got.cif
#   From: 2010.05.17/outbox.cif.g08.bks.cpg/sg79_cif.got.tgz:737.got - 2010.06.03 18:47:27.
