data_PCOD9541464
_publ_section_title
;
Structure prediction by ZEFSAII (Michael W. Deem and Ramdas Pophale) SiO2 
 PCOD9541464
Probable space group: P 42
;
_chemical_formula_sum "Si O2"
_cell_formula_units_Z 22
_cell_length_a 9.584967
_cell_length_b 9.584967
_cell_length_c 11.871183
_cell_angle_alpha 90.000000
_cell_angle_beta 90.000000
_cell_angle_gamma 90.000000
_cell_volume 1090.624486
_symmetry_space_group_name_H-M "P 42"
_symmetry_group_IT_number 77
_symmetry_cell_setting 'tetragonal'
loop_
_space_group_symop_operation_xyz
x,y,z
-y,x,1/2+z
-x,-y,z
y,-x,1/2+z
loop_
_atom_site_type_symbol
_atom_site_label
_atom_site_fract_x
_atom_site_fract_y
_atom_site_fract_z
Si Si1 0.528251 0.154867 0.658790
Si Si2 0.275908 0.277655 0.316978
Si Si3 0.264826 0.298191 0.582269
Si Si4 0.659697 0.960950 0.145486
Si Si5 0.500000 0.500000 0.335217
Si Si6 0.382717 0.299516 0.020239
O O1 0.620630 0.152470 0.772825
O O2 0.377619 0.226829 0.662135
O O3 0.616073 0.255555 0.576161
O O4 0.500000 0.000000 0.616148
O O5 0.278130 0.253972 0.450539
O O6 0.280836 0.136671 0.244621
O O7 0.409464 0.374713 0.284030
O O8 0.299392 0.463310 0.577716
O O9 0.108544 0.269613 0.622986
O O10 0.658449 0.862623 0.033828
O O11 0.500000 0.000000 0.173476
O O12 0.617737 0.418536 0.407398
#
# Coordination Sequence:
#
# PCOD9541464 Si02
#       6
#     4   4   4   4   2   4
#     4  11  22  36  59  87 119 155 209 254 300 363
#     4  10  22  35  59  93 121 158 206 251 310 368
#     4  10  20  41  62  86 129 159 196 264 306 360
#     4   9  20  33  61  88 125 155 200 247 311 367
#     4  10  18  32  64  88 118 150 206 262 298 358
#     4   9  17  37  57  87 113 156 197 249 305 349
#
# _framework density 20.171928000000001
#
# number of rings (size 3 to 8) (size 9 to 14) (size 15 to 20)
#    0.000    2.182    3.636    0.000    7.636    4.364 
#    0.000    3.636    0.000    4.364    0.000    0.000 
#    0.000    0.000    0.000    0.000    0.000    0.000 
#
# Total GULP energy -122472.489881 kJ/mol
# GULP energy per Si atom -5566.931358 kJ/mol
# Density = 2.012602 g / cm^3
# Si number density = 20.171928 Si / 1000 Ang^3
#
#
#
# Elastic Constant Matrix: (Units=GPa)
#
#
# Indices 1 2 3 4 5 6 
#
# 1 114.4149 36.2833 20.5668 0.0000 0.0000 -5.8904
# 2 36.2833 114.4149 20.5668 0.0000 0.0000 5.8904
# 3 20.5668 20.5668 81.2939 0.0000 0.0000 0.0000
# 4 0.0000 0.0000 0.0000 22.7795 0.0000 0.0000
# 5 0.0000 0.0000 0.0000 0.0000 22.7795 0.0000
# 6 -5.8904 5.8904 0.0000 0.0000 0.0000 8.5844
#
#
#
# Elastic Compliance Matrix: (Units=1/GPa)
#
#
# Indices 1 2 3 4 5 6 
#
# 1 0.010702 -0.003574 -0.001803 0.000000 0.000000 0.009796
# 2 -0.003574 0.010702 -0.001803 0.000000 0.000000 -0.009796
# 3 -0.001803 -0.001803 0.013214 0.000000 0.000000 0.000000
# 4 0.000000 0.000000 0.000000 0.043899 0.000000 0.000000
# 5 0.000000 0.000000 0.000000 0.000000 0.043899 0.000000
# 6 0.009796 -0.009796 0.000000 0.000000 0.000000 0.129934
#
#
# Mechanical properties :
#
#
# Convention : Reuss Voigt Hill
#
# Bulk Modulus (GPa) = 49.36769 51.66197 50.51483
# Shear Modulus (GPa) = 18.28403 26.34247 22.31325
#
# Velocity S-wave (km/s) = 3.01393 3.61764 3.32950
# Velocity P-wave (km/s) = 6.05296 6.56629 6.31484
#
# Compressibility (1/GPa) = 0.02025616
#
# Stress axis : x y z
#
# Youngs Moduli (GPa) = 93.44075 93.44075 75.68015
#
# Poissons Ratio (x) = 0.33395 0.13648
# Poissons Ratio (y) = 0.33395 0.13648
# Poissons Ratio (z) = 0.16851 0.16851
#
# Static dielectric constant tensor:
#      x y z
#    x 1.737600 0.000000 0.000000 
#    y 0.000000 1.737600 0.000000 
#    z 0.000000 0.000000 1.803180 
# 
# From -- ./inp_files/1092.got.cif
#   From: 2010.05.17/outbox.cif.g08.bks.cpg/sg77_cif.got.tgz:1092.got - 2010.06.03 18:44:51.
