data_PCOD9541131
_publ_section_title
;
Structure prediction by ZEFSAII (Michael W. Deem and Ramdas Pophale) SiO2 
 PCOD9541131
Probable space group: P 41
;
_chemical_formula_sum "Si O2"
_cell_formula_units_Z 24
_cell_length_a 10.132056
_cell_length_b 10.132056
_cell_length_c 10.129968
_cell_angle_alpha 90.000000
_cell_angle_beta 90.000000
_cell_angle_gamma 90.000000
_cell_volume 1039.927915
_symmetry_space_group_name_H-M "P 41"
_symmetry_group_IT_number 76
_symmetry_cell_setting 'tetragonal'
loop_
_space_group_symop_operation_xyz
x,y,z
-y,x,1/4+z
-x,-y,1/2+z
y,-x,3/4+z
loop_
_atom_site_type_symbol
_atom_site_label
_atom_site_fract_x
_atom_site_fract_y
_atom_site_fract_z
Si Si1 0.052296 0.606378 0.860760
Si Si2 0.287205 0.218694 0.758676
Si Si3 0.686580 0.015057 0.067377
Si Si4 0.195409 0.710969 0.083848
Si Si5 0.129730 0.998770 0.973195
Si Si6 0.590650 0.226348 0.764059
O O1 0.046040 0.466458 0.791767
O O2 0.064457 0.726174 0.757139
O O3 0.919496 0.613880 0.951339
O O4 0.165668 0.605924 0.970741
O O5 0.151518 0.236562 0.839197
O O6 0.437911 0.250848 0.796782
O O7 0.252390 0.318372 0.638934
O O8 0.296922 0.072583 0.697821
O O9 0.721067 0.916245 0.948135
O O10 0.173278 0.849124 0.010662
O O11 0.337873 0.688867 0.148993
O O12 0.027338 0.053896 0.084280
#
# Coordination Sequence:
#
# PCOD9541131 Si02
#       6
#     4   4   4   4   4   4
#     4   9  17  34  58  84 118 162 204 255 311 384
#     4  10  20  38  61  88 119 158 204 250 310 371
#     4  10  20  35  63  88 116 158 204 252 310 378
#     4   9  17  34  58  84 113 160 209 245 314 382
#     4   9  18  33  57  88 126 161 207 266 321 376
#     4   9  18  34  59  86 116 159 202 250 306 377
#
# _framework density 23.078520999999999
#
# number of rings (size 3 to 8) (size 9 to 14) (size 15 to 20)
#    0.000    2.667    1.667    0.000    2.333    0.000 
#    3.000    3.333    0.000    0.000    0.000    0.000 
#    0.000    0.000    0.000    0.000    0.000    0.000 
#
# Total GULP energy -133831.845390 kJ/mol
# GULP energy per Si atom -5576.326891 kJ/mol
# Density = 2.302599 g / cm^3
# Si number density = 23.078521 Si / 1000 Ang^3
#
#
#
# Elastic Constant Matrix: (Units=GPa)
#
#
# Indices 1 2 3 4 5 6 
#
# 1 105.7547 39.1838 17.6236 0.0000 0.0000 -3.5634
# 2 39.1838 105.7547 17.6236 0.0000 0.0000 3.5634
# 3 17.6236 17.6236 25.7871 0.0000 0.0000 0.0000
# 4 0.0000 0.0000 0.0000 22.1462 0.0000 0.0000
# 5 0.0000 0.0000 0.0000 0.0000 22.1462 0.0000
# 6 -3.5634 3.5634 0.0000 0.0000 0.0000 23.9353
#
#
#
# Elastic Compliance Matrix: (Units=1/GPa)
#
#
# Indices 1 2 3 4 5 6 
#
# 1 0.011770 -0.003495 -0.005655 0.000000 0.000000 0.002273
# 2 -0.003495 0.011770 -0.005655 0.000000 0.000000 -0.002273
# 3 -0.005655 -0.005655 0.046509 0.000000 0.000000 0.000000
# 4 0.000000 0.000000 0.000000 0.045154 0.000000 0.000000
# 5 0.000000 0.000000 0.000000 0.000000 0.045154 0.000000
# 6 0.002273 -0.002273 0.000000 0.000000 0.000000 0.042456
#
#
# Mechanical properties :
#
#
# Convention : Reuss Voigt Hill
#
# Bulk Modulus (GPa) = 24.72945 42.90652 33.81799
# Shear Modulus (GPa) = 20.33320 24.50326 22.41823
#
# Velocity S-wave (km/s) = 2.97146 3.26196 3.12009
# Velocity P-wave (km/s) = 4.74462 5.72879 5.25978
#
# Compressibility (1/GPa) = 0.04043761
#
# Stress axis : x y z
#
# Youngs Moduli (GPa) = 84.96317 84.96317 21.50129
#
# Poissons Ratio (x) = 0.29695 0.12159
# Poissons Ratio (y) = 0.29695 0.12159
# Poissons Ratio (z) = 0.48048 0.48048
#
# Static dielectric constant tensor:
#      x y z
#    x 1.940180 0.000000 0.000000 
#    y 0.000000 1.940180 0.000000 
#    z 0.000000 0.000000 1.959390 
# 
# From -- ./inp_files/1057.got.cif
#   From: 2010.05.17/outbox.cif.g08.bks.cpg/sg76_cif.got.tgz:1057.got - 2010.06.03 18:43:17.
