data_PCOD9541314
_publ_section_title
;
Structure prediction by ZEFSAII (Michael W. Deem and Ramdas Pophale) SiO2 
 PCOD9541314
Probable space group: P 41
;
_chemical_formula_sum "Si O2"
_cell_formula_units_Z 12
_cell_length_a 7.098335
_cell_length_b 7.098335
_cell_length_c 9.335745
_cell_angle_alpha 90.000000
_cell_angle_beta 90.000000
_cell_angle_gamma 90.000000
_cell_volume 470.394206
_symmetry_space_group_name_H-M "P 41"
_symmetry_group_IT_number 76
_symmetry_cell_setting 'tetragonal'
loop_
_space_group_symop_operation_xyz
x,y,z
-y,x,1/4+z
-x,-y,1/2+z
y,-x,3/4+z
loop_
_atom_site_type_symbol
_atom_site_label
_atom_site_fract_x
_atom_site_fract_y
_atom_site_fract_z
Si Si1 0.570966 0.026355 0.336220
Si Si2 0.172705 0.896777 0.412472
Si Si3 0.616960 0.365165 0.516446
O O1 0.722128 0.905336 0.253616
O O2 0.651082 0.150277 0.469601
O O3 0.486011 0.194256 0.234858
O O4 0.394983 0.909860 0.392457
O O5 0.076527 0.885924 0.257494
O O6 0.582020 0.431819 0.676845
#
# Coordination Sequence:
#
# PCOD9541314 Si02
#       3
#     4   4   4
#     4  10  24  50  82 124 168 228 278 348 426 502
#     4  12  29  53  88 124 175 217 294 362 425 517
#     4   8  19  43  84 120 179 219 282 338 435 515
#
# _framework density 25.510521000000001
#
# number of rings (size 3 to 8) (size 9 to 14) (size 15 to 20)
#    2.000    0.000    0.000    2.000    0.000   10.667 
#    6.000    3.333    0.000    4.000    0.000    0.000 
#    0.000    0.000    0.000    0.000    0.000    0.000 
#
# Total GULP energy -67119.657244 kJ/mol
# GULP energy per Si atom -5593.304770 kJ/mol
# Density = 2.545246 g / cm^3
# Si number density = 25.510521 Si / 1000 Ang^3
#
#
#
# Elastic Constant Matrix: (Units=GPa)
#
#
# Indices 1 2 3 4 5 6 
#
# 1 119.9534 67.8443 29.5614 0.0000 0.0000 7.3244
# 2 67.8443 119.9534 29.5614 0.0000 0.0000 -7.3244
# 3 29.5614 29.5614 88.6483 0.0000 0.0000 0.0000
# 4 0.0000 0.0000 0.0000 41.3990 0.0000 0.0000
# 5 0.0000 0.0000 0.0000 0.0000 41.3990 0.0000
# 6 7.3244 -7.3244 0.0000 0.0000 0.0000 43.7960
#
#
#
# Elastic Compliance Matrix: (Units=1/GPa)
#
#
# Indices 1 2 3 4 5 6 
#
# 1 0.013043 -0.007094 -0.001984 0.000000 0.000000 -0.003368
# 2 -0.007094 0.013043 -0.001984 0.000000 0.000000 0.003368
# 3 -0.001984 -0.001984 0.012604 0.000000 0.000000 0.000000
# 4 0.000000 0.000000 0.000000 0.024155 0.000000 0.000000
# 5 0.000000 0.000000 0.000000 0.000000 0.024155 0.000000
# 6 -0.003368 0.003368 0.000000 0.000000 0.000000 0.023960
#
#
# Mechanical properties :
#
#
# Convention : Reuss Voigt Hill
#
# Bulk Modulus (GPa) = 60.36162 64.72101 62.54131
# Shear Modulus (GPa) = 36.07344 38.75802 37.41573
#
# Velocity S-wave (km/s) = 3.76448 3.90204 3.83388
# Velocity P-wave (km/s) = 6.52747 6.76215 6.64585
#
# Compressibility (1/GPa) = 0.01656682
#
# Stress axis : x y z
#
# Youngs Moduli (GPa) = 76.66742 76.66742 79.34172
#
# Poissons Ratio (x) = 0.54387 0.15741
# Poissons Ratio (y) = 0.54387 0.15741
# Poissons Ratio (z) = 0.15211 0.15211
#
# Static dielectric constant tensor:
#      x y z
#    x 1.995960 0.000000 0.000000 
#    y 0.000000 1.995960 0.000000 
#    z 0.000000 0.000000 2.023490 
# 
# From -- ./inp_files/376.got.cif
#   From: 2010.05.17/outbox.cif.g08.bks.cpg/sg76_cif.got.tgz:376.got - 2010.06.03 18:43:17.
