data_PCOD9541852
_publ_section_title
;
Structure prediction by ZEFSAII (Michael W. Deem and Ramdas Pophale) SiO2 
 PCOD9541852
Probable space group: I 4
;
_chemical_formula_sum "Si O2"
_cell_formula_units_Z 56
_cell_length_a 11.328758
_cell_length_b 11.328758
_cell_length_c 22.313279
_cell_angle_alpha 90.000000
_cell_angle_beta 90.000000
_cell_angle_gamma 90.000000
_cell_volume 2863.703136
_symmetry_space_group_name_H-M "I 4"
_symmetry_group_IT_number 79
_symmetry_cell_setting 'tetragonal'
loop_
_space_group_symop_operation_xyz
x,y,z
-y,x,z
-x,-y,z
y,-x,z
1/2+x,1/2+y,1/2+z
1/2-y,1/2+x,1/2+z
1/2-x,1/2-y,1/2+z
1/2+y,1/2-x,1/2+z
loop_
_atom_site_type_symbol
_atom_site_label
_atom_site_fract_x
_atom_site_fract_y
_atom_site_fract_z
Si Si1 0.879705 0.716548 0.274190
Si Si2 0.738155 0.903287 0.354616
Si Si3 0.856213 0.492267 0.417368
Si Si4 0.535927 0.313517 0.984069
Si Si5 0.113037 0.571742 0.545815
Si Si6 0.311601 0.435140 0.319255
Si Si7 0.934903 0.813311 0.142737
O O1 0.818933 0.820587 0.313608
O O2 0.784520 0.610994 0.271502
O O3 0.914198 0.764400 0.209486
O O4 0.997252 0.684440 0.311033
O O5 0.635014 0.832520 0.388064
O O6 0.801216 0.962671 0.411723
O O7 0.834349 0.497740 0.488060
O O8 0.767942 0.575520 0.380228
O O9 0.000000 0.500000 0.411350
O O10 0.634331 0.409408 0.000840
O O11 0.564475 0.191739 0.016179
O O12 0.211939 0.592223 0.594932
O O13 0.000000 0.500000 0.569620
O O14 0.430514 0.357769 0.314293
O O15 0.070293 0.854973 0.135280
#
# Coordination Sequence:
#
# PCOD9541852 Si02
#       7
#     8   8   8   8   8   8   8
#     4  12  22  40  67  97 134 165 211 279 335 403
#     4  11  20  34  66 100 130 159 202 274 347 389
#     4  10  20  39  65  95 130 170 215 266 325 399
#     4  10  21  37  66 101 130 159 206 277 343 401
#     4  10  25  44  66  92 132 179 227 270 330 404
#     4  11  24  40  61  98 140 176 215 262 333 408
#     4  11  26  47  69  95 129 175 231 284 329 390
#
# _framework density 19.555099999999999
#
# number of rings (size 3 to 8) (size 9 to 14) (size 15 to 20)
#    0.000    1.286    5.714    0.000    2.000    1.429 
#    5.143    1.429    0.000    1.714    0.000    0.000 
#    0.000    0.000    0.000    0.000    0.000    0.000 
#
# Total GULP energy -156189.344624 kJ/mol
# GULP energy per Si atom -5578.190879 kJ/mol
# Density = 1.951059 g / cm^3
# Si number density = 19.555100 Si / 1000 Ang^3
#
#
#
# Elastic Constant Matrix: (Units=GPa)
#
#
# Indices 1 2 3 4 5 6 
#
# 1 80.0466 34.9606 33.5441 0.0000 0.0000 5.7100
# 2 34.9606 80.0466 33.5441 0.0000 0.0000 -5.7100
# 3 33.5441 33.5441 85.5841 0.0000 0.0000 0.0000
# 4 0.0000 0.0000 0.0000 27.7105 0.0000 0.0000
# 5 0.0000 0.0000 0.0000 0.0000 27.7105 0.0000
# 6 5.7100 -5.7100 0.0000 0.0000 0.0000 20.6936
#
#
#
# Elastic Compliance Matrix: (Units=1/GPa)
#
#
# Indices 1 2 3 4 5 6 
#
# 1 0.017559 -0.006287 -0.004418 0.000000 0.000000 -0.006580
# 2 -0.006287 0.017559 -0.004418 0.000000 0.000000 0.006580
# 3 -0.004418 -0.004418 0.015148 0.000000 0.000000 0.000000
# 4 0.000000 0.000000 0.000000 0.036087 0.000000 0.000000
# 5 0.000000 0.000000 0.000000 0.000000 0.036087 0.000000
# 6 -0.006580 0.006580 0.000000 0.000000 0.000000 0.051955
#
#
# Mechanical properties :
#
#
# Convention : Reuss Voigt Hill
#
# Bulk Modulus (GPa) = 49.95017 49.97500 49.96259
# Shear Modulus (GPa) = 23.66116 24.79815 24.22966
#
# Velocity S-wave (km/s) = 3.48224 3.56493 3.52383
# Velocity P-wave (km/s) = 6.46272 6.52353 6.49320
#
# Compressibility (1/GPa) = 0.02001995
#
# Stress axis : x y z
#
# Youngs Moduli (GPa) = 56.94938 56.94938 66.01653
#
# Poissons Ratio (x) = 0.35805 0.29167
# Poissons Ratio (y) = 0.35805 0.29167
# Poissons Ratio (z) = 0.25161 0.25161
#
# Static dielectric constant tensor:
#      x y z
#    x 1.726300 0.000000 0.000000 
#    y 0.000000 1.726300 0.000000 
#    z 0.000000 0.000000 1.660350 
# 
# From -- ./inp_files/1801.got.cif
#   From: 2010.05.17/outbox.cif.g08.bks.cpg/sg79_cif.got.tgz:1801.got - 2010.06.03 18:47:27.
