data_PCOD9541211
_publ_section_title
;
Structure prediction by ZEFSAII (Michael W. Deem and Ramdas Pophale) SiO2 
 PCOD9541211
Probable space group: P 41
;
_chemical_formula_sum "Si O2"
_cell_formula_units_Z 20
_cell_length_a 8.140948
_cell_length_b 8.140948
_cell_length_c 11.888180
_cell_angle_alpha 90.000000
_cell_angle_beta 90.000000
_cell_angle_gamma 90.000000
_cell_volume 787.889538
_symmetry_space_group_name_H-M "P 41"
_symmetry_group_IT_number 76
_symmetry_cell_setting 'tetragonal'
loop_
_space_group_symop_operation_xyz
x,y,z
-y,x,1/4+z
-x,-y,1/2+z
y,-x,3/4+z
loop_
_atom_site_type_symbol
_atom_site_label
_atom_site_fract_x
_atom_site_fract_y
_atom_site_fract_z
Si Si1 0.816962 0.974358 0.091020
Si Si2 0.626266 0.887355 0.678972
Si Si3 0.434953 0.434953 0.913450
Si Si4 0.626267 0.112644 0.897925
Si Si5 0.974356 0.816961 0.735877
O O1 0.784085 0.798777 0.146419
O O2 0.865790 0.134213 0.163448
O O3 0.000001 0.944444 0.038448
O O4 0.674678 0.998666 0.002026
O O5 0.484336 0.755881 0.665851
O O6 0.674678 0.001334 0.574872
O O7 0.798775 0.784083 0.680479
O O8 0.598102 1.000000 0.788449
O O9 0.500000 0.495066 0.038450
O O10 0.484338 0.244120 0.911048
#
# Coordination Sequence:
#
# PCOD9541211 Si02
#       5
#     4   4   4   4   4
#     4   8  16  35  74 119 146 192 270 332 388 467
#     4  10  21  44  79 112 156 210 266 333 405 477
#     4  12  32  54  72 120 168 212 268 330 418 500
#     4  10  21  44  79 112 156 210 266 333 405 477
#     4   8  16  35  74 119 146 192 270 332 388 467
#
# _framework density 25.384271999999999
#
# number of rings (size 3 to 8) (size 9 to 14) (size 15 to 20)
#    0.000    2.400    0.000    3.600    8.400    0.000 
#    7.200    0.000    0.000    0.000    0.000    2.800 
#    0.000    0.000    0.000    0.000    0.000    0.000 
#
# Total GULP energy -111484.456131 kJ/mol
# GULP energy per Si atom -5574.222807 kJ/mol
# Density = 2.532650 g / cm^3
# Si number density = 25.384272 Si / 1000 Ang^3
#
#
#
# Elastic Constant Matrix: (Units=GPa)
#
#
# Indices 1 2 3 4 5 6 
#
# 1 124.6918 44.6964 30.5213 0.0000 0.0000 -0.0001
# 2 44.6964 124.6918 30.5213 0.0000 0.0000 0.0001
# 3 30.5213 30.5213 120.4091 0.0000 0.0000 0.0000
# 4 0.0000 0.0000 0.0000 18.6861 0.0000 0.0000
# 5 0.0000 0.0000 0.0000 0.0000 18.6861 0.0000
# 6 -0.0001 0.0001 0.0000 0.0000 0.0000 26.5337
#
#
#
# Elastic Compliance Matrix: (Units=1/GPa)
#
#
# Indices 1 2 3 4 5 6 
#
# 1 0.009499 -0.003002 -0.001647 0.000000 0.000000 0.000000
# 2 -0.003002 0.009499 -0.001647 0.000000 0.000000 0.000000
# 3 -0.001647 -0.001647 0.009140 0.000000 0.000000 0.000000
# 4 0.000000 0.000000 0.000000 0.053516 0.000000 0.000000
# 5 0.000000 0.000000 0.000000 0.000000 0.053516 0.000000
# 6 0.000000 0.000000 0.000000 0.000000 0.000000 0.037688
#
#
# Mechanical properties :
#
#
# Convention : Reuss Voigt Hill
#
# Bulk Modulus (GPa) = 64.32287 64.58564 64.45425
# Shear Modulus (GPa) = 26.22875 30.38476 28.30675
#
# Velocity S-wave (km/s) = 3.21794 3.46351 3.34298
# Velocity P-wave (km/s) = 6.26111 6.44150 6.35195
#
# Compressibility (1/GPa) = 0.01554657
#
# Stress axis : x y z
#
# Youngs Moduli (GPa) = 105.27536 105.27536 109.41009
#
# Poissons Ratio (x) = 0.31602 0.18019
# Poissons Ratio (y) = 0.31602 0.18019
# Poissons Ratio (z) = 0.17338 0.17338
#
# Static dielectric constant tensor:
#      x y z
#    x 2.063650 0.000000 0.000000 
#    y 0.000000 2.063650 0.000000 
#    z 0.000000 0.000000 2.259620 
# 
# From -- ./inp_files/1004.got.cif
#   From: 2010.05.17/outbox.cif.g08.bks.cpg/sg76_cif.got.tgz:1004.got - 2010.06.03 18:43:17.
