data_PCOD9541585
_publ_section_title
;
Structure prediction by ZEFSAII (Michael W. Deem and Ramdas Pophale) SiO2 
 PCOD9541585
Probable space group: P 43
;
_chemical_formula_sum "Si O2"
_cell_formula_units_Z 32
_cell_length_a 13.197484
_cell_length_b 13.197484
_cell_length_c 7.079476
_cell_angle_alpha 90.000000
_cell_angle_beta 90.000000
_cell_angle_gamma 90.000000
_cell_volume 1233.057707
_symmetry_space_group_name_H-M "P 43"
_symmetry_group_IT_number 78
_symmetry_cell_setting 'tetragonal'
loop_
_space_group_symop_operation_xyz
x,y,z
-y,x,3/4+z
-x,-y,1/2+z
y,-x,1/4+z
loop_
_atom_site_type_symbol
_atom_site_label
_atom_site_fract_x
_atom_site_fract_y
_atom_site_fract_z
Si Si1 0.608964 0.700998 0.965190
Si Si2 0.452928 0.860507 0.962780
Si Si3 0.621804 0.489792 0.733822
Si Si4 0.863252 0.965235 0.990470
Si Si5 0.074118 0.493143 0.285147
Si Si6 0.715291 0.128102 0.910380
Si Si7 0.187256 0.247421 0.605020
Si Si8 0.203712 0.660906 0.319321
O O1 0.502108 0.752364 0.011989
O O2 0.616312 0.586118 0.880936
O O3 0.646574 0.772772 0.792025
O O4 0.694986 0.720590 0.118402
O O5 0.468966 0.877944 0.737997
O O6 0.331667 0.867263 0.982701
O O7 0.514776 0.953498 0.049771
O O8 0.589993 0.536789 0.539753
O O9 0.722121 0.425947 0.737662
O O10 0.828529 0.872532 0.125409
O O11 0.918782 0.054750 0.100503
O O12 0.770167 0.020122 0.883722
O O13 0.117429 0.406427 0.145779
O O14 0.099031 0.612021 0.251281
O O15 0.732221 0.152460 0.136024
O O16 0.766574 0.221811 0.797810
#
# Coordination Sequence:
#
# PCOD9541585 Si02
#       8
#     4   4   4   4   4   4   4   4
#     4   9  16  31  54  78 103 140 184 217 261 334
#     4  10  20  33  55  82 109 145 184 226 276 328
#     4  10  18  31  53  78 106 141 179 222 271 331
#     4  10  21  36  56  78 105 144 186 231 275 319
#     4  10  19  34  55  81 110 139 177 228 278 325
#     4   9  18  34  55  78 106 143 183 221 272 333
#     4   9  17  32  53  79 106 136 181 228 269 319
#     4   9  17  31  55  80 101 136 186 227 262 321
#
# _framework density 25.951743
#
# number of rings (size 3 to 8) (size 9 to 14) (size 15 to 20)
#    0.000    2.500    0.000    5.250    0.000    2.000 
#    0.000    2.500    0.000    9.000    0.000    0.000 
#    0.000    0.000    0.000    0.000    0.000    0.000 
#
# Total GULP energy -178685.279021 kJ/mol
# GULP energy per Si atom -5583.914969 kJ/mol
# Density = 2.589268 g / cm^3
# Si number density = 25.951743 Si / 1000 Ang^3
#
#
#
# Elastic Constant Matrix: (Units=GPa)
#
#
# Indices 1 2 3 4 5 6 
#
# 1 162.2697 29.6204 16.5672 0.0000 0.0000 -10.9382
# 2 29.6204 162.2697 16.5672 0.0000 0.0000 10.9382
# 3 16.5672 16.5672 26.6137 0.0000 0.0000 0.0000
# 4 0.0000 0.0000 0.0000 25.3099 0.0000 0.0000
# 5 0.0000 0.0000 0.0000 0.0000 25.3099 0.0000
# 6 -10.9382 10.9382 0.0000 0.0000 0.0000 44.4043
#
#
#
# Elastic Compliance Matrix: (Units=1/GPa)
#
#
# Indices 1 2 3 4 5 6 
#
# 1 0.006848 -0.001009 -0.003635 0.000000 0.000000 0.001936
# 2 -0.001009 0.006848 -0.003635 0.000000 0.000000 -0.001936
# 3 -0.003635 -0.003635 0.042100 0.000000 0.000000 0.000000
# 4 0.000000 0.000000 0.000000 0.039510 0.000000 0.000000
# 5 0.000000 0.000000 0.000000 0.000000 0.039510 0.000000
# 6 0.001936 -0.001936 0.000000 0.000000 0.000000 0.023474
#
#
# Mechanical properties :
#
#
# Convention : Reuss Voigt Hill
#
# Bulk Modulus (GPa) = 25.48499 52.96249 39.22374
# Shear Modulus (GPa) = 26.60583 38.23139 32.41861
#
# Velocity S-wave (km/s) = 3.20535 3.84236 3.53822
# Velocity P-wave (km/s) = 4.85186 6.33540 5.64260
#
# Compressibility (1/GPa) = 0.03923878
#
# Stress axis : x y z
#
# Youngs Moduli (GPa) = 146.01899 146.01899 23.75298
#
# Poissons Ratio (x) = 0.14740 0.08634
# Poissons Ratio (y) = 0.14740 0.08634
# Poissons Ratio (z) = 0.53075 0.53075
#
# Static dielectric constant tensor:
#      x y z
#    x 2.136040 0.000000 0.000000 
#    y 0.000000 2.136040 0.000000 
#    z 0.000000 0.000000 2.169220 
# 
# From -- ./inp_files/963.got.cif
#   From: 2010.05.17/outbox.cif.g08.bks.cpg/sg78_cif.got.tgz:963.got - 2010.06.03 18:45:56.
