data_PCOD9541666
_publ_section_title
;
Structure prediction by ZEFSAII (Michael W. Deem and Ramdas Pophale) SiO2 
 PCOD9541666
Probable space group: P 43
;
_chemical_formula_sum "Si O2"
_cell_formula_units_Z 28
_cell_length_a 8.353647
_cell_length_b 8.353647
_cell_length_c 16.750685
_cell_angle_alpha 90.000000
_cell_angle_beta 90.000000
_cell_angle_gamma 90.000000
_cell_volume 1168.920057
_symmetry_space_group_name_H-M "P 43"
_symmetry_group_IT_number 78
_symmetry_cell_setting 'tetragonal'
loop_
_space_group_symop_operation_xyz
x,y,z
-y,x,3/4+z
-x,-y,1/2+z
y,-x,1/4+z
loop_
_atom_site_type_symbol
_atom_site_label
_atom_site_fract_x
_atom_site_fract_y
_atom_site_fract_z
Si Si1 0.802361 0.225555 0.550070
Si Si2 0.985793 0.497676 0.590451
Si Si3 0.187956 0.104321 0.280036
Si Si4 0.050503 0.941079 0.908870
Si Si5 0.358475 0.684291 0.765726
Si Si6 0.965122 0.492462 0.281376
Si Si7 0.318345 0.412933 0.325776
O O1 0.642186 0.131521 0.567095
O O2 0.821951 0.410944 0.566824
O O3 0.944774 0.154112 0.603499
O O4 0.847139 0.181206 0.459880
O O5 0.981590 0.677056 0.556861
O O6 0.139928 0.411229 0.548353
O O7 0.011384 0.496441 0.685395
O O8 0.066590 0.038584 0.216384
O O9 0.277268 0.268421 0.262829
O O10 0.083151 0.144795 0.357592
O O11 0.173389 0.645471 0.789470
O O12 0.494513 0.561562 0.800920
O O13 0.367523 0.672315 0.669471
O O14 0.146778 0.503615 0.316392
#
# Coordination Sequence:
#
# PCOD9541666 Si02
#       7
#     4   4   4   4   4   4   4
#     4  11  24  43  66 103 140 181 247 301 367 450
#     4  11  24  45  68 106 145 184 247 304 383 455
#     4  10  21  41  70  99 136 183 236 296 372 439
#     4  10  22  41  66 100 131 181 239 297 357 443
#     4  11  25  51  74 111 150 200 254 316 389 465
#     4  12  26  48  73 107 151 201 249 317 387 458
#     4  11  26  45  77 108 149 202 254 311 389 464
#
# _framework density 23.953733
#
# number of rings (size 3 to 8) (size 9 to 14) (size 15 to 20)
#    0.000    1.143    4.286    1.714    8.000    2.286 
#    5.143    0.000    0.000    0.000    0.000    0.000 
#    0.000    0.000    0.000    0.000    0.000    0.000 
#
# Total GULP energy -156188.692432 kJ/mol
# GULP energy per Si atom -5578.167587 kJ/mol
# Density = 2.389921 g / cm^3
# Si number density = 23.953733 Si / 1000 Ang^3
#
#
#
# Elastic Constant Matrix: (Units=GPa)
#
#
# Indices 1 2 3 4 5 6 
#
# 1 99.4217 32.7042 12.4212 0.0000 0.0000 -13.9435
# 2 32.7042 99.4217 12.4212 0.0000 0.0000 13.9435
# 3 12.4212 12.4212 79.1742 0.0000 0.0000 0.0000
# 4 0.0000 0.0000 0.0000 23.7135 0.0000 0.0000
# 5 0.0000 0.0000 0.0000 0.0000 23.7135 0.0000
# 6 -13.9435 13.9435 0.0000 0.0000 0.0000 43.0933
#
#
#
# Elastic Compliance Matrix: (Units=1/GPa)
#
#
# Indices 1 2 3 4 5 6 
#
# 1 0.012566 -0.004767 -0.001223 0.000000 0.000000 0.005608
# 2 -0.004767 0.012566 -0.001223 0.000000 0.000000 -0.005608
# 3 -0.001223 -0.001223 0.013014 0.000000 0.000000 0.000000
# 4 0.000000 0.000000 0.000000 0.042170 0.000000 0.000000
# 5 0.000000 0.000000 0.000000 0.000000 0.042170 0.000000
# 6 0.005608 -0.005608 0.000000 0.000000 0.000000 0.026835
#
#
# Mechanical properties :
#
#
# Convention : Reuss Voigt Hill
#
# Bulk Modulus (GPa) = 42.16294 43.67899 42.92097
# Shear Modulus (GPa) = 29.12827 32.80210 30.96518
#
# Velocity S-wave (km/s) = 3.49093 3.70455 3.59933
# Velocity P-wave (km/s) = 5.82141 6.04752 5.93555
#
# Compressibility (1/GPa) = 0.02371751
#
# Stress axis : x y z
#
# Youngs Moduli (GPa) = 79.58197 79.58197 76.83872
#
# Poissons Ratio (x) = 0.37937 0.09401
# Poissons Ratio (y) = 0.37937 0.09401
# Poissons Ratio (z) = 0.09737 0.09737
#
# Static dielectric constant tensor:
#      x y z
#    x 2.023570 0.000000 0.000000 
#    y 0.000000 2.023570 0.000000 
#    z 0.000000 0.000000 1.881570 
# 
# From -- ./inp_files/1331.got.cif
#   From: 2010.05.17/outbox.cif.g08.bks.cpg/sg78_cif.got.tgz:1331.got - 2010.06.03 18:45:56.
