data_PCOD9541392
_publ_section_title
;
Structure prediction by ZEFSAII (Michael W. Deem and Ramdas Pophale) SiO2 
 PCOD9541392
Probable space group: P 41
;
_chemical_formula_sum "Si O2"
_cell_formula_units_Z 24
_cell_length_a 10.413112
_cell_length_b 10.413112
_cell_length_c 8.847820
_cell_angle_alpha 90.000000
_cell_angle_beta 90.000000
_cell_angle_gamma 90.000000
_cell_volume 959.394795
_symmetry_space_group_name_H-M "P 41"
_symmetry_group_IT_number 76
_symmetry_cell_setting 'tetragonal'
loop_
_space_group_symop_operation_xyz
x,y,z
-y,x,1/4+z
-x,-y,1/2+z
y,-x,3/4+z
loop_
_atom_site_type_symbol
_atom_site_label
_atom_site_fract_x
_atom_site_fract_y
_atom_site_fract_z
Si Si1 0.192155 0.792407 0.844730
Si Si2 0.068039 0.786156 0.538359
Si Si3 0.786381 0.001431 0.862278
Si Si4 0.393886 0.172553 0.547970
Si Si5 0.652783 0.454204 0.256117
Si Si6 0.618566 0.223930 0.746473
O O1 0.088590 0.770482 0.714374
O O2 0.281214 0.667741 0.838025
O O3 0.255737 0.920467 0.774011
O O4 0.111765 0.822466 0.996348
O O5 0.108549 0.928107 0.471581
O O6 0.161443 0.688924 0.452394
O O7 0.728266 0.119242 0.770628
O O8 0.665553 0.943427 0.954016
O O9 0.537183 0.177621 0.604347
O O10 0.356489 0.305864 0.469604
O O11 0.595352 0.547948 0.383983
O O12 0.751804 0.535174 0.148421
#
# Coordination Sequence:
#
# PCOD9541392 Si02
#       6
#     4   4   4   4   4   4
#     4  12  28  47  79 113 155 209 253 318 399 476
#     4  11  25  45  75 110 157 197 249 321 388 468
#     4  11  28  47  75 119 154 202 266 315 396 477
#     4  11  24  48  76 106 148 204 248 326 383 462
#     4  12  27  55  79 108 153 212 269 331 402 471
#     4  11  24  46  78 104 155 198 255 319 396 458
#
# _framework density 25.01577
#
# number of rings (size 3 to 8) (size 9 to 14) (size 15 to 20)
#    0.000    0.667    5.000    1.000    9.333    1.333 
#    3.000    0.000    0.000    0.000    0.000    0.000 
#    0.000    0.000    0.000    0.000    0.000    0.000 
#
# Total GULP energy -134109.071625 kJ/mol
# GULP energy per Si atom -5587.877984 kJ/mol
# Density = 2.495883 g / cm^3
# Si number density = 25.015770 Si / 1000 Ang^3
#
#
#
# Elastic Constant Matrix: (Units=GPa)
#
#
# Indices 1 2 3 4 5 6 
#
# 1 79.9269 31.9494 34.3162 0.0000 0.0000 3.1841
# 2 31.9494 79.9269 34.3162 0.0000 0.0000 -3.1841
# 3 34.3162 34.3162 122.1095 0.0000 0.0000 0.0000
# 4 0.0000 0.0000 0.0000 41.6624 0.0000 0.0000
# 5 0.0000 0.0000 0.0000 0.0000 41.6624 0.0000
# 6 3.1841 -3.1841 0.0000 0.0000 0.0000 30.1159
#
#
#
# Elastic Compliance Matrix: (Units=1/GPa)
#
#
# Indices 1 2 3 4 5 6 
#
# 1 0.015970 -0.005170 -0.003035 0.000000 0.000000 -0.002235
# 2 -0.005170 0.015970 -0.003035 0.000000 0.000000 0.002235
# 3 -0.003035 -0.003035 0.009895 0.000000 0.000000 0.000000
# 4 0.000000 0.000000 0.000000 0.024002 0.000000 0.000000
# 5 0.000000 0.000000 0.000000 0.000000 0.024002 0.000000
# 6 -0.002235 0.002235 0.000000 0.000000 0.000000 0.033678
#
#
# Mechanical properties :
#
#
# Convention : Reuss Voigt Hill
#
# Bulk Modulus (GPa) = 51.66534 53.68075 52.67305
# Shear Modulus (GPa) = 32.79763 34.78026 33.78894
#
# Velocity S-wave (km/s) = 3.62481 3.73276 3.67918
# Velocity P-wave (km/s) = 6.18198 6.33114 6.25701
#
# Compressibility (1/GPa) = 0.01935533
#
# Stress axis : x y z
#
# Youngs Moduli (GPa) = 62.61703 62.61703 101.05766
#
# Poissons Ratio (x) = 0.32371 0.30673
# Poissons Ratio (y) = 0.32371 0.30673
# Poissons Ratio (z) = 0.19006 0.19006
#
# Static dielectric constant tensor:
#      x y z
#    x 2.002450 0.000000 0.000000 
#    y 0.000000 2.002450 0.000000 
#    z 0.000000 0.000000 2.041660 
# 
# From -- ./inp_files/547.got.cif
#   From: 2010.05.17/outbox.cif.g08.bks.cpg/sg76_cif.got.tgz:547.got - 2010.06.03 18:43:17.
