data_PCOD9541374
_publ_section_title
;
Structure prediction by ZEFSAII (Michael W. Deem and Ramdas Pophale) SiO2 
 PCOD9541374
Probable space group: P 41
;
_chemical_formula_sum "Si O2"
_cell_formula_units_Z 28
_cell_length_a 12.034792
_cell_length_b 12.034792
_cell_length_c 8.764830
_cell_angle_alpha 90.000000
_cell_angle_beta 90.000000
_cell_angle_gamma 90.000000
_cell_volume 1269.464833
_symmetry_space_group_name_H-M "P 41"
_symmetry_group_IT_number 76
_symmetry_cell_setting 'tetragonal'
loop_
_space_group_symop_operation_xyz
x,y,z
-y,x,1/4+z
-x,-y,1/2+z
y,-x,3/4+z
loop_
_atom_site_type_symbol
_atom_site_label
_atom_site_fract_x
_atom_site_fract_y
_atom_site_fract_z
Si Si1 0.550048 0.373384 0.694980
Si Si2 0.004970 0.789649 0.614437
Si Si3 0.561293 0.133003 0.803949
Si Si4 0.831901 0.806132 0.123219
Si Si5 0.645396 0.797470 0.892628
Si Si6 0.807075 0.945174 0.687299
Si Si7 0.571000 0.066323 0.447198
O O1 0.580101 0.460004 0.828148
O O2 0.516023 0.256101 0.770404
O O3 0.666901 0.350459 0.606837
O O4 0.098146 0.830130 0.498856
O O5 0.061434 0.752923 0.771196
O O6 0.925181 0.888455 0.662656
O O7 0.927228 0.681679 0.591643
O O8 0.675744 0.145220 0.900521
O O9 0.585840 0.084648 0.631310
O O10 0.483671 0.050501 0.897161
O O11 0.708465 0.809175 0.054005
O O12 0.932099 0.828897 0.004114
O O13 0.724459 0.874509 0.791301
O O14 0.521453 0.842873 0.900187
#
# Coordination Sequence:
#
# PCOD9541374 Si02
#       7
#     4   4   4   4   4   4   4
#     4  11  25  50  74 109 146 199 249 314 379 436
#     4  12  28  40  70 104 147 194 251 297 374 449
#     4  11  24  46  77 107 149 191 253 306 379 446
#     4  11  25  45  67 108 147 197 237 313 372 439
#     4  11  23  45  78  98 152 193 237 312 375 438
#     4  12  25  44  64 108 147 188 251 297 370 452
#     4  12  22  48  72 110 144 202 246 303 373 462
#
# _framework density 22.056539000000001
#
# number of rings (size 3 to 8) (size 9 to 14) (size 15 to 20)
#    0.000    0.571    5.714    1.714    6.000    1.143 
#    5.143    0.000    0.000    0.000    0.000    0.000 
#    0.000    0.000    0.000    0.000    0.000    0.000 
#
# Total GULP energy -156314.282323 kJ/mol
# GULP energy per Si atom -5582.652940 kJ/mol
# Density = 2.200634 g / cm^3
# Si number density = 22.056539 Si / 1000 Ang^3
#
#
#
# Elastic Constant Matrix: (Units=GPa)
#
#
# Indices 1 2 3 4 5 6 
#
# 1 107.9033 21.4134 34.2511 0.0000 0.0000 -15.2026
# 2 21.4134 107.9033 34.2511 0.0000 0.0000 15.2026
# 3 34.2511 34.2511 62.2687 0.0000 0.0000 0.0000
# 4 0.0000 0.0000 0.0000 29.8804 0.0000 0.0000
# 5 0.0000 0.0000 0.0000 0.0000 29.8804 0.0000
# 6 -15.2026 15.2026 0.0000 0.0000 0.0000 32.3482
#
#
#
# Elastic Compliance Matrix: (Units=1/GPa)
#
#
# Indices 1 2 3 4 5 6 
#
# 1 0.012381 -0.001469 -0.006003 0.000000 0.000000 0.006509
# 2 -0.001469 0.012381 -0.006003 0.000000 0.000000 -0.006509
# 3 -0.006003 -0.006003 0.022663 0.000000 0.000000 0.000000
# 4 0.000000 0.000000 0.000000 0.033467 0.000000 0.000000
# 5 0.000000 0.000000 0.000000 0.000000 0.033467 0.000000
# 6 0.006509 -0.006509 0.000000 0.000000 0.000000 0.037032
#
#
# Mechanical properties :
#
#
# Convention : Reuss Voigt Hill
#
# Bulk Modulus (GPa) = 48.83289 50.87851 49.85570
# Shear Modulus (GPa) = 27.00295 30.96580 28.98437
#
# Velocity S-wave (km/s) = 3.50274 3.75097 3.62898
# Velocity P-wave (km/s) = 6.20861 6.47125 6.34129
#
# Compressibility (1/GPa) = 0.02047800
#
# Stress axis : x y z
#
# Youngs Moduli (GPa) = 80.76580 80.76580 44.12499
#
# Poissons Ratio (x) = 0.11863 0.26486
# Poissons Ratio (y) = 0.11863 0.26486
# Poissons Ratio (z) = 0.48480 0.48480
#
# Static dielectric constant tensor:
#      x y z
#    x 1.895470 0.000000 0.000000 
#    y 0.000000 1.895470 0.000000 
#    z 0.000000 0.000000 1.869150 
# 
# From -- ./inp_files/628.got.cif
#   From: 2010.05.17/outbox.cif.g08.bks.cpg/sg76_cif.got.tgz:628.got - 2010.06.03 18:43:17.
