data_PCOD9541480
_publ_section_title
;
Structure prediction by ZEFSAII (Michael W. Deem and Ramdas Pophale) SiO2 
 PCOD9541480
Probable space group: P 42
;
_chemical_formula_sum "Si O2"
_cell_formula_units_Z 28
_cell_length_a 10.174934
_cell_length_b 10.174934
_cell_length_c 11.412136
_cell_angle_alpha 90.000000
_cell_angle_beta 90.000000
_cell_angle_gamma 90.000000
_cell_volume 1181.490245
_symmetry_space_group_name_H-M "P 42"
_symmetry_group_IT_number 77
_symmetry_cell_setting 'tetragonal'
loop_
_space_group_symop_operation_xyz
x,y,z
-y,x,1/2+z
-x,-y,z
y,-x,1/2+z
loop_
_atom_site_type_symbol
_atom_site_label
_atom_site_fract_x
_atom_site_fract_y
_atom_site_fract_z
Si Si1 0.617143 0.209751 0.050200
Si Si2 0.117717 0.695848 0.934700
Si Si3 0.908410 0.767019 0.766932
Si Si4 0.226956 0.411918 0.946617
Si Si5 0.500000 0.000000 0.889232
Si Si6 0.701966 0.945545 0.697658
Si Si7 0.471480 0.309282 0.664946
Si Si8 0.500000 0.500000 0.351359
O O1 0.667361 0.119882 0.159066
O O2 0.595728 0.359993 0.100913
O O3 0.746460 0.235972 0.971265
O O4 0.509891 0.128273 0.975523
O O5 0.146456 0.542574 0.909941
O O6 0.051930 0.761022 0.822380
O O7 0.031266 0.696944 0.056731
O O8 0.824375 0.710628 0.876455
O O9 0.850358 0.907487 0.730910
O O10 0.376956 0.441098 0.914858
O O11 0.237032 0.421921 0.085324
O O12 0.623118 0.019187 0.799581
O O13 0.624221 0.805832 0.705990
O O14 0.544240 0.383200 0.766868
#
# Coordination Sequence:
#
# PCOD9541480 Si02
#       8
#     4   4   4   4   2   4   4   2
#     4   9  22  40  55  91 117 161 205 262 308 369
#     4   9  21  39  63  86 123 154 212 250 299 374
#     4  10  19  41  62  86 120 158 213 248 302 376
#     4  10  20  31  57  87 117 164 195 230 307 366
#     4  12  24  38  64  80 130 156 204 266 328 366
#     4   9  22  39  57  90 116 159 202 266 304 363
#     4   9  21  35  50  84 126 150 195 244 295 373
#     4  12  18  32  54  86 130 160 184 244 304 382
#
# _framework density 23.698885000000001
#
# number of rings (size 3 to 8) (size 9 to 14) (size 15 to 20)
#    0.000    2.857    2.857    0.857   10.000    1.143 
#    0.000    2.143    0.000    6.857    0.000    0.000 
#    0.000    0.000    0.000    0.000    0.000    0.000 
#
# Total GULP energy -156002.862138 kJ/mol
# GULP energy per Si atom -5571.530791 kJ/mol
# Density = 2.364495 g / cm^3
# Si number density = 23.698885 Si / 1000 Ang^3
#
#
#
# Elastic Constant Matrix: (Units=GPa)
#
#
# Indices 1 2 3 4 5 6 
#
# 1 36.0921 -5.1168 15.9322 0.0000 0.0000 -0.9989
# 2 -5.1168 36.0921 15.9322 0.0000 0.0000 0.9989
# 3 15.9322 15.9322 64.8598 0.0000 0.0000 0.0000
# 4 0.0000 0.0000 0.0000 27.2285 0.0000 0.0000
# 5 0.0000 0.0000 0.0000 0.0000 27.2285 0.0000
# 6 -0.9989 0.9989 0.0000 0.0000 0.0000 22.0762
#
#
#
# Elastic Compliance Matrix: (Units=1/GPa)
#
#
# Indices 1 2 3 4 5 6 
#
# 1 0.033760 0.009440 -0.010612 0.000000 0.000000 0.001100
# 2 0.009440 0.033760 -0.010612 0.000000 0.000000 -0.001100
# 3 -0.010612 -0.010612 0.020631 0.000000 0.000000 0.000000
# 4 0.000000 0.000000 0.000000 0.036726 0.000000 0.000000
# 5 0.000000 0.000000 0.000000 0.000000 0.036726 0.000000
# 6 0.001100 -0.001100 0.000000 0.000000 0.000000 0.045397
#
#
# Mechanical properties :
#
#
# Convention : Reuss Voigt Hill
#
# Bulk Modulus (GPa) = 15.48354 21.17099 18.32726
# Shear Modulus (GPa) = 19.83374 22.65973 21.24673
#
# Velocity S-wave (km/s) = 2.89607 3.09553 2.99746
# Velocity P-wave (km/s) = 4.21077 4.66145 4.44183
#
# Compressibility (1/GPa) = 0.06458472
#
# Stress axis : x y z
#
# Youngs Moduli (GPa) = 29.62081 29.62081 48.47034
#
# Poissons Ratio (x) = -0.27962 0.51435
# Poissons Ratio (y) = -0.27962 0.51435
# Poissons Ratio (z) = 0.31433 0.31433
#
# Static dielectric constant tensor:
#      x y z
#    x 1.974530 0.000000 0.000000 
#    y 0.000000 1.974530 0.000000 
#    z 0.000000 0.000000 1.992630 
# 
# From -- ./inp_files/893.got.cif
#   From: 2010.05.17/outbox.cif.g08.bks.cpg/sg77_cif.got.tgz:893.got - 2010.06.03 18:44:51.
