data_PCOD9541929
_publ_section_title
;
Structure prediction by ZEFSAII (Michael W. Deem and Ramdas Pophale) SiO2 
 PCOD9541929
Probable space group: I 4
;
_chemical_formula_sum "Si O2"
_cell_formula_units_Z 56
_cell_length_a 13.392025
_cell_length_b 13.392025
_cell_length_c 14.088521
_cell_angle_alpha 90.000000
_cell_angle_beta 90.000000
_cell_angle_gamma 90.000000
_cell_volume 2526.724587
_symmetry_space_group_name_H-M "I 4"
_symmetry_group_IT_number 79
_symmetry_cell_setting 'tetragonal'
loop_
_space_group_symop_operation_xyz
x,y,z
-y,x,z
-x,-y,z
y,-x,z
1/2+x,1/2+y,1/2+z
1/2-y,1/2+x,1/2+z
1/2-x,1/2-y,1/2+z
1/2+y,1/2-x,1/2+z
loop_
_atom_site_type_symbol
_atom_site_label
_atom_site_fract_x
_atom_site_fract_y
_atom_site_fract_z
Si Si1 0.502408 0.250775 0.708540
Si Si2 0.685968 0.376537 0.539678
Si Si3 0.167492 0.408372 0.228067
Si Si4 0.698110 0.672550 0.087309
Si Si5 0.546988 0.213458 0.440315
Si Si6 0.134910 0.588043 0.098128
Si Si7 0.936817 0.154503 0.399273
O O1 0.454662 0.327863 0.629420
O O2 0.407938 0.184544 0.742031
O O3 0.576984 0.173586 0.657479
O O4 0.565180 0.295229 0.795950
O O5 0.748456 0.287245 0.582684
O O6 0.605139 0.315736 0.475810
O O7 0.761674 0.436181 0.472954
O O8 0.275392 0.383681 0.183146
O O9 0.189426 0.451936 0.330444
O O10 0.118144 0.483432 0.150888
O O11 0.603927 0.745360 0.094320
O O12 0.707390 0.604824 0.993350
O O13 0.593701 0.117008 0.494127
O O14 0.052406 0.125132 0.403809
#
# Coordination Sequence:
#
# PCOD9541929 Si02
#       7
#     8   8   8   8   8   8   8
#     4  10  24  42  68  99 135 176 231 280 355 417
#     4   9  22  42  62  98 129 182 226 286 347 415
#     4  11  24  39  68 101 132 182 226 285 351 417
#     4  10  23  41  69  92 136 177 226 280 346 419
#     4  10  23  40  68  95 139 178 235 288 354 417
#     4  10  23  44  64  96 140 176 229 285 344 420
#     4  11  26  42  68 101 132 177 227 286 350 415
#
# _framework density 22.163080999999998
#
# number of rings (size 3 to 8) (size 9 to 14) (size 15 to 20)
#    0.000    1.857    0.000    1.286   18.000    0.286 
#    0.000    1.429    0.000    0.000    0.000    0.000 
#    0.000    0.000    0.000    0.000    0.000    0.000 
#
# Total GULP energy -155963.689734 kJ/mol
# GULP energy per Si atom -5570.131776 kJ/mol
# Density = 2.211264 g / cm^3
# Si number density = 22.163081 Si / 1000 Ang^3
#
#
#
# Elastic Constant Matrix: (Units=GPa)
#
#
# Indices 1 2 3 4 5 6 
#
# 1 57.1483 -10.7403 -1.3649 0.0000 0.0000 -9.4263
# 2 -10.7403 57.1483 -1.3649 0.0000 0.0000 9.4263
# 3 -1.3649 -1.3649 84.7005 0.0000 0.0000 0.0000
# 4 0.0000 0.0000 0.0000 18.6138 0.0000 0.0000
# 5 0.0000 0.0000 0.0000 0.0000 18.6138 0.0000
# 6 -9.4263 9.4263 0.0000 0.0000 0.0000 15.2539
#
#
#
# Elastic Compliance Matrix: (Units=1/GPa)
#
#
# Indices 1 2 3 4 5 6 
#
# 1 0.019675 0.001894 0.000348 0.000000 0.000000 0.010988
# 2 0.001894 0.019675 0.000348 0.000000 0.000000 -0.010988
# 3 0.000348 0.000348 0.011818 0.000000 0.000000 0.000000
# 4 0.000000 0.000000 0.000000 0.053724 0.000000 0.000000
# 5 0.000000 0.000000 0.000000 0.000000 0.053724 0.000000
# 6 0.010988 -0.010988 0.000000 0.000000 0.000000 0.079138
#
#
# Mechanical properties :
#
#
# Convention : Reuss Voigt Hill
#
# Bulk Modulus (GPa) = 17.74792 19.11745 18.43269
# Shear Modulus (GPa) = 19.89206 24.66078 22.27642
#
# Velocity S-wave (km/s) = 2.99913 3.33933 3.17379
# Velocity P-wave (km/s) = 4.47418 4.84899 4.66535
#
# Compressibility (1/GPa) = 0.05634462
#
# Stress axis : x y z
#
# Youngs Moduli (GPa) = 50.82607 50.82607 84.62026
#
# Poissons Ratio (x) = -0.09624 -0.02941
# Poissons Ratio (y) = -0.09624 -0.02941
# Poissons Ratio (z) = -0.01766 -0.01766
#
# Static dielectric constant tensor:
#      x y z
#    x 1.948490 0.000000 0.000000 
#    y 0.000000 1.948490 0.000000 
#    z 0.000000 0.000000 1.850830 
# 
# From -- ./inp_files/1160.got.cif
#   From: 2010.05.17/outbox.cif.g08.bks.cpg/sg79_cif.got.tgz:1160.got - 2010.06.03 18:47:27.
