data_PCOD9541882
_publ_section_title
;
Structure prediction by ZEFSAII (Michael W. Deem and Ramdas Pophale) SiO2 
 PCOD9541882
Probable space group: I 4
;
_chemical_formula_sum "Si O2"
_cell_formula_units_Z 24
_cell_length_a 12.081273
_cell_length_b 12.081273
_cell_length_c 6.932434
_cell_angle_alpha 90.000000
_cell_angle_beta 90.000000
_cell_angle_gamma 90.000000
_cell_volume 1011.838360
_symmetry_space_group_name_H-M "I 4"
_symmetry_group_IT_number 79
_symmetry_cell_setting 'tetragonal'
loop_
_space_group_symop_operation_xyz
x,y,z
-y,x,z
-x,-y,z
y,-x,z
1/2+x,1/2+y,1/2+z
1/2-y,1/2+x,1/2+z
1/2-x,1/2-y,1/2+z
1/2+y,1/2-x,1/2+z
loop_
_atom_site_type_symbol
_atom_site_label
_atom_site_fract_x
_atom_site_fract_y
_atom_site_fract_z
Si Si1 0.738751 0.104599 0.216290
Si Si2 0.203213 0.845479 0.817879
Si Si3 0.966107 0.276811 0.580585
O O1 0.750467 0.220281 0.334515
O O2 0.743326 0.004658 0.363430
O O3 0.617182 0.121979 0.119308
O O4 0.817380 0.107811 0.030760
O O5 0.288007 0.923033 0.705509
O O6 0.096392 0.826409 0.683554
#
# Coordination Sequence:
#
# PCOD9541882 Si02
#       3
#     8   8   8
#     4  10  21  41  69 104 150 191 253 313 372 457
#     4  10  21  40  68 100 148 189 251 314 369 450
#     4  10  22  41  71 103 147 200 246 309 389 445
#
# _framework density 23.719204000000001
#
# number of rings (size 3 to 8) (size 9 to 14) (size 15 to 20)
#    2.000    0.000    3.333    0.000    0.000    8.667 
#    0.000    5.000    0.000    8.000    0.000    0.000 
#    0.000    0.000    0.000    0.000    0.000    0.000 
#
# Total GULP energy -66899.065730 kJ/mol
# GULP energy per Si atom -5574.922144 kJ/mol
# Density = 2.366522 g / cm^3
# Si number density = 23.719204 Si / 1000 Ang^3
#
#
#
# Elastic Constant Matrix: (Units=GPa)
#
#
# Indices 1 2 3 4 5 6 
#
# 1 85.1656 28.3549 58.7684 0.0000 0.0000 -1.1224
# 2 28.3549 85.1656 58.7684 0.0000 0.0000 1.1224
# 3 58.7684 58.7684 233.4287 0.0000 0.0000 0.0000
# 4 0.0000 0.0000 0.0000 50.8208 0.0000 0.0000
# 5 0.0000 0.0000 0.0000 0.0000 50.8208 0.0000
# 6 -1.1224 1.1224 0.0000 0.0000 0.0000 6.4306
#
#
#
# Elastic Compliance Matrix: (Units=1/GPa)
#
#
# Indices 1 2 3 4 5 6 
#
# 1 0.014820 -0.002905 -0.003000 0.000000 0.000000 0.003094
# 2 -0.002905 0.014820 -0.003000 0.000000 0.000000 -0.003094
# 3 -0.003000 -0.003000 0.005794 0.000000 0.000000 0.000000
# 4 0.000000 0.000000 0.000000 0.019677 0.000000 0.000000
# 5 0.000000 0.000000 0.000000 0.000000 0.019677 0.000000
# 6 0.003094 -0.003094 0.000000 0.000000 0.000000 0.156587
#
#
# Mechanical properties :
#
#
# Convention : Reuss Voigt Hill
#
# Bulk Modulus (GPa) = 56.73692 77.28262 67.00977
# Shear Modulus (GPa) = 19.60336 38.80567 29.20451
#
# Velocity S-wave (km/s) = 2.87797 4.04919 3.51274
# Velocity P-wave (km/s) = 5.91741 7.38338 6.69067
#
# Compressibility (1/GPa) = 0.01762521
#
# Stress axis : x y z
#
# Youngs Moduli (GPa) = 67.47783 67.47783 172.58106
#
# Poissons Ratio (x) = 0.19602 0.51769
# Poissons Ratio (y) = 0.19602 0.51769
# Poissons Ratio (z) = 0.20241 0.20241
#
# Static dielectric constant tensor:
#      x y z
#    x 1.952880 0.000000 0.000000 
#    y 0.000000 1.952880 0.000000 
#    z 0.000000 0.000000 1.925250 
# 
# From -- ./inp_files/35.got.cif
#   From: 2010.05.17/outbox.cif.g08.bks.cpg/sg79_cif.got.tgz:35.got - 2010.06.03 18:47:27.
