data_PCOD9541356
_publ_section_title
;
Structure prediction by ZEFSAII (Michael W. Deem and Ramdas Pophale) SiO2 
 PCOD9541356
Probable space group: P 41
;
_chemical_formula_sum "Si O2"
_cell_formula_units_Z 32
_cell_length_a 8.957030
_cell_length_b 8.957030
_cell_length_c 19.908946
_cell_angle_alpha 90.000000
_cell_angle_beta 90.000000
_cell_angle_gamma 90.000000
_cell_volume 1597.262613
_symmetry_space_group_name_H-M "P 41"
_symmetry_group_IT_number 76
_symmetry_cell_setting 'tetragonal'
loop_
_space_group_symop_operation_xyz
x,y,z
-y,x,1/4+z
-x,-y,1/2+z
y,-x,3/4+z
loop_
_atom_site_type_symbol
_atom_site_label
_atom_site_fract_x
_atom_site_fract_y
_atom_site_fract_z
Si Si1 0.110985 0.372700 0.986240
Si Si2 0.876619 0.996962 0.646547
Si Si3 0.382327 0.954712 0.581972
Si Si4 0.207978 0.384867 0.355460
Si Si5 0.509068 0.479982 0.140362
Si Si6 0.909166 0.938882 0.268438
Si Si7 0.766689 0.320713 0.471094
Si Si8 0.301912 0.553821 0.762419
O O1 0.115196 0.356014 0.905564
O O2 0.116645 0.551465 0.996925
O O3 0.267179 0.314170 0.016458
O O4 0.977537 0.267330 0.011720
O O5 0.743202 0.116858 0.644026
O O6 0.009121 0.037861 0.697564
O O7 0.798950 0.848643 0.675206
O O8 0.945560 0.973661 0.573173
O O9 0.225673 0.948273 0.544234
O O10 0.496779 0.855040 0.539028
O O11 0.465971 0.110039 0.595414
O O12 0.361674 0.428643 0.390553
O O13 0.247018 0.314456 0.283575
O O14 0.408930 0.356115 0.177873
O O15 0.519190 0.422992 0.063623
O O16 0.657207 0.488204 0.185977
#
# Coordination Sequence:
#
# PCOD9541356 Si02
#       8
#     4   4   4   4   4   4   4   4
#     4  11  22  46  70  97 136 182 233 289 337 424
#     4  12  25  44  69  97 141 184 231 282 350 427
#     4  12  26  44  65 103 144 183 226 293 355 417
#     4  12  25  43  69 104 145 176 226 294 351 420
#     4  11  22  40  71 100 134 170 233 288 338 410
#     4  12  27  44  67 101 141 184 234 284 355 415
#     4  11  23  44  71 100 131 185 235 282 347 420
#     4  11  22  43  70  98 130 184 238 278 345 417
#
# _framework density 20.034276999999999
#
# number of rings (size 3 to 8) (size 9 to 14) (size 15 to 20)
#    0.000    0.500    8.750    1.500    3.500    0.000 
#    0.000    1.250    0.000    0.000    0.000    0.000 
#    0.000    0.000    0.000    0.000    0.000    0.000 
#
# Total GULP energy -178763.629565 kJ/mol
# GULP energy per Si atom -5586.363424 kJ/mol
# Density = 1.998868 g / cm^3
# Si number density = 20.034277 Si / 1000 Ang^3
#
#
#
# Elastic Constant Matrix: (Units=GPa)
#
#
# Indices 1 2 3 4 5 6 
#
# 1 61.1073 17.7419 18.5760 0.0000 0.0000 1.0214
# 2 17.7419 61.1073 18.5760 0.0000 0.0000 -1.0214
# 3 18.5760 18.5760 62.7229 0.0000 0.0000 0.0000
# 4 0.0000 0.0000 0.0000 31.6777 0.0000 0.0000
# 5 0.0000 0.0000 0.0000 0.0000 31.6777 0.0000
# 6 1.0214 -1.0214 0.0000 0.0000 0.0000 22.8033
#
#
#
# Elastic Compliance Matrix: (Units=1/GPa)
#
#
# Indices 1 2 3 4 5 6 
#
# 1 0.018924 -0.004185 -0.004365 0.000000 0.000000 -0.001035
# 2 -0.004185 0.018924 -0.004365 0.000000 0.000000 0.001035
# 3 -0.004365 -0.004365 0.018529 0.000000 0.000000 0.000000
# 4 0.000000 0.000000 0.000000 0.031568 0.000000 0.000000
# 5 0.000000 0.000000 0.000000 0.000000 0.031568 0.000000
# 6 -0.001035 0.001035 0.000000 0.000000 0.000000 0.043946
#
#
# Mechanical properties :
#
#
# Convention : Reuss Voigt Hill
#
# Bulk Modulus (GPa) = 32.73698 32.74724 32.74211
# Shear Modulus (GPa) = 25.06637 25.90135 25.48386
#
# Velocity S-wave (km/s) = 3.54103 3.59953 3.57040
# Velocity P-wave (km/s) = 5.75278 5.80142 5.77715
#
# Compressibility (1/GPa) = 0.03054650
#
# Stress axis : x y z
#
# Youngs Moduli (GPa) = 52.84320 52.84320 53.97037
#
# Poissons Ratio (x) = 0.22113 0.23559
# Poissons Ratio (y) = 0.22113 0.23559
# Poissons Ratio (z) = 0.23067 0.23067
#
# Static dielectric constant tensor:
#      x y z
#    x 1.713590 0.000000 0.000000 
#    y 0.000000 1.713590 0.000000 
#    z 0.000000 0.000000 1.703740 
# 
# From -- ./inp_files/1454.got.cif
#   From: 2010.05.17/outbox.cif.g08.bks.cpg/sg76_cif.got.tgz:1454.got - 2010.06.03 18:43:17.
