data_PCOD9541482
_publ_section_title
;
Structure prediction by ZEFSAII (Michael W. Deem and Ramdas Pophale) SiO2 
 PCOD9541482
Probable space group: P 42
;
_chemical_formula_sum "Si O2"
_cell_formula_units_Z 28
_cell_length_a 16.361709
_cell_length_b 16.361709
_cell_length_c 6.300616
_cell_angle_alpha 90.000000
_cell_angle_beta 90.000000
_cell_angle_gamma 90.000000
_cell_volume 1686.709691
_symmetry_space_group_name_H-M "P 42"
_symmetry_group_IT_number 77
_symmetry_cell_setting 'tetragonal'
loop_
_space_group_symop_operation_xyz
x,y,z
-y,x,1/2+z
-x,-y,z
y,-x,1/2+z
loop_
_atom_site_type_symbol
_atom_site_label
_atom_site_fract_x
_atom_site_fract_y
_atom_site_fract_z
Si Si1 0.247640 0.175782 0.936190
Si Si2 0.845940 0.129093 0.057624
Si Si3 0.423409 0.902442 0.994078
Si Si4 0.631621 0.036072 0.413058
Si Si5 0.031543 0.801096 0.744482
Si Si6 0.165681 0.292745 0.237792
Si Si7 0.924296 0.402771 0.291207
O O1 0.190691 0.190513 0.732560
O O2 0.334353 0.142401 0.849736
O O3 0.208903 0.099978 0.065174
O O4 0.239632 0.251383 0.103227
O O5 0.856536 0.041793 0.163436
O O6 0.927483 0.165986 0.958317
O O7 0.781729 0.123508 0.864320
O O8 0.427491 0.919203 0.245104
O O9 0.363157 0.830066 0.918647
O O10 0.509643 0.894327 0.875154
O O11 0.388383 0.990364 0.915186
O O12 0.665816 0.105611 0.568946
O O13 0.711957 0.004136 0.293397
O O14 0.597734 0.959117 0.549738
#
# Coordination Sequence:
#
# PCOD9541482 Si02
#       7
#     4   4   4   4   4   4   4
#     4  11  20  35  54  72 102 136 181 223 267 320
#     4  11  22  35  54  69  97 138 185 233 269 315
#     4  10  20  34  51  77 109 132 175 218 276 324
#     4  11  18  36  56  71 103 137 174 219 267 325
#     4  11  21  34  53  69  95 137 188 227 276 308
#     4  10  20  33  53  75  92 142 175 214 272 323
#     4  10  21  32  51  83 102 135 176 219 271 327
#
# _framework density 16.600366999999999
#
# number of rings (size 3 to 8) (size 9 to 14) (size 15 to 20)
#    0.000    1.429    5.714    0.857    0.000    4.571 
#    0.000    2.143    0.000    0.000    0.000    0.000 
#    0.000    0.000    0.000   18.000    0.000    0.000 
#
# Total GULP energy -155912.592937 kJ/mol
# GULP energy per Si atom -5568.306891 kJ/mol
# Density = 1.656258 g / cm^3
# Si number density = 16.600367 Si / 1000 Ang^3
#
#
#
# Elastic Constant Matrix: (Units=GPa)
#
#
# Indices 1 2 3 4 5 6 
#
# 1 62.5912 23.0701 23.2420 0.0000 0.0000 1.9541
# 2 23.0701 62.5912 23.2420 0.0000 0.0000 -1.9541
# 3 23.2420 23.2420 76.5793 0.0000 0.0000 0.0000
# 4 0.0000 0.0000 0.0000 20.6770 0.0000 0.0000
# 5 0.0000 0.0000 0.0000 0.0000 20.6770 0.0000
# 6 1.9541 -1.9541 0.0000 0.0000 0.0000 13.2065
#
#
#
# Elastic Compliance Matrix: (Units=1/GPa)
#
#
# Indices 1 2 3 4 5 6 
#
# 1 0.019827 -0.005852 -0.004242 0.000000 0.000000 -0.003800
# 2 -0.005852 0.019827 -0.004242 0.000000 0.000000 0.003800
# 3 -0.004242 -0.004242 0.015633 0.000000 0.000000 0.000000
# 4 0.000000 0.000000 0.000000 0.048363 0.000000 0.000000
# 5 0.000000 0.000000 0.000000 0.000000 0.048363 0.000000
# 6 -0.003800 0.003800 0.000000 0.000000 0.000000 0.076845
#
#
# Mechanical properties :
#
#
# Convention : Reuss Voigt Hill
#
# Bulk Modulus (GPa) = 37.56894 37.87443 37.72169
# Shear Modulus (GPa) = 18.76878 19.72596 19.24737
#
# Velocity S-wave (km/s) = 3.36612 3.45089 3.40877
# Velocity P-wave (km/s) = 6.14721 6.22440 6.18593
#
# Compressibility (1/GPa) = 0.02661773
#
# Stress axis : x y z
#
# Youngs Moduli (GPa) = 50.43596 50.43596 63.96708
#
# Poissons Ratio (x) = 0.29513 0.27132
# Poissons Ratio (y) = 0.29513 0.27132
# Poissons Ratio (z) = 0.21393 0.21393
#
# Static dielectric constant tensor:
#      x y z
#    x 1.565420 0.000000 0.000000 
#    y 0.000000 1.565420 0.000000 
#    z 0.000000 0.000000 1.668880 
# 
# From -- ./inp_files/175.got.cif
#   From: 2010.05.17/outbox.cif.g08.bks.cpg/sg77_cif.got.tgz:175.got - 2010.06.03 18:44:51.
