data_PCOD9541348
_publ_section_title
;
Structure prediction by ZEFSAII (Michael W. Deem and Ramdas Pophale) SiO2 
 PCOD9541348
Probable space group: P 41
;
_chemical_formula_sum "Si O2"
_cell_formula_units_Z 28
_cell_length_a 14.157975
_cell_length_b 14.157975
_cell_length_c 5.593283
_cell_angle_alpha 90.000000
_cell_angle_beta 90.000000
_cell_angle_gamma 90.000000
_cell_volume 1121.163823
_symmetry_space_group_name_H-M "P 41"
_symmetry_group_IT_number 76
_symmetry_cell_setting 'tetragonal'
loop_
_space_group_symop_operation_xyz
x,y,z
-y,x,1/4+z
-x,-y,1/2+z
y,-x,3/4+z
loop_
_atom_site_type_symbol
_atom_site_label
_atom_site_fract_x
_atom_site_fract_y
_atom_site_fract_z
Si Si1 0.974208 0.405214 0.665630
Si Si2 0.010023 0.753282 0.765486
Si Si3 0.585498 0.675810 0.327466
Si Si4 0.725812 0.827992 0.187372
Si Si5 0.484473 0.694442 0.807050
Si Si6 0.084179 0.101434 0.562302
Si Si7 0.395523 0.886901 0.777414
O O1 0.894740 0.359095 0.839532
O O2 0.942889 0.512740 0.629529
O O3 0.976051 0.328777 0.459302
O O4 0.082640 0.405527 0.752700
O O5 0.977997 0.854380 0.851832
O O6 0.932135 0.703734 0.598379
O O7 0.113767 0.762866 0.661432
O O8 0.680913 0.728555 0.244841
O O9 0.548736 0.726495 0.575586
O O10 0.610198 0.573723 0.434482
O O11 0.527498 0.673145 0.072751
O O12 0.821971 0.833961 0.039821
O O13 0.411690 0.780096 0.846000
O O14 0.007832 0.111449 0.775772
#
# Coordination Sequence:
#
# PCOD9541348 Si02
#       7
#     4   4   4   4   4   4   4
#     4  11  21  43  67 109 146 192 244 321 385 457
#     4  11  25  43  71 104 152 195 255 323 388 459
#     4  12  29  52  82 114 156 198 259 327 391 487
#     4  11  26  46  72 107 147 198 260 326 387 453
#     4  12  29  51  80 117 153 206 258 316 401 476
#     4  12  26  46  71 101 149 205 261 303 374 464
#     4  11  24  39  75 108 147 192 249 316 396 460
#
# _framework density 24.974049000000001
#
# number of rings (size 3 to 8) (size 9 to 14) (size 15 to 20)
#    0.000    0.571    4.286    2.571    6.000    3.429 
#    0.000    0.000    0.000    0.000    0.000    0.000 
#    0.000    0.000    0.000    0.000    0.000    0.000 
#
# Total GULP energy -156124.914267 kJ/mol
# GULP energy per Si atom -5575.889795 kJ/mol
# Density = 2.491721 g / cm^3
# Si number density = 24.974049 Si / 1000 Ang^3
#
#
#
# Elastic Constant Matrix: (Units=GPa)
#
#
# Indices 1 2 3 4 5 6 
#
# 1 72.2215 16.9759 19.1722 0.0000 0.0000 1.3931
# 2 16.9759 72.2215 19.1722 0.0000 0.0000 -1.3931
# 3 19.1722 19.1722 96.3866 0.0000 0.0000 0.0000
# 4 0.0000 0.0000 0.0000 -7.0985 0.0000 0.0000
# 5 0.0000 0.0000 0.0000 0.0000 -7.0985 0.0000
# 6 1.3931 -1.3931 0.0000 0.0000 0.0000 35.0974
#
#
#
# Elastic Compliance Matrix: (Units=1/GPa)
#
#
# Indices 1 2 3 4 5 6 
#
# 1 0.015198 -0.002939 -0.002438 0.000000 0.000000 -0.000720
# 2 -0.002939 0.015198 -0.002438 0.000000 0.000000 0.000720
# 3 -0.002438 -0.002438 0.011345 0.000000 0.000000 0.000000
# 4 0.000000 0.000000 0.000000 -0.140876 0.000000 0.000000
# 5 0.000000 0.000000 0.000000 0.000000 -0.140876 0.000000
# 6 -0.000720 0.000720 0.000000 0.000000 0.000000 0.028549
#
#
# Mechanical properties :
#
#
# Convention : Reuss Voigt Hill
#
# Bulk Modulus (GPa) = 38.29996 39.05222 38.67609
# Shear Modulus (GPa) = -26.72003 16.54740 -5.08631
#
# Velocity S-wave (km/s) = -3.27450 2.57686 -1.42866
# Velocity P-wave (km/s) = 1.03573 4.95224 3.57753
#
# Compressibility (1/GPa) = 0.02610969
#
# Stress axis : x y z
#
# Youngs Moduli (GPa) = 65.79674 65.79674 88.14483
#
# Poissons Ratio (x) = 0.19337 0.21494
# Poissons Ratio (y) = 0.19337 0.21494
# Poissons Ratio (z) = 0.16045 0.16045
#
# Static dielectric constant tensor:
#      x y z
#    x 2.280150 0.000000 0.000000 
#    y 0.000000 2.280150 0.000000 
#    z 0.000000 0.000000 2.214400 
# 
# From -- ./inp_files/235.got.cif
#   From: 2010.05.17/outbox.cif.g08.bks.cpg/sg76_cif.got.tgz:235.got - 2010.06.03 18:43:17.
