data_PCOD9541135
_publ_section_title
;
Structure prediction by ZEFSAII (Michael W. Deem and Ramdas Pophale) SiO2 
 PCOD9541135
Probable space group: P 41
;
_chemical_formula_sum "Si O2"
_cell_formula_units_Z 28
_cell_length_a 11.483712
_cell_length_b 11.483712
_cell_length_c 10.212860
_cell_angle_alpha 90.000000
_cell_angle_beta 90.000000
_cell_angle_gamma 90.000000
_cell_volume 1346.827462
_symmetry_space_group_name_H-M "P 41"
_symmetry_group_IT_number 76
_symmetry_cell_setting 'tetragonal'
loop_
_space_group_symop_operation_xyz
x,y,z
-y,x,1/4+z
-x,-y,1/2+z
y,-x,3/4+z
loop_
_atom_site_type_symbol
_atom_site_label
_atom_site_fract_x
_atom_site_fract_y
_atom_site_fract_z
Si Si1 0.759519 0.629821 0.274620
Si Si2 0.393496 0.755131 0.018430
Si Si3 0.683042 0.991966 0.908451
Si Si4 0.731924 0.346812 0.763907
Si Si5 0.647209 0.746411 0.529584
Si Si6 0.988921 0.662448 0.857490
Si Si7 0.931384 0.056616 0.591159
O O1 0.897828 0.644027 0.244779
O O2 0.697651 0.698817 0.156663
O O3 0.714223 0.687913 0.408275
O O4 0.727369 0.492444 0.273194
O O5 0.518705 0.699593 0.998680
O O6 0.343230 0.724196 0.159943
O O7 0.408157 0.894803 0.023809
O O8 0.307545 0.705083 0.909767
O O9 0.627935 0.998096 0.761165
O O10 0.822210 0.992189 0.879895
O O11 0.665279 0.867707 0.977477
O O12 0.663301 0.885124 0.541672
O O13 0.937605 0.793185 0.854324
O O14 0.961623 0.026424 0.443515
#
# Coordination Sequence:
#
# PCOD9541135 Si02
#       7
#     4   4   4   4   4   4   4
#     4  12  28  47  70 109 148 187 247 303 355 432
#     4  12  24  45  73  98 138 196 238 293 367 424
#     4  11  22  46  70 102 139 183 242 294 361 435
#     4  12  24  45  73  98 138 196 238 293 367 424
#     4  12  28  47  70 109 148 187 247 303 355 432
#     4  11  22  46  70 102 139 183 242 294 361 435
#     4  10  20  36  64  94 134 170 216 278 346 416
#
# _framework density 20.789596
#
# number of rings (size 3 to 8) (size 9 to 14) (size 15 to 20)
#    0.000    0.571    4.286    4.286    2.000    4.571 
#    0.000    0.000    0.000    0.000    0.000    0.000 
#    0.000    0.000    0.000    0.000    0.000    0.000 
#
# Total GULP energy -156507.072965 kJ/mol
# GULP energy per Si atom -5589.538320 kJ/mol
# Density = 2.074228 g / cm^3
# Si number density = 20.789596 Si / 1000 Ang^3
#
#
#
# Elastic Constant Matrix: (Units=GPa)
#
#
# Indices 1 2 3 4 5 6 
#
# 1 52.9214 29.7938 -2.7277 0.0000 0.0000 -3.9408
# 2 29.7938 52.9214 -2.7277 0.0000 0.0000 3.9408
# 3 -2.7277 -2.7277 58.1856 0.0000 0.0000 0.0000
# 4 0.0000 0.0000 0.0000 -1.2220 0.0000 0.0000
# 5 0.0000 0.0000 0.0000 0.0000 -1.2220 0.0000
# 6 -3.9408 3.9408 0.0000 0.0000 0.0000 3.8809
#
#
#
# Elastic Compliance Matrix: (Units=1/GPa)
#
#
# Indices 1 2 3 4 5 6 
#
# 1 0.039123 -0.026996 0.000569 0.000000 0.000000 0.067140
# 2 -0.026996 0.039123 0.000569 0.000000 0.000000 -0.067140
# 3 0.000569 0.000569 0.017240 0.000000 0.000000 0.000000
# 4 0.000000 0.000000 0.000000 -0.818342 0.000000 0.000000
# 5 0.000000 0.000000 0.000000 0.000000 -0.818342 0.000000
# 6 0.067140 -0.067140 0.000000 0.000000 0.000000 0.394029
#
#
# Mechanical properties :
#
#
# Convention : Reuss Voigt Hill
#
# Bulk Modulus (GPa) = 22.84771 23.63392 23.24081
# Shear Modulus (GPa) = -4.62594 9.60004 2.48705
#
# Velocity S-wave (km/s) = -1.49330 2.15122 1.09494
# Velocity P-wave (km/s) = 2.83559 4.19084 3.57797
#
# Compressibility (1/GPa) = 0.04376807
#
# Stress axis : x y z
#
# Youngs Moduli (GPa) = 25.56029 25.56029 58.00569
#
# Poissons Ratio (x) = 0.69003 -0.03298
# Poissons Ratio (y) = 0.69003 -0.03298
# Poissons Ratio (z) = -0.01453 -0.01453
#
# Static dielectric constant tensor:
#      x y z
#    x 1.783350 0.000000 0.000000 
#    y 0.000000 1.783350 0.000000 
#    z 0.000000 0.000000 1.722080 
# 
# From -- ./inp_files/641.got.cif
#   From: 2010.05.17/outbox.cif.g08.bks.cpg/sg76_cif.got.tgz:641.got - 2010.06.03 18:43:17.
