data_PCOD9541156
_publ_section_title
;
Structure prediction by ZEFSAII (Michael W. Deem and Ramdas Pophale) SiO2 
 PCOD9541156
Probable space group: P 41
;
_chemical_formula_sum "Si O2"
_cell_formula_units_Z 20
_cell_length_a 6.973005
_cell_length_b 6.973005
_cell_length_c 14.844278
_cell_angle_alpha 90.000000
_cell_angle_beta 90.000000
_cell_angle_gamma 90.000000
_cell_volume 721.770341
_symmetry_space_group_name_H-M "P 41"
_symmetry_group_IT_number 76
_symmetry_cell_setting 'tetragonal'
loop_
_space_group_symop_operation_xyz
x,y,z
-y,x,1/4+z
-x,-y,1/2+z
y,-x,3/4+z
loop_
_atom_site_type_symbol
_atom_site_label
_atom_site_fract_x
_atom_site_fract_y
_atom_site_fract_z
Si Si1 0.200660 0.593809 0.071650
Si Si2 0.210106 0.743450 0.410024
Si Si3 0.153595 0.235468 0.992591
Si Si4 0.885598 0.689319 0.961687
Si Si5 0.726525 0.506491 0.324184
O O1 0.185844 0.740020 0.152386
O O2 0.407658 0.486205 0.074117
O O3 0.077124 0.395145 0.065538
O O4 0.113812 0.706489 0.985377
O O5 0.285187 0.800909 0.312916
O O6 0.142959 0.520930 0.416038
O O7 0.360449 0.759203 0.489275
O O8 0.022153 0.861962 0.443974
O O9 0.248222 0.364388 0.912352
O O10 0.323022 0.137697 0.047686
#
# Coordination Sequence:
#
# PCOD9541156 Si02
#       5
#     4   4   4   4   4
#     4   9  23  40  65 100 141 190 237 289 371 419
#     4  11  23  39  73 100 134 188 239 291 365 434
#     4   9  22  40  68 106 134 186 237 294 358 429
#     4  11  22  41  65 103 140 187 242 297 366 441
#     4  10  20  42  67 101 143 179 241 291 358 435
#
# _framework density 27.709648000000001
#
# number of rings (size 3 to 8) (size 9 to 14) (size 15 to 20)
#    1.200    0.800    0.000    3.600    5.600    0.000 
#    0.000    4.000    0.000    0.000    0.000    0.000 
#    0.000    0.000    0.000    0.000    0.000    0.000 
#
# Total GULP energy -111432.309730 kJ/mol
# GULP energy per Si atom -5571.615487 kJ/mol
# Density = 2.764658 g / cm^3
# Si number density = 27.709648 Si / 1000 Ang^3
#
#
#
# Elastic Constant Matrix: (Units=GPa)
#
#
# Indices 1 2 3 4 5 6 
#
# 1 73.7646 33.0945 26.4927 0.0000 0.0000 20.7098
# 2 33.0945 73.7646 26.4927 0.0000 0.0000 -20.7098
# 3 26.4927 26.4927 149.6454 0.0000 0.0000 0.0000
# 4 0.0000 0.0000 0.0000 29.5140 0.0000 0.0000
# 5 0.0000 0.0000 0.0000 0.0000 29.5140 0.0000
# 6 20.7098 -20.7098 0.0000 0.0000 0.0000 -1.8759
#
#
#
# Elastic Compliance Matrix: (Units=1/GPa)
#
#
# Indices 1 2 3 4 5 6 
#
# 1 0.006133 0.004125 -0.001816 0.000000 0.000000 0.022171
# 2 0.004125 0.006133 -0.001816 0.000000 0.000000 -0.022171
# 3 -0.001816 -0.001816 0.007326 0.000000 0.000000 0.000000
# 4 0.000000 0.000000 0.000000 0.033882 0.000000 0.000000
# 5 0.000000 0.000000 0.000000 0.000000 0.033882 0.000000
# 6 0.022171 -0.022171 0.000000 0.000000 0.000000 -0.043540
#
#
# Mechanical properties :
#
#
# Convention : Reuss Voigt Hill
#
# Bulk Modulus (GPa) = 48.59514 52.14825 50.37170
# Shear Modulus (GPa) = 100.62323 25.50340 63.06331
#
# Velocity S-wave (km/s) = 6.03260 3.03707 4.77577
# Velocity P-wave (km/s) = 8.13009 5.58200 6.97342
#
# Compressibility (1/GPa) = 0.02057819
#
# Stress axis : x y z
#
# Youngs Moduli (GPa) = 163.04049 163.04049 136.50926
#
# Poissons Ratio (x) = -0.67257 0.24792
# Poissons Ratio (y) = -0.67257 0.24792
# Poissons Ratio (z) = 0.29611 0.29611
#
# Static dielectric constant tensor:
#      x y z
#    x 2.307260 0.000000 0.000000 
#    y 0.000000 2.307260 0.000000 
#    z 0.000000 0.000000 2.128100 
# 
# From -- ./inp_files/1036.got.cif
#   From: 2010.05.17/outbox.cif.g08.bks.cpg/sg76_cif.got.tgz:1036.got - 2010.06.03 18:43:17.
