data_PCOD9541269
_publ_section_title
;
Structure prediction by ZEFSAII (Michael W. Deem and Ramdas Pophale) SiO2 
 PCOD9541269
Probable space group: P 41
;
_chemical_formula_sum "Si O2"
_cell_formula_units_Z 28
_cell_length_a 11.995402
_cell_length_b 11.995402
_cell_length_c 7.412670
_cell_angle_alpha 90.000000
_cell_angle_beta 90.000000
_cell_angle_gamma 90.000000
_cell_volume 1066.606634
_symmetry_space_group_name_H-M "P 41"
_symmetry_group_IT_number 76
_symmetry_cell_setting 'tetragonal'
loop_
_space_group_symop_operation_xyz
x,y,z
-y,x,1/4+z
-x,-y,1/2+z
y,-x,3/4+z
loop_
_atom_site_type_symbol
_atom_site_label
_atom_site_fract_x
_atom_site_fract_y
_atom_site_fract_z
Si Si1 0.523144 0.243094 0.489050
Si Si2 0.067821 0.458516 0.553602
Si Si3 0.697760 0.861550 0.901521
Si Si4 0.875911 0.068575 0.552592
Si Si5 0.790591 0.651634 0.369932
Si Si6 0.281788 0.011137 0.759256
Si Si7 0.436846 0.380874 0.792340
O O1 0.548727 0.136938 0.618383
O O2 0.396693 0.229650 0.419510
O O3 0.594131 0.242245 0.308957
O O4 0.518639 0.342755 0.632738
O O5 0.150644 0.428338 0.719619
O O6 0.966520 0.369511 0.562332
O O7 0.025188 0.586804 0.562247
O O8 0.811242 0.817632 0.816166
O O9 0.736433 0.903865 0.097541
O O10 0.803513 0.989974 0.422626
O O11 0.997321 0.102318 0.479362
O O12 0.889523 0.733913 0.418489
O O13 0.672128 0.696481 0.301570
O O14 0.500893 0.389435 0.978359
#
# Coordination Sequence:
#
# PCOD9541269 Si02
#       7
#     4   4   4   4   4   4   4
#     4  11  24  43  73 108 136 184 240 294 356 411
#     4  10  22  48  74 106 142 172 250 308 340 402
#     4  10  24  44  76 104 137 181 238 304 347 414
#     4  12  28  44  68 102 148 194 230 284 362 440
#     4  11  24  43  73 108 136 184 240 294 356 411
#     4  10  24  44  76 104 137 181 238 304 347 414
#     4  12  26  46  66 100 152 194 224 282 348 442
#
# _framework density 26.251480000000001
#
# number of rings (size 3 to 8) (size 9 to 14) (size 15 to 20)
#    0.000    1.143    2.857    1.714    4.000    6.857 
#    0.000    0.000    0.000    0.000    0.000    0.000 
#    0.000    0.000    0.000    0.000    0.000    0.000 
#
# Total GULP energy -156820.018078 kJ/mol
# GULP energy per Si atom -5600.714931 kJ/mol
# Density = 2.619173 g / cm^3
# Si number density = 26.251480 Si / 1000 Ang^3
#
#
#
# Elastic Constant Matrix: (Units=GPa)
#
#
# Indices 1 2 3 4 5 6 
#
# 1 105.9506 -2.6099 17.3944 0.0000 0.0000 7.1489
# 2 -2.6099 105.9506 17.3944 0.0000 0.0000 -7.1489
# 3 17.3944 17.3944 90.7351 0.0000 0.0000 0.0000
# 4 0.0000 0.0000 0.0000 41.8196 0.0000 0.0000
# 5 0.0000 0.0000 0.0000 0.0000 41.8196 0.0000
# 6 7.1489 -7.1489 0.0000 0.0000 0.0000 12.7030
#
#
#
# Elastic Compliance Matrix: (Units=1/GPa)
#
#
# Indices 1 2 3 4 5 6 
#
# 1 0.010147 0.000198 -0.001983 0.000000 0.000000 -0.005599
# 2 0.000198 0.010147 -0.001983 0.000000 0.000000 0.005599
# 3 -0.001983 -0.001983 0.011781 0.000000 0.000000 0.000000
# 4 0.000000 0.000000 0.000000 0.023912 0.000000 0.000000
# 5 0.000000 0.000000 0.000000 0.000000 0.023912 0.000000
# 6 -0.005599 0.005599 0.000000 0.000000 0.000000 0.085024
#
#
# Mechanical properties :
#
#
# Convention : Reuss Voigt Hill
#
# Bulk Modulus (GPa) = 40.75344 40.77712 40.76528
# Shear Modulus (GPa) = 27.67957 37.29893 32.48925
#
# Velocity S-wave (km/s) = 3.25068 3.77348 3.52179
# Velocity P-wave (km/s) = 5.44492 5.87814 5.66567
#
# Compressibility (1/GPa) = 0.02453781
#
# Stress axis : x y z
#
# Youngs Moduli (GPa) = 98.55538 98.55538 84.87942
#
# Poissons Ratio (x) = -0.01949 0.16832
# Poissons Ratio (y) = -0.01949 0.16832
# Poissons Ratio (z) = 0.19544 0.19544
#
# Static dielectric constant tensor:
#      x y z
#    x 2.067410 0.000000 0.000000 
#    y 0.000000 2.067410 0.000000 
#    z 0.000000 0.000000 2.033060 
# 
# From -- ./inp_files/584.got.cif
#   From: 2010.05.17/outbox.cif.g08.bks.cpg/sg76_cif.got.tgz:584.got - 2010.06.03 18:43:17.
