data_PCOD9541326
_publ_section_title
;
Structure prediction by ZEFSAII (Michael W. Deem and Ramdas Pophale) SiO2 
 PCOD9541326
Probable space group: P 41
;
_chemical_formula_sum "Si O2"
_cell_formula_units_Z 20
_cell_length_a 7.514303
_cell_length_b 7.514303
_cell_length_c 12.011060
_cell_angle_alpha 90.000000
_cell_angle_beta 90.000000
_cell_angle_gamma 90.000000
_cell_volume 678.201495
_symmetry_space_group_name_H-M "P 41"
_symmetry_group_IT_number 76
_symmetry_cell_setting 'tetragonal'
loop_
_space_group_symop_operation_xyz
x,y,z
-y,x,1/4+z
-x,-y,1/2+z
y,-x,3/4+z
loop_
_atom_site_type_symbol
_atom_site_label
_atom_site_fract_x
_atom_site_fract_y
_atom_site_fract_z
Si Si1 0.030640 0.257576 0.753260
Si Si2 0.794992 0.398655 0.365562
Si Si3 0.294994 0.101344 0.887289
Si Si4 0.853145 0.646856 0.001426
Si Si5 0.757575 0.530641 0.749593
O O1 0.127323 0.414125 0.821650
O O2 0.111392 0.092101 0.819073
O O3 0.175560 0.553102 0.555581
O O4 0.089572 0.263015 0.627461
O O5 0.611393 0.407901 0.433779
O O6 0.946898 0.324437 0.447268
O O7 0.787222 0.287224 0.251425
O O8 0.372677 0.914124 0.931202
O O9 0.763013 0.589580 0.875391
O O10 0.683086 0.816912 0.001429
#
# Coordination Sequence:
#
# PCOD9541326 Si02
#       5
#     4   4   4   4   4
#     4   9  25  49  75 115 154 218 263 336 410 461
#     4  11  25  50  81 117 160 215 274 327 405 494
#     4  11  25  50  81 117 160 215 274 327 405 494
#     4  10  26  54  78 114 174 210 268 340 408 472
#     4   9  25  49  75 115 154 218 263 336 410 461
#
# _framework density 29.489761000000001
#
# number of rings (size 3 to 8) (size 9 to 14) (size 15 to 20)
#    1.200    0.800    0.000    0.000    2.800   16.000 
#    0.000    0.000    0.000    0.000    0.000    0.000 
#    0.000    0.000    0.000    0.000    0.000    0.000 
#
# Total GULP energy -111705.984135 kJ/mol
# GULP energy per Si atom -5585.299207 kJ/mol
# Density = 2.942264 g / cm^3
# Si number density = 29.489761 Si / 1000 Ang^3
#
#
#
# Elastic Constant Matrix: (Units=GPa)
#
#
# Indices 1 2 3 4 5 6 
#
# 1 149.9461 120.8563 98.7989 0.0000 0.0000 0.0016
# 2 120.8563 149.9461 98.7989 0.0000 0.0000 -0.0016
# 3 98.7989 98.7989 292.8025 0.0000 0.0000 0.0000
# 4 0.0000 0.0000 0.0000 65.0378 0.0000 0.0000
# 5 0.0000 0.0000 0.0000 0.0000 65.0378 0.0000
# 6 0.0016 -0.0016 0.0000 0.0000 0.0000 57.2234
#
#
#
# Elastic Compliance Matrix: (Units=1/GPa)
#
#
# Indices 1 2 3 4 5 6 
#
# 1 0.019638 -0.014739 -0.001653 0.000000 0.000000 -0.000001
# 2 -0.014739 0.019638 -0.001653 0.000000 0.000000 0.000001
# 3 -0.001653 -0.001653 0.004531 0.000000 0.000000 0.000000
# 4 0.000000 0.000000 0.000000 0.015376 0.000000 0.000000
# 5 0.000000 0.000000 0.000000 0.000000 0.015376 0.000000
# 6 -0.000001 0.000001 0.000000 0.000000 0.000000 0.017475
#
#
# Mechanical properties :
#
#
# Convention : Reuss Voigt Hill
#
# Bulk Modulus (GPa) = 129.59162 136.62255 133.10708
# Shear Modulus (GPa) = 38.25720 55.74252 46.99986
#
# Velocity S-wave (km/s) = 3.60572 4.35240 3.99653
# Velocity P-wave (km/s) = 7.83422 8.46683 8.15666
#
# Compressibility (1/GPa) = 0.00771655
#
# Stress axis : x y z
#
# Youngs Moduli (GPa) = 50.92271 50.92271 220.71139
#
# Poissons Ratio (x) = 0.75054 0.36484
# Poissons Ratio (y) = 0.75054 0.36484
# Poissons Ratio (z) = 0.08418 0.08418
#
# Static dielectric constant tensor:
#      x y z
#    x 2.565180 0.000000 0.000000 
#    y 0.000000 2.565180 0.000000 
#    z 0.000000 0.000000 2.149470 
# 
# From -- ./inp_files/836.got.cif
#   From: 2010.05.17/outbox.cif.g08.bks.cpg/sg76_cif.got.tgz:836.got - 2010.06.03 18:43:17.
