data_PCOD9541215
_publ_section_title
;
Structure prediction by ZEFSAII (Michael W. Deem and Ramdas Pophale) SiO2 
 PCOD9541215
Probable space group: P 41
;
_chemical_formula_sum "Si O2"
_cell_formula_units_Z 32
_cell_length_a 14.009162
_cell_length_b 14.009162
_cell_length_c 8.626460
_cell_angle_alpha 90.000000
_cell_angle_beta 90.000000
_cell_angle_gamma 90.000000
_cell_volume 1692.999882
_symmetry_space_group_name_H-M "P 41"
_symmetry_group_IT_number 76
_symmetry_cell_setting 'tetragonal'
loop_
_space_group_symop_operation_xyz
x,y,z
-y,x,1/4+z
-x,-y,1/2+z
y,-x,3/4+z
loop_
_atom_site_type_symbol
_atom_site_label
_atom_site_fract_x
_atom_site_fract_y
_atom_site_fract_z
Si Si1 0.846333 0.729235 0.603110
Si Si2 0.785127 0.846461 0.861064
Si Si3 0.715492 0.835961 0.174585
Si Si4 0.045129 0.414304 0.315565
Si Si5 0.816590 0.654486 0.259811
Si Si6 0.119627 0.012170 0.768509
Si Si7 0.039842 0.253980 0.534527
Si Si8 0.474674 0.123122 0.855521
O O1 0.768222 0.785968 0.705415
O O2 0.884242 0.641058 0.702760
O O3 0.818316 0.684677 0.438687
O O4 0.931893 0.806855 0.584193
O O5 0.815123 0.954478 0.825457
O O6 0.701746 0.853863 0.990219
O O7 0.873678 0.794618 0.944369
O O8 0.738686 0.724009 0.185640
O O9 0.807888 0.902342 0.215801
O O10 0.632532 0.854786 0.298791
O O11 0.995123 0.332398 0.419460
O O12 0.100904 0.474783 0.442403
O O13 0.969948 0.470127 0.213519
O O14 0.915434 0.693440 0.182994
O O15 0.807821 0.545246 0.203499
O O16 0.045133 0.060195 0.887714
#
# Coordination Sequence:
#
# PCOD9541215 Si02
#       8
#     4   4   4   4   4   4   4   4
#     4  11  22  40  54  84 129 169 216 270 302 372
#     4  10  23  34  52  77 122 171 208 257 304 359
#     4  11  24  43  60  89 126 166 216 272 323 384
#     4  10  22  35  57  84 115 156 214 258 314 374
#     4  10  22  42  62  84 121 158 212 275 319 388
#     4  12  27  38  55  87 133 188 227 257 302 370
#     4   9  21  38  51  78 119 164 209 252 301 354
#     4  11  23  40  65  89 117 164 210 273 341 377
#
# _framework density 18.901361000000001
#
# number of rings (size 3 to 8) (size 9 to 14) (size 15 to 20)
#    0.000    1.500    2.500    2.250   12.250    0.000 
#    0.000    0.000    0.000    0.000    0.000    1.750 
#    0.000    0.000    0.000    0.000    0.000    0.000 
#
# Total GULP energy -178363.669281 kJ/mol
# GULP energy per Si atom -5573.864665 kJ/mol
# Density = 1.885834 g / cm^3
# Si number density = 18.901361 Si / 1000 Ang^3
#
#
#
# Elastic Constant Matrix: (Units=GPa)
#
#
# Indices 1 2 3 4 5 6 
#
# 1 51.3144 15.2534 20.5286 0.0000 0.0000 10.6434
# 2 15.2534 51.3144 20.5286 0.0000 0.0000 -10.6434
# 3 20.5286 20.5286 112.6587 0.0000 0.0000 0.0000
# 4 0.0000 0.0000 0.0000 28.0632 0.0000 0.0000
# 5 0.0000 0.0000 0.0000 0.0000 28.0632 0.0000
# 6 10.6434 -10.6434 0.0000 0.0000 0.0000 13.9922
#
#
#
# Elastic Compliance Matrix: (Units=1/GPa)
#
#
# Indices 1 2 3 4 5 6 
#
# 1 0.033627 -0.016703 -0.003084 0.000000 0.000000 -0.038284
# 2 -0.016703 0.033627 -0.003084 0.000000 0.000000 0.038284
# 3 -0.003084 -0.003084 0.010000 0.000000 0.000000 0.000000
# 4 0.000000 0.000000 0.000000 0.035634 0.000000 0.000000
# 5 0.000000 0.000000 0.000000 0.000000 0.035634 0.000000
# 6 -0.038284 0.038284 0.000000 0.000000 0.000000 0.129712
#
#
# Mechanical properties :
#
#
# Convention : Reuss Voigt Hill
#
# Bulk Modulus (GPa) = 31.73269 36.43428 34.08349
# Shear Modulus (GPa) = 14.94859 24.62218 19.78538
#
# Velocity S-wave (km/s) = 2.81530 3.61316 3.23889
# Velocity P-wave (km/s) = 5.23382 6.06007 5.66204
#
# Compressibility (1/GPa) = 0.03151324
#
# Stress axis : x y z
#
# Youngs Moduli (GPa) = 29.73787 29.73787 99.99728
#
# Poissons Ratio (x) = 0.49671 0.30839
# Poissons Ratio (y) = 0.49671 0.30839
# Poissons Ratio (z) = 0.09171 0.09171
#
# Static dielectric constant tensor:
#      x y z
#    x 1.679600 0.000000 0.000000 
#    y 0.000000 1.679600 0.000000 
#    z 0.000000 0.000000 1.760950 
# 
# From -- ./inp_files/689.got.cif
#   From: 2010.05.17/outbox.cif.g08.bks.cpg/sg76_cif.got.tgz:689.got - 2010.06.03 18:43:17.
