data_PCOD9541282
_publ_section_title
;
Structure prediction by ZEFSAII (Michael W. Deem and Ramdas Pophale) SiO2 
 PCOD9541282
Probable space group: P 41
;
_chemical_formula_sum "Si O2"
_cell_formula_units_Z 16
_cell_length_a 9.377948
_cell_length_b 9.377948
_cell_length_c 7.264946
_cell_angle_alpha 90.000000
_cell_angle_beta 90.000000
_cell_angle_gamma 90.000000
_cell_volume 638.922278
_symmetry_space_group_name_H-M "P 41"
_symmetry_group_IT_number 76
_symmetry_cell_setting 'tetragonal'
loop_
_space_group_symop_operation_xyz
x,y,z
-y,x,1/4+z
-x,-y,1/2+z
y,-x,3/4+z
loop_
_atom_site_type_symbol
_atom_site_label
_atom_site_fract_x
_atom_site_fract_y
_atom_site_fract_z
Si Si1 0.701221 0.962303 0.113420
Si Si2 0.574923 0.884181 0.764899
Si Si3 0.898181 0.145973 0.363357
Si Si4 0.327360 0.585919 0.329175
O O1 0.824223 0.049802 0.206884
O O2 0.699243 0.791487 0.145617
O O3 0.554867 0.025017 0.195812
O O4 0.676345 0.979226 0.896425
O O5 0.691805 0.841107 0.614109
O O6 0.523257 0.757669 0.899365
O O7 0.062732 0.142838 0.300583
O O8 0.355011 0.472007 0.489627
#
# Coordination Sequence:
#
# PCOD9541282 Si02
#       4
#     4   4   4   4
#     4  10  24  45  72 101 147 192 246 311 372 437
#     4  10  23  44  74  98 146 187 248 300 374 434
#     4  12  25  43  70 108 149 197 249 308 375 449
#     4  10  24  48  70 103 144 190 249 301 367 450
#
# _framework density 25.042166000000002
#
# number of rings (size 3 to 8) (size 9 to 14) (size 15 to 20)
#    1.500    0.000    0.000    4.500    3.500    2.000 
#   13.500    0.000    0.000    0.000    0.000    0.000 
#    0.000    0.000    0.000    0.000    0.000    0.000 
#
# Total GULP energy -89348.146410 kJ/mol
# GULP energy per Si atom -5584.259151 kJ/mol
# Density = 2.498517 g / cm^3
# Si number density = 25.042166 Si / 1000 Ang^3
#
#
#
# Elastic Constant Matrix: (Units=GPa)
#
#
# Indices 1 2 3 4 5 6 
#
# 1 92.7916 47.5310 8.8881 0.0000 0.0000 -3.5228
# 2 47.5310 92.7916 8.8881 0.0000 0.0000 3.5228
# 3 8.8881 8.8881 47.4597 0.0000 0.0000 0.0000
# 4 0.0000 0.0000 0.0000 49.7099 0.0000 0.0000
# 5 0.0000 0.0000 0.0000 0.0000 49.7099 0.0000
# 6 -3.5228 3.5228 0.0000 0.0000 0.0000 23.7043
#
#
#
# Elastic Compliance Matrix: (Units=1/GPa)
#
#
# Indices 1 2 3 4 5 6 
#
# 1 0.014959 -0.007659 -0.001367 0.000000 0.000000 0.003361
# 2 -0.007659 0.014959 -0.001367 0.000000 0.000000 -0.003361
# 3 -0.001367 -0.001367 0.021583 0.000000 0.000000 0.000000
# 4 0.000000 0.000000 0.000000 0.020117 0.000000 0.000000
# 5 0.000000 0.000000 0.000000 0.000000 0.020117 0.000000
# 6 0.003361 -0.003361 0.000000 0.000000 0.000000 0.043186
#
#
# Mechanical properties :
#
#
# Convention : Reuss Voigt Hill
#
# Bulk Modulus (GPa) = 32.55887 40.40635 36.48261
# Shear Modulus (GPa) = 30.13092 35.80720 32.96906
#
# Velocity S-wave (km/s) = 3.47249 3.78547 3.63235
# Velocity P-wave (km/s) = 5.39513 5.93942 5.67381
#
# Compressibility (1/GPa) = 0.03071359
#
# Stress axis : x y z
#
# Youngs Moduli (GPa) = 66.85142 66.85142 46.33375
#
# Poissons Ratio (x) = 0.51201 0.06334
# Poissons Ratio (y) = 0.51201 0.06334
# Poissons Ratio (z) = 0.09139 0.09139
#
# Static dielectric constant tensor:
#      x y z
#    x 2.008700 0.000000 0.000000 
#    y 0.000000 2.008700 0.000000 
#    z 0.000000 0.000000 2.084030 
# 
# From -- ./inp_files/81.got.cif
#   From: 2010.05.17/outbox.cif.g08.bks.cpg/sg76_cif.got.tgz:81.got - 2010.06.03 18:43:17.
