data_PCOD9541912
_publ_section_title
;
Structure prediction by ZEFSAII (Michael W. Deem and Ramdas Pophale) SiO2 
 PCOD9541912
Probable space group: I 4
;
_chemical_formula_sum "Si O2"
_cell_formula_units_Z 40
_cell_length_a 12.762519
_cell_length_b 12.762519
_cell_length_c 9.854077
_cell_angle_alpha 90.000000
_cell_angle_beta 90.000000
_cell_angle_gamma 90.000000
_cell_volume 1605.050698
_symmetry_space_group_name_H-M "I 4"
_symmetry_group_IT_number 79
_symmetry_cell_setting 'tetragonal'
loop_
_space_group_symop_operation_xyz
x,y,z
-y,x,z
-x,-y,z
y,-x,z
1/2+x,1/2+y,1/2+z
1/2-y,1/2+x,1/2+z
1/2-x,1/2-y,1/2+z
1/2+y,1/2-x,1/2+z
loop_
_atom_site_type_symbol
_atom_site_label
_atom_site_fract_x
_atom_site_fract_y
_atom_site_fract_z
Si Si1 0.822871 0.461934 0.590370
Si Si2 0.820024 0.228851 0.694825
Si Si3 0.656128 0.568107 0.938960
Si Si4 0.438989 0.663606 0.436461
Si Si5 0.626530 0.879947 0.300696
O O1 0.792742 0.344693 0.638997
O O2 0.724312 0.541639 0.575982
O O3 0.866792 0.445607 0.435958
O O4 0.892340 0.522441 0.700769
O O5 0.907309 0.178846 0.596415
O O6 0.725238 0.145971 0.711729
O O7 0.877673 0.241553 0.838084
O O8 0.551933 0.632714 0.906343
O O9 0.758855 0.605139 0.864961
O O10 0.373315 0.558289 0.415836
#
# Coordination Sequence:
#
# PCOD9541912 Si02
#       5
#     8   8   8   8   8
#     4  11  25  46  72 111 151 207 257 322 397 481
#     4  11  23  43  72 107 154 198 250 326 401 458
#     4  10  22  41  71 105 139 185 250 323 388 467
#     4  11  22  42  76 112 144 193 265 328 384 464
#     4  11  24  45  72 105 154 203 255 322 398 475
#
# _framework density 24.921333000000001
#
# number of rings (size 3 to 8) (size 9 to 14) (size 15 to 20)
#    0.000    1.200    2.000    3.600    2.800    1.600 
#    0.000    5.000    0.000    0.000    0.000    0.000 
#    0.000    0.000    0.000    0.000    0.000    0.000 
#
# Total GULP energy -111671.688164 kJ/mol
# GULP energy per Si atom -5583.584408 kJ/mol
# Density = 2.486461 g / cm^3
# Si number density = 24.921333 Si / 1000 Ang^3
#
#
#
# Elastic Constant Matrix: (Units=GPa)
#
#
# Indices 1 2 3 4 5 6 
#
# 1 77.1811 -11.7323 14.6999 0.0000 0.0000 -1.8057
# 2 -11.7323 77.1811 14.6999 0.0000 0.0000 1.8057
# 3 14.6999 14.6999 72.8487 0.0000 0.0000 0.0000
# 4 0.0000 0.0000 0.0000 37.1672 0.0000 0.0000
# 5 0.0000 0.0000 0.0000 0.0000 37.1672 0.0000
# 6 -1.8057 1.8057 0.0000 0.0000 0.0000 20.8894
#
#
#
# Elastic Compliance Matrix: (Units=1/GPa)
#
#
# Indices 1 2 3 4 5 6 
#
# 1 0.014044 0.002758 -0.003390 0.000000 0.000000 0.000976
# 2 0.002758 0.014044 -0.003390 0.000000 0.000000 -0.000976
# 3 -0.003390 -0.003390 0.015095 0.000000 0.000000 0.000000
# 4 0.000000 0.000000 0.000000 0.026905 0.000000 0.000000
# 5 0.000000 0.000000 0.000000 0.000000 0.026905 0.000000
# 6 0.000976 -0.000976 0.000000 0.000000 0.000000 0.048040
#
#
# Mechanical properties :
#
#
# Convention : Reuss Voigt Hill
#
# Bulk Modulus (GPa) = 28.45936 29.17177 28.81556
# Shear Modulus (GPa) = 30.34100 33.01431 31.67766
#
# Velocity S-wave (km/s) = 3.49301 3.64365 3.56913
# Velocity P-wave (km/s) = 5.26428 5.42517 5.34533
#
# Compressibility (1/GPa) = 0.03513783
#
# Stress axis : x y z
#
# Youngs Moduli (GPa) = 71.20318 71.20318 66.24548
#
# Poissons Ratio (x) = -0.19636 0.22460
# Poissons Ratio (y) = -0.19636 0.22460
# Poissons Ratio (z) = 0.24141 0.24141
#
# Static dielectric constant tensor:
#      x y z
#    x 1.987050 0.000000 0.000000 
#    y 0.000000 1.987050 0.000000 
#    z 0.000000 0.000000 2.064850 
# 
# From -- ./inp_files/556.got.cif
#   From: 2010.05.17/outbox.cif.g08.bks.cpg/sg79_cif.got.tgz:556.got - 2010.06.03 18:47:27.
