data_PCOD9541625
_publ_section_title
;
Structure prediction by ZEFSAII (Michael W. Deem and Ramdas Pophale) SiO2 
 PCOD9541625
Probable space group: P 43
;
_chemical_formula_sum "Si O2"
_cell_formula_units_Z 32
_cell_length_a 8.526485
_cell_length_b 8.526485
_cell_length_c 19.717034
_cell_angle_alpha 90.000000
_cell_angle_beta 90.000000
_cell_angle_gamma 90.000000
_cell_volume 1433.447033
_symmetry_space_group_name_H-M "P 43"
_symmetry_group_IT_number 78
_symmetry_cell_setting 'tetragonal'
loop_
_space_group_symop_operation_xyz
x,y,z
-y,x,3/4+z
-x,-y,1/2+z
y,-x,1/4+z
loop_
_atom_site_type_symbol
_atom_site_label
_atom_site_fract_x
_atom_site_fract_y
_atom_site_fract_z
Si Si1 0.614442 0.788453 0.250000
Si Si2 0.107487 0.629787 0.678689
Si Si3 0.640713 0.728807 0.666899
Si Si4 0.458795 0.795636 0.056698
Si Si5 0.411968 0.469652 0.633543
Si Si6 0.880709 0.712982 0.560523
Si Si7 0.033607 0.373974 0.402062
Si Si8 0.825141 0.098528 0.018942
O O1 0.723926 0.714604 0.307974
O O2 0.613383 0.649370 0.195105
O O3 0.433787 0.824187 0.266538
O O4 0.692051 0.938991 0.215650
O O5 0.110983 0.500256 0.738129
O O6 0.269298 0.592291 0.638942
O O7 0.979919 0.627599 0.620095
O O8 0.054903 0.783496 0.723065
O O9 0.573963 0.559910 0.646501
O O10 0.736176 0.789488 0.600989
O O11 0.486471 0.830930 0.678997
O O12 0.758433 0.736311 0.730106
O O13 0.571013 0.640949 0.067408
O O14 0.506213 0.912184 0.115946
O O15 0.997067 0.838473 0.526064
O O16 0.074335 0.248527 0.343760
#
# Coordination Sequence:
#
# PCOD9541625 Si02
#       8
#     4   4   4   4   4   4   4   4
#     4  10  20  38  64  92 122 159 216 268 319 372
#     4   9  21  37  59  90 127 165 203 256 320 380
#     4  11  22  36  61  95 118 161 212 262 318 369
#     4   9  19  40  63  91 125 158 212 271 315 378
#     4  10  20  36  65  94 119 157 214 272 320 363
#     4  11  21  38  59  91 127 163 213 260 315 384
#     4  10  21  39  63  89 127 164 205 263 326 376
#     4  10  22  40  58  84 131 169 205 256 317 392
#
# _framework density 22.323810000000002
#
# number of rings (size 3 to 8) (size 9 to 14) (size 15 to 20)
#    0.000    2.000    2.500    0.750    1.750    2.000 
#    2.250    3.750    8.250    0.000    0.000    0.000 
#    0.000    0.000    0.000    0.000    0.000    0.000 
#
# Total GULP energy -178279.990700 kJ/mol
# GULP energy per Si atom -5571.249709 kJ/mol
# Density = 2.227300 g / cm^3
# Si number density = 22.323810 Si / 1000 Ang^3
#
#
#
# Elastic Constant Matrix: (Units=GPa)
#
#
# Indices 1 2 3 4 5 6 
#
# 1 59.8242 26.1366 -2.9459 0.0000 0.0000 0.0583
# 2 26.1366 59.8242 -2.9459 0.0000 0.0000 -0.0583
# 3 -2.9459 -2.9459 33.9485 0.0000 0.0000 0.0000
# 4 0.0000 0.0000 0.0000 24.2602 0.0000 0.0000
# 5 0.0000 0.0000 0.0000 0.0000 24.2602 0.0000
# 6 0.0583 -0.0583 0.0000 0.0000 0.0000 43.3018
#
#
#
# Elastic Compliance Matrix: (Units=1/GPa)
#
#
# Indices 1 2 3 4 5 6 
#
# 1 0.020694 -0.008991 0.001016 0.000000 0.000000 -0.000040
# 2 -0.008991 0.020694 0.001016 0.000000 0.000000 0.000040
# 3 0.001016 0.001016 0.029633 0.000000 0.000000 0.000000
# 4 0.000000 0.000000 0.000000 0.041220 0.000000 0.000000
# 5 0.000000 0.000000 0.000000 0.000000 0.041220 0.000000
# 6 -0.000040 0.000040 0.000000 0.000000 0.000000 0.023094
#
#
# Mechanical properties :
#
#
# Convention : Reuss Voigt Hill
#
# Bulk Modulus (GPa) = 17.51302 21.56515 19.53909
# Shear Modulus (GPa) = 23.86560 27.25459 25.56009
#
# Velocity S-wave (km/s) = 3.27320 3.49789 3.38741
# Velocity P-wave (km/s) = 4.70608 5.09851 4.90622
#
# Compressibility (1/GPa) = 0.05710037
#
# Stress axis : x y z
#
# Youngs Moduli (GPa) = 48.32384 48.32384 33.74660
#
# Poissons Ratio (x) = 0.43448 -0.03427
# Poissons Ratio (y) = 0.43448 -0.03427
# Poissons Ratio (z) = -0.04907 -0.04907
#
# Static dielectric constant tensor:
#      x y z
#    x 1.867960 0.000000 0.000000 
#    y 0.000000 1.867960 0.000000 
#    z 0.000000 0.000000 1.875320 
# 
# From -- ./inp_files/1466.got.cif
#   From: 2010.05.17/outbox.cif.g08.bks.cpg/sg78_cif.got.tgz:1466.got - 2010.06.03 18:45:56.
