data_PCOD9541132
_publ_section_title
;
Structure prediction by ZEFSAII (Michael W. Deem and Ramdas Pophale) SiO2 
 PCOD9541132
Probable space group: P 41
;
_chemical_formula_sum "Si O2"
_cell_formula_units_Z 24
_cell_length_a 10.666320
_cell_length_b 10.666320
_cell_length_c 9.193032
_cell_angle_alpha 90.000000
_cell_angle_beta 90.000000
_cell_angle_gamma 90.000000
_cell_volume 1045.894766
_symmetry_space_group_name_H-M "P 41"
_symmetry_group_IT_number 76
_symmetry_cell_setting 'tetragonal'
loop_
_space_group_symop_operation_xyz
x,y,z
-y,x,1/4+z
-x,-y,1/2+z
y,-x,3/4+z
loop_
_atom_site_type_symbol
_atom_site_label
_atom_site_fract_x
_atom_site_fract_y
_atom_site_fract_z
Si Si1 0.006106 0.617299 0.798320
Si Si2 0.827995 0.353847 0.555694
Si Si3 0.618407 0.228943 0.738491
Si Si4 0.574857 0.620130 0.434665
Si Si5 0.337953 0.937137 0.481651
Si Si6 0.845838 0.657633 0.536512
O O1 0.895155 0.570556 0.906393
O O2 0.928199 0.694121 0.677532
O O3 0.067956 0.491741 0.733721
O O4 0.108018 0.683735 0.901799
O O5 0.695036 0.307975 0.617717
O O6 0.834930 0.505166 0.555408
O O7 0.929178 0.303146 0.669544
O O8 0.510750 0.305979 0.818472
O O9 0.701120 0.173140 0.871544
O O10 0.503403 0.602305 0.587914
O O11 0.704369 0.683388 0.482331
O O12 0.300811 0.922732 0.646513
#
# Coordination Sequence:
#
# PCOD9541132 Si02
#       6
#     4   4   4   4   4   4
#     4   9  21  37  62  85 124 178 236 285 332 421
#     4   9  20  38  61  82 119 176 235 286 336 408
#     4  11  22  38  59  92 131 177 226 281 359 426
#     4  12  26  36  54  93 145 189 218 276 370 453
#     4   9  19  39  57  86 120 175 232 275 337 422
#     4  10  20  36  55  86 129 177 231 277 336 428
#
# _framework density 22.946861999999999
#
# number of rings (size 3 to 8) (size 9 to 14) (size 15 to 20)
#    0.000    2.000    1.667    2.000    9.333    0.000 
#    0.000    1.667    0.000    0.000    0.000   28.000 
#    0.000    0.000    0.000    0.000    0.000    0.000 
#
# Total GULP energy -133786.256614 kJ/mol
# GULP energy per Si atom -5574.427359 kJ/mol
# Density = 2.289463 g / cm^3
# Si number density = 22.946862 Si / 1000 Ang^3
#
#
#
# Elastic Constant Matrix: (Units=GPa)
#
#
# Indices 1 2 3 4 5 6 
#
# 1 97.3374 -16.1199 48.7792 0.0000 0.0000 19.8997
# 2 -16.1199 97.3374 48.7792 0.0000 0.0000 -19.8997
# 3 48.7792 48.7792 176.3447 0.0000 0.0000 0.0000
# 4 0.0000 0.0000 0.0000 34.9869 0.0000 0.0000
# 5 0.0000 0.0000 0.0000 0.0000 34.9869 0.0000
# 6 19.8997 -19.8997 0.0000 0.0000 0.0000 22.2026
#
#
#
# Elastic Compliance Matrix: (Units=1/GPa)
#
#
# Indices 1 2 3 4 5 6 
#
# 1 0.015648 0.002792 -0.005101 0.000000 0.000000 -0.011522
# 2 0.002792 0.015648 -0.005101 0.000000 0.000000 0.011522
# 3 -0.005101 -0.005101 0.008492 0.000000 0.000000 0.000000
# 4 0.000000 0.000000 0.000000 0.028582 0.000000 0.000000
# 5 0.000000 0.000000 0.000000 0.000000 0.028582 0.000000
# 6 -0.011522 0.011522 0.000000 0.000000 0.000000 0.065694
#
#
# Mechanical properties :
#
#
# Convention : Reuss Voigt Hill
#
# Bulk Modulus (GPa) = 40.04966 59.32184 49.68575
# Shear Modulus (GPa) = 26.91240 37.74070 32.32655
#
# Velocity S-wave (km/s) = 3.42835 4.05989 3.75741
# Velocity P-wave (km/s) = 5.75870 6.91989 6.36583
#
# Compressibility (1/GPa) = 0.02496900
#
# Stress axis : x y z
#
# Youngs Moduli (GPa) = 63.90752 63.90752 117.75119
#
# Poissons Ratio (x) = -0.17842 0.60060
# Poissons Ratio (y) = -0.17842 0.60060
# Poissons Ratio (z) = 0.32597 0.32597
#
# Static dielectric constant tensor:
#      x y z
#    x 1.909550 0.000000 0.000000 
#    y 0.000000 1.909550 0.000000 
#    z 0.000000 0.000000 1.942290 
# 
# From -- ./inp_files/569.got.cif
#   From: 2010.05.17/outbox.cif.g08.bks.cpg/sg76_cif.got.tgz:569.got - 2010.06.03 18:43:17.
