data_PCOD9541898
_publ_section_title
;
Structure prediction by ZEFSAII (Michael W. Deem and Ramdas Pophale) SiO2 
 PCOD9541898
Probable space group: I 4
;
_chemical_formula_sum "Si O2"
_cell_formula_units_Z 60
_cell_length_a 17.614221
_cell_length_b 17.614221
_cell_length_c 9.165756
_cell_angle_alpha 90.000000
_cell_angle_beta 90.000000
_cell_angle_gamma 90.000000
_cell_volume 2843.774619
_symmetry_space_group_name_H-M "I 4"
_symmetry_group_IT_number 79
_symmetry_cell_setting 'tetragonal'
loop_
_space_group_symop_operation_xyz
x,y,z
-y,x,z
-x,-y,z
y,-x,z
1/2+x,1/2+y,1/2+z
1/2-y,1/2+x,1/2+z
1/2-x,1/2-y,1/2+z
1/2+y,1/2-x,1/2+z
loop_
_atom_site_type_symbol
_atom_site_label
_atom_site_fract_x
_atom_site_fract_y
_atom_site_fract_z
Si Si1 0.165285 0.224213 0.511640
Si Si2 0.073666 0.345270 0.057918
Si Si3 0.000000 0.500000 0.948128
Si Si4 0.102660 0.065736 0.071646
Si Si5 0.233070 0.420621 0.583991
Si Si6 0.604742 0.861625 0.867397
Si Si7 0.307754 0.200685 0.317518
Si Si8 0.904602 0.924477 0.424603
O O1 0.099515 0.277088 0.437446
O O2 0.242261 0.236045 0.418454
O O3 0.173121 0.247016 0.679232
O O4 0.150622 0.135689 0.493136
O O5 0.126415 0.353154 0.199113
O O6 0.009914 0.283343 0.101381
O O7 0.033387 0.426734 0.031641
O O8 0.120199 0.319570 0.917186
O O9 0.076543 0.535735 0.872830
O O10 0.183191 0.098064 0.026720
O O11 0.101547 0.073528 0.248305
O O12 0.022752 0.100694 0.025927
O O13 0.170824 0.395502 0.467249
O O14 0.219667 0.376357 0.735089
O O15 0.988666 0.897337 0.468176
#
# Coordination Sequence:
#
# PCOD9541898 Si02
#       8
#     8   8   4   8   8   8   8   8
#     4  11  23  41  63  93 133 167 216 273 334 401
#     4  11  23  40  65  93 130 176 224 275 330 390
#     4  10  22  44  66  92 130 178 238 272 316 402
#     4   9  18  34  63  94 120 161 214 266 320 386
#     4  10  22  39  62  93 132 169 216 272 325 395
#     4  10  23  37  61  92 127 175 212 270 323 379
#     4  11  24  42  62  95 128 174 218 270 336 400
#     4   9  19  36  63  96 122 159 213 263 317 389
#
# _framework density 21.09872
#
# number of rings (size 3 to 8) (size 9 to 14) (size 15 to 20)
#    0.000    1.867    1.333    2.800    3.733    8.533 
#    0.000    4.000    0.000    0.000    0.000    1.867 
#    0.000    0.000    0.000    0.000    0.000    0.000 
#
# Total GULP energy -167284.564452 kJ/mol
# GULP energy per Si atom -5576.152148 kJ/mol
# Density = 2.105070 g / cm^3
# Si number density = 21.098720 Si / 1000 Ang^3
#
#
#
# Elastic Constant Matrix: (Units=GPa)
#
#
# Indices 1 2 3 4 5 6 
#
# 1 68.6804 27.4044 20.9812 0.0000 0.0000 -7.6725
# 2 27.4044 68.6804 20.9812 0.0000 0.0000 7.6725
# 3 20.9812 20.9812 93.4080 0.0000 0.0000 0.0000
# 4 0.0000 0.0000 0.0000 13.3370 0.0000 0.0000
# 5 0.0000 0.0000 0.0000 0.0000 13.3370 0.0000
# 6 -7.6725 7.6725 0.0000 0.0000 0.0000 18.8484
#
#
#
# Elastic Compliance Matrix: (Units=1/GPa)
#
#
# Indices 1 2 3 4 5 6 
#
# 1 0.020043 -0.008504 -0.002592 0.000000 0.000000 0.011621
# 2 -0.008504 0.020043 -0.002592 0.000000 0.000000 -0.011621
# 3 -0.002592 -0.002592 0.011870 0.000000 0.000000 0.000000
# 4 0.000000 0.000000 0.000000 0.074979 0.000000 0.000000
# 5 0.000000 0.000000 0.000000 0.000000 0.074979 0.000000
# 6 0.011621 -0.011621 0.000000 0.000000 0.000000 0.062516
#
#
# Mechanical properties :
#
#
# Convention : Reuss Voigt Hill
#
# Bulk Modulus (GPa) = 40.68164 41.05584 40.86874
# Shear Modulus (GPa) = 16.66664 19.86461 18.26563
#
# Velocity S-wave (km/s) = 2.81363 3.07173 2.94551
# Velocity P-wave (km/s) = 5.46615 5.66408 5.56600
#
# Compressibility (1/GPa) = 0.02458111
#
# Stress axis : x y z
#
# Youngs Moduli (GPa) = 49.89182 49.89182 84.24504
#
# Poissons Ratio (x) = 0.42428 0.21836
# Poissons Ratio (y) = 0.42428 0.21836
# Poissons Ratio (z) = 0.12932 0.12932
#
# Static dielectric constant tensor:
#      x y z
#    x 1.801400 0.000000 0.000000 
#    y 0.000000 1.801400 0.000000 
#    z 0.000000 0.000000 1.711800 
# 
# From -- ./inp_files/738.got.cif
#   From: 2010.05.17/outbox.cif.g08.bks.cpg/sg79_cif.got.tgz:738.got - 2010.06.03 18:47:27.
