data_PCOD9541476
_publ_section_title
;
Structure prediction by ZEFSAII (Michael W. Deem and Ramdas Pophale) SiO2 
 PCOD9541476
Probable space group: P 42
;
_chemical_formula_sum "Si O2"
_cell_formula_units_Z 26
_cell_length_a 9.294791
_cell_length_b 9.294791
_cell_length_c 16.666617
_cell_angle_alpha 90.000000
_cell_angle_beta 90.000000
_cell_angle_gamma 90.000000
_cell_volume 1439.881371
_symmetry_space_group_name_H-M "P 42"
_symmetry_group_IT_number 77
_symmetry_cell_setting 'tetragonal'
loop_
_space_group_symop_operation_xyz
x,y,z
-y,x,1/2+z
-x,-y,z
y,-x,1/2+z
loop_
_atom_site_type_symbol
_atom_site_label
_atom_site_fract_x
_atom_site_fract_y
_atom_site_fract_z
Si Si1 0.649622 0.418019 0.707240
Si Si2 0.467939 0.161338 0.053561
Si Si3 0.738733 0.798811 0.903674
Si Si4 0.850124 0.538504 0.298396
Si Si5 0.168408 0.507227 0.862473
Si Si6 0.000000 0.000000 0.928574
Si Si7 0.741029 0.199135 0.947332
O O1 0.500000 0.500000 0.696975
O O2 0.739024 0.421029 0.626076
O O3 0.608340 0.260317 0.738071
O O4 0.741814 0.485770 0.779993
O O5 0.500000 0.000000 0.081802
O O6 0.344573 0.154504 0.984915
O O7 0.618120 0.214942 0.014259
O O8 0.611974 0.799154 0.837370
O O9 0.788236 0.634755 0.910669
O O10 0.882886 0.893241 0.886046
O O11 0.871693 0.651096 0.372479
O O12 0.000000 0.500000 0.258651
O O13 0.207338 0.648241 0.913488
O O14 0.000000 0.500000 0.844420
O O15 0.882849 0.106625 0.970189
#
# Coordination Sequence:
#
# PCOD9541476 Si02
#       7
#     4   4   4   4   4   2   4
#     4  11  24  39  60  86 123 161 203 238 294 365
#     4  11  23  42  59  84 119 170 195 241 300 363
#     4  11  21  37  65  89 120 152 207 249 298 355
#     4  10  19  39  61  89 115 158 198 250 295 355
#     4  11  22  37  59  95 122 150 197 259 299 342
#     4  12  18  36  62  98 114 150 198 260 300 356
#     4  10  21  34  64  90 117 151 206 246 297 353
#
# _framework density 18.057044000000001
#
# number of rings (size 3 to 8) (size 9 to 14) (size 15 to 20)
#    0.000    1.231    6.154    1.385    2.154    0.000 
#    0.000    2.308    0.000    1.846    0.000    0.000 
#    0.000    0.000    0.000    0.000    0.000    0.000 
#
# Total GULP energy -144899.107220 kJ/mol
# GULP energy per Si atom -5573.042585 kJ/mol
# Density = 1.801595 g / cm^3
# Si number density = 18.057044 Si / 1000 Ang^3
#
#
#
# Elastic Constant Matrix: (Units=GPa)
#
#
# Indices 1 2 3 4 5 6 
#
# 1 132.2263 48.7675 45.4794 0.0000 0.0000 -0.6521
# 2 48.7675 132.2263 45.4794 0.0000 0.0000 0.6521
# 3 45.4794 45.4794 83.9147 0.0000 0.0000 0.0000
# 4 0.0000 0.0000 0.0000 12.8590 0.0000 0.0000
# 5 0.0000 0.0000 0.0000 0.0000 12.8590 0.0000
# 6 -0.6521 0.6521 0.0000 0.0000 0.0000 40.4585
#
#
#
# Elastic Compliance Matrix: (Units=1/GPa)
#
#
# Indices 1 2 3 4 5 6 
#
# 1 0.009789 -0.002196 -0.004115 0.000000 0.000000 0.000193
# 2 -0.002196 0.009789 -0.004115 0.000000 0.000000 -0.000193
# 3 -0.004115 -0.004115 0.016378 0.000000 0.000000 0.000000
# 4 0.000000 0.000000 0.000000 0.077767 0.000000 0.000000
# 5 0.000000 0.000000 0.000000 0.000000 0.077767 0.000000
# 6 0.000193 -0.000193 0.000000 0.000000 0.000000 0.024723
#
#
# Mechanical properties :
#
#
# Convention : Reuss Voigt Hill
#
# Bulk Modulus (GPa) = 66.21282 69.75777 67.98530
# Shear Modulus (GPa) = 20.65267 27.14468 23.89868
#
# Velocity S-wave (km/s) = 3.38560 3.88141 3.64195
# Velocity P-wave (km/s) = 7.21328 7.66831 7.44427
#
# Compressibility (1/GPa) = 0.01510282
#
# Stress axis : x y z
#
# Youngs Moduli (GPa) = 102.15449 102.15449 61.05885
#
# Poissons Ratio (x) = 0.22432 0.25128
# Poissons Ratio (y) = 0.22432 0.25128
# Poissons Ratio (z) = 0.42040 0.42040
#
# Static dielectric constant tensor:
#      x y z
#    x 1.642710 0.000000 0.000000 
#    y 0.000000 1.642710 0.000000 
#    z 0.000000 0.000000 1.589700 
# 
# From -- ./inp_files/1326.got.cif
#   From: 2010.05.17/outbox.cif.g08.bks.cpg/sg77_cif.got.tgz:1326.got - 2010.06.03 18:44:51.
