data_PCOD9541789
_publ_section_title
;
Structure prediction by ZEFSAII (Michael W. Deem and Ramdas Pophale) SiO2 
 PCOD9541789
Probable space group: P 43
;
_chemical_formula_sum "Si O2"
_cell_formula_units_Z 20
_cell_length_a 9.158122
_cell_length_b 9.158122
_cell_length_c 10.546073
_cell_angle_alpha 90.000000
_cell_angle_beta 90.000000
_cell_angle_gamma 90.000000
_cell_volume 884.511783
_symmetry_space_group_name_H-M "P 43"
_symmetry_group_IT_number 78
_symmetry_cell_setting 'tetragonal'
loop_
_space_group_symop_operation_xyz
x,y,z
-y,x,3/4+z
-x,-y,1/2+z
y,-x,1/4+z
loop_
_atom_site_type_symbol
_atom_site_label
_atom_site_fract_x
_atom_site_fract_y
_atom_site_fract_z
Si Si1 0.635113 0.735565 0.768370
Si Si2 0.785689 0.714311 0.024875
Si Si3 0.481618 0.867198 0.414453
Si Si4 0.864887 0.235565 0.531381
Si Si5 0.367198 0.981618 0.135298
O O1 0.459144 0.746456 0.778941
O O2 0.724624 0.594899 0.722430
O O3 0.679134 0.856211 0.668596
O O4 0.706720 0.773400 0.901799
O O5 0.726600 0.793280 0.147952
O O6 0.959144 0.753545 0.020810
O O7 0.643789 0.820866 0.381155
O O8 0.508173 0.991826 0.524875
O O9 0.418424 0.918424 0.274875
O O10 0.775375 0.094899 0.577320
#
# Coordination Sequence:
#
# PCOD9541789 Si02
#       5
#     4   4   4   4   4
#     4  12  27  53  80 120 160 214 271 337 407 486
#     4  12  30  50  82 118 164 214 280 334 408 486
#     4  12  26  51  82 117 161 208 268 335 406 490
#     4  12  27  53  80 120 160 214 271 337 407 486
#     4  12  26  51  82 117 161 208 268 335 406 490
#
# _framework density 22.611343999999999
#
# number of rings (size 3 to 8) (size 9 to 14) (size 15 to 20)
#    0.000    0.000    6.000    1.200    8.400    3.200 
#    0.000    0.000    0.000    0.000    0.000    0.000 
#    0.000    0.000    0.000    0.000    0.000    0.000 
#
# Total GULP energy -111538.006050 kJ/mol
# GULP energy per Si atom -5576.900302 kJ/mol
# Density = 2.255988 g / cm^3
# Si number density = 22.611344 Si / 1000 Ang^3
#
#
#
# Elastic Constant Matrix: (Units=GPa)
#
#
# Indices 1 2 3 4 5 6 
#
# 1 12.7787 168.5264 59.0361 0.0000 0.0000 -0.0001
# 2 168.5264 12.7787 59.0361 0.0000 0.0000 0.0001
# 3 59.0361 59.0361 200.4151 0.0000 0.0000 0.0000
# 4 0.0000 0.0000 0.0000 42.5021 0.0000 0.0000
# 5 0.0000 0.0000 0.0000 0.0000 42.5021 0.0000
# 6 -0.0001 0.0001 0.0000 0.0000 0.0000 50.4928
#
#
#
# Elastic Compliance Matrix: (Units=1/GPa)
#
#
# Indices 1 2 3 4 5 6 
#
# 1 0.000202 0.006623 -0.002010 0.000000 0.000000 0.000000
# 2 0.006623 0.000202 -0.002010 0.000000 0.000000 0.000000
# 3 -0.002010 -0.002010 0.006174 0.000000 0.000000 0.000000
# 4 0.000000 0.000000 0.000000 0.023528 0.000000 0.000000
# 5 0.000000 0.000000 0.000000 0.000000 0.023528 0.000000
# 6 0.000000 0.000000 0.000000 0.000000 0.000000 0.019805
#
#
# Mechanical properties :
#
#
# Convention : Reuss Voigt Hill
#
# Bulk Modulus (GPa) = 84.87439 88.79666 86.83553
# Shear Modulus (GPa) = 69.28762 23.05764 46.17263
#
# Velocity S-wave (km/s) = 5.54160 3.19680 4.52376
# Velocity P-wave (km/s) = 8.86361 7.27888 8.11004
#
# Compressibility (1/GPa) = 0.01178212
#
# Stress axis : x y z
#
# Youngs Moduli (GPa) = 4948.65181 4948.65181 161.96872
#
# Poissons Ratio (x) = -32.77351 0.32562
# Poissons Ratio (y) = -32.77351 0.32562
# Poissons Ratio (z) = 9.94864 9.94864
#
# Static dielectric constant tensor:
#      x y z
#    x 2.299700 0.000000 0.000000 
#    y 0.000000 2.299700 0.000000 
#    z 0.000000 0.000000 1.875250 
# 
# From -- ./inp_files/819.got.cif
#   From: 2010.05.17/outbox.cif.g08.bks.cpg/sg78_cif.got.tgz:819.got - 2010.06.03 18:45:56.
