data_PCOD9541728
_publ_section_title
;
Structure prediction by ZEFSAII (Michael W. Deem and Ramdas Pophale) SiO2 
 PCOD9541728
Probable space group: P 43
;
_chemical_formula_sum "Si O2"
_cell_formula_units_Z 16
_cell_length_a 10.841276
_cell_length_b 10.841276
_cell_length_c 4.826549
_cell_angle_alpha 90.000000
_cell_angle_beta 90.000000
_cell_angle_gamma 90.000000
_cell_volume 567.280064
_symmetry_space_group_name_H-M "P 43"
_symmetry_group_IT_number 78
_symmetry_cell_setting 'tetragonal'
loop_
_space_group_symop_operation_xyz
x,y,z
-y,x,3/4+z
-x,-y,1/2+z
y,-x,1/4+z
loop_
_atom_site_type_symbol
_atom_site_label
_atom_site_fract_x
_atom_site_fract_y
_atom_site_fract_z
Si Si1 0.438888 0.315001 0.775090
Si Si2 0.283592 0.971984 0.943208
Si Si3 0.756702 0.819254 0.886196
Si Si4 0.591353 0.110938 0.931596
O O1 0.351064 0.991077 0.644502
O O2 0.564777 0.369878 0.642924
O O3 0.202431 0.292829 0.189777
O O4 0.478062 0.203306 0.987061
O O5 0.180947 0.869983 0.862413
O O6 0.238008 0.069383 0.167065
O O7 0.405982 0.928438 0.112859
O O8 0.645033 0.755385 0.052772
#
# Coordination Sequence:
#
# PCOD9541728 Si02
#       4
#     4   4   4   4
#     4  12  23  45  81 133 189 241 303 369 463 566
#     4  10  24  47  82 121 169 219 307 364 461 521
#     4  10  25  48  85 126 170 235 297 382 444 555
#     4  10  24  46  74 126 160 233 283 373 444 536
#
# _framework density 28.204761999999999
#
# number of rings (size 3 to 8) (size 9 to 14) (size 15 to 20)
#    1.500    0.000    2.500    1.500    3.500    2.000 
#    0.000    7.500    5.500    0.000    6.500    0.000 
#    0.000    0.000    0.000    0.000    0.000    0.000 
#
# Total GULP energy -89116.205860 kJ/mol
# GULP energy per Si atom -5569.762866 kJ/mol
# Density = 2.814057 g / cm^3
# Si number density = 28.204762 Si / 1000 Ang^3
#
#
#
# Elastic Constant Matrix: (Units=GPa)
#
#
# Indices 1 2 3 4 5 6 
#
# 1 154.2936 57.0020 52.3948 0.0000 0.0000 -0.6368
# 2 57.0020 154.2936 52.3948 0.0000 0.0000 0.6368
# 3 52.3948 52.3948 179.2951 0.0000 0.0000 0.0000
# 4 0.0000 0.0000 0.0000 22.2263 0.0000 0.0000
# 5 0.0000 0.0000 0.0000 0.0000 22.2263 0.0000
# 6 -0.6368 0.6368 0.0000 0.0000 0.0000 9.2437
#
#
#
# Elastic Compliance Matrix: (Units=1/GPa)
#
#
# Indices 1 2 3 4 5 6 
#
# 1 0.007911 -0.002376 -0.001617 0.000000 0.000000 0.000709
# 2 -0.002376 0.007911 -0.001617 0.000000 0.000000 -0.000709
# 3 -0.001617 -0.001617 0.006523 0.000000 0.000000 0.000000
# 4 0.000000 0.000000 0.000000 0.044992 0.000000 0.000000
# 5 0.000000 0.000000 0.000000 0.000000 0.044992 0.000000
# 6 0.000709 -0.000709 0.000000 0.000000 0.000000 0.108279
#
#
# Mechanical properties :
#
#
# Convention : Reuss Voigt Hill
#
# Bulk Modulus (GPa) = 89.90632 90.16285 90.03459
# Shear Modulus (GPa) = 21.22802 32.47865 26.85333
#
# Velocity S-wave (km/s) = 2.74640 3.39710 3.08894
# Velocity P-wave (km/s) = 6.48093 6.88649 6.68679
#
# Compressibility (1/GPa) = 0.01112269
#
# Stress axis : x y z
#
# Youngs Moduli (GPa) = 126.40217 126.40217 153.31050
#
# Poissons Ratio (x) = 0.30038 0.24797
# Poissons Ratio (y) = 0.30038 0.24797
# Poissons Ratio (z) = 0.20445 0.20445
#
# Static dielectric constant tensor:
#      x y z
#    x 2.328250 0.000000 0.000000 
#    y 0.000000 2.328250 0.000000 
#    z 0.000000 0.000000 2.238760 
# 
# From -- ./inp_files/456.got.cif
#   From: 2010.05.17/outbox.cif.g08.bks.cpg/sg78_cif.got.tgz:456.got - 2010.06.03 18:45:56.
