data_PCOD9541081
_publ_section_title
;
Structure prediction by ZEFSAII (Michael W. Deem and Ramdas Pophale) SiO2 
 PCOD9541081
Probable space group: P 41
;
_chemical_formula_sum "Si O2"
_cell_formula_units_Z 28
_cell_length_a 12.485578
_cell_length_b 12.485578
_cell_length_c 7.193832
_cell_angle_alpha 90.000000
_cell_angle_beta 90.000000
_cell_angle_gamma 90.000000
_cell_volume 1121.444010
_symmetry_space_group_name_H-M "P 41"
_symmetry_group_IT_number 76
_symmetry_cell_setting 'tetragonal'
loop_
_space_group_symop_operation_xyz
x,y,z
-y,x,1/4+z
-x,-y,1/2+z
y,-x,3/4+z
loop_
_atom_site_type_symbol
_atom_site_label
_atom_site_fract_x
_atom_site_fract_y
_atom_site_fract_z
Si Si1 0.812602 0.687063 0.736230
Si Si2 0.285417 0.713483 0.571946
Si Si3 0.047403 0.141624 0.137366
Si Si4 0.488698 0.239539 0.046453
Si Si5 0.485113 0.002411 0.976154
Si Si6 0.590068 0.606143 0.864236
Si Si7 0.326628 0.064248 0.655934
O O1 0.776332 0.708714 0.520119
O O2 0.870968 0.798931 0.777076
O O3 0.898701 0.591093 0.757871
O O4 0.705530 0.660149 0.845694
O O5 0.391720 0.751713 0.474205
O O6 0.282714 0.592452 0.644606
O O7 0.182201 0.718434 0.441502
O O8 0.950840 0.098764 0.263170
O O9 0.007069 0.233159 0.993506
O O10 0.478080 0.318516 0.221600
O O11 0.468093 0.114597 0.090806
O O12 0.611886 0.971396 0.969661
O O13 0.433402 0.047045 0.783280
O O14 0.602330 0.484777 0.792586
#
# Coordination Sequence:
#
# PCOD9541081 Si02
#       7
#     4   4   4   4   4   4   4
#     4  10  21  41  64  98 127 181 221 280 347 416
#     4  10  19  37  65  92 131 179 222 265 353 411
#     4  11  23  44  71  94 134 187 245 295 359 407
#     4  10  18  33  61  91 122 169 213 264 328 411
#     4  10  22  38  66  97 135 171 233 277 342 425
#     4  11  23  40  66  96 134 175 218 274 343 419
#     4  10  22  41  69 100 131 184 226 293 348 425
#
# _framework density 24.967808999999999
#
# number of rings (size 3 to 8) (size 9 to 14) (size 15 to 20)
#    0.000    1.714    4.286    1.714    2.000    1.143 
#    0.000    4.286    0.000    0.000    0.000    0.000 
#    0.000    0.000    0.000    0.000    0.000    0.000 
#
# Total GULP energy -156399.450419 kJ/mol
# GULP energy per Si atom -5585.694658 kJ/mol
# Density = 2.491098 g / cm^3
# Si number density = 24.967809 Si / 1000 Ang^3
#
#
#
# Elastic Constant Matrix: (Units=GPa)
#
#
# Indices 1 2 3 4 5 6 
#
# 1 185.6978 63.0458 51.2169 0.0000 0.0000 10.8546
# 2 63.0458 185.6978 51.2169 0.0000 0.0000 -10.8546
# 3 51.2169 51.2169 58.2340 0.0000 0.0000 0.0000
# 4 0.0000 0.0000 0.0000 24.8496 0.0000 0.0000
# 5 0.0000 0.0000 0.0000 0.0000 24.8496 0.0000
# 6 10.8546 -10.8546 0.0000 0.0000 0.0000 36.5450
#
#
#
# Elastic Compliance Matrix: (Units=1/GPa)
#
#
# Indices 1 2 3 4 5 6 
#
# 1 0.007454 -0.001151 -0.005544 0.000000 0.000000 -0.002556
# 2 -0.001151 0.007454 -0.005544 0.000000 0.000000 0.002556
# 3 -0.005544 -0.005544 0.026923 0.000000 0.000000 0.000000
# 4 0.000000 0.000000 0.000000 0.040242 0.000000 0.000000
# 5 0.000000 0.000000 0.000000 0.000000 0.040242 0.000000
# 6 -0.002556 0.002556 0.000000 0.000000 0.000000 0.028882
#
#
# Mechanical properties :
#
#
# Convention : Reuss Voigt Hill
#
# Bulk Modulus (GPa) = 57.61983 84.50987 71.06485
# Shear Modulus (GPa) = 27.55431 34.85883 31.20657
#
# Velocity S-wave (km/s) = 3.32564 3.74056 3.53919
# Velocity P-wave (km/s) = 6.15421 7.25098 6.72499
#
# Compressibility (1/GPa) = 0.01735514
#
# Stress axis : x y z
#
# Youngs Moduli (GPa) = 134.15046 134.15046 37.14260
#
# Poissons Ratio (x) = 0.15444 0.20590
# Poissons Ratio (y) = 0.15444 0.20590
# Poissons Ratio (z) = 0.74367 0.74367
#
# Static dielectric constant tensor:
#      x y z
#    x 2.035290 0.000000 0.000000 
#    y 0.000000 2.035290 0.000000 
#    z 0.000000 0.000000 2.251550 
# 
# From -- ./inp_files/630.got.cif
#   From: 2010.05.17/outbox.cif.g08.bks.cpg/sg76_cif.got.tgz:630.got - 2010.06.03 18:43:17.
