data_PCOD9541748
_publ_section_title
;
Structure prediction by ZEFSAII (Michael W. Deem and Ramdas Pophale) SiO2 
 PCOD9541748
Probable space group: P 43
;
_chemical_formula_sum "Si O2"
_cell_formula_units_Z 16
_cell_length_a 12.243515
_cell_length_b 12.243515
_cell_length_c 4.800012
_cell_angle_alpha 90.000000
_cell_angle_beta 90.000000
_cell_angle_gamma 90.000000
_cell_volume 719.539365
_symmetry_space_group_name_H-M "P 43"
_symmetry_group_IT_number 78
_symmetry_cell_setting 'tetragonal'
loop_
_space_group_symop_operation_xyz
x,y,z
-y,x,3/4+z
-x,-y,1/2+z
y,-x,1/4+z
loop_
_atom_site_type_symbol
_atom_site_label
_atom_site_fract_x
_atom_site_fract_y
_atom_site_fract_z
Si Si1 0.770315 0.875807 0.382210
Si Si2 0.884584 0.773602 0.892906
Si Si3 0.254676 0.570727 0.956320
Si Si4 0.578184 0.255057 0.198236
O O1 0.828722 0.860840 0.681349
O O2 0.645349 0.837011 0.359125
O O3 0.784311 0.988678 0.215124
O O4 0.833860 0.789092 0.196552
O O5 0.839875 0.654137 0.814006
O O6 0.650192 0.654994 0.072463
O O7 0.212608 0.497373 0.700126
O O8 0.300971 0.494595 0.198257
#
# Coordination Sequence:
#
# PCOD9541748 Si02
#       4
#     4   4   4   4
#     4  11  24  43  66  94 129 168 216 274 332 397
#     4  11  24  43  66  94 129 168 216 274 332 397
#     4  11  23  41  64  94 130 170 218 270 327 397
#     4  11  23  41  64  94 130 170 218 270 327 397
#
# _framework density 22.236450000000001
#
# number of rings (size 3 to 8) (size 9 to 14) (size 15 to 20)
#    0.000    1.000    0.000    9.000    0.000    6.000 
#    0.000    2.500    0.000    0.000    0.000    0.000 
#    0.000    0.000    0.000    0.000    0.000    0.000 
#
# Total GULP energy -89245.464102 kJ/mol
# GULP energy per Si atom -5577.841506 kJ/mol
# Density = 2.218584 g / cm^3
# Si number density = 22.236450 Si / 1000 Ang^3
#
#
#
# Elastic Constant Matrix: (Units=GPa)
#
#
# Indices 1 2 3 4 5 6 
#
# 1 107.1922 19.4046 37.9511 0.0000 0.0000 -2.5497
# 2 19.4046 107.1922 37.9511 0.0000 0.0000 2.5497
# 3 37.9511 37.9511 138.6659 0.0000 0.0000 0.0000
# 4 0.0000 0.0000 0.0000 36.3936 0.0000 0.0000
# 5 0.0000 0.0000 0.0000 0.0000 36.3936 0.0000
# 6 -2.5497 2.5497 0.0000 0.0000 0.0000 5.9330
#
#
#
# Elastic Compliance Matrix: (Units=1/GPa)
#
#
# Indices 1 2 3 4 5 6 
#
# 1 0.010566 -0.001117 -0.002586 0.000000 0.000000 0.005021
# 2 -0.001117 0.010566 -0.002586 0.000000 0.000000 -0.005021
# 3 -0.002586 -0.002586 0.008627 0.000000 0.000000 0.000000
# 4 0.000000 0.000000 0.000000 0.027477 0.000000 0.000000
# 5 0.000000 0.000000 0.000000 0.000000 0.027477 0.000000
# 6 0.005021 -0.005021 0.000000 0.000000 0.000000 0.172863
#
#
# Mechanical properties :
#
#
# Convention : Reuss Voigt Hill
#
# Bulk Modulus (GPa) = 58.20181 60.40709 59.30445
# Shear Modulus (GPa) = 18.12361 32.92693 25.52527
#
# Velocity S-wave (km/s) = 2.85799 3.85224 3.39175
# Velocity P-wave (km/s) = 6.09276 6.85647 6.48586
#
# Compressibility (1/GPa) = 0.01718160
#
# Stress axis : x y z
#
# Youngs Moduli (GPa) = 94.64097 94.64097 115.91204
#
# Poissons Ratio (x) = 0.10567 0.29978
# Poissons Ratio (y) = 0.10567 0.29978
# Poissons Ratio (z) = 0.24477 0.24477
#
# Static dielectric constant tensor:
#      x y z
#    x 1.950720 0.000000 0.000000 
#    y 0.000000 1.950720 0.000000 
#    z 0.000000 0.000000 1.798790 
# 
# From -- ./inp_files/89.got.cif
#   From: 2010.05.17/outbox.cif.g08.bks.cpg/sg78_cif.got.tgz:89.got - 2010.06.03 18:45:56.
