data_PCOD9541731
_publ_section_title
;
Structure prediction by ZEFSAII (Michael W. Deem and Ramdas Pophale) SiO2 
 PCOD9541731
Probable space group: P 43
;
_chemical_formula_sum "Si O2"
_cell_formula_units_Z 16
_cell_length_a 9.502146
_cell_length_b 9.502146
_cell_length_c 6.517366
_cell_angle_alpha 90.000000
_cell_angle_beta 90.000000
_cell_angle_gamma 90.000000
_cell_volume 588.458051
_symmetry_space_group_name_H-M "P 43"
_symmetry_group_IT_number 78
_symmetry_cell_setting 'tetragonal'
loop_
_space_group_symop_operation_xyz
x,y,z
-y,x,3/4+z
-x,-y,1/2+z
y,-x,1/4+z
loop_
_atom_site_type_symbol
_atom_site_label
_atom_site_fract_x
_atom_site_fract_y
_atom_site_fract_z
Si Si1 0.784311 0.887499 0.068800
Si Si2 0.677464 0.600087 0.869484
Si Si3 0.117042 0.611432 0.192591
Si Si4 0.766972 0.089319 0.692343
O O1 0.743532 0.736557 0.975633
O O2 0.654094 0.930201 0.214823
O O3 0.909318 0.859372 0.231134
O O4 0.000703 0.808267 0.640677
O O5 0.644551 0.472283 0.025647
O O6 0.791401 0.527099 0.718390
O O7 0.221429 0.745202 0.242214
O O8 0.990290 0.629970 0.353345
#
# Coordination Sequence:
#
# PCOD9541731 Si02
#       4
#     4   4   4   4
#     4  10  25  47  81 118 161 212 284 338 418 492
#     4  12  24  48  80 116 160 225 276 344 417 495
#     4  10  25  45  78 113 161 211 271 336 413 492
#     4  10  24  48  75 121 158 216 265 346 408 507
#
# _framework density 27.189703000000002
#
# number of rings (size 3 to 8) (size 9 to 14) (size 15 to 20)
#    1.500    0.000    2.500    1.500    3.500    2.000 
#    4.500    0.000    0.000    0.000    6.500    0.000 
#    0.000    0.000    0.000    0.000    0.000    0.000 
#
# Total GULP energy -89523.792525 kJ/mol
# GULP energy per Si atom -5595.237033 kJ/mol
# Density = 2.712782 g / cm^3
# Si number density = 27.189703 Si / 1000 Ang^3
#
#
#
# Elastic Constant Matrix: (Units=GPa)
#
#
# Indices 1 2 3 4 5 6 
#
# 1 169.2794 26.1445 65.3414 0.0000 0.0000 -20.4750
# 2 26.1445 169.2794 65.3414 0.0000 0.0000 20.4750
# 3 65.3414 65.3414 175.6958 0.0000 0.0000 0.0000
# 4 0.0000 0.0000 0.0000 32.6172 0.0000 0.0000
# 5 0.0000 0.0000 0.0000 0.0000 32.6172 0.0000
# 6 -20.4750 20.4750 0.0000 0.0000 0.0000 39.0224
#
#
#
# Elastic Compliance Matrix: (Units=1/GPa)
#
#
# Indices 1 2 3 4 5 6 
#
# 1 0.007516 -0.000705 -0.002533 0.000000 0.000000 0.004313
# 2 -0.000705 0.007516 -0.002533 0.000000 0.000000 -0.004313
# 3 -0.002533 -0.002533 0.007576 0.000000 0.000000 0.000000
# 4 0.000000 0.000000 0.000000 0.030659 0.000000 0.000000
# 5 0.000000 0.000000 0.000000 0.000000 0.030659 0.000000
# 6 0.004313 -0.004313 0.000000 0.000000 0.000000 0.030153
#
#
# Mechanical properties :
#
#
# Convention : Reuss Voigt Hill
#
# Bulk Modulus (GPa) = 90.37021 91.98992 91.18006
# Shear Modulus (GPa) = 38.66768 44.67984 41.67376
#
# Velocity S-wave (km/s) = 3.77522 4.05812 3.91922
# Velocity P-wave (km/s) = 7.23271 7.47421 7.35445
#
# Compressibility (1/GPa) = 0.01106559
#
# Stress axis : x y z
#
# Youngs Moduli (GPa) = 133.05546 133.05546 132.00102
#
# Poissons Ratio (x) = 0.09377 0.33436
# Poissons Ratio (y) = 0.09377 0.33436
# Poissons Ratio (z) = 0.33703 0.33703
#
# Static dielectric constant tensor:
#      x y z
#    x 2.103050 0.000000 0.000000 
#    y 0.000000 2.103050 0.000000 
#    z 0.000000 0.000000 2.177550 
# 
# From -- ./inp_files/132.got.cif
#   From: 2010.05.17/outbox.cif.g08.bks.cpg/sg78_cif.got.tgz:132.got - 2010.06.03 18:45:56.
