data_PCOD9541609
_publ_section_title
;
Structure prediction by ZEFSAII (Michael W. Deem and Ramdas Pophale) SiO2 
 PCOD9541609
Probable space group: P 43
;
_chemical_formula_sum "Si O2"
_cell_formula_units_Z 16
_cell_length_a 11.885363
_cell_length_b 11.885363
_cell_length_c 5.235525
_cell_angle_alpha 90.000000
_cell_angle_beta 90.000000
_cell_angle_gamma 90.000000
_cell_volume 739.579966
_symmetry_space_group_name_H-M "P 43"
_symmetry_group_IT_number 78
_symmetry_cell_setting 'tetragonal'
loop_
_space_group_symop_operation_xyz
x,y,z
-y,x,3/4+z
-x,-y,1/2+z
y,-x,1/4+z
loop_
_atom_site_type_symbol
_atom_site_label
_atom_site_fract_x
_atom_site_fract_y
_atom_site_fract_z
Si Si1 0.092297 0.147239 0.133730
Si Si2 0.322719 0.172586 0.968608
Si Si3 0.056762 0.353362 0.492704
Si Si4 0.155705 0.557938 0.720851
O O1 0.088499 0.237695 0.360027
O O2 0.128315 0.027778 0.254245
O O3 0.189730 0.191346 0.942764
O O4 0.403419 0.211108 0.737846
O O5 0.333196 0.036979 0.956798
O O6 0.364582 0.204866 0.247251
O O7 0.152749 0.432651 0.607200
O O8 0.977588 0.416265 0.279059
#
# Coordination Sequence:
#
# PCOD9541609 Si02
#       4
#     4   4   4   4
#     4  12  23  36  56  95 141 182 207 250 333 423
#     4  10  20  36  51  82 115 165 213 264 299 376
#     4  10  20  37  59  78 113 173 227 267 299 357
#     4  10  19  37  58  75 107 166 239 263 299 338
#
# _framework density 21.633900000000001
#
# number of rings (size 3 to 8) (size 9 to 14) (size 15 to 20)
#    1.500    0.000    5.000    1.500    0.000    2.000 
#    0.000    0.000    0.000    0.000    0.000    0.000 
#    0.000    0.000    8.500    5.000    1.500    0.000 
#
# Total GULP energy -89139.993162 kJ/mol
# GULP energy per Si atom -5571.249573 kJ/mol
# Density = 2.158466 g / cm^3
# Si number density = 21.633900 Si / 1000 Ang^3
#
#
#
# Elastic Constant Matrix: (Units=GPa)
#
#
# Indices 1 2 3 4 5 6 
#
# 1 71.7423 -22.2266 18.2730 0.0000 0.0000 -12.8541
# 2 -22.2266 71.7423 18.2730 0.0000 0.0000 12.8541
# 3 18.2730 18.2730 124.6356 0.0000 0.0000 0.0000
# 4 0.0000 0.0000 0.0000 20.1254 0.0000 0.0000
# 5 0.0000 0.0000 0.0000 0.0000 20.1254 0.0000
# 6 -12.8541 12.8541 0.0000 0.0000 0.0000 -2.9512
#
#
#
# Elastic Compliance Matrix: (Units=1/GPa)
#
#
# Indices 1 2 3 4 5 6 
#
# 1 0.013751 0.008895 -0.003320 0.000000 0.000000 -0.021149
# 2 0.008895 0.013751 -0.003320 0.000000 0.000000 0.021149
# 3 -0.003320 -0.003320 0.008997 0.000000 0.000000 0.000000
# 4 0.000000 0.000000 0.000000 0.049688 0.000000 0.000000
# 5 0.000000 0.000000 0.000000 0.000000 0.049688 0.000000
# 6 -0.021149 0.021149 0.000000 0.000000 0.000000 -0.154610
#
#
# Mechanical properties :
#
#
# Convention : Reuss Voigt Hill
#
# Bulk Modulus (GPa) = 24.38521 32.97323 28.67922
# Shear Modulus (GPa) = -522.21500 24.37997 -248.91752
#
# Velocity S-wave (km/s) = -15.55350 3.36062 -10.73819
# Velocity P-wave (km/s) = 17.64234 5.50754 11.85157
#
# Compressibility (1/GPa) = 0.04100846
#
# Stress axis : x y z
#
# Youngs Moduli (GPa) = 72.72224 72.72224 111.14885
#
# Poissons Ratio (x) = -0.64688 0.36903
# Poissons Ratio (y) = -0.64688 0.36903
# Poissons Ratio (z) = 0.24145 0.24145
#
# Static dielectric constant tensor:
#      x y z
#    x 1.829480 0.000000 0.000000 
#    y 0.000000 1.829480 0.000000 
#    z 0.000000 0.000000 1.829880 
# 
# From -- ./inp_files/56.got.cif
#   From: 2010.05.17/outbox.cif.g08.bks.cpg/sg78_cif.got.tgz:56.got - 2010.06.03 18:45:56.
