data_PCOD9541267
_publ_section_title
;
Structure prediction by ZEFSAII (Michael W. Deem and Ramdas Pophale) SiO2 
 PCOD9541267
Probable space group: P 41
;
_chemical_formula_sum "Si O2"
_cell_formula_units_Z 24
_cell_length_a 11.525460
_cell_length_b 11.525460
_cell_length_c 8.698352
_cell_angle_alpha 90.000000
_cell_angle_beta 90.000000
_cell_angle_gamma 90.000000
_cell_volume 1155.456271
_symmetry_space_group_name_H-M "P 41"
_symmetry_group_IT_number 76
_symmetry_cell_setting 'tetragonal'
loop_
_space_group_symop_operation_xyz
x,y,z
-y,x,1/4+z
-x,-y,1/2+z
y,-x,3/4+z
loop_
_atom_site_type_symbol
_atom_site_label
_atom_site_fract_x
_atom_site_fract_y
_atom_site_fract_z
Si Si1 0.789796 0.877538 0.270310
Si Si2 0.169636 0.375351 0.356569
Si Si3 0.612555 0.859070 0.008611
Si Si4 0.577353 0.608620 0.885874
Si Si5 0.787257 0.011668 0.811740
Si Si6 0.145124 0.201558 0.098800
O O1 0.911145 0.865529 0.175794
O O2 0.795559 0.814306 0.433940
O O3 0.770838 0.011755 0.311161
O O4 0.689787 0.830080 0.158293
O O5 0.095237 0.488544 0.315992
O O6 0.288656 0.417812 0.436332
O O7 0.101254 0.283107 0.456938
O O8 0.198111 0.304582 0.200980
O O9 0.581607 0.748174 0.902544
O O10 0.692478 0.945423 0.913781
O O11 0.569653 0.533193 0.733200
O O12 0.847211 0.916487 0.701449
#
# Coordination Sequence:
#
# PCOD9541267 Si02
#       6
#     4   4   4   4   4   4
#     4  12  26  41  68 103 142 187 231 273 350 423
#     4  11  25  46  67  98 139 178 232 291 343 405
#     4  11  25  46  67  98 139 178 232 291 343 405
#     4  10  22  48  72  98 132 180 230 294 340 406
#     4  12  24  42  68 100 140 186 222 290 342 412
#     4  12  26  41  68 103 142 187 231 273 350 423
#
# _framework density 20.771015999999999
#
# number of rings (size 3 to 8) (size 9 to 14) (size 15 to 20)
#    0.000    0.667    6.667    0.000    4.667    0.000 
#   12.000    1.667    0.000    0.000    0.000    0.000 
#    0.000    0.000    0.000    0.000    0.000    0.000 
#
# Total GULP energy -133934.104675 kJ/mol
# GULP energy per Si atom -5580.587695 kJ/mol
# Density = 2.072374 g / cm^3
# Si number density = 20.771016 Si / 1000 Ang^3
#
#
#
# Elastic Constant Matrix: (Units=GPa)
#
#
# Indices 1 2 3 4 5 6 
#
# 1 78.4329 -9.9833 29.8420 0.0000 0.0000 0.4852
# 2 -9.9833 78.4329 29.8420 0.0000 0.0000 -0.4852
# 3 29.8420 29.8420 107.6110 0.0000 0.0000 0.0000
# 4 0.0000 0.0000 0.0000 24.0268 0.0000 0.0000
# 5 0.0000 0.0000 0.0000 0.0000 24.0268 0.0000
# 6 0.4852 -0.4852 0.0000 0.0000 0.0000 22.9270
#
#
#
# Elastic Compliance Matrix: (Units=1/GPa)
#
#
# Indices 1 2 3 4 5 6 
#
# 1 0.015291 0.003978 -0.005343 0.000000 0.000000 -0.000239
# 2 0.003978 0.015291 -0.005343 0.000000 0.000000 0.000239
# 3 -0.005343 -0.005343 0.012256 0.000000 0.000000 0.000000
# 4 0.000000 0.000000 0.000000 0.041620 0.000000 0.000000
# 5 0.000000 0.000000 0.000000 0.000000 0.041620 0.000000
# 6 -0.000239 0.000239 0.000000 0.000000 0.000000 0.043627
#
#
# Mechanical properties :
#
#
# Convention : Reuss Voigt Hill
#
# Bulk Modulus (GPa) = 33.99096 40.43090 37.21093
# Shear Modulus (GPa) = 25.91625 28.51453 27.21539
#
# Velocity S-wave (km/s) = 3.53613 3.70916 3.62368
# Velocity P-wave (km/s) = 5.75086 6.15232 5.95498
#
# Compressibility (1/GPa) = 0.02941959
#
# Stress axis : x y z
#
# Youngs Moduli (GPa) = 65.39968 65.39968 81.59058
#
# Poissons Ratio (x) = -0.26015 0.43597
# Poissons Ratio (y) = -0.26015 0.43597
# Poissons Ratio (z) = 0.34946 0.34946
#
# Static dielectric constant tensor:
#      x y z
#    x 1.752860 0.000000 0.000000 
#    y 0.000000 1.752860 0.000000 
#    z 0.000000 0.000000 1.772220 
# 
# From -- ./inp_files/559.got.cif
#   From: 2010.05.17/outbox.cif.g08.bks.cpg/sg76_cif.got.tgz:559.got - 2010.06.03 18:43:17.
