data_PCOD9541637
_publ_section_title
;
Structure prediction by ZEFSAII (Michael W. Deem and Ramdas Pophale) SiO2 
 PCOD9541637
Probable space group: P 43
;
_chemical_formula_sum "Si O2"
_cell_formula_units_Z 32
_cell_length_a 11.501724
_cell_length_b 11.501724
_cell_length_c 11.698920
_cell_angle_alpha 90.000000
_cell_angle_beta 90.000000
_cell_angle_gamma 90.000000
_cell_volume 1547.646090
_symmetry_space_group_name_H-M "P 43"
_symmetry_group_IT_number 78
_symmetry_cell_setting 'tetragonal'
loop_
_space_group_symop_operation_xyz
x,y,z
-y,x,3/4+z
-x,-y,1/2+z
y,-x,1/4+z
loop_
_atom_site_type_symbol
_atom_site_label
_atom_site_fract_x
_atom_site_fract_y
_atom_site_fract_z
Si Si1 0.951801 0.000001 0.901760
Si Si2 0.200361 0.766086 0.655871
Si Si3 0.516185 0.870861 0.940900
Si Si4 0.200357 0.233920 0.147651
Si Si5 0.574087 0.308374 0.263628
Si Si6 0.499995 0.721144 0.151751
Si Si7 0.308366 0.574088 0.289881
Si Si8 0.483815 0.870869 0.362599
O O1 0.873779 0.115280 0.900203
O O2 0.009984 0.009987 0.776759
O O3 0.873781 0.884722 0.903320
O O4 0.129380 0.655976 0.706080
O O5 0.245010 0.755008 0.526762
O O6 0.317967 0.772370 0.726920
O O7 0.501490 0.773962 0.843284
O O8 0.478782 0.999995 0.901746
O O9 0.458092 0.810931 0.052306
O O10 0.317969 0.227631 0.076611
O O11 0.129378 0.344024 0.097428
O O12 0.635064 0.410490 0.336929
O O13 0.500005 0.346981 0.151750
O O14 0.410478 0.635068 0.216576
O O15 0.541901 0.810933 0.251192
O O16 0.226024 0.498523 0.210220
#
# Coordination Sequence:
#
# PCOD9541637 Si02
#       8
#     4   4   4   4   4   4   4   4
#     4  10  22  44  70  98 132 176 232 298 346 410
#     4  10  20  40  67  97 126 171 235 273 330 427
#     4  11  23  43  67  96 134 180 225 287 348 407
#     4  10  20  40  67  97 126 171 235 273 330 427
#     4  11  23  44  68 102 137 182 228 282 362 421
#     4  10  26  44  64 106 142 182 234 290 344 436
#     4  11  23  44  68 102 137 182 228 282 362 421
#     4  11  23  43  67  96 134 180 225 287 348 407
#
# _framework density 20.676562000000001
#
# number of rings (size 3 to 8) (size 9 to 14) (size 15 to 20)
#    0.000    1.500    3.750    0.750    1.750    0.000 
#   36.000    0.000    0.000    0.000    0.000    0.000 
#    0.000    0.000    0.000    0.000    0.000    0.000 
#
# Total GULP energy -178237.349737 kJ/mol
# GULP energy per Si atom -5569.917179 kJ/mol
# Density = 2.062950 g / cm^3
# Si number density = 20.676562 Si / 1000 Ang^3
#
#
#
# Elastic Constant Matrix: (Units=GPa)
#
#
# Indices 1 2 3 4 5 6 
#
# 1 80.7026 19.7551 47.2709 0.0000 0.0000 0.0007
# 2 19.7551 80.7026 47.2709 0.0000 0.0000 -0.0007
# 3 47.2709 47.2709 147.3924 0.0000 0.0000 0.0000
# 4 0.0000 0.0000 0.0000 32.9326 0.0000 0.0000
# 5 0.0000 0.0000 0.0000 0.0000 32.9326 0.0000
# 6 0.0007 -0.0007 0.0000 0.0000 0.0000 16.3199
#
#
#
# Elastic Compliance Matrix: (Units=1/GPa)
#
#
# Indices 1 2 3 4 5 6 
#
# 1 0.015333 -0.001075 -0.004573 0.000000 0.000000 -0.000001
# 2 -0.001075 0.015333 -0.004573 0.000000 0.000000 0.000001
# 3 -0.004573 -0.004573 0.009718 0.000000 0.000000 0.000000
# 4 0.000000 0.000000 0.000000 0.030365 0.000000 0.000000
# 5 0.000000 0.000000 0.000000 0.000000 0.030365 0.000000
# 6 -0.000001 0.000001 0.000000 0.000000 0.000000 0.061275
#
#
# Mechanical properties :
#
#
# Convention : Reuss Voigt Hill
#
# Bulk Modulus (GPa) = 50.14397 59.71016 54.92707
# Shear Modulus (GPa) = 26.38853 29.40372 27.89613
#
# Velocity S-wave (km/s) = 3.57634 3.77514 3.67709
# Velocity P-wave (km/s) = 6.43101 6.92410 6.68210
#
# Compressibility (1/GPa) = 0.01994258
#
# Stress axis : x y z
#
# Youngs Moduli (GPa) = 65.22009 65.22009 102.90528
#
# Poissons Ratio (x) = 0.07010 0.47056
# Poissons Ratio (y) = 0.07010 0.47056
# Poissons Ratio (z) = 0.29823 0.29823
#
# Static dielectric constant tensor:
#      x y z
#    x 1.762290 0.000000 0.000000 
#    y 0.000000 1.762290 0.000000 
#    z 0.000000 0.000000 1.917360 
# 
# From -- ./inp_files/937.got.cif
#   From: 2010.05.17/outbox.cif.g08.bks.cpg/sg78_cif.got.tgz:937.got - 2010.06.03 18:45:56.
