data_PCOD9541859
_publ_section_title
;
Structure prediction by ZEFSAII (Michael W. Deem and Ramdas Pophale) SiO2 
 PCOD9541859
Probable space group: I 4
;
_chemical_formula_sum "Si O2"
_cell_formula_units_Z 48
_cell_length_a 21.953118
_cell_length_b 21.953118
_cell_length_c 5.187745
_cell_angle_alpha 90.000000
_cell_angle_beta 90.000000
_cell_angle_gamma 90.000000
_cell_volume 2500.178660
_symmetry_space_group_name_H-M "I 4"
_symmetry_group_IT_number 79
_symmetry_cell_setting 'tetragonal'
loop_
_space_group_symop_operation_xyz
x,y,z
-y,x,z
-x,-y,z
y,-x,z
1/2+x,1/2+y,1/2+z
1/2-y,1/2+x,1/2+z
1/2-x,1/2-y,1/2+z
1/2+y,1/2-x,1/2+z
loop_
_atom_site_type_symbol
_atom_site_label
_atom_site_fract_x
_atom_site_fract_y
_atom_site_fract_z
Si Si1 0.222624 0.591346 0.532980
Si Si2 0.226030 0.786184 0.263732
Si Si3 0.989564 0.237059 0.720210
Si Si4 0.482743 0.147766 0.932379
Si Si5 0.415495 0.730896 0.715450
Si Si6 0.898092 0.375606 0.225202
O O1 0.248985 0.646814 0.697207
O O2 0.268958 0.558745 0.330808
O O3 0.197228 0.538706 0.720507
O O4 0.163304 0.616732 0.388140
O O5 0.252305 0.758372 0.529665
O O6 0.152961 0.790884 0.268183
O O7 0.960304 0.214049 0.452725
O O8 0.991800 0.310721 0.667909
O O9 0.945401 0.213553 0.944338
O O10 0.538330 0.105699 0.853615
O O11 0.421005 0.112542 0.991280
O O12 0.406689 0.804066 0.687316
#
# Coordination Sequence:
#
# PCOD9541859 Si02
#       6
#     8   8   8   8   8   8
#     4  11  22  39  61  83 119 155 204 244 301 359
#     4  12  25  37  59  95 123 155 196 258 312 372
#     4  10  21  39  59  81 107 165 193 239 290 360
#     4  10  22  36  59  76 108 157 203 255 296 341
#     4  11  21  39  60  81 118 152 199 239 306 360
#     4  10  21  36  55  76 108 157 202 249 299 346
#
# _framework density 19.198629
#
# number of rings (size 3 to 8) (size 9 to 14) (size 15 to 20)
#    0.000    1.333    5.000    2.000    9.333    0.000 
#    0.000    2.500    0.000    0.000    0.000    0.000 
#    0.000    0.667    6.000    0.000    0.000    0.000 
#
# Total GULP energy -133697.048778 kJ/mol
# GULP energy per Si atom -5570.710366 kJ/mol
# Density = 1.915493 g / cm^3
# Si number density = 19.198629 Si / 1000 Ang^3
#
#
#
# Elastic Constant Matrix: (Units=GPa)
#
#
# Indices 1 2 3 4 5 6 
#
# 1 47.7247 4.1720 5.9848 0.0000 0.0000 8.8339
# 2 4.1720 47.7247 5.9848 0.0000 0.0000 -8.8339
# 3 5.9848 5.9848 95.8481 0.0000 0.0000 0.0000
# 4 0.0000 0.0000 0.0000 21.2871 0.0000 0.0000
# 5 0.0000 0.0000 0.0000 0.0000 21.2871 0.0000
# 6 8.8339 -8.8339 0.0000 0.0000 0.0000 14.6261
#
#
#
# Elastic Compliance Matrix: (Units=1/GPa)
#
#
# Indices 1 2 3 4 5 6 
#
# 1 0.024981 -0.005431 -0.001221 0.000000 0.000000 -0.018369
# 2 -0.005431 0.024981 -0.001221 0.000000 0.000000 0.018369
# 3 -0.001221 -0.001221 0.010586 0.000000 0.000000 0.000000
# 4 0.000000 0.000000 0.000000 0.046977 0.000000 0.000000
# 5 0.000000 0.000000 0.000000 0.000000 0.046977 0.000000
# 6 -0.018369 0.018369 0.000000 0.000000 0.000000 0.090560
#
#
# Mechanical properties :
#
#
# Convention : Reuss Voigt Hill
#
# Bulk Modulus (GPa) = 22.31951 24.84229 23.58090
# Shear Modulus (GPa) = 18.13295 23.11711 20.62503
#
# Velocity S-wave (km/s) = 3.07659 3.47378 3.28120
# Velocity P-wave (km/s) = 4.92660 5.39048 5.16375
#
# Compressibility (1/GPa) = 0.04480386
#
# Stress axis : x y z
#
# Youngs Moduli (GPa) = 40.02976 40.02976 94.46779
#
# Poissons Ratio (x) = 0.21739 0.11532
# Poissons Ratio (y) = 0.21739 0.11532
# Poissons Ratio (z) = 0.04887 0.04887
#
# Static dielectric constant tensor:
#      x y z
#    x 1.690640 0.000000 0.000000 
#    y 0.000000 1.690640 0.000000 
#    z 0.000000 0.000000 1.786530 
# 
# From -- ./inp_files/215.got.cif
#   From: 2010.05.17/outbox.cif.g08.bks.cpg/sg79_cif.got.tgz:215.got - 2010.06.03 18:47:27.
