data_PCOD9541001
_publ_section_title
;
Structure prediction by ZEFSAII (Michael W. Deem and Ramdas Pophale) SiO2 
 PCOD9541001
Probable space group: P 4
;
_chemical_formula_sum "Si O2"
_cell_formula_units_Z 29
_cell_length_a 11.389845
_cell_length_b 11.389845
_cell_length_c 11.043210
_cell_angle_alpha 90.000000
_cell_angle_beta 90.000000
_cell_angle_gamma 90.000000
_cell_volume 1432.619832
_symmetry_space_group_name_H-M "P 4"
_symmetry_group_IT_number 75
_symmetry_cell_setting 'tetragonal'
loop_
_space_group_symop_operation_xyz
x,y,z
-y,x,z
-x,-y,z
y,-x,z
loop_
_atom_site_type_symbol
_atom_site_label
_atom_site_fract_x
_atom_site_fract_y
_atom_site_fract_z
Si Si1 0.173013 0.390355 0.492780
Si Si2 0.256757 0.615280 0.357745
Si Si3 0.001695 0.810699 0.109500
Si Si4 0.098205 0.581802 0.148713
Si Si5 0.810448 0.026405 0.401697
Si Si6 0.694717 0.517017 0.001674
Si Si7 0.690573 0.545369 0.716664
Si Si8 0.500000 0.500000 0.287557
O O1 0.184650 0.518794 0.433624
O O2 0.279737 0.313089 0.434176
O O3 0.059114 0.313788 0.460595
O O4 0.203296 0.413791 0.632855
O O5 0.174242 0.652310 0.247191
O O6 0.363668 0.543308 0.299922
O O7 0.978366 0.804037 0.255281
O O8 0.114186 0.888738 0.071279
O O9 0.030385 0.678993 0.069770
O O10 0.000000 0.500000 0.207658
O O11 0.186934 0.498510 0.075702
O O12 0.904172 0.128062 0.436882
O O13 0.602241 0.620635 0.028629
O O14 0.717295 0.535686 0.858972
O O15 0.582868 0.635034 0.688872
#
# Coordination Sequence:
#
# PCOD9541001 Si02
#       8
#     4   4   4   4   4   4   4   1
#     4  11  18  31  56  83 117 151 187 242 300 369
#     4  10  21  29  48  87 121 148 183 236 308 377
#     4   9  19  37  57  77 114 167 204 236 292 366
#     4  12  25  35  57  87 125 157 204 255 307 366
#     4   9  18  33  52  73 109 158 200 231 287 364
#     4   9  22  40  63  86 115 161 204 255 317 382
#     4   9  17  35  60  85 113 152 199 236 300 377
#     4   8  20  32  44  72 114 160 176 216 296 382
#
# _framework density 20.242636000000001
#
# number of rings (size 3 to 8) (size 9 to 14) (size 15 to 20)
#    0.000    2.207    1.379    4.138    5.793    0.000 
#    0.000    0.000    6.069    0.000    0.000    0.000 
#    0.000    0.000    0.000    0.000    0.000    0.000 
#
# Total GULP energy -161447.904330 kJ/mol
# GULP energy per Si atom -5567.169115 kJ/mol
# Density = 2.019656 g / cm^3
# Si number density = 20.242636 Si / 1000 Ang^3
#
#
#
# Elastic Constant Matrix: (Units=GPa)
#
#
# Indices 1 2 3 4 5 6 
#
# 1 65.9797 34.2022 15.1751 0.0000 0.0000 -7.1809
# 2 34.2022 65.9797 15.1751 0.0000 0.0000 7.1809
# 3 15.1751 15.1751 55.9873 0.0000 0.0000 0.0000
# 4 0.0000 0.0000 0.0000 9.1328 0.0000 0.0000
# 5 0.0000 0.0000 0.0000 0.0000 9.1328 0.0000
# 6 -7.1809 7.1809 0.0000 0.0000 0.0000 41.4930
#
#
#
# Elastic Compliance Matrix: (Units=1/GPa)
#
#
# Indices 1 2 3 4 5 6 
#
# 1 0.022507 -0.011632 -0.002948 0.000000 0.000000 0.005908
# 2 -0.011632 0.022507 -0.002948 0.000000 0.000000 -0.005908
# 3 -0.002948 -0.002948 0.019459 0.000000 0.000000 0.000000
# 4 0.000000 0.000000 0.000000 0.109495 0.000000 0.000000
# 5 0.000000 0.000000 0.000000 0.000000 0.109495 0.000000
# 6 0.005908 -0.005908 0.000000 0.000000 0.000000 0.026145
#
#
# Mechanical properties :
#
#
# Convention : Reuss Voigt Hill
#
# Bulk Modulus (GPa) = 33.99235 35.22796 34.61015
# Shear Modulus (GPa) = 14.10558 20.17802 17.14180
#
# Velocity S-wave (km/s) = 2.64261 3.16065 2.91317
# Velocity P-wave (km/s) = 5.11274 5.54619 5.33387
#
# Compressibility (1/GPa) = 0.02941839
#
# Stress axis : x y z
#
# Youngs Moduli (GPa) = 44.43082 44.43082 51.39003
#
# Poissons Ratio (x) = 0.51682 0.15148
# Poissons Ratio (y) = 0.51682 0.15148
# Poissons Ratio (z) = 0.13096 0.13096
#
# Static dielectric constant tensor:
#      x y z
#    x 1.747260 0.000000 0.000000 
#    y 0.000000 1.747260 0.000000 
#    z 0.000000 0.000000 1.735370 
# 
# From -- ./inp_files/594.got.cif
#   From: 2010.05.17/outbox.cif.g08.bks.cpg/sg75_cif.got.tgz:594.got - 2010.06.03 18:42:43.
