data_PCOD9541656
_publ_section_title
;
Structure prediction by ZEFSAII (Michael W. Deem and Ramdas Pophale) SiO2 
 PCOD9541656
Probable space group: P 43
;
_chemical_formula_sum "Si O2"
_cell_formula_units_Z 32
_cell_length_a 9.032337
_cell_length_b 9.032337
_cell_length_c 20.852782
_cell_angle_alpha 90.000000
_cell_angle_beta 90.000000
_cell_angle_gamma 90.000000
_cell_volume 1701.234843
_symmetry_space_group_name_H-M "P 43"
_symmetry_group_IT_number 78
_symmetry_cell_setting 'tetragonal'
loop_
_space_group_symop_operation_xyz
x,y,z
-y,x,3/4+z
-x,-y,1/2+z
y,-x,1/4+z
loop_
_atom_site_type_symbol
_atom_site_label
_atom_site_fract_x
_atom_site_fract_y
_atom_site_fract_z
Si Si1 0.825045 0.823437 0.629060
Si Si2 0.325637 0.674364 0.257258
Si Si3 0.319799 0.680199 0.757258
Si Si4 0.669198 0.323343 0.514302
Si Si5 0.823439 0.825046 0.385456
Si Si6 0.323343 0.669196 0.500213
Si Si7 0.323232 0.142539 0.379050
Si Si8 0.323229 0.857460 0.885465
O O1 0.731668 0.760458 0.569486
O O2 0.759553 0.755671 0.694372
O O3 0.992147 0.766117 0.620617
O O4 0.819099 0.999999 0.632259
O O5 0.501380 0.698804 0.265225
O O6 0.268331 0.760456 0.195029
O O7 0.301203 0.498620 0.249292
O O8 0.301220 0.506954 0.774587
O O9 0.493044 0.698783 0.739928
O O10 0.221589 0.716575 0.695717
O O11 0.283422 0.778408 0.818799
O O12 0.759553 0.244325 0.570143
O O13 0.703094 0.252111 0.445179
O O14 0.766120 0.992148 0.393898
O O15 0.252109 0.703091 0.569336
O O16 0.500002 0.110933 0.382258
#
# Coordination Sequence:
#
# PCOD9541656 Si02
#       8
#     4   4   4   4   4   4   4   4
#     4  12  25  39  57  88 126 158 192 238 296 353
#     4  11  22  41  66  88 114 153 202 247 290 346
#     4   9  20  39  64  90 114 151 202 249 290 342
#     4  10  21  40  65  89 114 152 202 248 290 344
#     4  12  25  39  57  88 126 158 192 238 296 353
#     4  10  21  40  65  89 114 152 202 248 290 344
#     4  10  21  39  61  87 120 155 194 241 294 349
#     4  10  21  39  61  87 120 155 194 241 294 349
#
# _framework density 18.809868000000002
#
# number of rings (size 3 to 8) (size 9 to 14) (size 15 to 20)
#    0.000    1.500    0.000    5.250    0.000    9.000 
#    0.000    2.500    0.000    0.000    0.000    0.000 
#    0.000    0.000    0.000    0.000    0.000    0.000 
#
# Total GULP energy -178955.417428 kJ/mol
# GULP energy per Si atom -5592.356795 kJ/mol
# Density = 1.876706 g / cm^3
# Si number density = 18.809868 Si / 1000 Ang^3
#
#
#
# Elastic Constant Matrix: (Units=GPa)
#
#
# Indices 1 2 3 4 5 6 
#
# 1 109.5520 88.1376 76.5097 0.0000 0.0000 0.0001
# 2 88.1376 109.5520 76.5097 0.0000 0.0000 -0.0001
# 3 76.5097 76.5097 134.3201 0.0000 0.0000 0.0000
# 4 0.0000 0.0000 0.0000 6.6842 0.0000 0.0000
# 5 0.0000 0.0000 0.0000 0.0000 6.6842 0.0000
# 6 0.0001 -0.0001 0.0000 0.0000 0.0000 28.5061
#
#
#
# Elastic Compliance Matrix: (Units=1/GPa)
#
#
# Indices 1 2 3 4 5 6 
#
# 1 0.027873 -0.018825 -0.005153 0.000000 0.000000 0.000000
# 2 -0.018825 0.027873 -0.005153 0.000000 0.000000 0.000000
# 3 -0.005153 -0.005153 0.013316 0.000000 0.000000 0.000000
# 4 0.000000 0.000000 0.000000 0.149607 0.000000 0.000000
# 5 0.000000 0.000000 0.000000 0.000000 0.149607 0.000000
# 6 0.000000 0.000000 0.000000 0.000000 0.000000 0.035080
#
#
# Mechanical properties :
#
#
# Convention : Reuss Voigt Hill
#
# Bulk Modulus (GPa) = 92.62043 92.85980 92.74012
# Shear Modulus (GPa) = 10.74763 15.85935 13.30349
#
# Velocity S-wave (km/s) = 2.39295 2.90684 2.66232
# Velocity P-wave (km/s) = 7.54866 7.79365 7.67213
#
# Compressibility (1/GPa) = 0.01079675
#
# Stress axis : x y z
#
# Youngs Moduli (GPa) = 35.87766 35.87766 75.09855
#
# Poissons Ratio (x) = 0.67540 0.38702
# Poissons Ratio (y) = 0.67540 0.38702
# Poissons Ratio (z) = 0.18490 0.18490
#
# Static dielectric constant tensor:
#      x y z
#    x 1.627030 0.000000 0.000000 
#    y 0.000000 1.627030 0.000000 
#    z 0.000000 0.000000 1.617900 
# 
# From -- ./inp_files/1503.got.cif
#   From: 2010.05.17/outbox.cif.g08.bks.cpg/sg78_cif.got.tgz:1503.got - 2010.06.03 18:45:56.
