data_PCOD9541615
_publ_section_title
;
Structure prediction by ZEFSAII (Michael W. Deem and Ramdas Pophale) SiO2 
 PCOD9541615
Probable space group: P 43
;
_chemical_formula_sum "Si O2"
_cell_formula_units_Z 28
_cell_length_a 14.088576
_cell_length_b 14.088576
_cell_length_c 5.331366
_cell_angle_alpha 90.000000
_cell_angle_beta 90.000000
_cell_angle_gamma 90.000000
_cell_volume 1058.212034
_symmetry_space_group_name_H-M "P 43"
_symmetry_group_IT_number 78
_symmetry_cell_setting 'tetragonal'
loop_
_space_group_symop_operation_xyz
x,y,z
-y,x,3/4+z
-x,-y,1/2+z
y,-x,1/4+z
loop_
_atom_site_type_symbol
_atom_site_label
_atom_site_fract_x
_atom_site_fract_y
_atom_site_fract_z
Si Si1 0.722921 0.922028 0.936140
Si Si2 0.895855 0.704876 0.405019
Si Si3 0.620434 0.729659 0.012392
Si Si4 0.589150 0.617980 0.489467
Si Si5 0.049908 0.430189 0.481379
Si Si6 0.908644 0.107279 0.532961
Si Si7 0.477501 0.853103 0.335679
O O1 0.714107 0.990454 0.698429
O O2 0.694771 0.812367 0.939777
O O3 0.828642 0.930135 0.042338
O O4 0.651856 0.980205 0.118378
O O5 0.855785 0.809783 0.396960
O O6 0.842960 0.636388 0.602280
O O7 0.891349 0.634997 0.171315
O O8 0.649730 0.659257 0.248964
O O9 0.537282 0.788300 0.159233
O O10 0.593913 0.677962 0.750429
O O11 0.486197 0.611951 0.351940
O O12 0.135070 0.499583 0.377987
O O13 0.965992 0.506276 0.534395
O O14 0.999802 0.108472 0.703816
#
# Coordination Sequence:
#
# PCOD9541615 Si02
#       7
#     4   4   4   4   4   4   4
#     4  10  25  45  67 104 149 191 255 334 395 454
#     4  11  23  41  70 100 141 200 252 320 392 464
#     4  11  27  45  81 120 154 201 252 339 410 481
#     4  12  27  52  82 107 156 206 256 305 393 503
#     4  10  19  39  66 100 139 192 232 307 394 459
#     4  12  25  45  69  97 144 205 270 313 384 465
#     4  10  22  37  71 106 149 183 245 306 396 476
#
# _framework density 26.459727000000001
#
# number of rings (size 3 to 8) (size 9 to 14) (size 15 to 20)
#    0.000    1.143    2.857    2.571    6.000    2.286 
#    0.000    0.000    0.000    0.000    0.000    0.000 
#    0.000    0.000    0.000    0.000    0.000    0.000 
#
# Total GULP energy -155971.897653 kJ/mol
# GULP energy per Si atom -5570.424916 kJ/mol
# Density = 2.639950 g / cm^3
# Si number density = 26.459727 Si / 1000 Ang^3
#
#
#
# Elastic Constant Matrix: (Units=GPa)
#
#
# Indices 1 2 3 4 5 6 
#
# 1 88.8172 -6.8526 18.7108 0.0000 0.0000 0.3910
# 2 -6.8526 88.8172 18.7108 0.0000 0.0000 -0.3910
# 3 18.7108 18.7108 97.2365 0.0000 0.0000 0.0000
# 4 0.0000 0.0000 0.0000 37.5875 0.0000 0.0000
# 5 0.0000 0.0000 0.0000 0.0000 37.5875 0.0000
# 6 0.3910 -0.3910 0.0000 0.0000 0.0000 20.0075
#
#
#
# Elastic Compliance Matrix: (Units=1/GPa)
#
#
# Indices 1 2 3 4 5 6 
#
# 1 0.011915 0.001461 -0.002574 0.000000 0.000000 -0.000204
# 2 0.001461 0.011915 -0.002574 0.000000 0.000000 0.000204
# 3 -0.002574 -0.002574 0.011275 0.000000 0.000000 0.000000
# 4 0.000000 0.000000 0.000000 0.026605 0.000000 0.000000
# 5 0.000000 0.000000 0.000000 0.000000 0.026605 0.000000
# 6 -0.000204 0.000204 0.000000 0.000000 0.000000 0.049989
#
#
# Mechanical properties :
#
#
# Convention : Reuss Voigt Hill
#
# Bulk Modulus (GPa) = 36.06133 37.33433 36.69783
# Shear Modulus (GPa) = 32.27464 35.32330 33.79897
#
# Velocity S-wave (km/s) = 3.49630 3.65771 3.57791
# Velocity P-wave (km/s) = 5.47332 5.65499 5.56489
#
# Compressibility (1/GPa) = 0.02773053
#
# Stress axis : x y z
#
# Youngs Moduli (GPa) = 83.92861 83.92861 88.69386
#
# Poissons Ratio (x) = -0.12259 0.22828
# Poissons Ratio (y) = -0.12259 0.22828
# Poissons Ratio (z) = 0.21602 0.21602
#
# Static dielectric constant tensor:
#      x y z
#    x 2.111670 0.000000 0.000000 
#    y 0.000000 2.111670 0.000000 
#    z 0.000000 0.000000 2.861820 
# 
# From -- ./inp_files/236.got.cif
#   From: 2010.05.17/outbox.cif.g08.bks.cpg/sg78_cif.got.tgz:236.got - 2010.06.03 18:45:56.
