data_PCOD9541302
_publ_section_title
;
Structure prediction by ZEFSAII (Michael W. Deem and Ramdas Pophale) SiO2 
 PCOD9541302
Probable space group: P 41
;
_chemical_formula_sum "Si O2"
_cell_formula_units_Z 16
_cell_length_a 10.256582
_cell_length_b 10.256582
_cell_length_c 5.570788
_cell_angle_alpha 90.000000
_cell_angle_beta 90.000000
_cell_angle_gamma 90.000000
_cell_volume 586.032828
_symmetry_space_group_name_H-M "P 41"
_symmetry_group_IT_number 76
_symmetry_cell_setting 'tetragonal'
loop_
_space_group_symop_operation_xyz
x,y,z
-y,x,1/4+z
-x,-y,1/2+z
y,-x,3/4+z
loop_
_atom_site_type_symbol
_atom_site_label
_atom_site_fract_x
_atom_site_fract_y
_atom_site_fract_z
Si Si1 0.186868 0.013242 0.016180
Si Si2 0.660475 0.088045 0.916234
Si Si3 0.395798 0.153924 0.691920
Si Si4 0.666662 0.592563 0.396603
O O1 0.080864 0.122810 0.072613
O O2 0.212439 0.921296 0.249654
O O3 0.311331 0.089891 0.909146
O O4 0.546268 0.135690 0.743091
O O5 0.628317 0.179541 0.149571
O O6 0.639411 0.936840 0.973477
O O7 0.368073 0.307137 0.676828
O O8 0.558727 0.639564 0.588561
#
# Coordination Sequence:
#
# PCOD9541302 Si02
#       4
#     4   4   4   4
#     4  12  28  44  72 106 142 190 238 308 368 436
#     4  11  23  46  72 102 141 187 242 296 362 438
#     4  11  23  46  72 102 141 187 242 296 362 438
#     4  10  24  44  66 102 142 184 230 294 360 428
#
# _framework density 27.302226999999998
#
# number of rings (size 3 to 8) (size 9 to 14) (size 15 to 20)
#    0.000    1.000    2.500    3.000    7.000    2.000 
#   18.000    0.000    0.000    0.000    0.000    0.000 
#    0.000    0.000    0.000    0.000    0.000    0.000 
#
# Total GULP energy -89417.567448 kJ/mol
# GULP energy per Si atom -5588.597965 kJ/mol
# Density = 2.724009 g / cm^3
# Si number density = 27.302227 Si / 1000 Ang^3
#
#
#
# Elastic Constant Matrix: (Units=GPa)
#
#
# Indices 1 2 3 4 5 6 
#
# 1 97.3209 38.1486 21.7241 0.0000 0.0000 -2.8772
# 2 38.1486 97.3209 21.7241 0.0000 0.0000 2.8772
# 3 21.7241 21.7241 63.7091 0.0000 0.0000 0.0000
# 4 0.0000 0.0000 0.0000 34.5570 0.0000 0.0000
# 5 0.0000 0.0000 0.0000 0.0000 34.5570 0.0000
# 6 -2.8772 2.8772 0.0000 0.0000 0.0000 45.9524
#
#
#
# Elastic Compliance Matrix: (Units=1/GPa)
#
#
# Indices 1 2 3 4 5 6 
#
# 1 0.012646 -0.004358 -0.002826 0.000000 0.000000 0.001065
# 2 -0.004358 0.012646 -0.002826 0.000000 0.000000 -0.001065
# 3 -0.002826 -0.002826 0.017624 0.000000 0.000000 0.000000
# 4 0.000000 0.000000 0.000000 0.028938 0.000000 0.000000
# 5 0.000000 0.000000 0.000000 0.000000 0.028938 0.000000
# 6 0.001065 -0.001065 0.000000 0.000000 0.000000 0.021895
#
#
# Mechanical properties :
#
#
# Convention : Reuss Voigt Hill
#
# Bulk Modulus (GPa) = 43.67696 46.83826 45.25761
# Shear Modulus (GPa) = 33.25856 34.79689 34.02773
#
# Velocity S-wave (km/s) = 3.49401 3.57390 3.53418
# Velocity P-wave (km/s) = 5.68417 5.85005 5.76770
#
# Compressibility (1/GPa) = 0.02289537
#
# Stress axis : x y z
#
# Youngs Moduli (GPa) = 79.07797 79.07797 56.74163
#
# Poissons Ratio (x) = 0.34459 0.16036
# Poissons Ratio (y) = 0.34459 0.16036
# Poissons Ratio (z) = 0.22349 0.22349
#
# Static dielectric constant tensor:
#      x y z
#    x 2.121020 0.000000 0.000000 
#    y 0.000000 2.121020 0.000000 
#    z 0.000000 0.000000 2.124940 
# 
# From -- ./inp_files/82.got.cif
#   From: 2010.05.17/outbox.cif.g08.bks.cpg/sg76_cif.got.tgz:82.got - 2010.06.03 18:43:17.
