data_PCOD9541885
_publ_section_title
;
Structure prediction by ZEFSAII (Michael W. Deem and Ramdas Pophale) SiO2 
 PCOD9541885
Probable space group: I 4
;
_chemical_formula_sum "Si O2"
_cell_formula_units_Z 60
_cell_length_a 14.076521
_cell_length_b 14.076521
_cell_length_c 13.307717
_cell_angle_alpha 90.000000
_cell_angle_beta 90.000000
_cell_angle_gamma 90.000000
_cell_volume 2636.903410
_symmetry_space_group_name_H-M "I 4"
_symmetry_group_IT_number 79
_symmetry_cell_setting 'tetragonal'
loop_
_space_group_symop_operation_xyz
x,y,z
-y,x,z
-x,-y,z
y,-x,z
1/2+x,1/2+y,1/2+z
1/2-y,1/2+x,1/2+z
1/2-x,1/2-y,1/2+z
1/2+y,1/2-x,1/2+z
loop_
_atom_site_type_symbol
_atom_site_label
_atom_site_fract_x
_atom_site_fract_y
_atom_site_fract_z
Si Si1 0.143942 0.658082 0.492050
Si Si2 0.500000 0.000000 0.941744
Si Si3 0.842929 0.786950 0.804586
Si Si4 0.679942 0.897570 0.918314
Si Si5 0.641067 0.564009 0.718214
Si Si6 0.151614 0.985503 0.945798
Si Si7 0.792535 0.268189 0.107837
Si Si8 0.051933 0.854807 0.459925
O O1 0.196684 0.659088 0.381854
O O2 0.229455 0.678239 0.570397
O O3 0.085554 0.755839 0.502220
O O4 0.067061 0.573911 0.501317
O O5 0.578177 0.935629 0.883717
O O6 0.751672 0.850747 0.837990
O O7 0.942492 0.838338 0.831888
O O8 0.830534 0.760282 0.690364
O O9 0.740542 0.985704 0.965525
O O10 0.674133 0.823040 0.009069
O O11 0.545117 0.621662 0.691897
O O12 0.727539 0.615563 0.665341
O O13 0.651968 0.562116 0.838617
O O14 0.080642 0.902694 0.979492
O O15 0.944819 0.882928 0.487197
#
# Coordination Sequence:
#
# PCOD9541885 Si02
#       8
#     8   4   8   8   8   8   8   8
#     4  11  24  41  65  93 136 185 224 282 340 415
#     4  12  26  46  64 102 146 188 234 268 356 424
#     4  10  21  45  67  96 130 178 229 278 347 403
#     4  10  24  42  67  94 136 181 224 282 334 409
#     4   9  19  34  61  96 124 156 216 286 340 394
#     4   9  18  39  71  96 124 168 224 283 334 395
#     4  11  24  41  65  95 138 179 228 280 342 414
#     4   9  19  39  67  94 118 160 224 283 338 389
#
# _framework density 22.753962999999999
#
# number of rings (size 3 to 8) (size 9 to 14) (size 15 to 20)
#    0.000    2.000    2.667    0.800    5.600    0.000 
#    4.800    5.333    0.000    3.200    0.000    0.000 
#    0.000    0.000    0.000    0.000    0.000    0.000 
#
# Total GULP energy -167152.925587 kJ/mol
# GULP energy per Si atom -5571.764186 kJ/mol
# Density = 2.270217 g / cm^3
# Si number density = 22.753963 Si / 1000 Ang^3
#
#
#
# Elastic Constant Matrix: (Units=GPa)
#
#
# Indices 1 2 3 4 5 6 
#
# 1 103.4921 45.0715 14.2770 0.0000 0.0000 -4.9650
# 2 45.0715 103.4921 14.2770 0.0000 0.0000 4.9650
# 3 14.2770 14.2770 63.1541 0.0000 0.0000 0.0000
# 4 0.0000 0.0000 0.0000 20.9127 0.0000 0.0000
# 5 0.0000 0.0000 0.0000 0.0000 20.9127 0.0000
# 6 -4.9650 4.9650 0.0000 0.0000 0.0000 38.6562
#
#
#
# Elastic Compliance Matrix: (Units=1/GPa)
#
#
# Indices 1 2 3 4 5 6 
#
# 1 0.012268 -0.005231 -0.001591 0.000000 0.000000 0.002248
# 2 -0.005231 0.012268 -0.001591 0.000000 0.000000 -0.002248
# 3 -0.001591 -0.001591 0.016554 0.000000 0.000000 0.000000
# 4 0.000000 0.000000 0.000000 0.047818 0.000000 0.000000
# 5 0.000000 0.000000 0.000000 0.000000 0.047818 0.000000
# 6 0.002248 -0.002248 0.000000 0.000000 0.000000 0.026446
#
#
# Mechanical properties :
#
#
# Convention : Reuss Voigt Hill
#
# Bulk Modulus (GPa) = 41.21315 46.37657 43.79486
# Shear Modulus (GPa) = 26.58368 29.19717 27.89042
#
# Velocity S-wave (km/s) = 3.42176 3.58602 3.50485
# Velocity P-wave (km/s) = 5.81060 6.12961 5.97223
#
# Compressibility (1/GPa) = 0.02426410
#
# Stress axis : x y z
#
# Youngs Moduli (GPa) = 81.51238 81.51238 60.41004
#
# Poissons Ratio (x) = 0.42641 0.09610
# Poissons Ratio (y) = 0.42641 0.09610
# Poissons Ratio (z) = 0.12967 0.12967
#
# Static dielectric constant tensor:
#      x y z
#    x 1.911820 0.000000 0.000000 
#    y 0.000000 1.911820 0.000000 
#    z 0.000000 0.000000 1.851960 
# 
# From -- ./inp_files/1444.got.cif
#   From: 2010.05.17/outbox.cif.g08.bks.cpg/sg79_cif.got.tgz:1444.got - 2010.06.03 18:47:27.
