data_PCOD9541256
_publ_section_title
;
Structure prediction by ZEFSAII (Michael W. Deem and Ramdas Pophale) SiO2 
 PCOD9541256
Probable space group: P 41
;
_chemical_formula_sum "Si O2"
_cell_formula_units_Z 28
_cell_length_a 10.996314
_cell_length_b 10.996314
_cell_length_c 9.749096
_cell_angle_alpha 90.000000
_cell_angle_beta 90.000000
_cell_angle_gamma 90.000000
_cell_volume 1178.850175
_symmetry_space_group_name_H-M "P 41"
_symmetry_group_IT_number 76
_symmetry_cell_setting 'tetragonal'
loop_
_space_group_symop_operation_xyz
x,y,z
-y,x,1/4+z
-x,-y,1/2+z
y,-x,3/4+z
loop_
_atom_site_type_symbol
_atom_site_label
_atom_site_fract_x
_atom_site_fract_y
_atom_site_fract_z
Si Si1 0.823190 0.272285 0.345440
Si Si2 0.082563 0.392577 0.070191
Si Si3 0.394780 0.439292 0.442689
Si Si4 0.458322 0.190838 0.869718
Si Si5 0.645790 0.837718 0.903271
Si Si6 0.671898 0.087990 0.027022
Si Si7 0.926052 0.111383 0.149872
O O1 0.726601 0.161319 0.354992
O O2 0.768690 0.380804 0.252788
O O3 0.857308 0.311255 0.497275
O O4 0.939701 0.221350 0.260656
O O5 0.134286 0.501829 0.159442
O O6 0.936272 0.398384 0.073909
O O7 0.103297 0.414016 0.908840
O O8 0.509364 0.432227 0.545177
O O9 0.296211 0.531294 0.508399
O O10 0.338850 0.303810 0.435121
O O11 0.596527 0.152419 0.908610
O O12 0.700082 0.946552 0.994010
O O13 0.797786 0.142699 0.077363
O O14 0.918347 0.005059 0.265110
#
# Coordination Sequence:
#
# PCOD9541256 Si02
#       7
#     4   4   4   4   4   4   4
#     4  11  23  43  76 104 145 187 244 302 364 434
#     4  10  22  44  71 102 146 189 241 291 367 437
#     4  12  30  45  74 107 151 195 245 310 373 445
#     4  11  25  45  72 105 143 197 242 298 376 443
#     4  11  24  44  70 110 143 188 247 301 360 444
#     4  10  23  44  73 102 143 191 240 300 365 442
#     4  11  27  47  72 104 147 193 241 306 371 437
#
# _framework density 23.751954999999999
#
# number of rings (size 3 to 8) (size 9 to 14) (size 15 to 20)
#    0.000    1.143    1.429    3.429   12.000    1.143 
#    5.143    0.000    0.000    0.000    0.000    0.000 
#    0.000    0.000    0.000    0.000    0.000    0.000 
#
# Total GULP energy -156204.215868 kJ/mol
# GULP energy per Si atom -5578.721995 kJ/mol
# Density = 2.369789 g / cm^3
# Si number density = 23.751955 Si / 1000 Ang^3
#
#
#
# Elastic Constant Matrix: (Units=GPa)
#
#
# Indices 1 2 3 4 5 6 
#
# 1 81.0227 -1.1560 11.6022 0.0000 0.0000 -1.3698
# 2 -1.1560 81.0227 11.6022 0.0000 0.0000 1.3698
# 3 11.6022 11.6022 68.0316 0.0000 0.0000 0.0000
# 4 0.0000 0.0000 0.0000 36.4355 0.0000 0.0000
# 5 0.0000 0.0000 0.0000 0.0000 36.4355 0.0000
# 6 -1.3698 1.3698 0.0000 0.0000 0.0000 16.8986
#
#
#
# Elastic Compliance Matrix: (Units=1/GPa)
#
#
# Indices 1 2 3 4 5 6 
#
# 1 0.012688 0.000486 -0.002247 0.000000 0.000000 0.000989
# 2 0.000486 0.012688 -0.002247 0.000000 0.000000 -0.000989
# 3 -0.002247 -0.002247 0.015465 0.000000 0.000000 0.000000
# 4 0.000000 0.000000 0.000000 0.027446 0.000000 0.000000
# 5 0.000000 0.000000 0.000000 0.000000 0.027446 0.000000
# 6 0.000989 -0.000989 0.000000 0.000000 0.000000 0.059337
#
#
# Mechanical properties :
#
#
# Convention : Reuss Voigt Hill
#
# Bulk Modulus (GPa) = 30.46367 30.46374 30.46370
# Shear Modulus (GPa) = 28.73147 31.82252 30.27699
#
# Velocity S-wave (km/s) = 3.48177 3.66428 3.57419
# Velocity P-wave (km/s) = 5.38676 5.54583 5.46687
#
# Compressibility (1/GPa) = 0.03282599
#
# Stress axis : x y z
#
# Youngs Moduli (GPa) = 78.81718 78.81718 64.66069
#
# Poissons Ratio (x) = -0.03831 0.14527
# Poissons Ratio (y) = -0.03831 0.14527
# Poissons Ratio (z) = 0.17707 0.17707
#
# Static dielectric constant tensor:
#      x y z
#    x 1.952300 0.000000 0.000000 
#    y 0.000000 1.952300 0.000000 
#    z 0.000000 0.000000 1.899580 
# 
# From -- ./inp_files/636.got.cif
#   From: 2010.05.17/outbox.cif.g08.bks.cpg/sg76_cif.got.tgz:636.got - 2010.06.03 18:43:17.
