data_PCOD9541138
_publ_section_title
;
Structure prediction by ZEFSAII (Michael W. Deem and Ramdas Pophale) SiO2 
 PCOD9541138
Probable space group: P 41
;
_chemical_formula_sum "Si O2"
_cell_formula_units_Z 32
_cell_length_a 8.052441
_cell_length_b 8.052441
_cell_length_c 18.666393
_cell_angle_alpha 90.000000
_cell_angle_beta 90.000000
_cell_angle_gamma 90.000000
_cell_volume 1210.362635
_symmetry_space_group_name_H-M "P 41"
_symmetry_group_IT_number 76
_symmetry_cell_setting 'tetragonal'
loop_
_space_group_symop_operation_xyz
x,y,z
-y,x,1/4+z
-x,-y,1/2+z
y,-x,3/4+z
loop_
_atom_site_type_symbol
_atom_site_label
_atom_site_fract_x
_atom_site_fract_y
_atom_site_fract_z
Si Si1 0.013898 0.493949 0.545710
Si Si2 0.153593 0.814010 0.485059
Si Si3 0.660181 0.409651 0.621101
Si Si4 0.953560 0.007891 0.111833
Si Si5 0.201972 0.421443 0.246687
Si Si6 0.920490 0.308562 0.416094
Si Si7 0.283400 0.501286 0.803842
Si Si8 0.636668 0.854956 0.429069
O O1 0.837860 0.458111 0.584292
O O2 0.036102 0.367683 0.480816
O O3 0.144183 0.518035 0.610078
O O4 0.021882 0.672553 0.506539
O O5 0.327455 0.751046 0.515418
O O6 0.097009 0.975359 0.529939
O O7 0.140459 0.864924 0.403052
O O8 0.596731 0.246244 0.580099
O O9 0.697677 0.433361 0.705024
O O10 0.528145 0.547899 0.596681
O O11 0.150274 0.010125 0.123340
O O12 0.890016 0.179297 0.149552
O O13 0.254634 0.250940 0.206045
O O14 0.009898 0.429381 0.226336
O O15 0.857896 0.449377 0.361358
O O16 0.290513 0.627572 0.736233
#
# Coordination Sequence:
#
# PCOD9541138 Si02
#       8
#     4   4   4   4   4   4   4   4
#     4   9  18  35  57  79 105 138 180 225 269 320
#     4  11  22  35  54  83 116 144 179 226 273 322
#     4   9  17  33  55  76 100 135 176 217 263 317
#     4  10  20  37  59  80 107 146 187 224 271 326
#     4   8  16  31  53  77  98 129 178 222 258 309
#     4   9  18  35  59  80 100 137 187 225 262 319
#     4  11  21  33  52  80 111 141 176 219 268 321
#     4   9  18  33  53  77 105 142 179 218 268 320
#
# _framework density 26.438359999999999
#
# number of rings (size 3 to 8) (size 9 to 14) (size 15 to 20)
#    0.000    2.500    0.000    4.500    0.000    6.000 
#    0.000    6.250    0.000    0.000    0.000    0.000 
#    0.000    0.000    0.000    0.000    0.000    0.000 
#
# Total GULP energy -179054.301018 kJ/mol
# GULP energy per Si atom -5595.446907 kJ/mol
# Density = 2.637818 g / cm^3
# Si number density = 26.438360 Si / 1000 Ang^3
#
#
#
# Elastic Constant Matrix: (Units=GPa)
#
#
# Indices 1 2 3 4 5 6 
#
# 1 76.1291 0.2921 5.8362 0.0000 0.0000 1.2559
# 2 0.2921 76.1291 5.8362 0.0000 0.0000 -1.2559
# 3 5.8362 5.8362 58.7816 0.0000 0.0000 0.0000
# 4 0.0000 0.0000 0.0000 35.0680 0.0000 0.0000
# 5 0.0000 0.0000 0.0000 0.0000 35.0680 0.0000
# 6 1.2559 -1.2559 0.0000 0.0000 0.0000 3.9397
#
#
#
# Elastic Compliance Matrix: (Units=1/GPa)
#
#
# Indices 1 2 3 4 5 6 
#
# 1 0.013307 -0.000020 -0.001319 0.000000 0.000000 -0.004248
# 2 -0.000020 0.013307 -0.001319 0.000000 0.000000 0.004248
# 3 -0.001319 -0.001319 0.017274 0.000000 0.000000 0.000000
# 4 0.000000 0.000000 0.000000 0.028516 0.000000 0.000000
# 5 0.000000 0.000000 0.000000 0.000000 0.028516 0.000000
# 6 -0.004248 0.004248 0.000000 0.000000 0.000000 0.256536
#
#
# Mechanical properties :
#
#
# Convention : Reuss Voigt Hill
#
# Bulk Modulus (GPa) = 25.92620 26.10764 26.01692
# Shear Modulus (GPa) = 13.31097 28.08685 20.69891
#
# Velocity S-wave (km/s) = 2.24625 3.26291 2.80109
# Velocity P-wave (km/s) = 4.06880 4.90834 4.50815
#
# Compressibility (1/GPa) = 0.03857102
#
# Stress axis : x y z
#
# Youngs Moduli (GPa) = 75.14916 75.14916 57.89025
#
# Poissons Ratio (x) = 0.00150 0.07637
# Poissons Ratio (y) = 0.00150 0.07637
# Poissons Ratio (z) = 0.09914 0.09914
#
# Static dielectric constant tensor:
#      x y z
#    x 2.103990 0.000000 0.000000 
#    y 0.000000 2.103990 0.000000 
#    z 0.000000 0.000000 2.064180 
# 
# From -- ./inp_files/1415.got.cif
#   From: 2010.05.17/outbox.cif.g08.bks.cpg/sg76_cif.got.tgz:1415.got - 2010.06.03 18:43:17.
