data_PCOD9541227
_publ_section_title
;
Structure prediction by ZEFSAII (Michael W. Deem and Ramdas Pophale) SiO2 
 PCOD9541227
Probable space group: P 41
;
_chemical_formula_sum "Si O2"
_cell_formula_units_Z 24
_cell_length_a 14.592132
_cell_length_b 14.592132
_cell_length_c 5.241248
_cell_angle_alpha 90.000000
_cell_angle_beta 90.000000
_cell_angle_gamma 90.000000
_cell_volume 1116.020594
_symmetry_space_group_name_H-M "P 41"
_symmetry_group_IT_number 76
_symmetry_cell_setting 'tetragonal'
loop_
_space_group_symop_operation_xyz
x,y,z
-y,x,1/4+z
-x,-y,1/2+z
y,-x,3/4+z
loop_
_atom_site_type_symbol
_atom_site_label
_atom_site_fract_x
_atom_site_fract_y
_atom_site_fract_z
Si Si1 0.770652 0.542461 0.441350
Si Si2 0.922600 0.613837 0.030135
Si Si3 0.709812 0.770107 0.191805
Si Si4 0.275065 0.800783 0.948519
Si Si5 0.423959 0.607505 0.375281
Si Si6 0.100673 0.575116 0.274660
O O1 0.839565 0.587326 0.226573
O O2 0.758326 0.622466 0.652991
O O3 0.671090 0.520057 0.331098
O O4 0.824368 0.458091 0.566885
O O5 0.015690 0.633471 0.176698
O O6 0.895159 0.692685 0.830397
O O7 0.939507 0.519966 0.877721
O O8 0.782308 0.768096 0.422179
O O9 0.660918 0.672049 0.146132
O O10 0.754668 0.785971 0.916120
O O11 0.631052 0.844029 0.236119
O O12 0.397548 0.501754 0.412744
#
# Coordination Sequence:
#
# PCOD9541227 Si02
#       6
#     4   4   4   4   4   4
#     4  10  22  40  58  83 122 163 221 284 336 386
#     4  11  20  42  61  98 121 171 221 294 349 415
#     4  11  25  41  61  86 125 173 222 277 332 398
#     4  10  22  42  59  82 123 169 207 268 341 396
#     4  11  25  37  55  83 118 178 232 269 310 368
#     4  11  24  34  68  90 127 164 233 286 360 401
#
# _framework density 21.504978999999999
#
# number of rings (size 3 to 8) (size 9 to 14) (size 15 to 20)
#    0.000    1.333    5.000    1.000   11.667    0.000 
#    0.000    0.000    0.000    0.000    0.000    0.000 
#    0.000    0.000    5.667    0.167    0.000    0.000 
#
# Total GULP energy -133760.517481 kJ/mol
# GULP energy per Si atom -5573.354895 kJ/mol
# Density = 2.145603 g / cm^3
# Si number density = 21.504979 Si / 1000 Ang^3
#
#
#
# Elastic Constant Matrix: (Units=GPa)
#
#
# Indices 1 2 3 4 5 6 
#
# 1 55.4955 11.7920 15.1744 0.0000 0.0000 -5.0928
# 2 11.7920 55.4955 15.1744 0.0000 0.0000 5.0928
# 3 15.1744 15.1744 101.9028 0.0000 0.0000 0.0000
# 4 0.0000 0.0000 0.0000 19.9565 0.0000 0.0000
# 5 0.0000 0.0000 0.0000 0.0000 19.9565 0.0000
# 6 -5.0928 5.0928 0.0000 0.0000 0.0000 9.1349
#
#
#
# Elastic Compliance Matrix: (Units=1/GPa)
#
#
# Indices 1 2 3 4 5 6 
#
# 1 0.021115 -0.005184 -0.002372 0.000000 0.000000 0.014662
# 2 -0.005184 0.021115 -0.002372 0.000000 0.000000 -0.014662
# 3 -0.002372 -0.002372 0.010520 0.000000 0.000000 0.000000
# 4 0.000000 0.000000 0.000000 0.050109 0.000000 0.000000
# 5 0.000000 0.000000 0.000000 0.000000 0.050109 0.000000
# 6 0.014662 -0.014662 0.000000 0.000000 0.000000 0.125819
#
#
# Mechanical properties :
#
#
# Convention : Reuss Voigt Hill
#
# Bulk Modulus (GPa) = 30.40115 33.01951 31.71033
# Shear Modulus (GPa) = 16.14944 21.19309 18.67126
#
# Velocity S-wave (km/s) = 2.74334 3.14267 2.94977
# Velocity P-wave (km/s) = 4.91956 5.34380 5.13606
#
# Compressibility (1/GPa) = 0.03289350
#
# Stress axis : x y z
#
# Youngs Moduli (GPa) = 47.35939 47.35939 95.05867
#
# Poissons Ratio (x) = 0.24549 0.22552
# Poissons Ratio (y) = 0.24549 0.22552
# Poissons Ratio (z) = 0.11235 0.11235
#
# Static dielectric constant tensor:
#      x y z
#    x 1.802890 0.000000 0.000000 
#    y 0.000000 1.802890 0.000000 
#    z 0.000000 0.000000 1.911170 
# 
# From -- ./inp_files/165.got.cif
#   From: 2010.05.17/outbox.cif.g08.bks.cpg/sg76_cif.got.tgz:165.got - 2010.06.03 18:43:17.
