data_PCOD9541147
_publ_section_title
;
Structure prediction by ZEFSAII (Michael W. Deem and Ramdas Pophale) SiO2 
 PCOD9541147
Probable space group: P 41
;
_chemical_formula_sum "Si O2"
_cell_formula_units_Z 28
_cell_length_a 8.013561
_cell_length_b 8.013561
_cell_length_c 15.399695
_cell_angle_alpha 90.000000
_cell_angle_beta 90.000000
_cell_angle_gamma 90.000000
_cell_volume 988.924676
_symmetry_space_group_name_H-M "P 41"
_symmetry_group_IT_number 76
_symmetry_cell_setting 'tetragonal'
loop_
_space_group_symop_operation_xyz
x,y,z
-y,x,1/4+z
-x,-y,1/2+z
y,-x,3/4+z
loop_
_atom_site_type_symbol
_atom_site_label
_atom_site_fract_x
_atom_site_fract_y
_atom_site_fract_z
Si Si1 0.454629 0.619565 0.453140
Si Si2 0.018020 0.077114 0.202648
Si Si3 0.218014 0.715069 0.601792
Si Si4 0.942189 0.516799 0.509443
Si Si5 0.849503 0.504035 0.847830
Si Si6 0.748828 0.601952 0.669567
Si Si7 0.114591 0.803911 0.110194
O O1 0.379730 0.677112 0.544604
O O2 0.579691 0.762785 0.426791
O O3 0.296900 0.611308 0.386575
O O4 0.551180 0.439953 0.445871
O O5 0.171268 0.212588 0.183654
O O6 0.021006 0.105565 0.306433
O O7 0.849970 0.127339 0.153483
O O8 0.039770 0.876777 0.197130
O O9 0.071579 0.653734 0.540372
O O10 0.781544 0.564577 0.568208
O O11 0.978714 0.338700 0.557022
O O12 0.982039 0.503042 0.406706
O O13 0.855186 0.497191 0.742950
O O14 0.774776 0.689358 0.868301
#
# Coordination Sequence:
#
# PCOD9541147 Si02
#       7
#     4   4   4   4   4   4   4
#     4  11  20  40  69  97 136 180 230 287 345 424
#     4  10  24  41  64  99 140 175 228 291 353 413
#     4  10  24  41  64  99 140 175 228 291 353 413
#     4  10  21  40  70 100 138 182 236 284 350 424
#     4  10  20  38  68 106 132 180 232 286 340 414
#     4  10  21  40  70 100 138 182 236 284 350 424
#     4  11  20  40  69  97 136 180 230 287 345 424
#
# _framework density 28.313585
#
# number of rings (size 3 to 8) (size 9 to 14) (size 15 to 20)
#    0.000    1.714    4.286    0.000    0.000    2.286 
#    0.000    0.000   31.429    0.000    0.000    0.000 
#    0.000    0.000    0.000    0.000    0.000    0.000 
#
# Total GULP energy -156181.234305 kJ/mol
# GULP energy per Si atom -5577.901225 kJ/mol
# Density = 2.824914 g / cm^3
# Si number density = 28.313585 Si / 1000 Ang^3
#
#
#
# Elastic Constant Matrix: (Units=GPa)
#
#
# Indices 1 2 3 4 5 6 
#
# 1 89.7198 36.0899 24.5837 0.0000 0.0000 2.0341
# 2 36.0899 89.7198 24.5837 0.0000 0.0000 -2.0341
# 3 24.5837 24.5837 90.1776 0.0000 0.0000 0.0000
# 4 0.0000 0.0000 0.0000 47.9298 0.0000 0.0000
# 5 0.0000 0.0000 0.0000 0.0000 47.9298 0.0000
# 6 2.0341 -2.0341 0.0000 0.0000 0.0000 46.1387
#
#
#
# Elastic Compliance Matrix: (Units=1/GPa)
#
#
# Indices 1 2 3 4 5 6 
#
# 1 0.013803 -0.004906 -0.002425 0.000000 0.000000 -0.000825
# 2 -0.004906 0.013803 -0.002425 0.000000 0.000000 0.000825
# 3 -0.002425 -0.002425 0.012412 0.000000 0.000000 0.000000
# 4 0.000000 0.000000 0.000000 0.020864 0.000000 0.000000
# 5 0.000000 0.000000 0.000000 0.000000 0.020864 0.000000
# 6 -0.000825 0.000825 0.000000 0.000000 0.000000 0.021747
#
#
# Mechanical properties :
#
#
# Convention : Reuss Voigt Hill
#
# Bulk Modulus (GPa) = 48.77298 48.90350 48.83824
# Shear Modulus (GPa) = 38.50924 40.69031 39.59977
#
# Velocity S-wave (km/s) = 3.69195 3.79506 3.74386
# Velocity P-wave (km/s) = 5.95293 6.04259 5.99793
#
# Compressibility (1/GPa) = 0.02050316
#
# Stress axis : x y z
#
# Youngs Moduli (GPa) = 72.45009 72.45009 80.57015
#
# Poissons Ratio (x) = 0.35546 0.19540
# Poissons Ratio (y) = 0.35546 0.19540
# Poissons Ratio (z) = 0.17571 0.17571
#
# Static dielectric constant tensor:
#      x y z
#    x 2.255140 0.000000 0.000000 
#    y 0.000000 2.255140 0.000000 
#    z 0.000000 0.000000 2.265150 
# 
# From -- ./inp_files/1288.got.cif
#   From: 2010.05.17/outbox.cif.g08.bks.cpg/sg76_cif.got.tgz:1288.got - 2010.06.03 18:43:17.
