data_PCOD9541072
_publ_section_title
;
Structure prediction by ZEFSAII (Michael W. Deem and Ramdas Pophale) SiO2 
 PCOD9541072
Probable space group: P 41
;
_chemical_formula_sum "Si O2"
_cell_formula_units_Z 32
_cell_length_a 18.466191
_cell_length_b 18.466191
_cell_length_c 5.671770
_cell_angle_alpha 90.000000
_cell_angle_beta 90.000000
_cell_angle_gamma 90.000000
_cell_volume 1934.074761
_symmetry_space_group_name_H-M "P 41"
_symmetry_group_IT_number 76
_symmetry_cell_setting 'tetragonal'
loop_
_space_group_symop_operation_xyz
x,y,z
-y,x,1/4+z
-x,-y,1/2+z
y,-x,3/4+z
loop_
_atom_site_type_symbol
_atom_site_label
_atom_site_fract_x
_atom_site_fract_y
_atom_site_fract_z
Si Si1 0.794528 0.371336 0.210500
Si Si2 0.928204 0.419513 0.989771
Si Si3 0.717614 0.670856 0.619763
Si Si4 0.293520 0.511417 0.458272
Si Si5 0.925088 0.567325 0.271448
Si Si6 0.174013 0.510217 0.101174
Si Si7 0.590753 0.551608 0.668335
Si Si8 0.375195 0.782611 0.372432
O O1 0.753456 0.308470 0.342858
O O2 0.811589 0.432445 0.400457
O O3 0.874126 0.359816 0.099566
O O4 0.735533 0.409602 0.033272
O O5 0.875586 0.455441 0.799925
O O6 0.001569 0.396474 0.861126
O O7 0.945133 0.487403 0.166379
O O8 0.646069 0.618050 0.621158
O O9 0.761470 0.659475 0.373938
O O10 0.755091 0.660313 0.876888
O O11 0.250150 0.492687 0.217380
O O12 0.375490 0.492601 0.394535
O O13 0.259607 0.452372 0.632496
O O14 0.872974 0.553530 0.493817
O O15 0.868888 0.608997 0.103041
O O16 0.511627 0.583400 0.725443
#
# Coordination Sequence:
#
# PCOD9541072 Si02
#       8
#     4   4   4   4   4   4   4   4
#     4  10  22  35  55  68  96 135 179 219 272 338
#     4  10  20  29  54  79 105 133 156 224 279 350
#     4  11  27  40  57  70  96 142 183 226 274 333
#     4  10  21  34  51  67  91 126 165 220 281 331
#     4  11  18  31  51  82 110 126 167 208 294 342
#     4  10  17  33  51  73 100 130 158 214 270 337
#     4  11  26  36  49  67  88 123 176 242 298 328
#     4  11  23  38  56  74 100 135 170 217 272 331
#
# _framework density 16.545379000000001
#
# number of rings (size 3 to 8) (size 9 to 14) (size 15 to 20)
#    0.000    1.500    5.000    2.250   10.500    0.000 
#    0.000    0.000    0.000    0.000    0.000    0.000 
#    0.000    0.000    0.000    0.000    0.000    0.000 
#
# Total GULP energy -178211.261458 kJ/mol
# GULP energy per Si atom -5569.101921 kJ/mol
# Density = 1.650772 g / cm^3
# Si number density = 16.545379 Si / 1000 Ang^3
#
#
#
# Elastic Constant Matrix: (Units=GPa)
#
#
# Indices 1 2 3 4 5 6 
#
# 1 66.4409 29.6772 21.0716 0.0000 0.0000 2.8093
# 2 29.6772 66.4409 21.0716 0.0000 0.0000 -2.8093
# 3 21.0716 21.0716 66.5239 0.0000 0.0000 0.0000
# 4 0.0000 0.0000 0.0000 19.2843 0.0000 0.0000
# 5 0.0000 0.0000 0.0000 0.0000 19.2843 0.0000
# 6 2.8093 -2.8093 0.0000 0.0000 0.0000 10.4958
#
#
#
# Elastic Compliance Matrix: (Units=1/GPa)
#
#
# Indices 1 2 3 4 5 6 
#
# 1 0.020221 -0.008140 -0.003827 0.000000 0.000000 -0.007591
# 2 -0.008140 0.020221 -0.003827 0.000000 0.000000 0.007591
# 3 -0.003827 -0.003827 0.017457 0.000000 0.000000 0.000000
# 4 0.000000 0.000000 0.000000 0.051856 0.000000 0.000000
# 5 0.000000 0.000000 0.000000 0.000000 0.051856 0.000000
# 6 -0.007591 0.007591 0.000000 0.000000 0.000000 0.099340
#
#
# Mechanical properties :
#
#
# Convention : Reuss Voigt Hill
#
# Bulk Modulus (GPa) = 38.00489 38.11630 38.06060
# Shear Modulus (GPa) = 16.59429 18.31857 17.45643
#
# Velocity S-wave (km/s) = 3.17038 3.33103 3.25170
# Velocity P-wave (km/s) = 6.03504 6.15482 6.09522
#
# Compressibility (1/GPa) = 0.02631240
#
# Stress axis : x y z
#
# Youngs Moduli (GPa) = 49.45263 49.45263 57.28501
#
# Poissons Ratio (x) = 0.40252 0.21923
# Poissons Ratio (y) = 0.40252 0.21923
# Poissons Ratio (z) = 0.18925 0.18925
#
# Static dielectric constant tensor:
#      x y z
#    x 1.600330 0.000000 0.000000 
#    y 0.000000 1.600330 0.000000 
#    z 0.000000 0.000000 1.666650 
# 
# From -- ./inp_files/334.got.cif
#   From: 2010.05.17/outbox.cif.g08.bks.cpg/sg76_cif.got.tgz:334.got - 2010.06.03 18:43:17.
