data_PCOD9541691
_publ_section_title
;
Structure prediction by ZEFSAII (Michael W. Deem and Ramdas Pophale) SiO2 
 PCOD9541691
Probable space group: P 43
;
_chemical_formula_sum "Si O2"
_cell_formula_units_Z 28
_cell_length_a 14.333365
_cell_length_b 14.333365
_cell_length_c 5.886004
_cell_angle_alpha 90.000000
_cell_angle_beta 90.000000
_cell_angle_gamma 90.000000
_cell_volume 1209.252165
_symmetry_space_group_name_H-M "P 43"
_symmetry_group_IT_number 78
_symmetry_cell_setting 'tetragonal'
loop_
_space_group_symop_operation_xyz
x,y,z
-y,x,3/4+z
-x,-y,1/2+z
y,-x,1/4+z
loop_
_atom_site_type_symbol
_atom_site_label
_atom_site_fract_x
_atom_site_fract_y
_atom_site_fract_z
Si Si1 0.959624 0.529339 0.368740
Si Si2 0.893185 0.730735 0.334585
Si Si3 0.711177 0.731916 0.619654
Si Si4 0.764934 0.832393 0.019215
Si Si5 0.860794 0.001834 0.936741
Si Si6 0.623728 0.549529 0.695105
Si Si7 0.572532 0.770015 0.242881
O O1 0.955716 0.639597 0.322087
O O2 0.856728 0.490134 0.423685
O O3 0.009507 0.512601 0.618810
O O4 0.795210 0.704072 0.454885
O O5 0.944337 0.808174 0.485699
O O6 0.853453 0.773053 0.102503
O O7 0.751651 0.818952 0.753690
O O8 0.689190 0.636863 0.756929
O O9 0.616993 0.765728 0.496140
O O10 0.785136 0.939729 0.076367
O O11 0.668685 0.787515 0.107935
O O12 0.929888 0.924661 0.831199
O O13 0.527181 0.596747 0.625509
O O14 0.676575 0.491290 0.492963
#
# Coordination Sequence:
#
# PCOD9541691 Si02
#       7
#     4   4   4   4   4   4   4
#     4  12  29  47  75 111 149 200 259 313 372 459
#     4  11  25  46  71 103 143 192 247 311 381 454
#     4  10  22  46  67 102 141 191 236 302 380 447
#     4  11  25  44  75  99 143 195 239 309 387 457
#     4  12  25  44  71 104 140 182 247 309 380 453
#     4  10  22  41  66 103 140 179 240 300 364 447
#     4  10  24  44  69 102 148 187 246 302 378 447
#
# _framework density 23.154807999999999
#
# number of rings (size 3 to 8) (size 9 to 14) (size 15 to 20)
#    0.000    1.143    2.857    1.714    8.000    1.143 
#    2.571    0.000    0.000    0.000    0.000    0.000 
#    0.000    0.000    0.000    0.000    0.000    0.000 
#
# Total GULP energy -156054.108684 kJ/mol
# GULP energy per Si atom -5573.361024 kJ/mol
# Density = 2.310211 g / cm^3
# Si number density = 23.154808 Si / 1000 Ang^3
#
#
#
# Elastic Constant Matrix: (Units=GPa)
#
#
# Indices 1 2 3 4 5 6 
#
# 1 64.5799 49.4996 18.6191 0.0000 0.0000 11.1360
# 2 49.4996 64.5799 18.6191 0.0000 0.0000 -11.1360
# 3 18.6191 18.6191 46.0973 0.0000 0.0000 0.0000
# 4 0.0000 0.0000 0.0000 28.8360 0.0000 0.0000
# 5 0.0000 0.0000 0.0000 0.0000 28.8360 0.0000
# 6 11.1360 -11.1360 0.0000 0.0000 0.0000 35.1031
#
#
#
# Elastic Compliance Matrix: (Units=1/GPa)
#
#
# Indices 1 2 3 4 5 6 
#
# 1 0.067433 -0.057336 -0.004078 0.000000 0.000000 -0.039581
# 2 -0.057336 0.067433 -0.004078 0.000000 0.000000 0.039581
# 3 -0.004078 -0.004078 0.024988 0.000000 0.000000 0.000000
# 4 0.000000 0.000000 0.000000 0.034679 0.000000 0.000000
# 5 0.000000 0.000000 0.000000 0.000000 0.034679 0.000000
# 6 -0.039581 0.039581 0.000000 0.000000 0.000000 0.053601
#
#
# Mechanical properties :
#
#
# Convention : Reuss Voigt Hill
#
# Bulk Modulus (GPa) = 34.63954 38.74807 36.69380
# Shear Modulus (GPa) = 11.80861 24.45632 18.13246
#
# Velocity S-wave (km/s) = 2.26074 3.25346 2.80142
# Velocity P-wave (km/s) = 4.66980 5.55734 5.13279
#
# Compressibility (1/GPa) = 0.02886874
#
# Stress axis : x y z
#
# Youngs Moduli (GPa) = 14.82956 14.82956 40.01956
#
# Poissons Ratio (x) = 0.85026 0.16321
# Poissons Ratio (y) = 0.85026 0.16321
# Poissons Ratio (z) = 0.06048 0.06048
#
# Static dielectric constant tensor:
#      x y z
#    x 1.870770 0.000000 0.000000 
#    y 0.000000 1.870770 0.000000 
#    z 0.000000 0.000000 1.963630 
# 
# From -- ./inp_files/221.got.cif
#   From: 2010.05.17/outbox.cif.g08.bks.cpg/sg78_cif.got.tgz:221.got - 2010.06.03 18:45:56.
