data_PCOD9541740
_publ_section_title
;
Structure prediction by ZEFSAII (Michael W. Deem and Ramdas Pophale) SiO2 
 PCOD9541740
Probable space group: P 43
;
_chemical_formula_sum "Si O2"
_cell_formula_units_Z 28
_cell_length_a 11.846524
_cell_length_b 11.846524
_cell_length_c 8.413938
_cell_angle_alpha 90.000000
_cell_angle_beta 90.000000
_cell_angle_gamma 90.000000
_cell_volume 1180.813160
_symmetry_space_group_name_H-M "P 43"
_symmetry_group_IT_number 78
_symmetry_cell_setting 'tetragonal'
loop_
_space_group_symop_operation_xyz
x,y,z
-y,x,3/4+z
-x,-y,1/2+z
y,-x,1/4+z
loop_
_atom_site_type_symbol
_atom_site_label
_atom_site_fract_x
_atom_site_fract_y
_atom_site_fract_z
Si Si1 0.626467 0.570340 0.671970
Si Si2 0.383601 0.276511 0.715943
Si Si3 0.726221 0.890849 0.467398
Si Si4 0.275109 0.837953 0.429636
Si Si5 0.528698 0.226146 0.453692
Si Si6 0.659062 0.072184 0.247104
Si Si7 0.575502 0.030561 0.687200
O O1 0.512556 0.601317 0.572262
O O2 0.709491 0.501541 0.554479
O O3 0.709347 0.676640 0.700905
O O4 0.307554 0.200422 0.831408
O O5 0.406526 0.238972 0.533977
O O6 0.340993 0.404655 0.717840
O O7 0.825170 0.834318 0.568918
O O8 0.738280 0.009067 0.374472
O O9 0.629345 0.923302 0.597388
O O10 0.264285 0.889100 0.603253
O O11 0.360414 0.927001 0.343375
O O12 0.574194 0.176532 0.289128
O O13 0.586185 0.132581 0.564867
O O14 0.557916 0.983322 0.213776
#
# Coordination Sequence:
#
# PCOD9541740 Si02
#       7
#     4   4   4   4   4   4   4
#     4  12  23  39  61  91 142 203 238 279 353 444
#     4  12  19  40  62  90 139 188 229 290 363 422
#     4  11  23  42  70  99 136 184 239 311 372 430
#     4  12  24  46  69 101 146 191 243 310 373 435
#     4  11  23  38  63  94 135 185 236 287 351 435
#     4  11  25  41  68 108 135 186 253 297 360 447
#     4  11  21  40  69  97 133 183 242 296 356 427
#
# _framework density 23.712472999999999
#
# number of rings (size 3 to 8) (size 9 to 14) (size 15 to 20)
#    0.000    0.571    7.143    2.571    0.000    2.286 
#    0.000    0.000    0.000    1.714    0.000    0.000 
#    0.000    0.000    0.000    0.000    0.000    0.000 
#
# Total GULP energy -156023.944682 kJ/mol
# GULP energy per Si atom -5572.283739 kJ/mol
# Density = 2.365850 g / cm^3
# Si number density = 23.712473 Si / 1000 Ang^3
#
#
#
# Elastic Constant Matrix: (Units=GPa)
#
#
# Indices 1 2 3 4 5 6 
#
# 1 51.1154 17.4279 31.1638 0.0000 0.0000 0.6358
# 2 17.4279 51.1154 31.1638 0.0000 0.0000 -0.6358
# 3 31.1638 31.1638 87.7435 0.0000 0.0000 0.0000
# 4 0.0000 0.0000 0.0000 39.8275 0.0000 0.0000
# 5 0.0000 0.0000 0.0000 0.0000 39.8275 0.0000
# 6 0.6358 -0.6358 0.0000 0.0000 0.0000 16.6385
#
#
#
# Elastic Compliance Matrix: (Units=1/GPa)
#
#
# Indices 1 2 3 4 5 6 
#
# 1 0.025638 -0.004089 -0.007653 0.000000 0.000000 -0.001136
# 2 -0.004089 0.025638 -0.007653 0.000000 0.000000 0.001136
# 3 -0.007653 -0.007653 0.016833 0.000000 0.000000 0.000000
# 4 0.000000 0.000000 0.000000 0.025108 0.000000 0.000000
# 5 0.000000 0.000000 0.000000 0.000000 0.025108 0.000000
# 6 -0.001136 0.001136 0.000000 0.000000 0.000000 0.060188
#
#
# Mechanical properties :
#
#
# Convention : Reuss Voigt Hill
#
# Bulk Modulus (GPa) = 34.10984 38.83169 36.47077
# Shear Modulus (GPa) = 22.01875 26.60665 24.31270
#
# Velocity S-wave (km/s) = 3.05055 3.35334 3.20552
# Velocity P-wave (km/s) = 5.17917 5.60400 5.39577
#
# Compressibility (1/GPa) = 0.02931705
#
# Stress axis : x y z
#
# Youngs Moduli (GPa) = 39.00448 39.00448 59.40580
#
# Poissons Ratio (x) = 0.15950 0.45466
# Poissons Ratio (y) = 0.15950 0.45466
# Poissons Ratio (z) = 0.29852 0.29852
#
# Static dielectric constant tensor:
#      x y z
#    x 1.988340 0.000000 0.000000 
#    y 0.000000 1.988340 0.000000 
#    z 0.000000 0.000000 2.046350 
# 
# From -- ./inp_files/607.got.cif
#   From: 2010.05.17/outbox.cif.g08.bks.cpg/sg78_cif.got.tgz:607.got - 2010.06.03 18:45:56.
