data_PCOD9541944
_publ_section_title
;
Structure prediction by ZEFSAII (Michael W. Deem and Ramdas Pophale) SiO2 
 PCOD9541944
Probable space group: I 4
;
_chemical_formula_sum "Si O2"
_cell_formula_units_Z 60
_cell_length_a 17.415321
_cell_length_b 17.415321
_cell_length_c 8.220446
_cell_angle_alpha 90.000000
_cell_angle_beta 90.000000
_cell_angle_gamma 90.000000
_cell_volume 2493.207062
_symmetry_space_group_name_H-M "I 4"
_symmetry_group_IT_number 79
_symmetry_cell_setting 'tetragonal'
loop_
_space_group_symop_operation_xyz
x,y,z
-y,x,z
-x,-y,z
y,-x,z
1/2+x,1/2+y,1/2+z
1/2-y,1/2+x,1/2+z
1/2-x,1/2-y,1/2+z
1/2+y,1/2-x,1/2+z
loop_
_atom_site_type_symbol
_atom_site_label
_atom_site_fract_x
_atom_site_fract_y
_atom_site_fract_z
Si Si1 0.405756 0.913039 0.187490
Si Si2 0.279767 0.445749 0.779225
Si Si3 0.000000 0.500000 0.932630
Si Si4 0.180592 0.317590 0.650631
Si Si5 0.012051 0.278809 0.608808
Si Si6 0.226333 0.680709 0.524959
Si Si7 0.356805 0.582393 0.631619
Si Si8 0.483528 0.379080 0.296080
O O1 0.425779 0.970296 0.333806
O O2 0.469980 0.847077 0.201569
O O3 0.329088 0.865827 0.147122
O O4 0.429981 0.966905 0.037002
O O5 0.223272 0.400762 0.654345
O O6 0.297628 0.532770 0.734241
O O7 0.363670 0.405505 0.753493
O O8 0.245592 0.455971 0.959729
O O9 0.097656 0.309578 0.569780
O O10 0.234012 0.249052 0.581639
O O11 0.175813 0.305326 0.844446
O O12 0.022643 0.204918 0.723514
O O13 0.309128 0.640980 0.522731
O O14 0.384199 0.521904 0.493469
O O15 0.563736 0.416303 0.240380
#
# Coordination Sequence:
#
# PCOD9541944 Si02
#       8
#     8   8   4   8   8   8   8   8
#     4  11  25  46  70 100 139 188 236 303 363 452
#     4  11  27  45  73 108 145 198 245 309 380 453
#     4  10  26  46  68 102 138 182 242 296 378 430
#     4  11  26  47  67 108 145 188 245 307 368 455
#     4  12  27  44  75 103 148 184 252 309 371 448
#     4  11  25  44  71 101 141 186 242 295 372 440
#     4  11  24  47  73 102 146 189 242 298 378 450
#     4  11  25  46  69 103 144 188 234 300 366 447
#
# _framework density 24.065389
#
# number of rings (size 3 to 8) (size 9 to 14) (size 15 to 20)
#    0.000    0.933    4.000    0.800    9.333    1.333 
#    0.000    0.000    0.000    0.000    0.000    0.000 
#    0.000    0.000    0.000    0.000    0.000    0.000 
#
# Total GULP energy -167476.137280 kJ/mol
# GULP energy per Si atom -5582.537909 kJ/mol
# Density = 2.401062 g / cm^3
# Si number density = 24.065389 Si / 1000 Ang^3
#
#
#
# Elastic Constant Matrix: (Units=GPa)
#
#
# Indices 1 2 3 4 5 6 
#
# 1 76.2680 19.8708 29.8696 0.0000 0.0000 -11.7475
# 2 19.8708 76.2680 29.8696 0.0000 0.0000 11.7475
# 3 29.8696 29.8696 61.2046 0.0000 0.0000 0.0000
# 4 0.0000 0.0000 0.0000 22.8700 0.0000 0.0000
# 5 0.0000 0.0000 0.0000 0.0000 22.8700 0.0000
# 6 -11.7475 11.7475 0.0000 0.0000 0.0000 16.4093
#
#
#
# Elastic Compliance Matrix: (Units=1/GPa)
#
#
# Indices 1 2 3 4 5 6 
#
# 1 0.020098 -0.005169 -0.007286 0.000000 0.000000 0.018089
# 2 -0.005169 0.020098 -0.007286 0.000000 0.000000 -0.018089
# 3 -0.007286 -0.007286 0.023450 0.000000 0.000000 0.000000
# 4 0.000000 0.000000 0.000000 0.043725 0.000000 0.000000
# 5 0.000000 0.000000 0.000000 0.000000 0.043725 0.000000
# 6 0.018089 -0.018089 0.000000 0.000000 0.000000 0.086841
#
#
# Mechanical properties :
#
#
# Convention : Reuss Voigt Hill
#
# Bulk Modulus (GPa) = 41.38250 41.44004 41.41127
# Shear Modulus (GPa) = 17.51470 21.37190 19.44330
#
# Velocity S-wave (km/s) = 2.70070 2.98329 2.84551
# Velocity P-wave (km/s) = 5.19213 5.39665 5.29538
#
# Compressibility (1/GPa) = 0.02416480
#
# Stress axis : x y z
#
# Youngs Moduli (GPa) = 49.75602 49.75602 42.64407
#
# Poissons Ratio (x) = 0.25720 0.31069
# Poissons Ratio (y) = 0.25720 0.31069
# Poissons Ratio (z) = 0.36251 0.36251
#
# Static dielectric constant tensor:
#      x y z
#    x 1.973500 0.000000 0.000000 
#    y 0.000000 1.973500 0.000000 
#    z 0.000000 0.000000 1.957300 
# 
# From -- ./inp_files/732.got.cif
#   From: 2010.05.17/outbox.cif.g08.bks.cpg/sg79_cif.got.tgz:732.got - 2010.06.03 18:47:27.
