data_PCOD9541955
_publ_section_title
;
Structure prediction by ZEFSAII (Michael W. Deem and Ramdas Pophale) SiO2 
 PCOD9541955
Probable space group: I 4
;
_chemical_formula_sum "Si O2"
_cell_formula_units_Z 60
_cell_length_a 11.378971
_cell_length_b 11.378971
_cell_length_c 20.900723
_cell_angle_alpha 90.000000
_cell_angle_beta 90.000000
_cell_angle_gamma 90.000000
_cell_volume 2706.246118
_symmetry_space_group_name_H-M "I 4"
_symmetry_group_IT_number 79
_symmetry_cell_setting 'tetragonal'
loop_
_space_group_symop_operation_xyz
x,y,z
-y,x,z
-x,-y,z
y,-x,z
1/2+x,1/2+y,1/2+z
1/2-y,1/2+x,1/2+z
1/2-x,1/2-y,1/2+z
1/2+y,1/2-x,1/2+z
loop_
_atom_site_type_symbol
_atom_site_label
_atom_site_fract_x
_atom_site_fract_y
_atom_site_fract_z
Si Si1 0.000000 0.500000 0.952370
Si Si2 0.201034 0.693701 0.816254
Si Si3 0.927082 0.184313 0.702370
Si Si4 0.081300 0.829937 0.919644
Si Si5 0.934582 0.289883 0.048253
Si Si6 0.789883 0.565418 0.856488
Si Si7 0.329937 0.418700 0.985097
Si Si8 0.298966 0.806299 0.088487
O O1 0.904344 0.555669 0.902920
O O2 0.944331 0.404344 0.001821
O O3 0.110829 0.740394 0.763771
O O4 0.143729 0.723270 0.884966
O O5 0.320334 0.770093 0.813132
O O6 0.219730 0.554325 0.816472
O O7 0.889171 0.259606 0.640970
O O8 0.062547 0.146357 0.702370
O O9 0.946988 0.849398 0.900043
O O10 0.079081 0.812912 0.995351
O O11 0.820334 0.270094 0.091609
O O12 0.054325 0.280269 0.088268
O O13 0.687088 0.579080 0.909390
O O14 0.446987 0.349398 0.004698
O O15 0.223270 0.356271 0.019775
#
# Coordination Sequence:
#
# PCOD9541955 Si02
#       8
#     4   8   8   8   8   8   8   8
#     4  12  24  36  64 114 144 176 220 292 358 412
#     4  12  26  44  68 102 140 187 231 282 339 409
#     4  11  28  54  76  95 128 182 240 285 332 416
#     4  11  21  39  66  98 137 182 223 277 341 402
#     4  12  24  40  66 103 147 178 224 281 352 411
#     4  12  24  40  66 103 147 178 224 281 352 411
#     4  11  21  39  66  98 137 182 223 277 341 402
#     4  12  26  44  68 102 140 187 231 282 339 409
#
# _framework density 22.170932000000001
#
# number of rings (size 3 to 8) (size 9 to 14) (size 15 to 20)
#    0.000    0.400    5.333    4.000    3.733    3.733 
#    0.000    1.333    0.000    1.600    0.000    0.000 
#    0.000    0.000    0.000    0.000    0.000    0.000 
#
# Total GULP energy -167786.553417 kJ/mol
# GULP energy per Si atom -5592.885114 kJ/mol
# Density = 2.212047 g / cm^3
# Si number density = 22.170932 Si / 1000 Ang^3
#
#
#
# Elastic Constant Matrix: (Units=GPa)
#
#
# Indices 1 2 3 4 5 6 
#
# 1 90.8488 14.2425 7.8410 0.0000 0.0000 -1.7126
# 2 14.2425 90.8488 7.8410 0.0000 0.0000 1.7126
# 3 7.8410 7.8410 44.9988 0.0000 0.0000 0.0000
# 4 0.0000 0.0000 0.0000 30.3453 0.0000 0.0000
# 5 0.0000 0.0000 0.0000 0.0000 30.3453 0.0000
# 6 -1.7126 1.7126 0.0000 0.0000 0.0000 23.0573
#
#
#
# Elastic Compliance Matrix: (Units=1/GPa)
#
#
# Indices 1 2 3 4 5 6 
#
# 1 0.011433 -0.001664 -0.001702 0.000000 0.000000 0.000973
# 2 -0.001664 0.011433 -0.001702 0.000000 0.000000 -0.000973
# 3 -0.001702 -0.001702 0.022816 0.000000 0.000000 0.000000
# 4 0.000000 0.000000 0.000000 0.032954 0.000000 0.000000
# 5 0.000000 0.000000 0.000000 0.000000 0.032954 0.000000
# 6 0.000973 -0.000973 0.000000 0.000000 0.000000 0.043515
#
#
# Mechanical properties :
#
#
# Convention : Reuss Voigt Hill
#
# Bulk Modulus (GPa) = 28.13269 31.83839 29.98554
# Shear Modulus (GPa) = 28.23404 29.86773 29.05089
#
# Velocity S-wave (km/s) = 3.57244 3.67435 3.62375
# Velocity P-wave (km/s) = 5.45280 5.69146 5.57341
#
# Compressibility (1/GPa) = 0.03554584
#
# Stress axis : x y z
#
# Youngs Moduli (GPa) = 87.46304 87.46304 43.82878
#
# Poissons Ratio (x) = 0.14552 0.07461
# Poissons Ratio (y) = 0.14552 0.07461
# Poissons Ratio (z) = 0.14889 0.14889
#
# Static dielectric constant tensor:
#      x y z
#    x 1.860520 0.000000 0.000000 
#    y 0.000000 1.860520 0.000000 
#    z 0.000000 0.000000 1.814390 
# 
# From -- ./inp_files/1868.got.cif
#   From: 2010.05.17/outbox.cif.g08.bks.cpg/sg79_cif.got.tgz:1868.got - 2010.06.03 18:47:27.
