data_PCOD9541236
_publ_section_title
;
Structure prediction by ZEFSAII (Michael W. Deem and Ramdas Pophale) SiO2 
 PCOD9541236
Probable space group: P 41
;
_chemical_formula_sum "Si O2"
_cell_formula_units_Z 20
_cell_length_a 9.866366
_cell_length_b 9.866366
_cell_length_c 8.648117
_cell_angle_alpha 90.000000
_cell_angle_beta 90.000000
_cell_angle_gamma 90.000000
_cell_volume 841.852489
_symmetry_space_group_name_H-M "P 41"
_symmetry_group_IT_number 76
_symmetry_cell_setting 'tetragonal'
loop_
_space_group_symop_operation_xyz
x,y,z
-y,x,1/4+z
-x,-y,1/2+z
y,-x,3/4+z
loop_
_atom_site_type_symbol
_atom_site_label
_atom_site_fract_x
_atom_site_fract_y
_atom_site_fract_z
Si Si1 0.017342 0.871085 0.640640
Si Si2 0.641445 0.406888 0.176397
Si Si3 0.572471 0.222590 0.684499
Si Si4 0.961195 0.279613 0.419567
Si Si5 0.769391 0.470949 0.609704
O O1 0.050755 0.733979 0.732132
O O2 0.121281 0.983038 0.710378
O O3 0.871232 0.913789 0.715188
O O4 0.525305 0.386997 0.048127
O O5 0.761085 0.464140 0.070544
O O6 0.614419 0.275314 0.282948
O O7 0.686163 0.112602 0.721703
O O8 0.643849 0.366858 0.643482
O O9 0.500877 0.172718 0.528118
O O10 0.866611 0.392221 0.493940
#
# Coordination Sequence:
#
# PCOD9541236 Si02
#       5
#     4   4   4   4   4
#     4   8  16  37  69  88 120 172 212 267 325 390
#     4  12  20  37  67  94 130 180 220 265 341 394
#     4  12  22  41  69  97 134 180 219 278 334 403
#     4  10  22  40  68  92 132 170 224 272 336 390
#     4  12  22  41  69  97 134 180 219 278 334 403
#
# _framework density 23.757134000000001
#
# number of rings (size 3 to 8) (size 9 to 14) (size 15 to 20)
#    1.200    0.000    8.000    0.000    0.000    1.600 
#    0.000    2.000   17.600    0.000    0.000    0.000 
#    0.000    0.000    0.000    0.000    0.000    0.000 
#
# Total GULP energy -111398.425661 kJ/mol
# GULP energy per Si atom -5569.921283 kJ/mol
# Density = 2.370306 g / cm^3
# Si number density = 23.757134 Si / 1000 Ang^3
#
#
#
# Elastic Constant Matrix: (Units=GPa)
#
#
# Indices 1 2 3 4 5 6 
#
# 1 49.3786 27.5173 14.2141 0.0000 0.0000 6.7662
# 2 27.5173 49.3786 14.2141 0.0000 0.0000 -6.7662
# 3 14.2141 14.2141 86.1520 0.0000 0.0000 0.0000
# 4 0.0000 0.0000 0.0000 27.4523 0.0000 0.0000
# 5 0.0000 0.0000 0.0000 0.0000 27.4523 0.0000
# 6 6.7662 -6.7662 0.0000 0.0000 0.0000 33.0121
#
#
#
# Elastic Compliance Matrix: (Units=1/GPa)
#
#
# Indices 1 2 3 4 5 6 
#
# 1 0.033120 -0.019270 -0.002285 0.000000 0.000000 -0.010738
# 2 -0.019270 0.033120 -0.002285 0.000000 0.000000 0.010738
# 3 -0.002285 -0.002285 0.012361 0.000000 0.000000 0.000000
# 4 0.000000 0.000000 0.000000 0.036427 0.000000 0.000000
# 5 0.000000 0.000000 0.000000 0.000000 0.036427 0.000000
# 6 -0.010738 0.010738 0.000000 0.000000 0.000000 0.034694
#
#
# Mechanical properties :
#
#
# Convention : Reuss Voigt Hill
#
# Bulk Modulus (GPa) = 32.34138 32.97781 32.65959
# Shear Modulus (GPa) = 20.48050 26.18092 23.33071
#
# Velocity S-wave (km/s) = 2.93930 3.32328 3.13717
# Velocity P-wave (km/s) = 5.01619 5.35135 5.18648
#
# Compressibility (1/GPa) = 0.03092014
#
# Stress axis : x y z
#
# Youngs Moduli (GPa) = 30.19366 30.19366 80.89705
#
# Poissons Ratio (x) = 0.58184 0.18485
# Poissons Ratio (y) = 0.58184 0.18485
# Poissons Ratio (z) = 0.06899 0.06899
#
# Static dielectric constant tensor:
#      x y z
#    x 1.919680 0.000000 0.000000 
#    y 0.000000 1.919680 0.000000 
#    z 0.000000 0.000000 1.931730 
# 
# From -- ./inp_files/471.got.cif
#   From: 2010.05.17/outbox.cif.g08.bks.cpg/sg76_cif.got.tgz:471.got - 2010.06.03 18:43:17.
