data_PCOD9541597
_publ_section_title
;
Structure prediction by ZEFSAII (Michael W. Deem and Ramdas Pophale) SiO2 
 PCOD9541597
Probable space group: P 43
;
_chemical_formula_sum "Si O2"
_cell_formula_units_Z 32
_cell_length_a 19.631067
_cell_length_b 19.631067
_cell_length_c 5.631977
_cell_angle_alpha 90.000000
_cell_angle_beta 90.000000
_cell_angle_gamma 90.000000
_cell_volume 2170.444490
_symmetry_space_group_name_H-M "P 43"
_symmetry_group_IT_number 78
_symmetry_cell_setting 'tetragonal'
loop_
_space_group_symop_operation_xyz
x,y,z
-y,x,3/4+z
-x,-y,1/2+z
y,-x,1/4+z
loop_
_atom_site_type_symbol
_atom_site_label
_atom_site_fract_x
_atom_site_fract_y
_atom_site_fract_z
Si Si1 0.281586 0.613954 0.415700
Si Si2 0.403522 0.871030 0.229062
Si Si3 0.579207 0.087749 0.232232
Si Si4 0.929032 0.442649 0.488394
Si Si5 0.572799 0.869006 0.741067
Si Si6 0.712069 0.623115 0.415087
Si Si7 0.642106 0.496561 0.666793
Si Si8 0.393030 0.401446 0.539060
O O1 0.204282 0.608326 0.492698
O O2 0.307882 0.681978 0.282317
O O3 0.295662 0.552483 0.234026
O O4 0.334872 0.597623 0.625815
O O5 0.380481 0.896071 0.489891
O O6 0.483080 0.893657 0.236611
O O7 0.388691 0.791286 0.200588
O O8 0.380099 0.902859 0.977861
O O9 0.510709 0.134881 0.240441
O O10 0.551597 0.010499 0.229345
O O11 0.906431 0.410459 0.740816
O O12 0.906421 0.409318 0.238553
O O13 0.672564 0.562958 0.548396
O O14 0.682020 0.612099 0.151731
O O15 0.598253 0.450110 0.492309
O O16 0.605448 0.528362 0.895038
#
# Coordination Sequence:
#
# PCOD9541597 Si02
#       8
#     4   4   4   4   4   4   4   4
#     4  10  22  34  51  65  87 113 158 192 230 299
#     4  10  19  29  49  69  91 122 135 176 236 273
#     4  10  19  31  49  76  97 111 144 180 233 309
#     4  10  19  31  49  76  97 111 144 180 233 309
#     4  10  19  29  49  69  91 122 135 176 236 273
#     4  10  22  34  51  65  87 113 158 192 230 299
#     4  10  20  36  52  64  78 106 136 204 248 288
#     4  10  22  34  54  62  86 102 152 200 242 300
#
# _framework density 14.743525
#
# number of rings (size 3 to 8) (size 9 to 14) (size 15 to 20)
#    0.000    2.000    0.000    6.000   14.000    0.000 
#    0.000    0.000   99.000    0.000    0.000    0.000 
#    0.000    0.000    0.000    0.000    0.000    0.000 
#
# Total GULP energy -178225.532950 kJ/mol
# GULP energy per Si atom -5569.547905 kJ/mol
# Density = 1.470997 g / cm^3
# Si number density = 14.743525 Si / 1000 Ang^3
#
#
#
# Elastic Constant Matrix: (Units=GPa)
#
#
# Indices 1 2 3 4 5 6 
#
# 1 61.8423 12.7707 15.2230 0.0000 0.0000 -3.9101
# 2 12.7707 61.8423 15.2230 0.0000 0.0000 3.9101
# 3 15.2230 15.2230 109.8451 0.0000 0.0000 0.0000
# 4 0.0000 0.0000 0.0000 16.9009 0.0000 0.0000
# 5 0.0000 0.0000 0.0000 0.0000 16.9009 0.0000
# 6 -3.9101 3.9101 0.0000 0.0000 0.0000 7.6742
#
#
#
# Elastic Compliance Matrix: (Units=1/GPa)
#
#
# Indices 1 2 3 4 5 6 
#
# 1 0.018193 -0.003987 -0.001969 0.000000 0.000000 0.011301
# 2 -0.003987 0.018193 -0.001969 0.000000 0.000000 -0.011301
# 3 -0.001969 -0.001969 0.009649 0.000000 0.000000 0.000000
# 4 0.000000 0.000000 0.000000 0.059168 0.000000 0.000000
# 5 0.000000 0.000000 0.000000 0.000000 0.059168 0.000000
# 6 0.011301 -0.011301 0.000000 0.000000 0.000000 0.141822
#
#
# Mechanical properties :
#
#
# Convention : Reuss Voigt Hill
#
# Bulk Modulus (GPa) = 33.12778 35.55146 34.33962
# Shear Modulus (GPa) = 15.05553 20.98276 18.01914
#
# Velocity S-wave (km/s) = 3.19903 3.77660 3.49975
# Velocity P-wave (km/s) = 6.01359 6.57135 6.29864
#
# Compressibility (1/GPa) = 0.03018615
#
# Stress axis : x y z
#
# Youngs Moduli (GPa) = 54.96752 54.96752 103.63339
#
# Poissons Ratio (x) = 0.21914 0.20403
# Poissons Ratio (y) = 0.21914 0.20403
# Poissons Ratio (z) = 0.10822 0.10822
#
# Static dielectric constant tensor:
#      x y z
#    x 1.473550 0.000000 0.000000 
#    y 0.000000 1.473550 0.000000 
#    z 0.000000 0.000000 1.652010 
# 
# From -- ./inp_files/352.got.cif
#   From: 2010.05.17/outbox.cif.g08.bks.cpg/sg78_cif.got.tgz:352.got - 2010.06.03 18:45:56.
