data_PCOD9541219
_publ_section_title
;
Structure prediction by ZEFSAII (Michael W. Deem and Ramdas Pophale) SiO2 
 PCOD9541219
Probable space group: P 41
;
_chemical_formula_sum "Si O2"
_cell_formula_units_Z 24
_cell_length_a 11.265392
_cell_length_b 11.265392
_cell_length_c 10.768781
_cell_angle_alpha 90.000000
_cell_angle_beta 90.000000
_cell_angle_gamma 90.000000
_cell_volume 1366.655841
_symmetry_space_group_name_H-M "P 41"
_symmetry_group_IT_number 76
_symmetry_cell_setting 'tetragonal'
loop_
_space_group_symop_operation_xyz
x,y,z
-y,x,1/4+z
-x,-y,1/2+z
y,-x,3/4+z
loop_
_atom_site_type_symbol
_atom_site_label
_atom_site_fract_x
_atom_site_fract_y
_atom_site_fract_z
Si Si1 0.550131 0.170455 0.413040
Si Si2 0.020995 0.348396 0.670197
Si Si3 0.572675 0.451166 0.384003
Si Si4 0.479006 0.848395 0.636945
Si Si5 0.048833 0.927324 0.173143
Si Si6 0.949870 0.670457 0.894101
O O1 0.426653 0.099328 0.430789
O O2 0.547671 0.312227 0.408787
O O3 0.582582 0.132350 0.271733
O O4 0.630817 0.130814 0.528570
O O5 0.982035 0.212028 0.676690
O O6 0.107493 0.392509 0.778570
O O7 0.082582 0.367650 0.535408
O O8 0.517892 0.520028 0.500251
O O9 0.712027 0.482034 0.380454
O O10 0.599330 0.926651 0.626353
O O11 0.187771 0.952329 0.148357
O O12 0.017893 0.979968 0.306895
#
# Coordination Sequence:
#
# PCOD9541219 Si02
#       6
#     4   4   4   4   4   4
#     4   9  19  34  61  81 105 147 185 223 271 330
#     4   9  19  38  56  80 112 145 185 226 272 328
#     4  10  22  37  55  84 117 142 184 231 276 331
#     4   9  19  38  56  80 112 145 185 226 272 328
#     4  10  22  37  55  84 117 142 184 231 276 331
#     4   9  19  34  61  81 105 147 185 223 271 330
#
# _framework density 17.561115000000001
#
# number of rings (size 3 to 8) (size 9 to 14) (size 15 to 20)
#    0.000    2.667    0.000    0.000    9.333    2.667 
#    6.000    0.000    7.333    0.000    0.000    0.000 
#    0.000    0.000    0.000    0.000    0.000    0.000 
#
# Total GULP energy -133606.368409 kJ/mol
# GULP energy per Si atom -5566.932017 kJ/mol
# Density = 1.752115 g / cm^3
# Si number density = 17.561115 Si / 1000 Ang^3
#
#
#
# Elastic Constant Matrix: (Units=GPa)
#
#
# Indices 1 2 3 4 5 6 
#
# 1 57.3003 20.5168 59.7314 0.0000 0.0000 -0.0003
# 2 20.5168 57.3003 59.7314 0.0000 0.0000 0.0003
# 3 59.7314 59.7314 166.1547 0.0000 0.0000 0.0000
# 4 0.0000 0.0000 0.0000 31.4564 0.0000 0.0000
# 5 0.0000 0.0000 0.0000 0.0000 31.4564 0.0000
# 6 -0.0003 0.0003 0.0000 0.0000 0.0000 7.0498
#
#
#
# Elastic Compliance Matrix: (Units=1/GPa)
#
#
# Indices 1 2 3 4 5 6 
#
# 1 0.027932 0.000745 -0.010309 0.000000 0.000000 0.000001
# 2 0.000745 0.027932 -0.010309 0.000000 0.000000 -0.000001
# 3 -0.010309 -0.010309 0.013431 0.000000 0.000000 0.000000
# 4 0.000000 0.000000 0.000000 0.031790 0.000000 0.000000
# 5 0.000000 0.000000 0.000000 0.000000 0.031790 0.000000
# 6 0.000001 -0.000001 0.000000 0.000000 0.000000 0.141847
#
#
# Mechanical properties :
#
#
# Convention : Reuss Voigt Hill
#
# Bulk Modulus (GPa) = 33.84326 62.30162 48.07244
# Shear Modulus (GPa) = 15.41706 23.37756 19.39731
#
# Velocity S-wave (km/s) = 2.96617 3.65254 3.32710
# Velocity P-wave (km/s) = 5.57175 7.30357 6.49563
#
# Compressibility (1/GPa) = 0.02954798
#
# Stress axis : x y z
#
# Youngs Moduli (GPa) = 35.80179 35.80179 74.45656
#
# Poissons Ratio (x) = -0.02669 0.76759
# Poissons Ratio (y) = -0.02669 0.76759
# Poissons Ratio (z) = 0.36909 0.36909
#
# Static dielectric constant tensor:
#      x y z
#    x 1.578000 0.000000 0.000000 
#    y 0.000000 1.578000 0.000000 
#    z 0.000000 0.000000 1.627020 
# 
# From -- ./inp_files/516.got.cif
#   From: 2010.05.17/outbox.cif.g08.bks.cpg/sg76_cif.got.tgz:516.got - 2010.06.03 18:43:17.
