data_PCOD9541639
_publ_section_title
;
Structure prediction by ZEFSAII (Michael W. Deem and Ramdas Pophale) SiO2 
 PCOD9541639
Probable space group: P 43
;
_chemical_formula_sum "Si O2"
_cell_formula_units_Z 24
_cell_length_a 12.564373
_cell_length_b 12.564373
_cell_length_c 6.221564
_cell_angle_alpha 90.000000
_cell_angle_beta 90.000000
_cell_angle_gamma 90.000000
_cell_volume 982.157675
_symmetry_space_group_name_H-M "P 43"
_symmetry_group_IT_number 78
_symmetry_cell_setting 'tetragonal'
loop_
_space_group_symop_operation_xyz
x,y,z
-y,x,3/4+z
-x,-y,1/2+z
y,-x,1/4+z
loop_
_atom_site_type_symbol
_atom_site_label
_atom_site_fract_x
_atom_site_fract_y
_atom_site_fract_z
Si Si1 0.800180 0.770483 0.647720
Si Si2 0.408136 0.206957 0.432196
Si Si3 0.954910 0.856680 0.975338
Si Si4 0.915435 0.331878 0.589651
Si Si5 0.476484 0.352351 0.787713
Si Si6 0.538616 0.144168 0.042686
O O1 0.692799 0.768570 0.786467
O O2 0.879619 0.851903 0.765758
O O3 0.747101 0.821380 0.431740
O O4 0.862679 0.657810 0.690382
O O5 0.373017 0.116981 0.603224
O O6 0.422410 0.314164 0.568857
O O7 0.511615 0.173286 0.291852
O O8 0.066504 0.903068 0.897108
O O9 0.980377 0.741100 0.074024
O O10 0.933499 0.439544 0.728792
O O11 0.578590 0.412188 0.703700
O O12 0.502728 0.247174 0.912317
#
# Coordination Sequence:
#
# PCOD9541639 Si02
#       6
#     4   4   4   4   4   4
#     4  11  23  43  72 100 142 184 228 294 357 420
#     4  10  20  41  64  93 140 180 231 283 338 419
#     4  12  25  48  74 104 127 179 241 307 368 419
#     4  10  23  45  66 105 139 179 237 284 352 432
#     4  11  23  32  57  95 136 186 239 276 336 412
#     4  10  22  41  65  95 140 184 224 278 353 426
#
# _framework density 24.435994999999998
#
# number of rings (size 3 to 8) (size 9 to 14) (size 15 to 20)
#    0.000    1.333    1.667    5.000    4.667    1.333 
#    3.000    0.000    0.000    0.000    0.000    0.000 
#    0.000    0.000    0.000    0.000    0.000    0.000 
#
# Total GULP energy -133925.423101 kJ/mol
# GULP energy per Si atom -5580.225963 kJ/mol
# Density = 2.438038 g / cm^3
# Si number density = 24.435995 Si / 1000 Ang^3
#
#
#
# Elastic Constant Matrix: (Units=GPa)
#
#
# Indices 1 2 3 4 5 6 
#
# 1 201.9445 -116.1620 19.4501 0.0000 0.0000 239.1172
# 2 -116.1620 201.9445 19.4501 0.0000 0.0000 -239.1172
# 3 19.4501 19.4501 91.7751 0.0000 0.0000 0.0000
# 4 0.0000 0.0000 0.0000 14.0966 0.0000 0.0000
# 5 0.0000 0.0000 0.0000 0.0000 14.0966 0.0000
# 6 239.1172 -239.1172 0.0000 0.0000 0.0000 462.5112
#
#
#
# Elastic Compliance Matrix: (Units=1/GPa)
#
#
# Indices 1 2 3 4 5 6 
#
# 1 0.013505 -0.000608 -0.002733 0.000000 0.000000 -0.007296
# 2 -0.000608 0.013505 -0.002733 0.000000 0.000000 0.007296
# 3 -0.002733 -0.002733 0.012055 0.000000 0.000000 0.000000
# 4 0.000000 0.000000 0.000000 0.070939 0.000000 0.000000
# 5 0.000000 0.000000 0.000000 0.000000 0.070939 0.000000
# 6 -0.007296 0.007296 0.000000 0.000000 0.000000 0.009706
#
#
# Mechanical properties :
#
#
# Convention : Reuss Voigt Hill
#
# Bulk Modulus (GPa) = 37.15345 37.90451 37.52898
# Shear Modulus (GPa) = 23.61068 136.33594 79.97331
#
# Velocity S-wave (km/s) = 3.11179 7.47758 5.72702
# Velocity P-wave (km/s) = 5.30550 9.49198 7.68915
#
# Compressibility (1/GPa) = 0.02691540
#
# Stress axis : x y z
#
# Youngs Moduli (GPa) = 74.04906 74.04906 82.95498
#
# Poissons Ratio (x) = 0.04500 0.22674
# Poissons Ratio (y) = 0.04500 0.22674
# Poissons Ratio (z) = 0.20240 0.20240
#
# Static dielectric constant tensor:
#      x y z
#    x 2.097330 0.000000 0.000000 
#    y 0.000000 2.097330 0.000000 
#    z 0.000000 0.000000 1.983080 
# 
# From -- ./inp_files/209.got.cif
#   From: 2010.05.17/outbox.cif.g08.bks.cpg/sg78_cif.got.tgz:209.got - 2010.06.03 18:45:56.
