data_PCOD9541815
_publ_section_title
;
Structure prediction by ZEFSAII (Michael W. Deem and Ramdas Pophale) SiO2 
 PCOD9541815
Probable space group: I 4
;
_chemical_formula_sum "Si O2"
_cell_formula_units_Z 50
_cell_length_a 8.702827
_cell_length_b 8.702827
_cell_length_c 29.377403
_cell_angle_alpha 90.000000
_cell_angle_beta 90.000000
_cell_angle_gamma 90.000000
_cell_volume 2225.020936
_symmetry_space_group_name_H-M "I 4"
_symmetry_group_IT_number 79
_symmetry_cell_setting 'tetragonal'
loop_
_space_group_symop_operation_xyz
x,y,z
-y,x,z
-x,-y,z
y,-x,z
1/2+x,1/2+y,1/2+z
1/2-y,1/2+x,1/2+z
1/2-x,1/2-y,1/2+z
1/2+y,1/2-x,1/2+z
loop_
_atom_site_type_symbol
_atom_site_label
_atom_site_fract_x
_atom_site_fract_y
_atom_site_fract_z
Si Si1 0.500000 0.500000 0.787301
Si Si2 0.750999 0.439203 0.254055
Si Si3 0.162328 0.583436 0.895233
Si Si4 0.749625 0.422567 0.153314
Si Si5 0.394420 0.267288 0.997791
Si Si6 0.244980 0.085478 0.075861
Si Si7 0.248970 0.174246 0.329485
O O1 0.613222 0.649627 0.792910
O O2 0.677787 0.606687 0.255766
O O3 0.819889 0.412049 0.204112
O O4 0.842069 0.399914 0.299348
O O5 0.225480 0.621525 0.944836
O O6 0.174819 0.727057 0.860688
O O7 0.262954 0.456815 0.868250
O O8 0.000000 0.500000 0.900370
O O9 0.684351 0.596072 0.148799
O O10 0.866289 0.361000 0.115888
O O11 0.573559 0.303935 0.007268
O O12 0.328456 0.132705 0.029108
O O13 0.089664 0.188715 0.078749
#
# Coordination Sequence:
#
# PCOD9541815 Si02
#       7
#     2   8   8   8   8   8   8
#     4   8  20  32  52  68 112 172 192 256 296 344
#     4   9  18  35  61  90 122 162 205 253 303 365
#     4  11  22  35  59  87 121 162 206 262 307 365
#     4   9  19  40  68  95 124 163 215 260 307 375
#     4  11  24  41  66  91 118 163 216 259 310 378
#     4  11  26  45  63  93 131 162 199 263 331 386
#     4  10  19  37  54  84 124 162 207 253 303 365
#
# _framework density 22.471698
#
# number of rings (size 3 to 8) (size 9 to 14) (size 15 to 20)
#    0.000    1.920    1.600    2.880    2.240    3.200 
#    5.760    0.000    0.000    1.920    0.000    0.000 
#    0.000    0.000    0.000    0.000    0.000    0.000 
#
# Total GULP energy -139294.395747 kJ/mol
# GULP energy per Si atom -5571.775830 kJ/mol
# Density = 2.242055 g / cm^3
# Si number density = 22.471698 Si / 1000 Ang^3
#
#
#
# Elastic Constant Matrix: (Units=GPa)
#
#
# Indices 1 2 3 4 5 6 
#
# 1 60.0428 17.6127 28.4395 0.0000 0.0000 4.2954
# 2 17.6127 60.0428 28.4395 0.0000 0.0000 -4.2954
# 3 28.4395 28.4395 129.1533 0.0000 0.0000 0.0000
# 4 0.0000 0.0000 0.0000 25.0073 0.0000 0.0000
# 5 0.0000 0.0000 0.0000 0.0000 25.0073 0.0000
# 6 4.2954 -4.2954 0.0000 0.0000 0.0000 33.6279
#
#
#
# Elastic Compliance Matrix: (Units=1/GPa)
#
#
# Indices 1 2 3 4 5 6 
#
# 1 0.019774 -0.004420 -0.003381 0.000000 0.000000 -0.003090
# 2 -0.004420 0.019774 -0.003381 0.000000 0.000000 0.003090
# 3 -0.003381 -0.003381 0.009232 0.000000 0.000000 0.000000
# 4 0.000000 0.000000 0.000000 0.039988 0.000000 0.000000
# 5 0.000000 0.000000 0.000000 0.000000 0.039988 0.000000
# 6 -0.003090 0.003090 0.000000 0.000000 0.000000 0.030527
#
#
# Mechanical properties :
#
#
# Convention : Reuss Voigt Hill
#
# Bulk Modulus (GPa) = 37.85641 44.24691 41.05166
# Shear Modulus (GPa) = 26.25341 28.37831 27.31586
#
# Velocity S-wave (km/s) = 3.42173 3.55751 3.49028
# Velocity P-wave (km/s) = 5.70033 6.05040 5.87797
#
# Compressibility (1/GPa) = 0.02641561
#
# Stress axis : x y z
#
# Youngs Moduli (GPa) = 50.57197 50.57197 108.32266
#
# Poissons Ratio (x) = 0.22353 0.36623
# Poissons Ratio (y) = 0.22353 0.36623
# Poissons Ratio (z) = 0.17098 0.17098
#
# Static dielectric constant tensor:
#      x y z
#    x 1.925500 0.000000 0.000000 
#    y 0.000000 1.925500 0.000000 
#    z 0.000000 0.000000 1.853320 
# 
# From -- ./inp_files/2172.got.cif
#   From: 2010.05.17/outbox.cif.g08.bks.cpg/sg79_cif.got.tgz:2172.got - 2010.06.03 18:47:27.
