data_PCOD9541897
_publ_section_title
;
Structure prediction by ZEFSAII (Michael W. Deem and Ramdas Pophale) SiO2 
 PCOD9541897
Probable space group: I 4
;
_chemical_formula_sum "Si O2"
_cell_formula_units_Z 48
_cell_length_a 10.508278
_cell_length_b 10.508278
_cell_length_c 21.826910
_cell_angle_alpha 90.000000
_cell_angle_beta 90.000000
_cell_angle_gamma 90.000000
_cell_volume 2410.212670
_symmetry_space_group_name_H-M "I 4"
_symmetry_group_IT_number 79
_symmetry_cell_setting 'tetragonal'
loop_
_space_group_symop_operation_xyz
x,y,z
-y,x,z
-x,-y,z
y,-x,z
1/2+x,1/2+y,1/2+z
1/2-y,1/2+x,1/2+z
1/2-x,1/2-y,1/2+z
1/2+y,1/2-x,1/2+z
loop_
_atom_site_type_symbol
_atom_site_label
_atom_site_fract_x
_atom_site_fract_y
_atom_site_fract_z
Si Si1 0.680781 0.609730 0.591280
Si Si2 0.210419 0.970911 0.411883
Si Si3 0.028102 0.210606 0.653564
Si Si4 0.266750 0.196135 0.227054
Si Si5 0.862205 0.438609 0.033788
Si Si6 0.854454 0.453241 0.791110
O O1 0.541855 0.668317 0.585244
O O2 0.724868 0.652729 0.658933
O O3 0.785834 0.644638 0.541246
O O4 0.266733 0.974526 0.480106
O O5 0.320905 0.943362 0.362819
O O6 0.104394 0.862016 0.403088
O O7 0.084531 0.264389 0.717266
O O8 0.019404 0.316578 0.601371
O O9 0.897283 0.136070 0.645760
O O10 0.172502 0.302905 0.254962
O O11 0.266316 0.069272 0.267119
O O12 0.000000 0.500000 0.022357
O O13 0.000000 0.500000 0.782527
#
# Coordination Sequence:
#
# PCOD9541897 Si02
#       6
#     8   8   8   8   8   8
#     4  10  22  39  62  92 130 172 210 262 324 383
#     4  11  24  44  69  92 126 170 218 276 332 391
#     4  10  22  39  61  92 134 173 208 262 330 393
#     4  11  22  38  66  96 138 167 219 261 326 394
#     4  11  25  38  64  93 128 165 223 270 322 388
#     4  12  24  41  66 100 131 176 219 274 328 390
#
# _framework density 19.915255999999999
#
# number of rings (size 3 to 8) (size 9 to 14) (size 15 to 20)
#    0.000    1.167    3.333    2.500    7.000    4.333 
#    0.000    0.000    0.000    0.000    0.000    0.000 
#    0.000    0.000    0.000    0.000    0.000    0.000 
#
# Total GULP energy -133794.889108 kJ/mol
# GULP energy per Si atom -5574.787046 kJ/mol
# Density = 1.986993 g / cm^3
# Si number density = 19.915256 Si / 1000 Ang^3
#
#
#
# Elastic Constant Matrix: (Units=GPa)
#
#
# Indices 1 2 3 4 5 6 
#
# 1 93.3836 27.9641 23.3276 0.0000 0.0000 -2.8975
# 2 27.9641 93.3836 23.3276 0.0000 0.0000 2.8975
# 3 23.3276 23.3276 58.7815 0.0000 0.0000 0.0000
# 4 0.0000 0.0000 0.0000 32.2443 0.0000 0.0000
# 5 0.0000 0.0000 0.0000 0.0000 32.2443 0.0000
# 6 -2.8975 2.8975 0.0000 0.0000 0.0000 34.8794
#
#
#
# Elastic Compliance Matrix: (Units=1/GPa)
#
#
# Indices 1 2 3 4 5 6 
#
# 1 0.012562 -0.002837 -0.003859 0.000000 0.000000 0.001279
# 2 -0.002837 0.012562 -0.003859 0.000000 0.000000 -0.001279
# 3 -0.003859 -0.003859 0.020075 0.000000 0.000000 0.000000
# 4 0.000000 0.000000 0.000000 0.031013 0.000000 0.000000
# 5 0.000000 0.000000 0.000000 0.000000 0.031013 0.000000
# 6 0.001279 -0.001279 0.000000 0.000000 0.000000 0.028883
#
#
# Mechanical properties :
#
#
# Convention : Reuss Voigt Hill
#
# Bulk Modulus (GPa) = 41.51533 43.86525 42.69029
# Shear Modulus (GPa) = 30.25734 31.26888 30.76311
#
# Velocity S-wave (km/s) = 3.90205 3.96674 3.93453
# Velocity P-wave (km/s) = 6.41815 6.56154 6.49024
#
# Compressibility (1/GPa) = 0.02408749
#
# Stress axis : x y z
#
# Youngs Moduli (GPa) = 79.60562 79.60562 49.81261
#
# Poissons Ratio (x) = 0.22587 0.19224
# Poissons Ratio (y) = 0.22587 0.19224
# Poissons Ratio (z) = 0.30722 0.30722
#
# Static dielectric constant tensor:
#      x y z
#    x 1.743490 0.000000 0.000000 
#    y 0.000000 1.743490 0.000000 
#    z 0.000000 0.000000 1.680210 
# 
# From -- ./inp_files/1573.got.cif
#   From: 2010.05.17/outbox.cif.g08.bks.cpg/sg79_cif.got.tgz:1573.got - 2010.06.03 18:47:27.
