data_PCOD9541473
_publ_section_title
;
Structure prediction by ZEFSAII (Michael W. Deem and Ramdas Pophale) SiO2 
 PCOD9541473
Probable space group: P 42
;
_chemical_formula_sum "Si O2"
_cell_formula_units_Z 32
_cell_length_a 11.859926
_cell_length_b 11.859926
_cell_length_c 11.861678
_cell_angle_alpha 90.000000
_cell_angle_beta 90.000000
_cell_angle_gamma 90.000000
_cell_volume 1668.438062
_symmetry_space_group_name_H-M "P 42"
_symmetry_group_IT_number 77
_symmetry_cell_setting 'tetragonal'
loop_
_space_group_symop_operation_xyz
x,y,z
-y,x,1/2+z
-x,-y,z
y,-x,1/2+z
loop_
_atom_site_type_symbol
_atom_site_label
_atom_site_fract_x
_atom_site_fract_y
_atom_site_fract_z
Si Si1 0.229935 0.469558 0.962250
Si Si2 0.566819 0.118058 0.866160
Si Si3 0.133191 0.510799 0.719919
Si Si4 0.661087 0.817276 0.637757
Si Si5 0.258817 0.638988 0.395065
Si Si6 0.138751 0.747511 0.594330
Si Si7 0.913439 0.663277 0.130409
Si Si8 0.116120 0.286590 0.571345
O O1 0.197982 0.507583 0.837391
O O2 0.332676 0.381895 0.944063
O O3 0.238372 0.571868 0.050833
O O4 0.128799 0.394716 0.015738
O O5 0.488117 0.217242 0.911976
O O6 0.595697 0.137487 0.736516
O O7 0.500000 0.000000 0.879022
O O8 0.676479 0.108263 0.941839
O O9 0.162458 0.628685 0.658769
O O10 0.148841 0.400539 0.640984
O O11 0.000000 0.500000 0.744523
O O12 0.657249 0.760770 0.761657
O O13 0.785004 0.799502 0.589648
O O14 0.648797 0.952772 0.644214
O O15 0.174577 0.719377 0.465750
O O16 0.214131 0.853558 0.632715
O O17 0.005183 0.760538 0.606916
#
# Coordination Sequence:
#
# PCOD9541473 Si02
#       8
#     4   4   4   4   4   4   4   4
#     4  11  23  39  62  95 127 167 213 271 323 381
#     4  12  19  40  69  90 117 168 231 260 314 403
#     4  10  19  36  60  86 120 163 210 256 312 380
#     4  12  23  40  63  95 129 173 213 260 337 397
#     4  11  21  40  65  91 123 162 224 275 313 380
#     4  10  22  39  62  95 125 166 215 270 315 380
#     4  11  23  38  66  95 127 167 218 266 320 403
#     4  11  22  38  64  90 126 169 212 267 324 389
#
# _framework density 19.179615999999999
#
# number of rings (size 3 to 8) (size 9 to 14) (size 15 to 20)
#    0.000    1.000    6.250    1.500    1.750    0.500 
#    0.000    0.625    0.000    6.000    0.000    0.000 
#    0.000    0.000    0.000    0.000    0.000    0.000 
#
# Total GULP energy -178469.894009 kJ/mol
# GULP energy per Si atom -5577.184188 kJ/mol
# Density = 1.913596 g / cm^3
# Si number density = 19.179616 Si / 1000 Ang^3
#
#
#
# Elastic Constant Matrix: (Units=GPa)
#
#
# Indices 1 2 3 4 5 6 
#
# 1 68.8653 46.6817 28.7312 0.0000 0.0000 4.9415
# 2 46.6817 68.8653 28.7312 0.0000 0.0000 -4.9415
# 3 28.7312 28.7312 95.0482 0.0000 0.0000 0.0000
# 4 0.0000 0.0000 0.0000 17.1133 0.0000 0.0000
# 5 0.0000 0.0000 0.0000 0.0000 17.1133 0.0000
# 6 4.9415 -4.9415 0.0000 0.0000 0.0000 28.9691
#
#
#
# Elastic Compliance Matrix: (Units=1/GPa)
#
#
# Indices 1 2 3 4 5 6 
#
# 1 0.029486 -0.019300 -0.003079 0.000000 0.000000 -0.008322
# 2 -0.019300 0.029486 -0.003079 0.000000 0.000000 0.008322
# 3 -0.003079 -0.003079 0.012382 0.000000 0.000000 0.000000
# 4 0.000000 0.000000 0.000000 0.058434 0.000000 0.000000
# 5 0.000000 0.000000 0.000000 0.000000 0.058434 0.000000
# 6 -0.008322 0.008322 0.000000 0.000000 0.000000 0.037359
#
#
# Mechanical properties :
#
#
# Convention : Reuss Voigt Hill
#
# Bulk Modulus (GPa) = 48.92845 49.00741 48.96793
# Shear Modulus (GPa) = 17.64857 21.21478 19.43167
#
# Velocity S-wave (km/s) = 3.03673 3.32943 3.18644
# Velocity P-wave (km/s) = 6.15318 6.35511 6.25496
#
# Compressibility (1/GPa) = 0.02043801
#
# Stress axis : x y z
#
# Youngs Moduli (GPa) = 33.91479 33.91479 80.75997
#
# Poissons Ratio (x) = 0.65456 0.24865
# Poissons Ratio (y) = 0.65456 0.24865
# Poissons Ratio (z) = 0.10442 0.10442
#
# Static dielectric constant tensor:
#      x y z
#    x 1.680630 0.000000 0.000000 
#    y 0.000000 1.680630 0.000000 
#    z 0.000000 0.000000 1.672490 
# 
# From -- ./inp_files/924.got.cif
#   From: 2010.05.17/outbox.cif.g08.bks.cpg/sg77_cif.got.tgz:924.got - 2010.06.03 18:44:51.
