data_PCOD9541689
_publ_section_title
;
Structure prediction by ZEFSAII (Michael W. Deem and Ramdas Pophale) SiO2 
 PCOD9541689
Probable space group: P 43
;
_chemical_formula_sum "Si O2"
_cell_formula_units_Z 32
_cell_length_a 7.525602
_cell_length_b 7.525602
_cell_length_c 23.279928
_cell_angle_alpha 90.000000
_cell_angle_beta 90.000000
_cell_angle_gamma 90.000000
_cell_volume 1318.451400
_symmetry_space_group_name_H-M "P 43"
_symmetry_group_IT_number 78
_symmetry_cell_setting 'tetragonal'
loop_
_space_group_symop_operation_xyz
x,y,z
-y,x,3/4+z
-x,-y,1/2+z
y,-x,1/4+z
loop_
_atom_site_type_symbol
_atom_site_label
_atom_site_fract_x
_atom_site_fract_y
_atom_site_fract_z
Si Si1 0.598403 0.536491 0.894510
Si Si2 0.732060 0.424514 0.326076
Si Si3 0.553976 0.761363 0.456406
Si Si4 0.120056 0.856528 0.137462
Si Si5 0.055952 0.388045 0.540323
Si Si6 0.382243 0.083339 0.077065
Si Si7 0.351818 0.075228 0.389128
Si Si8 0.964045 0.226980 0.422824
O O1 0.451677 0.486688 0.846054
O O2 0.562160 0.413986 0.948723
O O3 0.795011 0.501764 0.869663
O O4 0.552892 0.740228 0.906158
O O5 0.888469 0.553037 0.305816
O O6 0.842087 0.328254 0.377429
O O7 0.675645 0.260353 0.286517
O O8 0.731868 0.739005 0.418696
O O9 0.617108 0.802633 0.519828
O O10 0.430470 0.917026 0.428029
O O11 0.041212 0.748454 0.083647
O O12 0.207166 0.036055 0.113447
O O13 0.962156 0.869365 0.183996
O O14 0.043729 0.577847 0.573444
O O15 0.982973 0.353703 0.477284
O O16 0.149135 0.140781 0.398192
#
# Coordination Sequence:
#
# PCOD9541689 Si02
#       8
#     4   4   4   4   4   4   4   4
#     4  11  24  45  65 102 139 173 232 283 332 417
#     4  10  22  42  63  95 140 168 227 286 325 420
#     4  11  24  43  68 100 136 183 226 290 348 404
#     4  10  22  41  63  97 136 172 240 283 336 428
#     4   9  21  39  67  96 129 187 223 281 357 399
#     4  12  23  42  69  97 135 185 226 285 352 407
#     4  10  22  42  67 101 135 172 237 280 335 427
#     4  11  20  42  66  94 136 182 221 286 351 408
#
# _framework density 24.270897999999999
#
# number of rings (size 3 to 8) (size 9 to 14) (size 15 to 20)
#    0.000    1.500    2.500    3.000    0.000    3.000 
#    6.750    1.250    0.000    0.000    0.000    0.000 
#    0.000    0.000    0.000    0.000    0.000    0.000 
#
# Total GULP energy -178558.143687 kJ/mol
# GULP energy per Si atom -5579.941990 kJ/mol
# Density = 2.421566 g / cm^3
# Si number density = 24.270898 Si / 1000 Ang^3
#
#
#
# Elastic Constant Matrix: (Units=GPa)
#
#
# Indices 1 2 3 4 5 6 
#
# 1 65.8211 22.6754 19.1548 0.0000 0.0000 14.4522
# 2 22.6754 65.8211 19.1548 0.0000 0.0000 -14.4522
# 3 19.1548 19.1548 79.1791 0.0000 0.0000 0.0000
# 4 0.0000 0.0000 0.0000 23.1886 0.0000 0.0000
# 5 0.0000 0.0000 0.0000 0.0000 23.1886 0.0000
# 6 14.4522 -14.4522 0.0000 0.0000 0.0000 5.4772
#
#
#
# Elastic Compliance Matrix: (Units=1/GPa)
#
#
# Indices 1 2 3 4 5 6 
#
# 1 -0.008785 0.021406 -0.003053 0.000000 0.000000 0.079663
# 2 0.021406 -0.008785 -0.003053 0.000000 0.000000 -0.079663
# 3 -0.003053 -0.003053 0.014107 0.000000 0.000000 0.000000
# 4 0.000000 0.000000 0.000000 0.043125 0.000000 0.000000
# 5 0.000000 0.000000 0.000000 0.000000 0.043125 0.000000
# 6 0.079663 -0.079663 0.000000 0.000000 0.000000 -0.237827
#
#
# Mechanical properties :
#
#
# Convention : Reuss Voigt Hill
#
# Bulk Modulus (GPa) = 36.85047 36.97680 36.91363
# Shear Modulus (GPa) = -28.31361 20.35995 -3.97683
#
# Velocity S-wave (km/s) = -3.41921 2.89946 -1.28143
# Velocity P-wave (km/s) = 0.60995 5.14560 3.61284
#
# Compressibility (1/GPa) = 0.02713670
#
# Stress axis : x y z
#
# Youngs Moduli (GPa) = -113.83310 -113.83310 70.88712
#
# Poissons Ratio (x) = 2.43677 0.21645
# Poissons Ratio (y) = 2.43677 0.21645
# Poissons Ratio (z) = -0.34758 -0.34758
#
# Static dielectric constant tensor:
#      x y z
#    x 1.995780 0.000000 0.000000 
#    y 0.000000 1.995780 0.000000 
#    z 0.000000 0.000000 1.923060 
# 
# From -- ./inp_files/1595.got.cif
#   From: 2010.05.17/outbox.cif.g08.bks.cpg/sg78_cif.got.tgz:1595.got - 2010.06.03 18:45:56.
