data_PCOD9541270
_publ_section_title
;
Structure prediction by ZEFSAII (Michael W. Deem and Ramdas Pophale) SiO2 
 PCOD9541270
Probable space group: P 41
;
_chemical_formula_sum "Si O2"
_cell_formula_units_Z 32
_cell_length_a 9.763541
_cell_length_b 9.763541
_cell_length_c 12.256512
_cell_angle_alpha 90.000000
_cell_angle_beta 90.000000
_cell_angle_gamma 90.000000
_cell_volume 1168.373245
_symmetry_space_group_name_H-M "P 41"
_symmetry_group_IT_number 76
_symmetry_cell_setting 'tetragonal'
loop_
_space_group_symop_operation_xyz
x,y,z
-y,x,1/4+z
-x,-y,1/2+z
y,-x,3/4+z
loop_
_atom_site_type_symbol
_atom_site_label
_atom_site_fract_x
_atom_site_fract_y
_atom_site_fract_z
Si Si1 0.265956 0.190357 0.672140
Si Si2 0.166459 0.064150 0.884285
Si Si3 0.202281 0.714438 0.189290
Si Si4 0.225238 0.109422 0.198402
Si Si5 0.118574 0.435204 0.460695
Si Si6 0.573497 0.523071 0.186964
Si Si7 0.949571 0.530263 0.632127
Si Si8 0.310122 0.750861 0.765891
O O1 0.168431 0.134289 0.765899
O O2 0.206862 0.170112 0.551367
O O3 0.407771 0.105768 0.680587
O O4 0.329481 0.342327 0.689505
O O5 0.078983 0.931176 0.913550
O O6 0.321315 0.006735 0.910499
O O7 0.154295 0.194521 0.962054
O O8 0.366700 0.735766 0.183432
O O9 0.144212 0.561989 0.208755
O O10 0.138202 0.763533 0.076759
O O11 0.276019 0.246157 0.135167
O O12 0.328493 0.989899 0.162738
O O13 0.076630 0.442741 0.588440
O O14 0.494459 0.517540 0.308962
O O15 0.663370 0.384340 0.199145
O O16 0.841379 0.555934 0.533623
#
# Coordination Sequence:
#
# PCOD9541270 Si02
#       8
#     4   4   4   4   4   4   4   4
#     4  11  25  43  72 114 153 202 249 329 408 466
#     4  10  22  50  74 104 150 200 255 321 388 467
#     4  11  24  42  75 112 146 195 259 321 393 472
#     4  10  24  45  78 106 140 208 266 318 388 476
#     4  10  23  45  71 100 150 197 248 319 389 466
#     4  12  28  44  68 118 167 204 258 326 403 484
#     4   9  24  44  73 109 142 201 255 305 391 468
#     4  11  24  43  75 109 148 199 258 313 388 475
#
# _framework density 27.388507000000001
#
# number of rings (size 3 to 8) (size 9 to 14) (size 15 to 20)
#    0.000    1.500    1.250    1.500   14.000    0.000 
#    0.000    7.500   46.750    0.000    0.000    0.000 
#    0.000    0.000    0.000    0.000    0.000    0.000 
#
# Total GULP energy -178750.832802 kJ/mol
# GULP energy per Si atom -5585.963525 kJ/mol
# Density = 2.732617 g / cm^3
# Si number density = 27.388507 Si / 1000 Ang^3
#
#
#
# Elastic Constant Matrix: (Units=GPa)
#
#
# Indices 1 2 3 4 5 6 
#
# 1 99.0276 12.7196 20.8859 0.0000 0.0000 -6.3025
# 2 12.7196 99.0276 20.8859 0.0000 0.0000 6.3025
# 3 20.8859 20.8859 187.2480 0.0000 0.0000 0.0000
# 4 0.0000 0.0000 0.0000 29.1038 0.0000 0.0000
# 5 0.0000 0.0000 0.0000 0.0000 29.1038 0.0000
# 6 -6.3025 6.3025 0.0000 0.0000 0.0000 56.6122
#
#
#
# Elastic Compliance Matrix: (Units=1/GPa)
#
#
# Indices 1 2 3 4 5 6 
#
# 1 0.010558 -0.001220 -0.001042 0.000000 0.000000 0.001311
# 2 -0.001220 0.010558 -0.001042 0.000000 0.000000 -0.001311
# 3 -0.001042 -0.001042 0.005573 0.000000 0.000000 0.000000
# 4 0.000000 0.000000 0.000000 0.034360 0.000000 0.000000
# 5 0.000000 0.000000 0.000000 0.000000 0.034360 0.000000
# 6 0.001311 -0.001311 0.000000 0.000000 0.000000 0.017956
#
#
# Mechanical properties :
#
#
# Convention : Reuss Voigt Hill
#
# Bulk Modulus (GPa) = 49.79392 54.92065 52.35728
# Shear Modulus (GPa) = 39.47427 45.01808 42.24618
#
# Velocity S-wave (km/s) = 3.80053 4.05864 3.93170
# Velocity P-wave (km/s) = 6.12199 6.48532 6.30627
#
# Compressibility (1/GPa) = 0.02008278
#
# Stress axis : x y z
#
# Youngs Moduli (GPa) = 94.71478 94.71478 179.44077
#
# Poissons Ratio (x) = 0.11554 0.18690
# Poissons Ratio (y) = 0.11554 0.18690
# Poissons Ratio (z) = 0.09865 0.09865
#
# Static dielectric constant tensor:
#      x y z
#    x 2.188190 0.000000 0.000000 
#    y 0.000000 2.188190 0.000000 
#    z 0.000000 0.000000 2.221180 
# 
# From -- ./inp_files/936.got.cif
#   From: 2010.05.17/outbox.cif.g08.bks.cpg/sg76_cif.got.tgz:936.got - 2010.06.03 18:43:17.
