data_PCOD9541642
_publ_section_title
;
Structure prediction by ZEFSAII (Michael W. Deem and Ramdas Pophale) SiO2 
 PCOD9541642
Probable space group: P 43
;
_chemical_formula_sum "Si O2"
_cell_formula_units_Z 28
_cell_length_a 11.245579
_cell_length_b 11.245579
_cell_length_c 8.695645
_cell_angle_alpha 90.000000
_cell_angle_beta 90.000000
_cell_angle_gamma 90.000000
_cell_volume 1099.677763
_symmetry_space_group_name_H-M "P 43"
_symmetry_group_IT_number 78
_symmetry_cell_setting 'tetragonal'
loop_
_space_group_symop_operation_xyz
x,y,z
-y,x,3/4+z
-x,-y,1/2+z
y,-x,1/4+z
loop_
_atom_site_type_symbol
_atom_site_label
_atom_site_fract_x
_atom_site_fract_y
_atom_site_fract_z
Si Si1 0.369457 0.119718 0.427980
Si Si2 0.372560 0.491683 0.275920
Si Si3 0.127169 0.235735 0.743611
Si Si4 0.127216 0.496004 0.132904
Si Si5 0.556104 0.276662 0.581689
Si Si6 0.283594 0.040896 0.755918
Si Si7 0.151395 0.039052 0.249299
O O1 0.447159 0.237265 0.470138
O O2 0.335071 0.062180 0.591553
O O3 0.247751 0.128401 0.329663
O O4 0.450846 0.008893 0.371455
O O5 0.391997 0.542591 0.447504
O O6 0.231661 0.464568 0.253616
O O7 0.418149 0.596952 0.158529
O O8 0.240392 0.318520 0.760842
O O9 0.155511 0.097535 0.748278
O O10 0.085841 0.271078 0.575670
O O11 0.036086 0.238368 0.884667
O O12 0.188773 0.460402 0.974677
O O13 0.110643 0.637943 0.131930
O O14 0.050807 0.099935 0.135426
#
# Coordination Sequence:
#
# PCOD9541642 Si02
#       7
#     4   4   4   4   4   4   4
#     4  11  25  44  69 104 140 183 246 297 351 437
#     4  10  22  44  65  95 136 175 227 278 345 413
#     4  12  22  43  67  98 136 189 228 285 365 428
#     4  10  20  42  68  97 135 179 226 288 344 422
#     4  10  21  42  69  97 138 178 230 287 349 419
#     4  11  25  40  67 100 138 183 232 289 361 422
#     4  12  29  47  71 101 145 189 245 300 367 443
#
# _framework density 25.462004
#
# number of rings (size 3 to 8) (size 9 to 14) (size 15 to 20)
#    0.000    1.143    5.714    0.000    4.000    0.000 
#    5.143    0.000    0.000    0.000    0.000    0.000 
#    0.000    0.000    0.000    0.000    0.000    0.000 
#
# Total GULP energy -155979.117869 kJ/mol
# GULP energy per Si atom -5570.682781 kJ/mol
# Density = 2.540405 g / cm^3
# Si number density = 25.462004 Si / 1000 Ang^3
#
#
#
# Elastic Constant Matrix: (Units=GPa)
#
#
# Indices 1 2 3 4 5 6 
#
# 1 49.8956 18.8684 28.6576 0.0000 0.0000 4.8407
# 2 18.8684 49.8956 28.6576 0.0000 0.0000 -4.8407
# 3 28.6576 28.6576 82.0766 0.0000 0.0000 0.0000
# 4 0.0000 0.0000 0.0000 10.5495 0.0000 0.0000
# 5 0.0000 0.0000 0.0000 0.0000 10.5495 0.0000
# 6 4.8407 -4.8407 0.0000 0.0000 0.0000 27.7916
#
#
#
# Elastic Compliance Matrix: (Units=1/GPa)
#
#
# Indices 1 2 3 4 5 6 
#
# 1 0.027297 -0.006785 -0.007162 0.000000 0.000000 -0.005936
# 2 -0.006785 0.027297 -0.007162 0.000000 0.000000 0.005936
# 3 -0.007162 -0.007162 0.017185 0.000000 0.000000 0.000000
# 4 0.000000 0.000000 0.000000 0.094791 0.000000 0.000000
# 5 0.000000 0.000000 0.000000 0.000000 0.094791 0.000000
# 6 -0.005936 0.005936 0.000000 0.000000 0.000000 0.038050
#
#
# Mechanical properties :
#
#
# Convention : Reuss Voigt Hill
#
# Bulk Modulus (GPa) = 33.82791 37.13721 35.48256
# Shear Modulus (GPa) = 14.22543 16.82373 15.52458
#
# Velocity S-wave (km/s) = 2.36623 2.57327 2.47192
# Velocity P-wave (km/s) = 4.55850 4.84211 4.70244
#
# Compressibility (1/GPa) = 0.02956138
#
# Stress axis : x y z
#
# Youngs Moduli (GPa) = 36.63397 36.63397 58.19032
#
# Poissons Ratio (x) = 0.24856 0.41675
# Poissons Ratio (y) = 0.24856 0.41675
# Poissons Ratio (z) = 0.26237 0.26237
#
# Static dielectric constant tensor:
#      x y z
#    x 2.969690 0.000000 0.000000 
#    y 0.000000 2.969690 0.000000 
#    z 0.000000 0.000000 2.099910 
# 
# From -- ./inp_files/603.got.cif
#   From: 2010.05.17/outbox.cif.g08.bks.cpg/sg78_cif.got.tgz:603.got - 2010.06.03 18:45:56.
