data_PCOD9541937
_publ_section_title
;
Structure prediction by ZEFSAII (Michael W. Deem and Ramdas Pophale) SiO2 
 PCOD9541937
Probable space group: I 4
;
_chemical_formula_sum "Si O2"
_cell_formula_units_Z 18
_cell_length_a 9.733883
_cell_length_b 9.733883
_cell_length_c 7.390304
_cell_angle_alpha 90.000000
_cell_angle_beta 90.000000
_cell_angle_gamma 90.000000
_cell_volume 700.220058
_symmetry_space_group_name_H-M "I 4"
_symmetry_group_IT_number 79
_symmetry_cell_setting 'tetragonal'
loop_
_space_group_symop_operation_xyz
x,y,z
-y,x,z
-x,-y,z
y,-x,z
1/2+x,1/2+y,1/2+z
1/2-y,1/2+x,1/2+z
1/2-x,1/2-y,1/2+z
1/2+y,1/2-x,1/2+z
loop_
_atom_site_type_symbol
_atom_site_label
_atom_site_fract_x
_atom_site_fract_y
_atom_site_fract_z
Si Si1 0.460435 0.842594 0.734490
Si Si2 0.500000 0.500000 0.129327
Si Si3 0.769822 0.191407 0.471824
O O1 0.378221 0.791141 0.559917
O O2 0.351286 0.821906 0.898705
O O3 0.589009 0.752637 0.800495
O O4 0.500000 0.000000 0.713328
O O5 0.370884 0.610213 0.107102
#
# Coordination Sequence:
#
# PCOD9541937 Si02
#       3
#     8   2   8
#     4  11  25  45  74 111 149 199 251 312 366 457
#     4   8  20  44  60 102 140 188 248 310 344 460
#     4  10  24  44  74 104 154 196 252 309 376 435
#
# _framework density 25.706205000000001
#
# number of rings (size 3 to 8) (size 9 to 14) (size 15 to 20)
#    0.000    1.778    0.000    1.333   18.667    0.000 
#    0.000    0.000    0.000    0.000    0.000    0.000 
#    0.000    0.000    0.000    0.000    0.000    0.000 
#
# Total GULP energy -50132.158109 kJ/mol
# GULP energy per Si atom -5570.239790 kJ/mol
# Density = 2.564770 g / cm^3
# Si number density = 25.706205 Si / 1000 Ang^3
#
#
#
# Elastic Constant Matrix: (Units=GPa)
#
#
# Indices 1 2 3 4 5 6 
#
# 1 116.4898 36.8124 27.9520 0.0000 0.0000 -21.9797
# 2 36.8124 116.4898 27.9520 0.0000 0.0000 21.9797
# 3 27.9520 27.9520 56.1356 0.0000 0.0000 0.0000
# 4 0.0000 0.0000 0.0000 45.5860 0.0000 0.0000
# 5 0.0000 0.0000 0.0000 0.0000 45.5860 0.0000
# 6 -21.9797 21.9797 0.0000 0.0000 0.0000 126.0455
#
#
#
# Elastic Compliance Matrix: (Units=1/GPa)
#
#
# Indices 1 2 3 4 5 6 
#
# 1 0.010928 -0.002958 -0.003969 0.000000 0.000000 0.002422
# 2 -0.002958 0.010928 -0.003969 0.000000 0.000000 -0.002422
# 3 -0.003969 -0.003969 0.021766 0.000000 0.000000 0.000000
# 4 0.000000 0.000000 0.000000 0.021937 0.000000 0.000000
# 5 0.000000 0.000000 0.000000 0.000000 0.021937 0.000000
# 6 0.002422 -0.002422 0.000000 0.000000 0.000000 0.008778
#
#
# Mechanical properties :
#
#
# Convention : Reuss Voigt Hill
#
# Bulk Modulus (GPa) = 45.80406 52.72756 49.26581
# Shear Modulus (GPa) = 39.89051 56.53677 48.21364
#
# Velocity S-wave (km/s) = 3.94354 4.69480 4.33548
# Velocity P-wave (km/s) = 6.21227 7.06713 6.65345
#
# Compressibility (1/GPa) = 0.02183213
#
# Stress axis : x y z
#
# Youngs Moduli (GPa) = 91.50420 91.50420 45.94244
#
# Poissons Ratio (x) = 0.27068 0.18233
# Poissons Ratio (y) = 0.27068 0.18233
# Poissons Ratio (z) = 0.36315 0.36315
#
# Static dielectric constant tensor:
#      x y z
#    x 1.978840 0.000000 0.000000 
#    y 0.000000 1.978840 0.000000 
#    z 0.000000 0.000000 2.185160 
# 
# From -- ./inp_files/21.got.cif
#   From: 2010.05.17/outbox.cif.g08.bks.cpg/sg79_cif.got.tgz:21.got - 2010.06.03 18:47:27.
