data_PCOD9541458
_publ_section_title
;
Structure prediction by ZEFSAII (Michael W. Deem and Ramdas Pophale) SiO2 
 PCOD9541458
Probable space group: P 42
;
_chemical_formula_sum "Si O2"
_cell_formula_units_Z 24
_cell_length_a 8.091843
_cell_length_b 8.091843
_cell_length_c 17.067324
_cell_angle_alpha 90.000000
_cell_angle_beta 90.000000
_cell_angle_gamma 90.000000
_cell_volume 1117.532929
_symmetry_space_group_name_H-M "P 42"
_symmetry_group_IT_number 77
_symmetry_cell_setting 'tetragonal'
loop_
_space_group_symop_operation_xyz
x,y,z
-y,x,1/2+z
-x,-y,z
y,-x,1/2+z
loop_
_atom_site_type_symbol
_atom_site_label
_atom_site_fract_x
_atom_site_fract_y
_atom_site_fract_z
Si Si1 0.772896 0.372932 0.219110
Si Si2 0.843561 0.699208 0.982451
Si Si3 0.177151 0.555906 0.732728
Si Si4 0.703099 0.481921 0.395336
Si Si5 0.170515 0.652871 0.912966
Si Si6 0.891723 0.718420 0.160011
O O1 0.588665 0.302567 0.205633
O O2 0.765566 0.436549 0.308731
O O3 0.825768 0.528949 0.167125
O O4 0.930538 0.256116 0.201282
O O5 0.665347 0.755511 0.952249
O O6 0.827979 0.498133 0.975147
O O7 0.995979 0.741355 0.924966
O O8 0.891656 0.757303 0.068396
O O9 0.179734 0.567890 0.827339
O O10 0.195654 0.741411 0.703737
O O11 0.000000 0.500000 0.705637
O O12 0.500000 0.500000 0.394450
O O13 0.759734 0.664500 0.420069
#
# Coordination Sequence:
#
# PCOD9541458 Si02
#       6
#     4   4   4   4   4   4
#     4  11  20  39  62  96 134 163 218 282 322 404
#     4  10  20  36  58  99 128 164 223 275 328 395
#     4  12  22  40  67  92 129 179 226 269 329 407
#     4  10  17  32  62  90 126 170 223 268 321 400
#     4  10  17  33  61  93 123 167 219 265 323 395
#     4  11  25  37  65 102 135 165 219 285 342 384
#
# _framework density 21.47588
#
# number of rings (size 3 to 8) (size 9 to 14) (size 15 to 20)
#    0.000    1.333    6.667    2.500    0.000    6.000 
#    0.000    0.000    3.667    2.000    0.000    0.000 
#    0.000    0.000    0.000    0.000    0.000    0.000 
#
# Total GULP energy -133788.975655 kJ/mol
# GULP energy per Si atom -5574.540652 kJ/mol
# Density = 2.142700 g / cm^3
# Si number density = 21.475880 Si / 1000 Ang^3
#
#
#
# Elastic Constant Matrix: (Units=GPa)
#
#
# Indices 1 2 3 4 5 6 
#
# 1 84.9070 13.5723 16.8869 0.0000 0.0000 -1.7576
# 2 13.5723 84.9070 16.8869 0.0000 0.0000 1.7576
# 3 16.8869 16.8869 78.2147 0.0000 0.0000 0.0000
# 4 0.0000 0.0000 0.0000 13.1856 0.0000 0.0000
# 5 0.0000 0.0000 0.0000 0.0000 13.1856 0.0000
# 6 -1.7576 1.7576 0.0000 0.0000 0.0000 16.8595
#
#
#
# Elastic Compliance Matrix: (Units=1/GPa)
#
#
# Indices 1 2 3 4 5 6 
#
# 1 0.012529 -0.001562 -0.002368 0.000000 0.000000 0.001469
# 2 -0.001562 0.012529 -0.002368 0.000000 0.000000 -0.001469
# 3 -0.002368 -0.002368 0.013808 0.000000 0.000000 0.000000
# 4 0.000000 0.000000 0.000000 0.075840 0.000000 0.000000
# 5 0.000000 0.000000 0.000000 0.000000 0.075840 0.000000
# 6 0.001469 -0.001469 0.000000 0.000000 0.000000 0.059620
#
#
# Mechanical properties :
#
#
# Convention : Reuss Voigt Hill
#
# Bulk Modulus (GPa) = 38.06657 38.08010 38.07334
# Shear Modulus (GPa) = 18.41500 22.02496 20.21998
#
# Velocity S-wave (km/s) = 2.93144 3.20592 3.07175
# Velocity P-wave (km/s) = 5.40570 5.61017 5.50888
#
# Compressibility (1/GPa) = 0.02626977
#
# Stress axis : x y z
#
# Youngs Moduli (GPa) = 79.81725 79.81725 72.42325
#
# Poissons Ratio (x) = 0.12469 0.17148
# Poissons Ratio (y) = 0.12469 0.17148
# Poissons Ratio (z) = 0.18898 0.18898
#
# Static dielectric constant tensor:
#      x y z
#    x 1.806100 0.000000 0.000000 
#    y 0.000000 1.806100 0.000000 
#    z 0.000000 0.000000 1.748890 
# 
# From -- ./inp_files/1311.got.cif
#   From: 2010.05.17/outbox.cif.g08.bks.cpg/sg77_cif.got.tgz:1311.got - 2010.06.03 18:44:51.
