data_PCOD9541600
_publ_section_title
;
Structure prediction by ZEFSAII (Michael W. Deem and Ramdas Pophale) SiO2 
 PCOD9541600
Probable space group: P 43
;
_chemical_formula_sum "Si O2"
_cell_formula_units_Z 32
_cell_length_a 12.189813
_cell_length_b 12.189813
_cell_length_c 11.176425
_cell_angle_alpha 90.000000
_cell_angle_beta 90.000000
_cell_angle_gamma 90.000000
_cell_volume 1660.722213
_symmetry_space_group_name_H-M "P 43"
_symmetry_group_IT_number 78
_symmetry_cell_setting 'tetragonal'
loop_
_space_group_symop_operation_xyz
x,y,z
-y,x,3/4+z
-x,-y,1/2+z
y,-x,1/4+z
loop_
_atom_site_type_symbol
_atom_site_label
_atom_site_fract_x
_atom_site_fract_y
_atom_site_fract_z
Si Si1 0.524777 0.912217 0.728880
Si Si2 0.713607 0.040363 0.108925
Si Si3 0.851990 0.827572 0.063607
Si Si4 0.857368 0.604795 0.189471
Si Si5 0.121989 0.599978 0.224384
Si Si6 0.061385 0.951826 0.152761
Si Si7 0.737890 0.202259 0.651983
Si Si8 0.117086 0.374465 0.112734
O O1 0.404920 0.951964 0.676217
O O2 0.495965 0.840750 0.847553
O O3 0.588774 0.859702 0.617260
O O4 0.592495 0.015895 0.776762
O O5 0.799730 0.119319 0.176607
O O6 0.765889 0.919957 0.099759
O O7 0.694796 0.076237 0.974252
O O8 0.819558 0.712760 0.119573
O O9 0.968796 0.863045 0.118680
O O10 0.802849 0.631140 0.316861
O O11 0.989417 0.604360 0.209426
O O12 0.179892 0.695794 0.150930
O O13 0.161433 0.487003 0.166142
O O14 0.182844 0.903451 0.132469
O O15 0.042287 0.965457 0.297434
O O16 0.693259 0.200688 0.785556
#
# Coordination Sequence:
#
# PCOD9541600 Si02
#       8
#     4   4   4   4   4   4   4   4
#     4   9  20  39  56  76 116 154 193 248 297 329
#     4  10  22  35  52  78 118 157 194 235 283 347
#     4  11  19  33  50  76 114 161 192 223 274 339
#     4  10  19  34  55  83 111 152 197 235 285 348
#     4  10  20  39  57  83 117 148 195 256 289 346
#     4  12  24  34  51  81 125 167 199 232 287 343
#     4  12  21  35  59  85 109 149 211 240 291 360
#     4  10  23  35  56  82 108 154 199 241 300 344
#
# _framework density 19.268723000000001
#
# number of rings (size 3 to 8) (size 9 to 14) (size 15 to 20)
#    0.000    1.500    5.000    0.000    5.250    1.000 
#    0.000    0.000    0.000    0.000    3.250    0.000 
#    0.000    0.000    0.000    0.000    0.000    0.000 
#
# Total GULP energy -178226.884926 kJ/mol
# GULP energy per Si atom -5569.590154 kJ/mol
# Density = 1.922487 g / cm^3
# Si number density = 19.268723 Si / 1000 Ang^3
#
#
#
# Elastic Constant Matrix: (Units=GPa)
#
#
# Indices 1 2 3 4 5 6 
#
# 1 24.9755 4.1984 16.6680 0.0000 0.0000 2.6572
# 2 4.1984 24.9755 16.6680 0.0000 0.0000 -2.6572
# 3 16.6680 16.6680 110.6659 0.0000 0.0000 0.0000
# 4 0.0000 0.0000 0.0000 21.0420 0.0000 0.0000
# 5 0.0000 0.0000 0.0000 0.0000 21.0420 0.0000
# 6 2.6572 -2.6572 0.0000 0.0000 0.0000 11.8238
#
#
#
# Elastic Compliance Matrix: (Units=1/GPa)
#
#
# Indices 1 2 3 4 5 6 
#
# 1 0.046234 -0.004831 -0.006236 0.000000 0.000000 -0.011476
# 2 -0.004831 0.046234 -0.006236 0.000000 0.000000 0.011476
# 3 -0.006236 -0.006236 0.010915 0.000000 0.000000 0.000000
# 4 0.000000 0.000000 0.000000 0.047524 0.000000 0.000000
# 5 0.000000 0.000000 0.000000 0.000000 0.047524 0.000000
# 6 -0.011476 0.011476 0.000000 0.000000 0.000000 0.089733
#
#
# Mechanical properties :
#
#
# Convention : Reuss Voigt Hill
#
# Bulk Modulus (GPa) = 14.53984 26.18728 20.36356
# Shear Modulus (GPa) = 14.46362 18.98707 16.72535
#
# Velocity S-wave (km/s) = 2.74273 3.14249 2.94939
# Velocity P-wave (km/s) = 4.19432 5.17562 4.71059
#
# Compressibility (1/GPa) = 0.06877655
#
# Stress axis : x y z
#
# Youngs Moduli (GPa) = 21.62915 21.62915 91.62001
#
# Poissons Ratio (x) = 0.10449 0.57133
# Poissons Ratio (y) = 0.10449 0.57133
# Poissons Ratio (z) = 0.13488 0.13488
#
# Static dielectric constant tensor:
#      x y z
#    x 1.688080 0.000000 0.000000 
#    y 0.000000 1.688080 0.000000 
#    z 0.000000 0.000000 1.797320 
# 
# From -- ./inp_files/959.got.cif
#   From: 2010.05.17/outbox.cif.g08.bks.cpg/sg78_cif.got.tgz:959.got - 2010.06.03 18:45:56.
