data_PCOD9541209
_publ_section_title
;
Structure prediction by ZEFSAII (Michael W. Deem and Ramdas Pophale) SiO2 
 PCOD9541209
Probable space group: P 41
;
_chemical_formula_sum "Si O2"
_cell_formula_units_Z 24
_cell_length_a 8.908617
_cell_length_b 8.908617
_cell_length_c 11.430618
_cell_angle_alpha 90.000000
_cell_angle_beta 90.000000
_cell_angle_gamma 90.000000
_cell_volume 907.173358
_symmetry_space_group_name_H-M "P 41"
_symmetry_group_IT_number 76
_symmetry_cell_setting 'tetragonal'
loop_
_space_group_symop_operation_xyz
x,y,z
-y,x,1/4+z
-x,-y,1/2+z
y,-x,3/4+z
loop_
_atom_site_type_symbol
_atom_site_label
_atom_site_fract_x
_atom_site_fract_y
_atom_site_fract_z
Si Si1 0.147285 0.743104 0.664370
Si Si2 0.708704 0.048022 0.986949
Si Si3 0.443053 0.701234 0.345431
Si Si4 0.886745 0.040788 0.595880
Si Si5 0.360629 0.657184 0.098538
Si Si6 0.120535 0.427379 0.167717
O O1 0.206168 0.894025 0.601910
O O2 0.267121 0.608266 0.646168
O O3 0.080938 0.762231 0.795525
O O4 0.002867 0.666667 0.598995
O O5 0.673276 0.206628 0.923943
O O6 0.040323 0.940850 0.966274
O O7 0.548587 0.967244 0.998638
O O8 0.395254 0.752722 0.215762
O O9 0.415947 0.524576 0.330411
O O10 0.204463 0.067818 0.402198
O O11 0.239766 0.525699 0.097553
O O12 0.325637 0.779675 0.001479
#
# Coordination Sequence:
#
# PCOD9541209 Si02
#       6
#     4   4   4   4   4   4
#     4  11  24  47  72 117 153 204 272 322 401 477
#     4  11  24  45  77 112 153 208 256 324 409 472
#     4  10  22  42  77 106 149 206 262 334 383 485
#     4  12  27  46  73 108 156 207 254 323 394 479
#     4  10  21  43  77 111 152 203 271 313 414 461
#     4  10  24  43  76 112 149 206 255 340 385 480
#
# _framework density 26.455805999999999
#
# number of rings (size 3 to 8) (size 9 to 14) (size 15 to 20)
#    0.000    1.333    3.333    1.000    7.000    1.333 
#    6.000    0.000    0.000    0.000    0.000    0.000 
#    0.000    0.000    0.000    0.000    0.000    0.000 
#
# Total GULP energy -133648.482558 kJ/mol
# GULP energy per Si atom -5568.686773 kJ/mol
# Density = 2.639559 g / cm^3
# Si number density = 26.455806 Si / 1000 Ang^3
#
#
#
# Elastic Constant Matrix: (Units=GPa)
#
#
# Indices 1 2 3 4 5 6 
#
# 1 110.5920 37.4301 33.2911 0.0000 0.0000 12.2198
# 2 37.4301 110.5920 33.2911 0.0000 0.0000 -12.2198
# 3 33.2911 33.2911 98.5828 0.0000 0.0000 0.0000
# 4 0.0000 0.0000 0.0000 32.0748 0.0000 0.0000
# 5 0.0000 0.0000 0.0000 0.0000 32.0748 0.0000
# 6 12.2198 -12.2198 0.0000 0.0000 0.0000 -8.0136
#
#
#
# Elastic Compliance Matrix: (Units=1/GPa)
#
#
# Indices 1 2 3 4 5 6 
#
# 1 0.008511 -0.000545 -0.002690 0.000000 0.000000 0.013809
# 2 -0.000545 0.008511 -0.002690 0.000000 0.000000 -0.013809
# 3 -0.002690 -0.002690 0.011961 0.000000 0.000000 0.000000
# 4 0.000000 0.000000 0.000000 0.031177 0.000000 0.000000
# 5 0.000000 0.000000 0.000000 0.000000 0.031177 0.000000
# 6 0.013809 -0.013809 0.000000 0.000000 0.000000 -0.082675
#
#
# Mechanical properties :
#
#
# Convention : Reuss Voigt Hill
#
# Bulk Modulus (GPa) = 58.37019 58.64350 58.50684
# Shear Modulus (GPa) = 190.68256 25.61085 108.14671
#
# Velocity S-wave (km/s) = 8.49896 3.11474 6.40055
# Velocity P-wave (km/s) = 10.88214 5.92876 8.76274
#
# Compressibility (1/GPa) = 0.01713203
#
# Stress axis : x y z
#
# Youngs Moduli (GPa) = 117.49990 117.49990 83.60803
#
# Poissons Ratio (x) = 0.06403 0.22491
# Poissons Ratio (y) = 0.06403 0.22491
# Poissons Ratio (z) = 0.31608 0.31608
#
# Static dielectric constant tensor:
#      x y z
#    x 2.263730 0.000000 0.000000 
#    y 0.000000 2.263730 0.000000 
#    z 0.000000 0.000000 2.168630 
# 
# From -- ./inp_files/1093.got.cif
#   From: 2010.05.17/outbox.cif.g08.bks.cpg/sg76_cif.got.tgz:1093.got - 2010.06.03 18:43:17.
