data_PCOD9541414
_publ_section_title
;
Structure prediction by ZEFSAII (Michael W. Deem and Ramdas Pophale) SiO2 
 PCOD9541414
Probable space group: P 41
;
_chemical_formula_sum "Si O2"
_cell_formula_units_Z 28
_cell_length_a 14.053515
_cell_length_b 14.053515
_cell_length_c 5.684113
_cell_angle_alpha 90.000000
_cell_angle_beta 90.000000
_cell_angle_gamma 90.000000
_cell_volume 1122.619615
_symmetry_space_group_name_H-M "P 41"
_symmetry_group_IT_number 76
_symmetry_cell_setting 'tetragonal'
loop_
_space_group_symop_operation_xyz
x,y,z
-y,x,1/4+z
-x,-y,1/2+z
y,-x,3/4+z
loop_
_atom_site_type_symbol
_atom_site_label
_atom_site_fract_x
_atom_site_fract_y
_atom_site_fract_z
Si Si1 0.828373 0.569313 0.401010
Si Si2 0.043969 0.600988 0.951570
Si Si3 0.365717 0.515588 0.052004
Si Si4 0.873093 0.708540 0.785322
Si Si5 0.141369 0.002512 0.831925
Si Si6 0.682390 0.884543 0.200069
Si Si7 0.677087 0.303197 0.822811
O O1 0.922893 0.506456 0.404553
O O2 0.745416 0.511989 0.540655
O O3 0.861284 0.665909 0.525325
O O4 0.763889 0.596787 0.180701
O O5 0.082056 0.647403 0.707913
O O6 0.933671 0.631951 0.938615
O O7 0.087976 0.630364 0.204288
O O8 0.426309 0.420135 0.097353
O O9 0.367324 0.596670 0.252821
O O10 0.938209 0.801430 0.772124
O O11 0.764987 0.719275 0.868470
O O12 0.216617 0.062485 0.680482
O O13 0.079329 0.928034 0.691159
O O14 0.682196 0.770678 0.226521
#
# Coordination Sequence:
#
# PCOD9541414 Si02
#       7
#     4   4   4   4   4   4   4
#     4  12  28  48  79 115 156 212 275 333 413 487
#     4  11  29  50  83 112 161 203 271 328 406 481
#     4  12  26  49  75 113 156 208 274 333 406 483
#     4  11  29  50  76 114 157 210 262 335 407 490
#     4  11  28  48  81 118 157 208 270 337 410 498
#     4  11  28  51  79 116 158 212 257 334 405 487
#     4  12  28  46  83 106 165 207 271 330 415 488
#
# _framework density 24.941659000000001
#
# number of rings (size 3 to 8) (size 9 to 14) (size 15 to 20)
#    0.000    0.571    2.857    1.714   22.000    0.000 
#    0.000    0.000    0.000    0.000    0.000    0.000 
#    0.000    0.000    0.000    0.000    0.000    0.000 
#
# Total GULP energy -156473.271868 kJ/mol
# GULP energy per Si atom -5588.331138 kJ/mol
# Density = 2.488489 g / cm^3
# Si number density = 24.941659 Si / 1000 Ang^3
#
#
#
# Elastic Constant Matrix: (Units=GPa)
#
#
# Indices 1 2 3 4 5 6 
#
# 1 67.0081 -7.2358 13.2776 0.0000 0.0000 9.0868
# 2 -7.2358 67.0081 13.2776 0.0000 0.0000 -9.0868
# 3 13.2776 13.2776 69.7406 0.0000 0.0000 0.0000
# 4 0.0000 0.0000 0.0000 29.8302 0.0000 0.0000
# 5 0.0000 0.0000 0.0000 0.0000 29.8302 0.0000
# 6 9.0868 -9.0868 0.0000 0.0000 0.0000 52.6128
#
#
#
# Elastic Compliance Matrix: (Units=1/GPa)
#
#
# Indices 1 2 3 4 5 6 
#
# 1 0.016170 0.002106 -0.003479 0.000000 0.000000 -0.002429
# 2 0.002106 0.016170 -0.003479 0.000000 0.000000 0.002429
# 3 -0.003479 -0.003479 0.015664 0.000000 0.000000 0.000000
# 4 0.000000 0.000000 0.000000 0.033523 0.000000 0.000000
# 5 0.000000 0.000000 0.000000 0.000000 0.033523 0.000000
# 6 -0.002429 0.002429 0.000000 0.000000 0.000000 0.019846
#
#
# Mechanical properties :
#
#
# Convention : Reuss Voigt Hill
#
# Bulk Modulus (GPa) = 26.11119 26.93287 26.52203
# Shear Modulus (GPa) = 31.77287 34.75046 33.26166
#
# Velocity S-wave (km/s) = 3.57303 3.73670 3.65578
# Velocity P-wave (km/s) = 5.24535 5.42578 5.33632
#
# Compressibility (1/GPa) = 0.03829776
#
# Stress axis : x y z
#
# Youngs Moduli (GPa) = 61.84356 61.84356 63.84177
#
# Poissons Ratio (x) = -0.13025 0.22214
# Poissons Ratio (y) = -0.13025 0.22214
# Poissons Ratio (z) = 0.21518 0.21518
#
# Static dielectric constant tensor:
#      x y z
#    x 2.048040 0.000000 0.000000 
#    y 0.000000 2.048040 0.000000 
#    z 0.000000 0.000000 2.094960 
# 
# From -- ./inp_files/242.got.cif
#   From: 2010.05.17/outbox.cif.g08.bks.cpg/sg76_cif.got.tgz:242.got - 2010.06.03 18:43:17.
