data_PCOD9541890
_publ_section_title
;
Structure prediction by ZEFSAII (Michael W. Deem and Ramdas Pophale) SiO2 
 PCOD9541890
Probable space group: I 4
;
_chemical_formula_sum "Si O2"
_cell_formula_units_Z 64
_cell_length_a 10.350713
_cell_length_b 10.350713
_cell_length_c 28.857669
_cell_angle_alpha 90.000000
_cell_angle_beta 90.000000
_cell_angle_gamma 90.000000
_cell_volume 3091.731575
_symmetry_space_group_name_H-M "I 4"
_symmetry_group_IT_number 79
_symmetry_cell_setting 'tetragonal'
loop_
_space_group_symop_operation_xyz
x,y,z
-y,x,z
-x,-y,z
y,-x,z
1/2+x,1/2+y,1/2+z
1/2-y,1/2+x,1/2+z
1/2-x,1/2-y,1/2+z
1/2+y,1/2-x,1/2+z
loop_
_atom_site_type_symbol
_atom_site_label
_atom_site_fract_x
_atom_site_fract_y
_atom_site_fract_z
Si Si1 0.206686 0.551073 0.308410
Si Si2 0.782674 0.020445 0.517175
Si Si3 0.706686 0.051073 0.329007
Si Si4 0.818427 0.100546 0.902796
Si Si5 0.650221 0.969972 0.713459
Si Si6 0.469972 0.849779 0.923957
Si Si7 0.818427 0.100546 0.234620
Si Si8 0.717326 0.479555 0.120242
O O1 0.148956 0.412933 0.323641
O O2 0.308585 0.594488 0.346639
O O3 0.235751 0.534606 0.254243
O O4 0.087067 0.648955 0.313776
O O5 0.687269 0.021482 0.474076
O O6 0.723343 0.026196 0.568708
O O7 0.865472 0.888053 0.513954
O O8 0.808585 0.094488 0.290778
O O9 0.735751 0.034606 0.383174
O O10 0.685447 0.160543 0.920708
O O11 0.949954 0.170037 0.917413
O O12 0.660543 0.814553 0.716709
O O13 0.687269 0.021481 0.663341
O O14 0.500000 0.000000 0.724440
O O15 0.500000 0.000000 0.912976
O O16 0.949954 0.170037 0.220003
O O17 0.634528 0.611947 0.123462
#
# Coordination Sequence:
#
# PCOD9541890 Si02
#       8
#     8   8   8   8   8   8   8   8
#     4   9  16  33  49  76 109 145 186 229 270 312
#     4   9  21  41  62  87 115 141 183 246 299 337
#     4   9  16  33  49  76 109 145 186 229 270 312
#     4  10  22  36  52  79 119 158 190 230 279 334
#     4  11  21  34  60  86 113 148 197 232 281 345
#     4  11  21  34  60  86 113 148 197 232 281 345
#     4  10  22  36  52  79 119 158 190 230 279 334
#     4   9  21  41  62  87 115 141 183 246 299 337
#
# _framework density 20.700374
#
# number of rings (size 3 to 8) (size 9 to 14) (size 15 to 20)
#    0.000    2.250    5.000    0.750    3.500    6.500 
#    0.000    2.500    0.000    0.000    0.000    1.750 
#    0.000    0.000    0.000    0.000    0.000    0.000 
#
# Total GULP energy -178744.448804 kJ/mol
# GULP energy per Si atom -5585.764025 kJ/mol
# Density = 2.065326 g / cm^3
# Si number density = 20.700374 Si / 1000 Ang^3
#
#
#
# Elastic Constant Matrix: (Units=GPa)
#
#
# Indices 1 2 3 4 5 6 
#
# 1 24.7430 10.3296 -5.3724 0.0000 0.0000 0.6663
# 2 10.3296 24.7430 -5.3724 0.0000 0.0000 -0.6663
# 3 -5.3724 -5.3724 110.0419 0.0000 0.0000 0.0000
# 4 0.0000 0.0000 0.0000 24.8433 0.0000 0.0000
# 5 0.0000 0.0000 0.0000 0.0000 24.8433 0.0000
# 6 0.6663 -0.6663 0.0000 0.0000 0.0000 18.0503
#
#
#
# Elastic Compliance Matrix: (Units=1/GPa)
#
#
# Indices 1 2 3 4 5 6 
#
# 1 0.049281 -0.020336 0.001413 0.000000 0.000000 -0.002570
# 2 -0.020336 0.049281 0.001413 0.000000 0.000000 0.002570
# 3 0.001413 0.001413 0.009225 0.000000 0.000000 0.000000
# 4 0.000000 0.000000 0.000000 0.040252 0.000000 0.000000
# 5 0.000000 0.000000 0.000000 0.000000 0.040252 0.000000
# 6 -0.002570 0.002570 0.000000 0.000000 0.000000 0.055590
#
#
# Mechanical properties :
#
#
# Convention : Reuss Voigt Hill
#
# Bulk Modulus (GPa) = 13.74224 17.63307 15.68765
# Shear Modulus (GPa) = 16.49299 24.21026 20.35162
#
# Velocity S-wave (km/s) = 2.82574 3.42359 3.13893
# Velocity P-wave (km/s) = 4.15926 4.91576 4.55325
#
# Compressibility (1/GPa) = 0.07276834
#
# Stress axis : x y z
#
# Youngs Moduli (GPa) = 20.29164 20.29165 108.39598
#
# Poissons Ratio (x) = 0.41265 -0.15318
# Poissons Ratio (y) = 0.41265 -0.15318
# Poissons Ratio (z) = -0.02867 -0.02867
#
# Static dielectric constant tensor:
#      x y z
#    x 1.765810 0.000000 0.000000 
#    y 0.000000 1.765810 0.000000 
#    z 0.000000 0.000000 1.741670 
# 
# From -- ./inp_files/2069.got.cif
#   From: 2010.05.17/outbox.cif.g08.bks.cpg/sg79_cif.got.tgz:2069.got - 2010.06.03 18:47:27.
