data_PCOD9541943
_publ_section_title
;
Structure prediction by ZEFSAII (Michael W. Deem and Ramdas Pophale) SiO2 
 PCOD9541943
Probable space group: I 4
;
_chemical_formula_sum "Si O2"
_cell_formula_units_Z 38
_cell_length_a 8.478373
_cell_length_b 8.478373
_cell_length_c 23.821466
_cell_angle_alpha 90.000000
_cell_angle_beta 90.000000
_cell_angle_gamma 90.000000
_cell_volume 1712.353884
_symmetry_space_group_name_H-M "I 4"
_symmetry_group_IT_number 79
_symmetry_cell_setting 'tetragonal'
loop_
_space_group_symop_operation_xyz
x,y,z
-y,x,z
-x,-y,z
y,-x,z
1/2+x,1/2+y,1/2+z
1/2-y,1/2+x,1/2+z
1/2-x,1/2-y,1/2+z
1/2+y,1/2-x,1/2+z
loop_
_atom_site_type_symbol
_atom_site_label
_atom_site_fract_x
_atom_site_fract_y
_atom_site_fract_z
Si Si1 0.856644 0.604019 0.324120
Si Si2 0.424887 0.245323 0.125923
Si Si3 0.873052 0.778054 0.430141
Si Si4 0.500000 0.500000 0.327096
Si Si5 0.405216 0.744440 0.527141
Si Si6 0.000000 0.500000 0.716676
O O1 0.850880 0.754299 0.363889
O O2 0.693646 0.510993 0.326097
O O3 0.000000 0.500000 0.349361
O O4 0.908337 0.617294 0.259203
O O5 0.602371 0.312134 0.128284
O O6 0.378187 0.154300 0.069388
O O7 0.411276 0.124842 0.177519
O O8 0.796652 0.634065 0.463861
O O9 0.056300 0.793866 0.446067
O O10 0.303545 0.585254 0.536507
#
# Coordination Sequence:
#
# PCOD9541943 Si02
#       6
#     8   8   8   2   8   4
#     4  10  26  43  69 108 143 187 243 300 354 441
#     4  11  24  44  72 101 135 182 234 291 361 435
#     4  11  25  44  68 102 143 185 234 297 363 432
#     4  12  24  44  80 100 148 200 252 292 380 442
#     4  11  26  44  69 101 138 181 232 294 364 441
#     4  10  26  42  66 102 138 176 236 298 346 426
#
# _framework density 22.191673999999999
#
# number of rings (size 3 to 8) (size 9 to 14) (size 15 to 20)
#    0.632    0.632    0.000    3.789    8.842    3.368 
#    0.000    0.000    0.000    0.000    0.000    0.000 
#    0.000    0.000    0.000    0.000    0.000    0.000 
#
# Total GULP energy -105934.037429 kJ/mol
# GULP energy per Si atom -5575.475654 kJ/mol
# Density = 2.214116 g / cm^3
# Si number density = 22.191674 Si / 1000 Ang^3
#
#
#
# Elastic Constant Matrix: (Units=GPa)
#
#
# Indices 1 2 3 4 5 6 
#
# 1 113.9286 39.9936 35.2110 0.0000 0.0000 2.7666
# 2 39.9936 113.9286 35.2110 0.0000 0.0000 -2.7666
# 3 35.2110 35.2110 116.1700 0.0000 0.0000 0.0000
# 4 0.0000 0.0000 0.0000 -113.6912 0.0000 0.0000
# 5 0.0000 0.0000 0.0000 0.0000 -113.6913 0.0000
# 6 2.7666 -2.7666 0.0000 0.0000 0.0000 29.2827
#
#
#
# Elastic Compliance Matrix: (Units=1/GPa)
#
#
# Indices 1 2 3 4 5 6 
#
# 1 0.010582 -0.003039 -0.002286 0.000000 0.000000 -0.001287
# 2 -0.003039 0.010582 -0.002286 0.000000 0.000000 0.001287
# 3 -0.002286 -0.002286 0.009994 0.000000 0.000000 0.000000
# 4 0.000000 0.000000 0.000000 -0.008796 0.000000 0.000000
# 5 0.000000 0.000000 0.000000 0.000000 -0.008796 0.000000
# 6 -0.001287 0.001287 0.000000 0.000000 0.000000 0.034393
#
#
# Mechanical properties :
#
#
# Convention : Reuss Voigt Hill
#
# Bulk Modulus (GPa) = 62.75618 62.76203 62.75910
# Shear Modulus (GPa) = 72.99775 -24.04584 24.47596
#
# Velocity S-wave (km/s) = 5.74157 -3.29531 3.32465
# Velocity P-wave (km/s) = 8.50263 3.72350 6.56350
#
# Compressibility (1/GPa) = 0.01593469
#
# Stress axis : x y z
#
# Youngs Moduli (GPa) = 94.49804 94.49803 100.06042
#
# Poissons Ratio (x) = 0.28722 0.22876
# Poissons Ratio (y) = 0.28722 0.22876
# Poissons Ratio (z) = 0.21604 0.21604
#
# Static dielectric constant tensor:
#      x y z
#    x 1.898450 0.000000 0.000000 
#    y 0.000000 1.898450 0.000000 
#    z 0.000000 0.000000 1.804130 
# 
# From -- ./inp_files/1924.got.cif
#   From: 2010.05.17/outbox.cif.g08.bks.cpg/sg79_cif.got.tgz:1924.got - 2010.06.03 18:47:27.
