data_PCOD9541438
_publ_section_title
;
Structure prediction by ZEFSAII (Michael W. Deem and Ramdas Pophale) SiO2 
 PCOD9541438
Probable space group: P 41
;
_chemical_formula_sum "Si O2"
_cell_formula_units_Z 20
_cell_length_a 11.900043
_cell_length_b 11.900043
_cell_length_c 5.483345
_cell_angle_alpha 90.000000
_cell_angle_beta 90.000000
_cell_angle_gamma 90.000000
_cell_volume 776.502097
_symmetry_space_group_name_H-M "P 41"
_symmetry_group_IT_number 76
_symmetry_cell_setting 'tetragonal'
loop_
_space_group_symop_operation_xyz
x,y,z
-y,x,1/4+z
-x,-y,1/2+z
y,-x,3/4+z
loop_
_atom_site_type_symbol
_atom_site_label
_atom_site_fract_x
_atom_site_fract_y
_atom_site_fract_z
Si Si1 0.096756 0.142201 0.627040
Si Si2 0.443476 0.994772 0.739863
Si Si3 0.311940 0.830558 0.024711
Si Si4 0.683416 0.790630 0.428064
Si Si5 0.509744 0.339044 0.693685
O O1 0.080597 0.233369 0.411401
O O2 0.205083 0.193985 0.762824
O O3 0.982383 0.128114 0.779663
O O4 0.539988 0.982168 0.952207
O O5 0.368490 0.885215 0.786380
O O6 0.381012 0.097265 0.867697
O O7 0.417657 0.773815 0.158275
O O8 0.228894 0.731307 0.945483
O O9 0.591537 0.692650 0.380201
O O10 0.603446 0.433427 0.739820
#
# Coordination Sequence:
#
# PCOD9541438 Si02
#       5
#     4   4   4   4   4
#     4  12  30  52  80 120 158 212 276 348 426 502
#     4  12  30  50  82 120 162 218 276 340 414 504
#     4  12  28  49  81 111 166 217 273 344 416 503
#     4  12  28  49  81 111 166 217 273 344 416 503
#     4  12  26  48  76 118 158 214 278 340 414 488
#
# _framework density 25.756532
#
# number of rings (size 3 to 8) (size 9 to 14) (size 15 to 20)
#    0.000    0.000    4.000    3.600   19.600    0.000 
#    0.000    0.000    0.000    0.000    0.000    0.000 
#    0.000    0.000    0.000    0.000    0.000    0.000 
#
# Total GULP energy -111646.312674 kJ/mol
# GULP energy per Si atom -5582.315634 kJ/mol
# Density = 2.569791 g / cm^3
# Si number density = 25.756532 Si / 1000 Ang^3
#
#
#
# Elastic Constant Matrix: (Units=GPa)
#
#
# Indices 1 2 3 4 5 6 
#
# 1 78.0369 55.2543 26.1266 0.0000 0.0000 4.4605
# 2 55.2543 78.0369 26.1266 0.0000 0.0000 -4.4605
# 3 26.1266 26.1266 51.2656 0.0000 0.0000 0.0000
# 4 0.0000 0.0000 0.0000 42.2367 0.0000 0.0000
# 5 0.0000 0.0000 0.0000 0.0000 42.2367 0.0000
# 6 4.4605 -4.4605 0.0000 0.0000 0.0000 40.1574
#
#
#
# Elastic Compliance Matrix: (Units=1/GPa)
#
#
# Indices 1 2 3 4 5 6 
#
# 1 0.027632 -0.018257 -0.004778 0.000000 0.000000 -0.005097
# 2 -0.018257 0.027632 -0.004778 0.000000 0.000000 0.005097
# 3 -0.004778 -0.004778 0.024376 0.000000 0.000000 0.000000
# 4 0.000000 0.000000 0.000000 0.023676 0.000000 0.000000
# 5 0.000000 0.000000 0.000000 0.000000 0.023676 0.000000
# 6 -0.005097 0.005097 0.000000 0.000000 0.000000 0.026034
#
#
# Mechanical properties :
#
#
# Convention : Reuss Voigt Hill
#
# Bulk Modulus (GPa) = 41.64045 46.92829 44.28437
# Shear Modulus (GPa) = 23.07786 31.58164 27.32975
#
# Velocity S-wave (km/s) = 2.99657 3.50546 3.26096
# Velocity P-wave (km/s) = 5.30798 5.88590 5.60439
#
# Compressibility (1/GPa) = 0.02401511
#
# Stress axis : x y z
#
# Youngs Moduli (GPa) = 36.18967 36.18967 41.02340
#
# Poissons Ratio (x) = 0.66070 0.19601
# Poissons Ratio (y) = 0.66070 0.19601
# Poissons Ratio (z) = 0.17292 0.17292
#
# Static dielectric constant tensor:
#      x y z
#    x 2.151400 0.000000 0.000000 
#    y 0.000000 2.151400 0.000000 
#    z 0.000000 0.000000 2.257040 
# 
# From -- ./inp_files/90.got.cif
#   From: 2010.05.17/outbox.cif.g08.bks.cpg/sg76_cif.got.tgz:90.got - 2010.06.03 18:43:17.
