data_PCOD9541077
_publ_section_title
;
Structure prediction by ZEFSAII (Michael W. Deem and Ramdas Pophale) SiO2 
 PCOD9541077
Probable space group: P 41
;
_chemical_formula_sum "Si O2"
_cell_formula_units_Z 24
_cell_length_a 10.279364
_cell_length_b 10.279364
_cell_length_c 8.426976
_cell_angle_alpha 90.000000
_cell_angle_beta 90.000000
_cell_angle_gamma 90.000000
_cell_volume 890.439151
_symmetry_space_group_name_H-M "P 41"
_symmetry_group_IT_number 76
_symmetry_cell_setting 'tetragonal'
loop_
_space_group_symop_operation_xyz
x,y,z
-y,x,1/4+z
-x,-y,1/2+z
y,-x,3/4+z
loop_
_atom_site_type_symbol
_atom_site_label
_atom_site_fract_x
_atom_site_fract_y
_atom_site_fract_z
Si Si1 0.006668 0.546530 0.702810
Si Si2 0.898604 0.730567 0.497224
Si Si3 0.118960 0.266981 0.655012
Si Si4 0.617086 0.576655 0.161516
Si Si5 0.811051 0.741573 0.818477
Si Si6 0.539073 0.758249 0.682661
O O1 0.021738 0.642438 0.551163
O O2 0.655061 0.742608 0.806385
O O3 0.025065 0.395761 0.657523
O O4 0.120407 0.576672 0.823089
O O5 0.908569 0.796604 0.326799
O O6 0.860248 0.809087 0.654182
O O7 0.123409 0.401734 0.290337
O O8 0.126977 0.205139 0.480847
O O9 0.203364 0.392672 0.986211
O O10 0.627949 0.514605 0.988195
O O11 0.734658 0.677097 0.169858
O O12 0.644555 0.472416 0.303922
#
# Coordination Sequence:
#
# PCOD9541077 Si02
#       6
#     4   4   4   4   4   4
#     4   8  18  35  53  73 112 145 174 237 281 323
#     4   8  18  32  51  72 112 139 173 235 270 335
#     4  10  18  33  51  74 101 146 192 221 270 337
#     4  10  22  33  46  69 111 151 180 227 267 338
#     4  10  20  31  57  77 106 148 182 234 289 323
#     4  10  18  34  54  79 108 139 199 230 275 348
#
# _framework density 26.952988999999999
#
# number of rings (size 3 to 8) (size 9 to 14) (size 15 to 20)
#    1.000    2.000    0.000    4.000    2.333    1.333 
#    0.000    0.000    0.000    0.000    0.000    0.000 
#   50.000    0.000    0.000    0.000    0.000    1.667 
#
# Total GULP energy -133660.764086 kJ/mol
# GULP energy per Si atom -5569.198504 kJ/mol
# Density = 2.689164 g / cm^3
# Si number density = 26.952989 Si / 1000 Ang^3
#
#
#
# Elastic Constant Matrix: (Units=GPa)
#
#
# Indices 1 2 3 4 5 6 
#
# 1 84.4427 -12.6148 29.0886 0.0000 0.0000 -20.8344
# 2 -12.6148 84.4427 29.0886 0.0000 0.0000 20.8344
# 3 29.0886 29.0886 207.2930 0.0000 0.0000 0.0000
# 4 0.0000 0.0000 0.0000 19.8287 0.0000 0.0000
# 5 0.0000 0.0000 0.0000 0.0000 19.8287 0.0000
# 6 -20.8344 20.8344 0.0000 0.0000 0.0000 28.2759
#
#
#
# Elastic Compliance Matrix: (Units=1/GPa)
#
#
# Indices 1 2 3 4 5 6 
#
# 1 0.015389 0.000318 -0.002204 0.000000 0.000000 0.011104
# 2 0.000318 0.015389 -0.002204 0.000000 0.000000 -0.011104
# 3 -0.002204 -0.002204 0.005443 0.000000 0.000000 0.000000
# 4 0.000000 0.000000 0.000000 0.050432 0.000000 0.000000
# 5 0.000000 0.000000 0.000000 0.000000 0.050432 0.000000
# 6 0.011104 -0.011104 0.000000 0.000000 0.000000 0.051730
#
#
# Mechanical properties :
#
#
# Convention : Reuss Voigt Hill
#
# Bulk Modulus (GPa) = 35.66217 51.92259 43.79238
# Shear Modulus (GPa) = 24.23173 35.62770 29.92972
#
# Velocity S-wave (km/s) = 3.00165 3.63966 3.33594
# Velocity P-wave (km/s) = 5.02724 6.08020 5.57862
#
# Compressibility (1/GPa) = 0.02804092
#
# Stress axis : x y z
#
# Youngs Moduli (GPa) = 64.98166 64.98166 183.73252
#
# Poissons Ratio (x) = -0.02070 0.40498
# Poissons Ratio (y) = -0.02070 0.40498
# Poissons Ratio (z) = 0.14323 0.14323
#
# Static dielectric constant tensor:
#      x y z
#    x 2.194590 0.000000 0.000000 
#    y 0.000000 2.194590 0.000000 
#    z 0.000000 0.000000 2.247860 
# 
# From -- ./inp_files/862.got.cif
#   From: 2010.05.17/outbox.cif.g08.bks.cpg/sg76_cif.got.tgz:862.got - 2010.06.03 18:43:17.
