data_PCOD9541518
_publ_section_title
;
Structure prediction by ZEFSAII (Michael W. Deem and Ramdas Pophale) SiO2 
 PCOD9541518
Probable space group: P 42
;
_chemical_formula_sum "Si O2"
_cell_formula_units_Z 18
_cell_length_a 5.162270
_cell_length_b 5.162270
_cell_length_c 27.340919
_cell_angle_alpha 90.000000
_cell_angle_beta 90.000000
_cell_angle_gamma 90.000000
_cell_volume 728.609013
_symmetry_space_group_name_H-M "P 42"
_symmetry_group_IT_number 77
_symmetry_cell_setting 'tetragonal'
loop_
_space_group_symop_operation_xyz
x,y,z
-y,x,1/2+z
-x,-y,z
y,-x,1/2+z
loop_
_atom_site_type_symbol
_atom_site_label
_atom_site_fract_x
_atom_site_fract_y
_atom_site_fract_z
Si Si1 0.500000 0.500000 0.722631
Si Si2 0.178585 0.752681 0.074018
Si Si3 0.000000 0.500000 0.660341
Si Si4 0.248836 0.182611 0.469860
Si Si5 0.500000 0.000000 0.786410
Si Si6 0.327915 0.258552 0.361392
O O1 0.238659 0.594719 0.694046
O O2 0.578165 0.756015 0.752995
O O3 0.000000 0.500000 0.080618
O O4 0.331332 0.827982 0.122363
O O5 0.330215 0.739355 0.021975
O O6 0.000000 0.000000 0.066916
O O7 0.250223 0.318919 0.417587
O O8 0.500000 0.000000 0.471105
O O9 0.000000 0.000000 0.467841
O O10 0.273981 0.906701 0.823456
O O11 0.500000 0.500000 0.346033
O O12 0.500000 0.000000 0.360054
#
# Coordination Sequence:
#
# PCOD9541518 Si02
#       6
#     2   4   2   4   2   4
#     4  12  32  50  80 108 152 196 270 340 386 456
#     4  10  22  45  74 108 152 194 245 310 379 467
#     4  12  28  49  76 112 140 207 262 324 398 458
#     4   9  21  42  70 112 154 193 244 300 374 461
#     4  12  30  55  78 114 150 205 264 330 398 456
#     4  11  27  49  79 115 155 203 249 311 383 470
#
# _framework density 24.704612000000001
#
# number of rings (size 3 to 8) (size 9 to 14) (size 15 to 20)
#    0.000    1.333    1.111    1.333   12.444    2.667 
#   14.000    0.000    0.000    0.000    0.000    0.000 
#    0.000    0.000    0.000    0.000    0.000    0.000 
#
# Total GULP energy -100515.581752 kJ/mol
# GULP energy per Si atom -5584.198986 kJ/mol
# Density = 2.464838 g / cm^3
# Si number density = 24.704612 Si / 1000 Ang^3
#
#
#
# Elastic Constant Matrix: (Units=GPa)
#
#
# Indices 1 2 3 4 5 6 
#
# 1 147.3948 44.0877 51.8948 0.0000 0.0000 -2.8362
# 2 44.0877 147.3948 51.8948 0.0000 0.0000 2.8362
# 3 51.8948 51.8948 166.1234 0.0000 0.0000 0.0000
# 4 0.0000 0.0000 0.0000 7.7840 0.0000 0.0000
# 5 0.0000 0.0000 0.0000 0.0000 7.7840 0.0000
# 6 -2.8362 2.8362 0.0000 0.0000 0.0000 51.3353
#
#
#
# Elastic Compliance Matrix: (Units=1/GPa)
#
#
# Indices 1 2 3 4 5 6 
#
# 1 0.007998 -0.001711 -0.001964 0.000000 0.000000 0.000536
# 2 -0.001711 0.007998 -0.001964 0.000000 0.000000 -0.000536
# 3 -0.001964 -0.001964 0.007247 0.000000 0.000000 0.000000
# 4 0.000000 0.000000 0.000000 0.128468 0.000000 0.000000
# 5 0.000000 0.000000 0.000000 0.000000 0.128468 0.000000
# 6 0.000536 -0.000536 0.000000 0.000000 0.000000 0.019539
#
#
# Mechanical properties :
#
#
# Convention : Reuss Voigt Hill
#
# Bulk Modulus (GPa) = 83.57921 84.07416 83.82668
# Shear Modulus (GPa) = 15.87379 34.24971 25.06175
#
# Velocity S-wave (km/s) = 2.53759 3.72744 3.18851
# Velocity P-wave (km/s) = 6.51849 7.25470 6.89643
#
# Compressibility (1/GPa) = 0.01196470
#
# Stress axis : x y z
#
# Youngs Moduli (GPa) = 125.02915 125.02915 137.99473
#
# Poissons Ratio (x) = 0.21395 0.27102
# Poissons Ratio (y) = 0.21395 0.27102
# Poissons Ratio (z) = 0.24555 0.24555
#
# Static dielectric constant tensor:
#      x y z
#    x 2.124270 0.000000 0.000000 
#    y 0.000000 2.124270 0.000000 
#    z 0.000000 0.000000 2.120770 
# 
# From -- ./inp_files/1702.got.cif
#   From: 2010.05.17/outbox.cif.g08.bks.cpg/sg77_cif.got.tgz:1702.got - 2010.06.03 18:44:51.
