data_PCOD9541650
_publ_section_title
;
Structure prediction by ZEFSAII (Michael W. Deem and Ramdas Pophale) SiO2 
 PCOD9541650
Probable space group: P 43
;
_chemical_formula_sum "Si O2"
_cell_formula_units_Z 32
_cell_length_a 8.470166
_cell_length_b 8.470166
_cell_length_c 19.274301
_cell_angle_alpha 90.000000
_cell_angle_beta 90.000000
_cell_angle_gamma 90.000000
_cell_volume 1382.809901
_symmetry_space_group_name_H-M "P 43"
_symmetry_group_IT_number 78
_symmetry_cell_setting 'tetragonal'
loop_
_space_group_symop_operation_xyz
x,y,z
-y,x,3/4+z
-x,-y,1/2+z
y,-x,1/4+z
loop_
_atom_site_type_symbol
_atom_site_label
_atom_site_fract_x
_atom_site_fract_y
_atom_site_fract_z
Si Si1 0.367171 0.156785 0.732170
Si Si2 0.155887 0.708456 0.247919
Si Si3 0.503562 0.973726 0.605814
Si Si4 0.632994 0.658230 0.667425
Si Si5 0.476073 0.541067 0.272516
Si Si6 0.873754 0.841988 0.810831
Si Si7 0.065294 0.371456 0.089313
Si Si8 0.975099 0.960086 0.191604
O O1 0.386240 0.343408 0.747435
O O2 0.469710 0.081883 0.794869
O O3 0.191055 0.090034 0.726877
O O4 0.455586 0.111174 0.659258
O O5 0.017800 0.617517 0.289060
O O6 0.312377 0.606576 0.237269
O O7 0.233806 0.843008 0.296503
O O8 0.083365 0.805086 0.185668
O O9 0.594707 0.839629 0.649645
O O10 0.341629 0.903542 0.574421
O O11 0.533303 0.626751 0.736911
O O12 0.556827 0.555981 0.603911
O O13 0.821806 0.624485 0.657037
O O14 0.979362 0.932698 0.866770
O O15 0.934507 0.906661 0.736798
O O16 0.697217 0.890169 0.835669
#
# Coordination Sequence:
#
# PCOD9541650 Si02
#       8
#     4   4   4   4   4   4   4   4
#     4   9  19  35  53  79 111 142 176 219 276 326
#     4   8  18  33  54  78 101 140 180 213 263 323
#     4   9  19  35  53  79 111 142 176 219 276 326
#     4   9  19  35  53  77 105 137 179 221 262 320
#     4   9  19  35  53  77 105 137 179 221 262 320
#     4  10  21  37  55  80 111 141 180 231 276 323
#     4   8  18  33  54  78 101 140 180 213 263 323
#     4  10  21  37  55  80 111 141 180 231 276 323
#
# _framework density 23.141285
#
# number of rings (size 3 to 8) (size 9 to 14) (size 15 to 20)
#    0.000    3.500    0.000    0.000    0.000   17.000 
#    0.000   11.250    0.000    0.000    0.000    0.000 
#    0.000    0.000    0.000    0.000    0.000    0.000 
#
# Total GULP energy -178207.331418 kJ/mol
# GULP energy per Si atom -5568.979107 kJ/mol
# Density = 2.308861 g / cm^3
# Si number density = 23.141285 Si / 1000 Ang^3
#
#
#
# Elastic Constant Matrix: (Units=GPa)
#
#
# Indices 1 2 3 4 5 6 
#
# 1 20.3705 -4.0278 7.9047 0.0000 0.0000 -9.4232
# 2 -4.0278 20.3705 7.9047 0.0000 0.0000 9.4232
# 3 7.9047 7.9047 56.1877 0.0000 0.0000 0.0000
# 4 0.0000 0.0000 0.0000 30.9699 0.0000 0.0000
# 5 0.0000 0.0000 0.0000 0.0000 30.9699 0.0000
# 6 -9.4232 9.4232 0.0000 0.0000 0.0000 7.7523
#
#
#
# Elastic Compliance Matrix: (Units=1/GPa)
#
#
# Indices 1 2 3 4 5 6 
#
# 1 0.371052 -0.300224 -0.009964 0.000000 0.000000 0.815964
# 2 -0.300224 0.371052 -0.009964 0.000000 0.000000 -0.815964
# 3 -0.009964 -0.009964 0.020601 0.000000 0.000000 0.000000
# 4 0.000000 0.000000 0.000000 0.032289 0.000000 0.000000
# 5 0.000000 0.000000 0.000000 0.000000 0.032289 0.000000
# 6 0.815964 -0.815964 0.000000 0.000000 0.000000 2.112668
#
#
# Mechanical properties :
#
#
# Convention : Reuss Voigt Hill
#
# Bulk Modulus (GPa) = 8.16992 13.38800 10.77896
# Shear Modulus (GPa) = 1.38081 19.61489 10.49785
#
# Velocity S-wave (km/s) = 0.77329 2.91454 2.13220
# Velocity P-wave (km/s) = 2.08217 4.13811 3.27562
#
# Compressibility (1/GPa) = 0.12240022
#
# Stress axis : x y z
#
# Youngs Moduli (GPa) = 2.69504 2.69504 48.54102
#
# Poissons Ratio (x) = 0.80912 0.48368
# Poissons Ratio (y) = 0.80912 0.48368
# Poissons Ratio (z) = 0.02685 0.02685
#
# Static dielectric constant tensor:
#      x y z
#    x 2.057990 0.000000 0.000000 
#    y 0.000000 2.057990 0.000000 
#    z 0.000000 0.000000 1.958160 
# 
# From -- ./inp_files/1616.got.cif
#   From: 2010.05.17/outbox.cif.g08.bks.cpg/sg78_cif.got.tgz:1616.got - 2010.06.03 18:45:56.
