data_PCOD9541327
_publ_section_title
;
Structure prediction by ZEFSAII (Michael W. Deem and Ramdas Pophale) SiO2 
 PCOD9541327
Probable space group: P 41
;
_chemical_formula_sum "Si O2"
_cell_formula_units_Z 12
_cell_length_a 5.075490
_cell_length_b 5.075490
_cell_length_c 17.847458
_cell_angle_alpha 90.000000
_cell_angle_beta 90.000000
_cell_angle_gamma 90.000000
_cell_volume 459.761204
_symmetry_space_group_name_H-M "P 41"
_symmetry_group_IT_number 76
_symmetry_cell_setting 'tetragonal'
loop_
_space_group_symop_operation_xyz
x,y,z
-y,x,1/4+z
-x,-y,1/2+z
y,-x,3/4+z
loop_
_atom_site_type_symbol
_atom_site_label
_atom_site_fract_x
_atom_site_fract_y
_atom_site_fract_z
Si Si1 0.514343 0.532017 0.201490
Si Si2 0.226957 0.216603 0.080793
Si Si3 0.858700 0.719486 0.072943
O O1 0.387482 0.291453 0.155369
O O2 0.721112 0.418092 0.261282
O O3 0.658400 0.721891 0.142526
O O4 0.291410 0.687144 0.247531
O O5 0.001577 0.438514 0.076694
O O6 0.079499 0.941174 0.076826
#
# Coordination Sequence:
#
# PCOD9541327 Si02
#       3
#     4   4   4
#     4  10  28  50  76 126 156 210 276 334 404 490
#     4  11  28  49  85 114 166 212 272 336 410 482
#     4  11  28  49  85 114 166 212 272 336 410 482
#
# _framework density 26.100504000000001
#
# number of rings (size 3 to 8) (size 9 to 14) (size 15 to 20)
#    0.000    1.333    0.000    0.000   18.667    5.333 
#    0.000   10.000    0.000    0.000    0.000    0.000 
#    0.000    0.000    0.000    0.000    0.000    0.000 
#
# Total GULP energy -67451.517554 kJ/mol
# GULP energy per Si atom -5620.959796 kJ/mol
# Density = 2.604110 g / cm^3
# Si number density = 26.100504 Si / 1000 Ang^3
#
#
#
# Elastic Constant Matrix: (Units=GPa)
#
#
# Indices 1 2 3 4 5 6 
#
# 1 77.7547 39.1552 37.2226 0.0000 0.0000 4.4321
# 2 39.1552 77.7547 37.2226 0.0000 0.0000 -4.4321
# 3 37.2226 37.2226 155.1909 0.0000 0.0000 0.0000
# 4 0.0000 0.0000 0.0000 7.8449 0.0000 0.0000
# 5 0.0000 0.0000 0.0000 0.0000 7.8449 0.0000
# 6 4.4321 -4.4321 0.0000 0.0000 0.0000 75.6917
#
#
#
# Elastic Compliance Matrix: (Units=1/GPa)
#
#
# Indices 1 2 3 4 5 6 
#
# 1 0.018178 -0.008082 -0.002421 0.000000 0.000000 -0.001538
# 2 -0.008082 0.018178 -0.002421 0.000000 0.000000 0.001538
# 3 -0.002421 -0.002421 0.007605 0.000000 0.000000 0.000000
# 4 0.000000 0.000000 0.000000 0.127471 0.000000 0.000000
# 5 0.000000 0.000000 0.000000 0.000000 0.127471 0.000000
# 6 -0.001538 0.001538 0.000000 0.000000 0.000000 0.013392
#
#
# Mechanical properties :
#
#
# Convention : Reuss Voigt Hill
#
# Bulk Modulus (GPa) = 55.21636 59.76679 57.49158
# Shear Modulus (GPa) = 14.52721 31.41629 22.97175
#
# Velocity S-wave (km/s) = 2.36177 3.47315 2.96991
# Velocity P-wave (km/s) = 5.35149 6.24757 5.81681
#
# Compressibility (1/GPa) = 0.01811057
#
# Stress axis : x y z
#
# Youngs Moduli (GPa) = 55.01199 55.01199 131.48843
#
# Poissons Ratio (x) = 0.44463 0.31839
# Poissons Ratio (y) = 0.44463 0.31839
# Poissons Ratio (z) = 0.13321 0.13321
#
# Static dielectric constant tensor:
#      x y z
#    x 2.032430 0.000000 0.000000 
#    y 0.000000 2.032430 0.000000 
#    z 0.000000 0.000000 2.050080 
# 
# From -- ./inp_files/1161.got.cif
#   From: 2010.05.17/outbox.cif.g08.bks.cpg/sg76_cif.got.tgz:1161.got - 2010.06.03 18:43:17.
