data_PCOD9541973
_publ_section_title
;
Structure prediction by ZEFSAII (Michael W. Deem and Ramdas Pophale) SiO2 
 PCOD9541973
Probable space group: I 4
;
_chemical_formula_sum "Si O2"
_cell_formula_units_Z 48
_cell_length_a 19.268090
_cell_length_b 19.268090
_cell_length_c 5.845007
_cell_angle_alpha 90.000000
_cell_angle_beta 90.000000
_cell_angle_gamma 90.000000
_cell_volume 2170.013162
_symmetry_space_group_name_H-M "I 4"
_symmetry_group_IT_number 79
_symmetry_cell_setting 'tetragonal'
loop_
_space_group_symop_operation_xyz
x,y,z
-y,x,z
-x,-y,z
y,-x,z
1/2+x,1/2+y,1/2+z
1/2-y,1/2+x,1/2+z
1/2-x,1/2-y,1/2+z
1/2+y,1/2-x,1/2+z
loop_
_atom_site_type_symbol
_atom_site_label
_atom_site_fract_x
_atom_site_fract_y
_atom_site_fract_z
Si Si1 0.856086 0.398226 0.736580
Si Si2 0.683235 0.228409 0.975275
Si Si3 0.513779 0.157579 0.377079
Si Si4 0.920577 0.217045 0.144894
Si Si5 0.743191 0.468351 0.011086
Si Si6 0.318720 0.648652 0.309289
O O1 0.854694 0.318911 0.658527
O O2 0.866183 0.446405 0.515623
O O3 0.925193 0.398847 0.889160
O O4 0.780672 0.414055 0.841388
O O5 0.678197 0.304593 0.080859
O O6 0.642057 0.235848 0.741621
O O7 0.754261 0.187440 0.932838
O O8 0.536193 0.229217 0.496800
O O9 0.497610 0.185777 0.124421
O O10 0.972773 0.202968 0.362261
O O11 0.884431 0.159016 0.981241
O O12 0.700035 0.427183 0.206915
#
# Coordination Sequence:
#
# PCOD9541973 Si02
#       6
#     8   8   8   8   8   8
#     4  11  23  39  62  85 131 187 227 290 334 403
#     4  12  21  37  64  98 126 170 221 286 348 397
#     4  11  23  41  60  85 130 181 232 279 336 399
#     4  11  23  38  62  90 135 176 218 285 347 407
#     4  11  24  40  61  92 134 182 225 277 351 411
#     4  12  22  35  64  98 129 175 229 282 354 415
#
# _framework density 22.119682000000001
#
# number of rings (size 3 to 8) (size 9 to 14) (size 15 to 20)
#    0.000    0.667    6.667    2.000    0.000    0.000 
#    0.000    2.500    0.000    0.000    0.000    0.000 
#    0.000   46.667    0.000    0.000    0.000    0.167 
#
# Total GULP energy -133710.187295 kJ/mol
# GULP energy per Si atom -5571.257804 kJ/mol
# Density = 2.206934 g / cm^3
# Si number density = 22.119682 Si / 1000 Ang^3
#
#
#
# Elastic Constant Matrix: (Units=GPa)
#
#
# Indices 1 2 3 4 5 6 
#
# 1 80.1035 31.3415 31.7772 0.0000 0.0000 1.4717
# 2 31.3415 80.1035 31.7772 0.0000 0.0000 -1.4717
# 3 31.7772 31.7772 69.2576 0.0000 0.0000 0.0000
# 4 0.0000 0.0000 0.0000 49.1740 0.0000 0.0000
# 5 0.0000 0.0000 0.0000 0.0000 49.1740 0.0000
# 6 1.4717 -1.4717 0.0000 0.0000 0.0000 16.8500
#
#
#
# Elastic Compliance Matrix: (Units=1/GPa)
#
#
# Indices 1 2 3 4 5 6 
#
# 1 0.016385 -0.004232 -0.005576 0.000000 0.000000 -0.001801
# 2 -0.004232 0.016385 -0.005576 0.000000 0.000000 0.001801
# 3 -0.005576 -0.005576 0.019556 0.000000 0.000000 0.000000
# 4 0.000000 0.000000 0.000000 0.020336 0.000000 0.000000
# 5 0.000000 0.000000 0.000000 0.000000 0.020336 0.000000
# 6 -0.001801 0.001801 0.000000 0.000000 0.000000 0.059662
#
#
# Mechanical properties :
#
#
# Convention : Reuss Voigt Hill
#
# Bulk Modulus (GPa) = 46.38799 46.58402 46.48601
# Shear Modulus (GPa) = 26.23126 32.01088 29.12107
#
# Velocity S-wave (km/s) = 3.44739 3.80829 3.63233
# Velocity P-wave (km/s) = 6.07149 6.35949 6.21716
#
# Compressibility (1/GPa) = 0.02155730
#
# Stress axis : x y z
#
# Youngs Moduli (GPa) = 61.03259 61.03259 51.13586
#
# Poissons Ratio (x) = 0.25828 0.28514
# Poissons Ratio (y) = 0.25828 0.28514
# Poissons Ratio (z) = 0.34032 0.34032
#
# Static dielectric constant tensor:
#      x y z
#    x 1.858280 0.000000 0.000000 
#    y 0.000000 1.858280 0.000000 
#    z 0.000000 0.000000 2.020870 
# 
# From -- ./inp_files/210.got.cif
#   From: 2010.05.17/outbox.cif.g08.bks.cpg/sg79_cif.got.tgz:210.got - 2010.06.03 18:47:27.
