data_PCOD9541594
_publ_section_title
;
Structure prediction by ZEFSAII (Michael W. Deem and Ramdas Pophale) SiO2 
 PCOD9541594
Probable space group: P 43
;
_chemical_formula_sum "Si O2"
_cell_formula_units_Z 24
_cell_length_a 10.351844
_cell_length_b 10.351844
_cell_length_c 9.086124
_cell_angle_alpha 90.000000
_cell_angle_beta 90.000000
_cell_angle_gamma 90.000000
_cell_volume 973.675174
_symmetry_space_group_name_H-M "P 43"
_symmetry_group_IT_number 78
_symmetry_cell_setting 'tetragonal'
loop_
_space_group_symop_operation_xyz
x,y,z
-y,x,3/4+z
-x,-y,1/2+z
y,-x,1/4+z
loop_
_atom_site_type_symbol
_atom_site_label
_atom_site_fract_x
_atom_site_fract_y
_atom_site_fract_z
Si Si1 0.832876 0.738605 0.611590
Si Si2 0.020117 0.474794 0.957711
Si Si3 0.121736 0.975282 0.992452
Si Si4 0.385845 0.869854 0.934474
Si Si5 0.589815 0.233031 0.136942
Si Si6 0.580852 0.407573 0.730048
O O1 0.849753 0.886847 0.569682
O O2 0.812825 0.708317 0.784876
O O3 0.713786 0.666900 0.529695
O O4 0.953020 0.653190 0.551829
O O5 0.996655 0.585928 0.079231
O O6 0.880205 0.480627 0.879800
O O7 0.121698 0.483127 0.823144
O O8 0.003395 0.911125 0.075129
O O9 0.246201 0.886470 0.002844
O O10 0.387408 0.760180 0.810796
O O11 0.531614 0.358241 0.063717
O O12 0.600116 0.441569 0.559070
#
# Coordination Sequence:
#
# PCOD9541594 Si02
#       6
#     4   4   4   4   4   4
#     4  11  22  40  67  92 130 177 205 277 337 389
#     4  10  18  38  69  91 123 167 219 268 311 402
#     4  12  28  44  65  96 142 175 229 283 340 394
#     4  10  21  41  64  97 123 168 225 264 321 397
#     4   9  20  40  67  91 126 165 222 255 326 403
#     4  10  23  41  64  95 132 162 208 267 327 389
#
# _framework density 24.648876999999999
#
# number of rings (size 3 to 8) (size 9 to 14) (size 15 to 20)
#    1.000    0.667    3.333    1.000    4.667    1.333 
#    0.000    3.333    0.000    0.000    0.000    0.000 
#    0.000    0.000    0.000    0.000    0.000    0.000 
#
# Total GULP energy -133861.701520 kJ/mol
# GULP energy per Si atom -5577.570897 kJ/mol
# Density = 2.459278 g / cm^3
# Si number density = 24.648877 Si / 1000 Ang^3
#
#
#
# Elastic Constant Matrix: (Units=GPa)
#
#
# Indices 1 2 3 4 5 6 
#
# 1 31.8168 -5.4947 2.4595 0.0000 0.0000 -3.9278
# 2 -5.4947 31.8168 2.4595 0.0000 0.0000 3.9278
# 3 2.4595 2.4595 122.6144 0.0000 0.0000 0.0000
# 4 0.0000 0.0000 0.0000 35.9453 0.0000 0.0000
# 5 0.0000 0.0000 0.0000 0.0000 35.9453 0.0000
# 6 -3.9278 3.9278 0.0000 0.0000 0.0000 15.4606
#
#
#
# Elastic Compliance Matrix: (Units=1/GPa)
#
#
# Indices 1 2 3 4 5 6 
#
# 1 0.033225 0.004909 -0.000765 0.000000 0.000000 0.007194
# 2 0.004909 0.033225 -0.000765 0.000000 0.000000 -0.007194
# 3 -0.000765 -0.000765 0.008186 0.000000 0.000000 0.000000
# 4 0.000000 0.000000 0.000000 0.027820 0.000000 0.000000
# 5 0.000000 0.000000 0.000000 0.000000 0.027820 0.000000
# 6 0.007194 -0.007194 0.000000 0.000000 0.000000 0.068336
#
#
# Mechanical properties :
#
#
# Convention : Reuss Voigt Hill
#
# Bulk Modulus (GPa) = 12.28586 20.56627 16.42607
# Shear Modulus (GPa) = 22.83256 29.92513 26.37885
#
# Velocity S-wave (km/s) = 3.04684 3.48811 3.27492
# Velocity P-wave (km/s) = 4.16807 4.95826 4.58024
#
# Compressibility (1/GPa) = 0.08139435
#
# Stress axis : x y z
#
# Youngs Moduli (GPa) = 30.09788 30.09788 122.15483
#
# Poissons Ratio (x) = -0.14775 0.09344
# Poissons Ratio (y) = -0.14775 0.09344
# Poissons Ratio (z) = 0.02302 0.02302
#
# Static dielectric constant tensor:
#      x y z
#    x 1.968430 0.000000 0.000000 
#    y 0.000000 1.968430 0.000000 
#    z 0.000000 0.000000 2.033360 
# 
# From -- ./inp_files/594.got.cif
#   From: 2010.05.17/outbox.cif.g08.bks.cpg/sg78_cif.got.tgz:594.got - 2010.06.03 18:45:56.
