data_PCOD9541692
_publ_section_title
;
Structure prediction by ZEFSAII (Michael W. Deem and Ramdas Pophale) SiO2 
 PCOD9541692
Probable space group: P 43
;
_chemical_formula_sum "Si O2"
_cell_formula_units_Z 28
_cell_length_a 15.575869
_cell_length_b 15.575869
_cell_length_c 4.926465
_cell_angle_alpha 90.000000
_cell_angle_beta 90.000000
_cell_angle_gamma 90.000000
_cell_volume 1195.198319
_symmetry_space_group_name_H-M "P 43"
_symmetry_group_IT_number 78
_symmetry_cell_setting 'tetragonal'
loop_
_space_group_symop_operation_xyz
x,y,z
-y,x,3/4+z
-x,-y,1/2+z
y,-x,1/4+z
loop_
_atom_site_type_symbol
_atom_site_label
_atom_site_fract_x
_atom_site_fract_y
_atom_site_fract_z
Si Si1 0.562033 0.617874 0.812790
Si Si2 0.995399 0.284548 0.885954
Si Si3 0.235101 0.896574 0.651828
Si Si4 0.769469 0.534624 0.286458
Si Si5 0.350820 0.744608 0.525428
Si Si6 0.468558 0.050311 0.306530
Si Si7 0.065446 0.888253 0.401248
O O1 0.475945 0.595971 0.649053
O O2 0.529494 0.687668 0.033414
O O3 0.646189 0.661342 0.681672
O O4 0.075621 0.279867 0.680227
O O5 0.031287 0.261063 0.182781
O O6 0.952189 0.375971 0.914380
O O7 0.933083 0.208047 0.789212
O O8 0.270117 0.806643 0.539559
O O9 0.131919 0.892423 0.652190
O O10 0.783567 0.576760 0.577924
O O11 0.856240 0.493369 0.168580
O O12 0.744397 0.610602 0.078433
O O13 0.470377 0.987155 0.568717
O O14 0.966956 0.905924 0.469062
#
# Coordination Sequence:
#
# PCOD9541692 Si02
#       7
#     4   4   4   4   4   4   4
#     4  10  22  41  69  98 137 177 229 288 356 420
#     4  11  24  41  66  97 133 179 229 283 347 410
#     4  11  23  41  66  96 134 175 222 281 346 415
#     4  11  24  41  66  97 133 179 229 283 347 410
#     4  11  23  41  66  96 134 175 222 281 346 415
#     4  12  24  42  68  96 138 182 236 286 338 420
#     4  10  22  41  69  98 137 177 229 288 356 420
#
# _framework density 23.427078000000002
#
# number of rings (size 3 to 8) (size 9 to 14) (size 15 to 20)
#    0.000    1.143    0.000    6.857    2.000    6.857 
#    0.000    0.000    0.000    0.000    0.000    0.000 
#    0.000    0.000    0.000    0.000    0.000    0.000 
#
# Total GULP energy -156453.593471 kJ/mol
# GULP energy per Si atom -5587.628338 kJ/mol
# Density = 2.337376 g / cm^3
# Si number density = 23.427078 Si / 1000 Ang^3
#
#
#
# Elastic Constant Matrix: (Units=GPa)
#
#
# Indices 1 2 3 4 5 6 
#
# 1 101.7798 19.7778 11.4889 0.0000 0.0000 0.7417
# 2 19.7778 101.7798 11.4889 0.0000 0.0000 -0.7417
# 3 11.4889 11.4889 79.1685 0.0000 0.0000 0.0000
# 4 0.0000 0.0000 0.0000 24.3375 0.0000 0.0000
# 5 0.0000 0.0000 0.0000 0.0000 24.3375 0.0000
# 6 0.7417 -0.7417 0.0000 0.0000 0.0000 37.1481
#
#
#
# Elastic Compliance Matrix: (Units=1/GPa)
#
#
# Indices 1 2 3 4 5 6 
#
# 1 0.010329 -0.001870 -0.001228 0.000000 0.000000 -0.000244
# 2 -0.001870 0.010329 -0.001228 0.000000 0.000000 0.000244
# 3 -0.001228 -0.001228 0.012988 0.000000 0.000000 0.000000
# 4 0.000000 0.000000 0.000000 0.041089 0.000000 0.000000
# 5 0.000000 0.000000 0.000000 0.000000 0.041089 0.000000
# 6 -0.000244 0.000244 0.000000 0.000000 0.000000 0.026929
#
#
# Mechanical properties :
#
#
# Convention : Reuss Voigt Hill
#
# Bulk Modulus (GPa) = 40.00849 40.91549 40.46199
# Shear Modulus (GPa) = 31.30201 33.16281 32.23241
#
# Velocity S-wave (km/s) = 3.65930 3.76650 3.71328
# Velocity P-wave (km/s) = 5.91345 6.03476 5.97441
#
# Compressibility (1/GPa) = 0.02499470
#
# Stress axis : x y z
#
# Youngs Moduli (GPa) = 96.81564 96.81564 76.99679
#
# Poissons Ratio (x) = 0.18108 0.09451
# Poissons Ratio (y) = 0.18108 0.09451
# Poissons Ratio (z) = 0.11884 0.11884
#
# Static dielectric constant tensor:
#      x y z
#    x 1.927870 0.000000 0.000000 
#    y 0.000000 1.927870 0.000000 
#    z 0.000000 0.000000 1.895490 
# 
# From -- ./inp_files/267.got.cif
#   From: 2010.05.17/outbox.cif.g08.bks.cpg/sg78_cif.got.tgz:267.got - 2010.06.03 18:45:56.
