data_PCOD9541133
_publ_section_title
;
Structure prediction by ZEFSAII (Michael W. Deem and Ramdas Pophale) SiO2 
 PCOD9541133
Probable space group: P 41
;
_chemical_formula_sum "Si O2"
_cell_formula_units_Z 24
_cell_length_a 9.294928
_cell_length_b 9.294928
_cell_length_c 15.478313
_cell_angle_alpha 90.000000
_cell_angle_beta 90.000000
_cell_angle_gamma 90.000000
_cell_volume 1337.259478
_symmetry_space_group_name_H-M "P 41"
_symmetry_group_IT_number 76
_symmetry_cell_setting 'tetragonal'
loop_
_space_group_symop_operation_xyz
x,y,z
-y,x,1/4+z
-x,-y,1/2+z
y,-x,3/4+z
loop_
_atom_site_type_symbol
_atom_site_label
_atom_site_fract_x
_atom_site_fract_y
_atom_site_fract_z
Si Si1 0.455717 0.799302 0.958280
Si Si2 0.209361 0.012459 0.019828
Si Si3 0.980570 0.700005 0.257792
Si Si4 0.048354 0.051687 0.638514
Si Si5 0.537972 0.774517 0.580007
Si Si6 0.488289 0.342310 0.272622
O O1 0.485796 0.751501 0.859228
O O2 0.312416 0.896563 0.972214
O O3 0.431053 0.659762 0.018279
O O4 0.591936 0.891062 0.986909
O O5 0.112599 0.952279 0.098474
O O6 0.318821 0.133307 0.056148
O O7 0.084105 0.062816 0.953917
O O8 0.927607 0.790185 0.176210
O O9 0.859103 0.601409 0.299292
O O10 0.028628 0.828749 0.318983
O O11 0.553564 0.625633 0.527943
O O12 0.521712 0.745034 0.682516
#
# Coordination Sequence:
#
# PCOD9541133 Si02
#       6
#     4   4   4   4   4   4
#     4  10  21  37  57  82 109 144 186 228 274 329
#     4  10  20  36  58  82 112 148 186 222 274 340
#     4  10  22  36  54  82 110 138 180 228 274 320
#     4  10  20  36  56  80 112 146 178 224 276 328
#     4  10  21  37  57  82 109 144 186 228 274 329
#     4  10  20  36  58  78 108 146 184 224 276 334
#
# _framework density 17.947151000000002
#
# number of rings (size 3 to 8) (size 9 to 14) (size 15 to 20)
#    0.000    2.000    0.000    4.000    0.000    5.333 
#    0.000    0.000    0.000    6.000    0.000    0.000 
#    0.000    0.000    0.000    0.000    0.000    0.000 
#
# Total GULP energy -133721.318521 kJ/mol
# GULP energy per Si atom -5571.721605 kJ/mol
# Density = 1.790630 g / cm^3
# Si number density = 17.947151 Si / 1000 Ang^3
#
#
#
# Elastic Constant Matrix: (Units=GPa)
#
#
# Indices 1 2 3 4 5 6 
#
# 1 102.3419 40.4044 26.3455 0.0000 0.0000 1.9208
# 2 40.4044 102.3419 26.3455 0.0000 0.0000 -1.9208
# 3 26.3455 26.3455 68.5485 0.0000 0.0000 0.0000
# 4 0.0000 0.0000 0.0000 27.7582 0.0000 0.0000
# 5 0.0000 0.0000 0.0000 0.0000 27.7582 0.0000
# 6 1.9208 -1.9208 0.0000 0.0000 0.0000 16.3557
#
#
#
# Elastic Compliance Matrix: (Units=1/GPa)
#
#
# Indices 1 2 3 4 5 6 
#
# 1 0.012214 -0.004050 -0.003138 0.000000 0.000000 -0.001910
# 2 -0.004050 0.012214 -0.003138 0.000000 0.000000 0.001910
# 3 -0.003138 -0.003138 0.017000 0.000000 0.000000 0.000000
# 4 0.000000 0.000000 0.000000 0.036025 0.000000 0.000000
# 5 0.000000 0.000000 0.000000 0.000000 0.036025 0.000000
# 6 -0.001910 0.001910 0.000000 0.000000 0.000000 0.061589
#
#
# Mechanical properties :
#
#
# Convention : Reuss Voigt Hill
#
# Bulk Modulus (GPa) = 48.13031 51.04702 49.58866
# Shear Modulus (GPa) = 24.67391 26.38357 25.52874
#
# Velocity S-wave (km/s) = 3.71186 3.83831 3.77562
# Velocity P-wave (km/s) = 6.72656 6.93889 6.83355
#
# Compressibility (1/GPa) = 0.02077693
#
# Stress axis : x y z
#
# Youngs Moduli (GPa) = 81.87548 81.87548 58.82377
#
# Poissons Ratio (x) = 0.33160 0.18456
# Poissons Ratio (y) = 0.33160 0.18456
# Poissons Ratio (z) = 0.25689 0.25689
#
# Static dielectric constant tensor:
#      x y z
#    x 1.606250 0.000000 0.000000 
#    y 0.000000 1.606250 0.000000 
#    z 0.000000 0.000000 1.654980 
# 
# From -- ./inp_files/1064.got.cif
#   From: 2010.05.17/outbox.cif.g08.bks.cpg/sg76_cif.got.tgz:1064.got - 2010.06.03 18:43:17.
