data_PCOD9541218
_publ_section_title
;
Structure prediction by ZEFSAII (Michael W. Deem and Ramdas Pophale) SiO2 
 PCOD9541218
Probable space group: P 41
;
_chemical_formula_sum "Si O2"
_cell_formula_units_Z 16
_cell_length_a 9.060287
_cell_length_b 9.060287
_cell_length_c 7.157211
_cell_angle_alpha 90.000000
_cell_angle_beta 90.000000
_cell_angle_gamma 90.000000
_cell_volume 587.526866
_symmetry_space_group_name_H-M "P 41"
_symmetry_group_IT_number 76
_symmetry_cell_setting 'tetragonal'
loop_
_space_group_symop_operation_xyz
x,y,z
-y,x,1/4+z
-x,-y,1/2+z
y,-x,3/4+z
loop_
_atom_site_type_symbol
_atom_site_label
_atom_site_fract_x
_atom_site_fract_y
_atom_site_fract_z
Si Si1 0.761128 0.280179 0.656900
Si Si2 0.173152 0.913386 0.826181
Si Si3 0.546539 0.224471 0.149536
Si Si4 0.200368 0.563147 0.519608
O O1 0.855705 0.183468 0.513637
O O2 0.719814 0.426552 0.543517
O O3 0.605848 0.202953 0.701170
O O4 0.843027 0.333741 0.844006
O O5 0.338906 0.876493 0.762365
O O6 0.074549 0.864784 0.651295
O O7 0.640784 0.360026 0.066191
O O8 0.460689 0.141657 0.981392
#
# Coordination Sequence:
#
# PCOD9541218 Si02
#       4
#     4   4   4   4
#     4  11  22  44  78 121 156 200 252 319 388 470
#     4  12  30  56  76 106 162 222 272 324 408 478
#     4  11  22  44  78 121 156 200 252 319 388 470
#     4  10  22  36  80 126 164 188 242 328 402 464
#
# _framework density 27.232793999999998
#
# number of rings (size 3 to 8) (size 9 to 14) (size 15 to 20)
#    0.000    1.000    5.000    0.000   14.000    4.000 
#    4.500    2.500    0.000    0.000    0.000    0.000 
#    0.000    0.000    0.000    0.000    0.000    0.000 
#
# Total GULP energy -89587.216608 kJ/mol
# GULP energy per Si atom -5599.201038 kJ/mol
# Density = 2.717081 g / cm^3
# Si number density = 27.232794 Si / 1000 Ang^3
#
#
#
# Elastic Constant Matrix: (Units=GPa)
#
#
# Indices 1 2 3 4 5 6 
#
# 1 64.5706 -5.6054 23.0563 0.0000 0.0000 -2.9880
# 2 -5.6054 64.5706 23.0563 0.0000 0.0000 2.9880
# 3 23.0563 23.0563 186.8704 0.0000 0.0000 0.0000
# 4 0.0000 0.0000 0.0000 61.7628 0.0000 0.0000
# 5 0.0000 0.0000 0.0000 0.0000 61.7628 0.0000
# 6 -2.9880 2.9880 0.0000 0.0000 0.0000 21.3450
#
#
#
# Elastic Compliance Matrix: (Units=1/GPa)
#
#
# Indices 1 2 3 4 5 6 
#
# 1 0.016596 0.002174 -0.002316 0.000000 0.000000 0.002019
# 2 0.002174 0.016596 -0.002316 0.000000 0.000000 -0.002019
# 3 -0.002316 -0.002316 0.005923 0.000000 0.000000 0.000000
# 4 0.000000 0.000000 0.000000 0.016191 0.000000 0.000000
# 5 0.000000 0.000000 0.000000 0.000000 0.016191 0.000000
# 6 0.002019 -0.002019 0.000000 0.000000 0.000000 0.047415
#
#
# Mechanical properties :
#
#
# Convention : Reuss Voigt Hill
#
# Bulk Modulus (GPa) = 29.24003 44.11402 36.67702
# Shear Modulus (GPa) = 36.97502 47.34107 42.15805
#
# Velocity S-wave (km/s) = 3.68875 4.17392 3.93881
# Velocity P-wave (km/s) = 5.37614 6.28194 5.84661
#
# Compressibility (1/GPa) = 0.03419969
#
# Stress axis : x y z
#
# Youngs Moduli (GPa) = 60.25541 60.25541 168.83967
#
# Poissons Ratio (x) = -0.13101 0.39102
# Poissons Ratio (y) = -0.13101 0.39102
# Poissons Ratio (z) = 0.13955 0.13955
#
# Static dielectric constant tensor:
#      x y z
#    x 2.157580 0.000000 0.000000 
#    y 0.000000 2.157580 0.000000 
#    z 0.000000 0.000000 2.093370 
# 
# From -- ./inp_files/407.got.cif
#   From: 2010.05.17/outbox.cif.g08.bks.cpg/sg76_cif.got.tgz:407.got - 2010.06.03 18:43:17.
