data_PCOD9541030
_publ_section_title
;
Structure prediction by ZEFSAII (Michael W. Deem and Ramdas Pophale) SiO2 
 PCOD9541030
Probable space group: P 4
;
_chemical_formula_sum "Si O2"
_cell_formula_units_Z 26
_cell_length_a 8.028100
_cell_length_b 8.028100
_cell_length_c 17.660059
_cell_angle_alpha 90.000000
_cell_angle_beta 90.000000
_cell_angle_gamma 90.000000
_cell_volume 1138.197683
_symmetry_space_group_name_H-M "P 4"
_symmetry_group_IT_number 75
_symmetry_cell_setting 'tetragonal'
loop_
_space_group_symop_operation_xyz
x,y,z
-y,x,z
-x,-y,z
y,-x,z
loop_
_atom_site_type_symbol
_atom_site_label
_atom_site_fract_x
_atom_site_fract_y
_atom_site_fract_z
Si Si1 0.775807 0.826070 0.454520
Si Si2 0.264078 0.365648 0.774634
Si Si3 0.787841 0.187865 0.616450
Si Si4 0.128081 0.746160 0.292006
Si Si5 0.500000 0.000000 0.179184
Si Si6 0.094354 0.255931 0.916575
Si Si7 0.763645 0.584059 0.057578
O O1 0.726592 0.748373 0.535135
O O2 0.687790 0.800147 0.374014
O O3 0.971777 0.777822 0.454668
O O4 0.440649 0.282131 0.793295
O O5 0.243227 0.323388 0.686525
O O6 0.120590 0.297470 0.828531
O O7 0.986173 0.224427 0.621161
O O8 0.928451 0.787624 0.286542
O O9 0.133167 0.600279 0.230547
O O10 0.619546 0.100548 0.121981
O O11 0.906935 0.205132 0.931983
O O12 0.161109 0.392210 0.974254
O O13 0.604086 0.700850 0.066256
#
# Coordination Sequence:
#
# PCOD9541030 Si02
#       7
#     4   4   4   4   2   4   4
#     4   7  12  27  51  78 109 144 185 238 296 346
#     4  11  24  39  55  81 119 158 192 230 284 351
#     4   9  17  32  56  84 112 146 192 243 291 344
#     4   9  18  34  56  82 114 152 195 248 304 354
#     4  12  22  36  58  88 118 154 204 256 302 362
#     4  11  24  42  65  91 115 143 188 244 297 353
#     4  11  24  41  60  84 118 158 196 241 301 363
#
# _framework density 22.843133999999999
#
# number of rings (size 3 to 8) (size 9 to 14) (size 15 to 20)
#    0.000    2.154    0.000    5.538    0.000    6.154 
#    0.000    6.154    0.000    0.000    0.000    2.154 
#    0.000    0.000    0.000    0.000    0.000    0.000 
#
# Total GULP energy -144989.651085 kJ/mol
# GULP energy per Si atom -5576.525042 kJ/mol
# Density = 2.279114 g / cm^3
# Si number density = 22.843134 Si / 1000 Ang^3
#
#
#
# Elastic Constant Matrix: (Units=GPa)
#
#
# Indices 1 2 3 4 5 6 
#
# 1 39.5133 18.2311 22.2987 0.0000 0.0000 -1.7460
# 2 18.2311 39.5133 22.2987 0.0000 0.0000 1.7460
# 3 22.2987 22.2987 156.7396 0.0000 0.0000 0.0000
# 4 0.0000 0.0000 0.0000 24.5730 0.0000 0.0000
# 5 0.0000 0.0000 0.0000 0.0000 24.5730 0.0000
# 6 -1.7460 1.7460 0.0000 0.0000 0.0000 19.2823
#
#
#
# Elastic Compliance Matrix: (Units=1/GPa)
#
#
# Indices 1 2 3 4 5 6 
#
# 1 0.033576 -0.014120 -0.002768 0.000000 0.000000 0.004319
# 2 -0.014120 0.033576 -0.002768 0.000000 0.000000 -0.004319
# 3 -0.002768 -0.002768 0.007168 0.000000 0.000000 0.000000
# 4 0.000000 0.000000 0.000000 0.040695 0.000000 0.000000
# 5 0.000000 0.000000 0.000000 0.000000 0.040695 0.000000
# 6 0.004319 -0.004319 0.000000 0.000000 0.000000 0.052643
#
#
# Mechanical properties :
#
#
# Convention : Reuss Voigt Hill
#
# Bulk Modulus (GPa) = 28.56574 40.15814 34.36194
# Shear Modulus (GPa) = 19.28017 25.21484 22.24751
#
# Velocity S-wave (km/s) = 2.90836 3.32599 3.12416
# Velocity P-wave (km/s) = 4.87959 5.68927 5.29991
#
# Compressibility (1/GPa) = 0.03500697
#
# Stress axis : x y z
#
# Youngs Moduli (GPa) = 29.78331 29.78331 139.51775
#
# Poissons Ratio (x) = 0.42055 0.38616
# Poissons Ratio (y) = 0.42055 0.38616
# Poissons Ratio (z) = 0.08244 0.08244
#
# Static dielectric constant tensor:
#      x y z
#    x 1.865310 0.000000 0.000000 
#    y 0.000000 1.865310 0.000000 
#    z 0.000000 0.000000 1.922440 
# 
# From -- ./inp_files/736.got.cif
#   From: 2010.05.17/outbox.cif.g08.bks.cpg/sg75_cif.got.tgz:736.got - 2010.06.03 18:42:43.
