data_PCOD9541181
_publ_section_title
;
Structure prediction by ZEFSAII (Michael W. Deem and Ramdas Pophale) SiO2 
 PCOD9541181
Probable space group: P 41
;
_chemical_formula_sum "Si O2"
_cell_formula_units_Z 32
_cell_length_a 7.426242
_cell_length_b 7.426242
_cell_length_c 27.030553
_cell_angle_alpha 90.000000
_cell_angle_beta 90.000000
_cell_angle_gamma 90.000000
_cell_volume 1490.709866
_symmetry_space_group_name_H-M "P 41"
_symmetry_group_IT_number 76
_symmetry_cell_setting 'tetragonal'
loop_
_space_group_symop_operation_xyz
x,y,z
-y,x,1/4+z
-x,-y,1/2+z
y,-x,3/4+z
loop_
_atom_site_type_symbol
_atom_site_label
_atom_site_fract_x
_atom_site_fract_y
_atom_site_fract_z
Si Si1 0.618449 0.982760 0.283410
Si Si2 0.114070 0.515977 0.847337
Si Si3 0.569612 0.258880 0.198881
Si Si4 0.007592 0.201686 0.552283
Si Si5 0.605101 0.576683 0.261800
Si Si6 0.896474 0.059582 0.368992
Si Si7 0.860624 0.733132 0.718937
Si Si8 0.186655 0.594741 0.277447
O O1 0.417091 0.011699 0.305513
O O2 0.626318 0.789692 0.256901
O O3 0.648447 0.134587 0.242264
O O4 0.760621 0.986276 0.327457
O O5 0.183123 0.402241 0.894297
O O6 0.257937 0.490893 0.803467
O O7 0.101092 0.724358 0.861874
O O8 0.922064 0.454638 0.826632
O O9 0.627998 0.461182 0.212023
O O10 0.351987 0.254200 0.205918
O O11 0.192004 0.169477 0.522176
O O12 0.847699 0.121038 0.519021
O O13 0.010464 0.093751 0.603681
O O14 0.398500 0.548321 0.280076
O O15 0.818376 0.030083 0.423788
O O16 0.895090 0.526216 0.733403
#
# Coordination Sequence:
#
# PCOD9541181 Si02
#       8
#     4   4   4   4   4   4   4   4
#     4  10  21  40  61  84 122 161 199 253 299 362
#     4  11  21  37  65  92 119 163 204 253 309 355
#     4   9  20  38  62  90 120 162 206 248 308 359
#     4  10  21  40  61  84 122 161 199 253 299 362
#     4  10  21  40  61  84 122 161 199 253 299 362
#     4  11  21  37  65  92 119 163 204 253 309 355
#     4   9  20  38  62  90 120 162 206 248 308 359
#     4  10  21  40  61  84 122 161 199 253 299 362
#
# _framework density 21.466284999999999
#
# number of rings (size 3 to 8) (size 9 to 14) (size 15 to 20)
#    0.000    2.000    2.500    0.750    0.000    2.000 
#    9.000    5.000    0.000    0.000    0.000    0.000 
#    0.000    0.000    0.000    0.000    0.000    0.000 
#
# Total GULP energy -178739.969320 kJ/mol
# GULP energy per Si atom -5585.624041 kJ/mol
# Density = 2.141743 g / cm^3
# Si number density = 21.466285 Si / 1000 Ang^3
#
#
#
# Elastic Constant Matrix: (Units=GPa)
#
#
# Indices 1 2 3 4 5 6 
#
# 1 48.7066 5.3441 -12.6773 0.0000 0.0000 1.4260
# 2 5.3441 48.7066 -12.6773 0.0000 0.0000 -1.4260
# 3 -12.6773 -12.6773 23.6870 0.0000 0.0000 0.0000
# 4 0.0000 0.0000 0.0000 20.0426 0.0000 0.0000
# 5 0.0000 0.0000 0.0000 0.0000 20.0426 0.0000
# 6 1.4260 -1.4260 0.0000 0.0000 0.0000 19.4368
#
#
#
# Elastic Compliance Matrix: (Units=1/GPa)
#
#
# Indices 1 2 3 4 5 6 
#
# 1 0.023938 0.000765 0.013221 0.000000 0.000000 -0.001700
# 2 0.000765 0.023938 0.013221 0.000000 0.000000 0.001700
# 3 0.013221 0.013221 0.056369 0.000000 0.000000 0.000000
# 4 0.000000 0.000000 0.000000 0.049894 0.000000 0.000000
# 5 0.000000 0.000000 0.000000 0.000000 0.049894 0.000000
# 6 -0.001700 0.001700 0.000000 0.000000 0.000000 0.051698
#
#
# Mechanical properties :
#
#
# Convention : Reuss Voigt Hill
#
# Bulk Modulus (GPa) = 6.30280 9.00879 7.65580
# Shear Modulus (GPa) = 19.66928 21.31178 20.49053
#
# Velocity S-wave (km/s) = 3.03031 3.15429 3.09292
# Velocity P-wave (km/s) = 3.89695 4.17994 4.04092
#
# Compressibility (1/GPa) = 0.15865956
#
# Stress axis : x y z
#
# Youngs Moduli (GPa) = 41.77436 41.77436 17.74020
#
# Poissons Ratio (x) = -0.03195 -0.23454
# Poissons Ratio (y) = -0.03195 -0.23454
# Poissons Ratio (z) = -0.55230 -0.55230
#
# Static dielectric constant tensor:
#      x y z
#    x 1.800770 0.000000 0.000000 
#    y 0.000000 1.800770 0.000000 
#    z 0.000000 0.000000 1.749980 
# 
# From -- ./inp_files/1579.got.cif
#   From: 2010.05.17/outbox.cif.g08.bks.cpg/sg76_cif.got.tgz:1579.got - 2010.06.03 18:43:17.
