data_PCOD9541528
_publ_section_title
;
Structure prediction by ZEFSAII (Michael W. Deem and Ramdas Pophale) SiO2 
 PCOD9541528
Probable space group: P 42
;
_chemical_formula_sum "Si O2"
_cell_formula_units_Z 22
_cell_length_a 13.204468
_cell_length_b 13.204468
_cell_length_c 5.347042
_cell_angle_alpha 90.000000
_cell_angle_beta 90.000000
_cell_angle_gamma 90.000000
_cell_volume 932.299416
_symmetry_space_group_name_H-M "P 42"
_symmetry_group_IT_number 77
_symmetry_cell_setting 'tetragonal'
loop_
_space_group_symop_operation_xyz
x,y,z
-y,x,1/2+z
-x,-y,z
y,-x,1/2+z
loop_
_atom_site_type_symbol
_atom_site_label
_atom_site_fract_x
_atom_site_fract_y
_atom_site_fract_z
Si Si1 0.118379 0.212140 0.000000
Si Si2 0.484331 0.780889 0.014544
Si Si3 0.500000 0.000000 0.278025
Si Si4 0.008224 0.757817 0.497710
Si Si5 0.688030 0.696147 0.807994
Si Si6 0.887245 0.396703 0.177118
O O1 0.162317 0.098759 0.990265
O O2 0.063600 0.224819 0.262050
O O3 0.214999 0.284792 0.976777
O O4 0.050282 0.229983 0.755272
O O5 0.400814 0.708207 0.135097
O O6 0.475957 0.889100 0.159722
O O7 0.588715 0.713561 0.985035
O O8 0.496768 0.831239 0.737317
O O9 0.409961 0.031633 0.467115
O O10 0.059750 0.649144 0.426131
O O11 0.678296 0.794435 0.623153
#
# Coordination Sequence:
#
# PCOD9541528 Si02
#       6
#     4   4   2   4   4   4
#     4  11  24  41  67 102 151 197 251 319 388 486
#     4  10  23  45  70 111 148 194 263 319 401 466
#     4  12  22  40  78 106 148 192 270 320 394 478
#     4  11  24  40  65 100 150 197 254 311 395 472
#     4   9  23  43  70 106 147 194 257 324 397 470
#     4   9  24  40  66 109 140 195 247 330 383 467
#
# _framework density 23.597569
#
# number of rings (size 3 to 8) (size 9 to 14) (size 15 to 20)
#    1.091    0.727    0.000    2.727    7.636    5.091 
#    3.273    0.000    0.000    3.273    0.000    0.000 
#    0.000    0.000    0.000    0.000    0.000    0.000 
#
# Total GULP energy -122491.077264 kJ/mol
# GULP energy per Si atom -5567.776239 kJ/mol
# Density = 2.354386 g / cm^3
# Si number density = 23.597569 Si / 1000 Ang^3
#
#
#
# Elastic Constant Matrix: (Units=GPa)
#
#
# Indices 1 2 3 4 5 6 
#
# 1 95.6881 130.2324 54.7554 0.0000 0.0000 -3.2258
# 2 130.2324 95.6881 54.7554 0.0000 0.0000 3.2258
# 3 54.7554 54.7554 92.7637 0.0000 0.0000 0.0000
# 4 0.0000 0.0000 0.0000 128.0512 0.0000 0.0000
# 5 0.0000 0.0000 0.0000 0.0000 128.0512 0.0000
# 6 -3.2258 3.2258 0.0000 0.0000 0.0000 13.4499
#
#
#
# Elastic Compliance Matrix: (Units=1/GPa)
#
#
# Indices 1 2 3 4 5 6 
#
# 1 -0.010753 0.016954 -0.003660 0.000000 0.000000 -0.006645
# 2 0.016954 -0.010753 -0.003660 0.000000 0.000000 0.006645
# 3 -0.003660 -0.003660 0.015101 0.000000 0.000000 0.000000
# 4 0.000000 0.000000 0.000000 0.007809 0.000000 0.000000
# 5 0.000000 0.000000 0.000000 0.000000 0.007809 0.000000
# 6 -0.006645 0.006645 0.000000 0.000000 0.000000 0.071163
#
#
# Mechanical properties :
#
#
# Convention : Reuss Voigt Hill
#
# Bulk Modulus (GPa) = 77.74879 84.84736 81.29807
# Shear Modulus (GPa) = 76.45893 56.87021 66.66457
#
# Velocity S-wave (km/s) = 5.69838 4.91450 5.32090
# Velocity P-wave (km/s) = 8.73583 8.26058 8.50153
#
# Compressibility (1/GPa) = 0.01286194
#
# Stress axis : x y z
#
# Youngs Moduli (GPa) = -92.99385 -92.99385 66.22207
#
# Poissons Ratio (x) = 1.57660 0.24237
# Poissons Ratio (y) = 1.57660 0.24237
# Poissons Ratio (z) = -0.34035 -0.34035
#
# Static dielectric constant tensor:
#      x y z
#    x 1.887620 0.000000 0.000000 
#    y 0.000000 1.887620 0.000000 
#    z 0.000000 0.000000 2.089890 
# 
# From -- ./inp_files/121.got.cif
#   From: 2010.05.17/outbox.cif.g08.bks.cpg/sg77_cif.got.tgz:121.got - 2010.06.03 18:44:51.
