data_PCOD9541770
_publ_section_title
;
Structure prediction by ZEFSAII (Michael W. Deem and Ramdas Pophale) SiO2 
 PCOD9541770
Probable space group: P 43
;
_chemical_formula_sum "Si O2"
_cell_formula_units_Z 16
_cell_length_a 5.137077
_cell_length_b 5.137077
_cell_length_c 20.035641
_cell_angle_alpha 90.000000
_cell_angle_beta 90.000000
_cell_angle_gamma 90.000000
_cell_volume 528.731752
_symmetry_space_group_name_H-M "P 43"
_symmetry_group_IT_number 78
_symmetry_cell_setting 'tetragonal'
loop_
_space_group_symop_operation_xyz
x,y,z
-y,x,3/4+z
-x,-y,1/2+z
y,-x,1/4+z
loop_
_atom_site_type_symbol
_atom_site_label
_atom_site_fract_x
_atom_site_fract_y
_atom_site_fract_z
Si Si1 0.719607 0.272860 0.023070
Si Si2 0.205454 0.638827 0.979797
Si Si3 0.356682 0.557627 0.100818
Si Si4 0.829462 0.969977 0.910176
O O1 0.474473 0.474477 0.026398
O O2 0.761683 0.226438 0.101682
O O3 0.670606 0.012165 0.981117
O O4 0.956142 0.434039 0.991144
O O5 0.330023 0.516712 0.910046
O O6 0.182778 0.760283 0.060061
O O7 0.105273 0.904939 0.941069
O O8 0.216021 0.299544 0.124608
#
# Coordination Sequence:
#
# PCOD9541770 Si02
#       4
#     4   4   4   4
#     4  11  26  48  74 121 166 206 280 342 396 500
#     4  11  27  47  81 118 161 222 265 340 416 480
#     4  11  25  54  79 118 172 206 276 350 391 493
#     4  11  26  47  80 113 159 218 267 328 419 479
#
# _framework density 30.261092000000001
#
# number of rings (size 3 to 8) (size 9 to 14) (size 15 to 20)
#    0.000    1.000    2.500    1.500    7.000    2.000 
#    0.000    0.000    0.000    0.000    0.000    0.000 
#    0.000    0.000    0.000    0.000    0.000    0.000 
#
# Total GULP energy -89076.257465 kJ/mol
# GULP energy per Si atom -5567.266092 kJ/mol
# Density = 3.019222 g / cm^3
# Si number density = 30.261092 Si / 1000 Ang^3
#
#
#
# Elastic Constant Matrix: (Units=GPa)
#
#
# Indices 1 2 3 4 5 6 
#
# 1 139.5610 47.3855 76.9379 0.0000 0.0000 4.4496
# 2 47.3855 139.5610 76.9379 0.0000 0.0000 -4.4496
# 3 76.9379 76.9379 297.8349 0.0000 0.0000 0.0000
# 4 0.0000 0.0000 0.0000 61.5615 0.0000 0.0000
# 5 0.0000 0.0000 0.0000 0.0000 61.5615 0.0000
# 6 4.4496 -4.4496 0.0000 0.0000 0.0000 48.6237
#
#
#
# Elastic Compliance Matrix: (Units=1/GPa)
#
#
# Indices 1 2 3 4 5 6 
#
# 1 0.008870 -0.002076 -0.001755 0.000000 0.000000 -0.001002
# 2 -0.002076 0.008870 -0.001755 0.000000 0.000000 0.001002
# 3 -0.001755 -0.001755 0.004264 0.000000 0.000000 0.000000
# 4 0.000000 0.000000 0.000000 0.016244 0.000000 0.000000
# 5 0.000000 0.000000 0.000000 0.000000 0.016244 0.000000
# 6 -0.001002 0.001002 0.000000 0.000000 0.000000 0.020749
#
#
# Mechanical properties :
#
#
# Convention : Reuss Voigt Hill
#
# Bulk Modulus (GPa) = 92.32172 108.83109 100.57641
# Shear Modulus (GPa) = 55.54132 59.39572 57.46852
#
# Velocity S-wave (km/s) = 4.28881 4.43513 4.36258
# Velocity P-wave (km/s) = 7.42292 7.89109 7.66058
#
# Compressibility (1/GPa) = 0.01083169
#
# Stress axis : x y z
#
# Youngs Moduli (GPa) = 112.74465 112.74465 234.50722
#
# Poissons Ratio (x) = 0.23405 0.41155
# Poissons Ratio (y) = 0.23405 0.41155
# Poissons Ratio (z) = 0.19786 0.19786
#
# Static dielectric constant tensor:
#      x y z
#    x 2.647160 0.000000 0.000000 
#    y 0.000000 2.647160 0.000000 
#    z 0.000000 0.000000 2.486000 
# 
# From -- ./inp_files/1360.got.cif
#   From: 2010.05.17/outbox.cif.g08.bks.cpg/sg78_cif.got.tgz:1360.got - 2010.06.03 18:45:56.
