data_PCOD9541010
_publ_section_title
;
Structure prediction by ZEFSAII (Michael W. Deem and Ramdas Pophale) SiO2 
 PCOD9541010
Probable space group: P 4
;
_chemical_formula_sum "Si O2"
_cell_formula_units_Z 25
_cell_length_a 11.171068
_cell_length_b 11.171068
_cell_length_c 8.273462
_cell_angle_alpha 90.000000
_cell_angle_beta 90.000000
_cell_angle_gamma 90.000000
_cell_volume 1032.468160
_symmetry_space_group_name_H-M "P 4"
_symmetry_group_IT_number 75
_symmetry_cell_setting 'tetragonal'
loop_
_space_group_symop_operation_xyz
x,y,z
-y,x,z
-x,-y,z
y,-x,z
loop_
_atom_site_type_symbol
_atom_site_label
_atom_site_fract_x
_atom_site_fract_y
_atom_site_fract_z
Si Si1 0.535430 0.694327 0.128130
Si Si2 0.293829 0.150767 0.699249
Si Si3 0.825744 0.905262 0.362466
Si Si4 0.908919 0.739458 0.895580
Si Si5 0.536945 0.694355 0.517939
Si Si6 0.939042 0.390674 0.145792
Si Si7 0.000000 0.000000 0.972976
O O1 0.407262 0.634217 0.091244
O O2 0.535790 0.716098 0.323895
O O3 0.562816 0.822251 0.048711
O O4 0.213420 0.133158 0.539279
O O5 0.219842 0.246046 0.809708
O O6 0.420506 0.197734 0.631201
O O7 0.293153 0.017502 0.773306
O O8 0.718513 0.881203 0.242225
O O9 0.953680 0.846641 0.338330
O O10 0.927308 0.873995 0.959692
O O11 0.948332 0.655972 0.043223
O O12 0.408672 0.635923 0.550856
O O13 0.000000 0.500000 0.244064
#
# Coordination Sequence:
#
# PCOD9541010 Si02
#       7
#     4   4   4   4   4   4   1
#     4   9  20  41  68  93 130 181 233 291 354 410
#     4  11  20  42  67  94 131 177 222 285 347 419
#     4  11  25  42  71 105 133 175 236 292 352 430
#     4  10  24  39  65  94 137 179 222 280 354 431
#     4   9  19  37  63  94 124 170 229 286 344 407
#     4  12  28  43  65 104 145 182 234 297 357 423
#     4   8  20  40  64  82 120 180 224 262 348 412
#
# _framework density 24.213825
#
# number of rings (size 3 to 8) (size 9 to 14) (size 15 to 20)
#    0.000    1.760    3.200    0.960    6.720    1.280 
#    0.000    0.800    0.000    1.920    0.000    0.000 
#    0.000    0.000    0.000    0.000    0.000    0.000 
#
# Total GULP energy -139331.763518 kJ/mol
# GULP energy per Si atom -5573.270541 kJ/mol
# Density = 2.415871 g / cm^3
# Si number density = 24.213825 Si / 1000 Ang^3
#
#
#
# Elastic Constant Matrix: (Units=GPa)
#
#
# Indices 1 2 3 4 5 6 
#
# 1 64.6000 4.6444 0.6200 0.0000 0.0000 -13.4224
# 2 4.6444 64.6000 0.6200 0.0000 0.0000 13.4224
# 3 0.6200 0.6200 46.5010 0.0000 0.0000 0.0000
# 4 0.0000 0.0000 0.0000 18.0486 0.0000 0.0000
# 5 0.0000 0.0000 0.0000 0.0000 18.0486 0.0000
# 6 -13.4224 13.4224 0.0000 0.0000 0.0000 47.7104
#
#
#
# Elastic Compliance Matrix: (Units=1/GPa)
#
#
# Indices 1 2 3 4 5 6 
#
# 1 0.016764 -0.002319 -0.000193 0.000000 0.000000 0.005369
# 2 -0.002319 0.016764 -0.000193 0.000000 0.000000 -0.005369
# 3 -0.000193 -0.000193 0.021510 0.000000 0.000000 0.000000
# 4 0.000000 0.000000 0.000000 0.055406 0.000000 0.000000
# 5 0.000000 0.000000 0.000000 0.000000 0.055406 0.000000
# 6 0.005369 -0.005369 0.000000 0.000000 0.000000 0.023980
#
#
# Mechanical properties :
#
#
# Convention : Reuss Voigt Hill
#
# Bulk Modulus (GPa) = 20.14918 20.82996 20.48957
# Shear Modulus (GPa) = 23.60925 28.08265 25.84595
#
# Velocity S-wave (km/s) = 3.12594 3.40925 3.27066
# Velocity P-wave (km/s) = 4.62256 4.91105 4.76899
#
# Compressibility (1/GPa) = 0.04962982
#
# Stress axis : x y z
#
# Youngs Moduli (GPa) = 59.65200 59.65200 46.48986
#
# Poissons Ratio (x) = 0.13832 0.00895
# Poissons Ratio (y) = 0.13832 0.00895
# Poissons Ratio (z) = 0.01149 0.01149
#
# Static dielectric constant tensor:
#      x y z
#    x 1.935310 0.000000 0.000000 
#    y 0.000000 1.935310 0.000000 
#    z 0.000000 0.000000 1.999650 
# 
# From -- ./inp_files/356.got.cif
#   From: 2010.05.17/outbox.cif.g08.bks.cpg/sg75_cif.got.tgz:356.got - 2010.06.03 18:42:43.
