data_PCOD9541006
_publ_section_title
;
Structure prediction by ZEFSAII (Michael W. Deem and Ramdas Pophale) SiO2 
 PCOD9541006
Probable space group: P 4
;
_chemical_formula_sum "Si O2"
_cell_formula_units_Z 20
_cell_length_a 7.963552
_cell_length_b 7.963552
_cell_length_c 14.461769
_cell_angle_alpha 90.000000
_cell_angle_beta 90.000000
_cell_angle_gamma 90.000000
_cell_volume 917.138787
_symmetry_space_group_name_H-M "P 4"
_symmetry_group_IT_number 75
_symmetry_cell_setting 'tetragonal'
loop_
_space_group_symop_operation_xyz
x,y,z
-y,x,z
-x,-y,z
y,-x,z
loop_
_atom_site_type_symbol
_atom_site_label
_atom_site_fract_x
_atom_site_fract_y
_atom_site_fract_z
Si Si1 0.233652 0.407848 0.423550
Si Si2 0.000000 0.500000 0.893583
Si Si3 0.500000 0.000000 0.578378
Si Si4 0.407848 0.766348 0.048411
Si Si5 0.904918 0.733865 0.235981
Si Si6 0.267662 0.091790 0.735981
O O1 0.399584 0.294489 0.426939
O O2 0.141456 0.366846 0.328023
O O3 0.111917 0.385982 0.510646
O O4 0.889131 0.384014 0.826041
O O5 0.888083 0.614018 0.961315
O O6 0.384014 0.110869 0.645920
O O7 0.294489 0.600416 0.045022
O O8 0.366845 0.858544 0.143938
O O9 0.096752 0.793185 0.235981
O O10 0.102710 0.205446 0.735981
#
# Coordination Sequence:
#
# PCOD9541006 Si02
#       6
#     4   2   2   4   4   4
#     4  11  23  39  61  89 122 161 202 245 295 350
#     4  11  22  39  62  88 120 155 198 249 298 354
#     4  11  22  39  62  88 120 155 198 249 298 354
#     4  11  23  39  61  89 122 161 202 245 295 350
#     4  11  24  41  62  89 122 160 200 243 292 349
#     4  10  22  40  62  88 118 154 196 245 302 358
#
# _framework density 21.806947999999998
#
# number of rings (size 3 to 8) (size 9 to 14) (size 15 to 20)
#    0.000    1.200    0.000    6.000    0.000    4.000 
#    0.000    4.000    0.000    9.600    0.000    0.000 
#    0.000    0.000    0.000    0.000    0.000    0.000 
#
# Total GULP energy -111996.474945 kJ/mol
# GULP energy per Si atom -5599.823747 kJ/mol
# Density = 2.175731 g / cm^3
# Si number density = 21.806948 Si / 1000 Ang^3
#
#
#
# Elastic Constant Matrix: (Units=GPa)
#
#
# Indices 1 2 3 4 5 6 
#
# 1 72.9157 10.1657 41.7835 0.0000 0.0000 -6.2168
# 2 10.1657 72.9157 41.7835 0.0000 0.0000 6.2168
# 3 41.7835 41.7835 190.6674 0.0000 0.0000 0.0000
# 4 0.0000 0.0000 0.0000 22.1190 0.0000 0.0000
# 5 0.0000 0.0000 0.0000 0.0000 22.1190 0.0000
# 6 -6.2168 6.2168 0.0000 0.0000 0.0000 33.8839
#
#
#
# Elastic Compliance Matrix: (Units=1/GPa)
#
#
# Indices 1 2 3 4 5 6 
#
# 1 0.015989 -0.000549 -0.003384 0.000000 0.000000 0.003034
# 2 -0.000549 0.015989 -0.003384 0.000000 0.000000 -0.003034
# 3 -0.003384 -0.003384 0.006728 0.000000 0.000000 0.000000
# 4 0.000000 0.000000 0.000000 0.045210 0.000000 0.000000
# 5 0.000000 0.000000 0.000000 0.000000 0.045210 0.000000
# 6 0.003034 -0.003034 0.000000 0.000000 0.000000 0.030626
#
#
# Mechanical properties :
#
#
# Convention : Reuss Voigt Hill
#
# Bulk Modulus (GPa) = 41.54028 58.21826 49.87927
# Shear Modulus (GPa) = 27.41123 31.80877 29.61000
#
# Velocity S-wave (km/s) = 3.54926 3.82338 3.68886
# Velocity P-wave (km/s) = 5.99056 6.80044 6.40831
#
# Compressibility (1/GPa) = 0.02407302
#
# Stress axis : x y z
#
# Youngs Moduli (GPa) = 62.54468 62.54468 148.63961
#
# Poissons Ratio (x) = 0.03433 0.50292
# Poissons Ratio (y) = 0.03433 0.50292
# Poissons Ratio (z) = 0.21162 0.21162
#
# Static dielectric constant tensor:
#      x y z
#    x 1.787180 0.000000 0.000000 
#    y 0.000000 1.787180 0.000000 
#    z 0.000000 0.000000 1.749770 
# 
# From -- ./inp_files/640.got.cif
#   From: 2010.05.17/outbox.cif.g08.bks.cpg/sg75_cif.got.tgz:640.got - 2010.06.03 18:42:43.
