data_PCOD9541777
_publ_section_title
;
Structure prediction by ZEFSAII (Michael W. Deem and Ramdas Pophale) SiO2 
 PCOD9541777
Probable space group: P 43
;
_chemical_formula_sum "Si O2"
_cell_formula_units_Z 32
_cell_length_a 11.847973
_cell_length_b 11.847973
_cell_length_c 11.012155
_cell_angle_alpha 90.000000
_cell_angle_beta 90.000000
_cell_angle_gamma 90.000000
_cell_volume 1545.825358
_symmetry_space_group_name_H-M "P 43"
_symmetry_group_IT_number 78
_symmetry_cell_setting 'tetragonal'
loop_
_space_group_symop_operation_xyz
x,y,z
-y,x,3/4+z
-x,-y,1/2+z
y,-x,1/4+z
loop_
_atom_site_type_symbol
_atom_site_label
_atom_site_fract_x
_atom_site_fract_y
_atom_site_fract_z
Si Si1 0.193643 0.443215 0.763860
Si Si2 0.637559 0.915967 0.261382
Si Si3 0.560605 0.038023 0.910619
Si Si4 0.059197 0.812314 0.220641
Si Si5 0.683168 0.130089 0.139818
Si Si6 0.321774 0.277791 0.576440
Si Si7 0.996169 0.918976 0.874386
Si Si8 0.286723 0.941568 0.194679
O O1 0.259711 0.364681 0.667662
O O2 0.279722 0.544469 0.798356
O O3 0.151331 0.364937 0.875906
O O4 0.074721 0.500471 0.715993
O O5 0.527395 0.883423 0.337150
O O6 0.734647 0.911845 0.358879
O O7 0.677015 0.842762 0.147050
O O8 0.611862 0.045162 0.224967
O O9 0.651960 0.004371 0.809417
O O10 0.621344 0.115014 0.011894
O O11 0.168116 0.889668 0.237560
O O12 0.946197 0.877981 0.175225
O O13 0.030355 0.743751 0.340100
O O14 0.708043 0.249241 0.203101
O O15 0.801177 0.064172 0.136884
O O16 0.003370 0.937569 0.729093
#
# Coordination Sequence:
#
# PCOD9541777 Si02
#       8
#     4   4   4   4   4   4   4   4
#     4  12  26  46  77 101 139 196 248 301 366 440
#     4  12  22  43  70 103 135 192 245 299 372 441
#     4  12  26  42  72 108 145 186 244 305 363 443
#     4  12  24  39  68  99 143 192 235 290 369 463
#     4  12  25  42  70 107 142 188 245 301 373 446
#     4  12  26  49  75 104 143 196 251 304 373 442
#     4  12  26  39  61 102 150 195 228 289 374 466
#     4  12  25  44  67 108 145 189 234 297 366 445
#
# _framework density 20.700915999999999
#
# number of rings (size 3 to 8) (size 9 to 14) (size 15 to 20)
#    0.000    0.000    8.750    0.750    1.750    1.000 
#    0.000    1.250    2.750    0.000    0.000    0.000 
#    0.000    0.000    0.000    0.000    0.000    0.000 
#
# Total GULP energy -178389.971803 kJ/mol
# GULP energy per Si atom -5574.686619 kJ/mol
# Density = 2.065380 g / cm^3
# Si number density = 20.700916 Si / 1000 Ang^3
#
#
#
# Elastic Constant Matrix: (Units=GPa)
#
#
# Indices 1 2 3 4 5 6 
#
# 1 98.3173 19.2485 33.7381 0.0000 0.0000 -11.2204
# 2 19.2485 98.3173 33.7381 0.0000 0.0000 11.2204
# 3 33.7381 33.7381 88.9413 0.0000 0.0000 0.0000
# 4 0.0000 0.0000 0.0000 41.8875 0.0000 0.0000
# 5 0.0000 0.0000 0.0000 0.0000 41.8875 0.0000
# 6 -11.2204 11.2204 0.0000 0.0000 0.0000 37.3886
#
#
#
# Elastic Compliance Matrix: (Units=1/GPa)
#
#
# Indices 1 2 3 4 5 6 
#
# 1 0.012349 -0.001476 -0.004124 0.000000 0.000000 0.004149
# 2 -0.001476 0.012349 -0.004124 0.000000 0.000000 -0.004149
# 3 -0.004124 -0.004124 0.014372 0.000000 0.000000 0.000000
# 4 0.000000 0.000000 0.000000 0.023873 0.000000 0.000000
# 5 0.000000 0.000000 0.000000 0.000000 0.023873 0.000000
# 6 0.004149 -0.004149 0.000000 0.000000 0.000000 0.029236
#
#
# Mechanical properties :
#
#
# Convention : Reuss Voigt Hill
#
# Bulk Modulus (GPa) = 50.96659 51.00280 50.98469
# Shear Modulus (GPa) = 35.20057 37.48948 36.34503
#
# Velocity S-wave (km/s) = 4.12811 4.26021 4.19468
# Velocity P-wave (km/s) = 6.88445 6.99218 6.93852
#
# Compressibility (1/GPa) = 0.01962070
#
# Stress axis : x y z
#
# Youngs Moduli (GPa) = 80.97892 80.97892 69.57757
#
# Poissons Ratio (x) = 0.11951 0.28697
# Poissons Ratio (y) = 0.11951 0.28697
# Poissons Ratio (z) = 0.33400 0.33400
#
# Static dielectric constant tensor:
#      x y z
#    x 1.807890 0.000000 0.000000 
#    y 0.000000 1.807890 0.000000 
#    z 0.000000 0.000000 1.801540 
# 
# From -- ./inp_files/939.got.cif
#   From: 2010.05.17/outbox.cif.g08.bks.cpg/sg78_cif.got.tgz:939.got - 2010.06.03 18:45:56.
