data_PCOD9541017
_publ_section_title
;
Structure prediction by ZEFSAII (Michael W. Deem and Ramdas Pophale) SiO2 
 PCOD9541017
Probable space group: P 4
;
_chemical_formula_sum "Si O2"
_cell_formula_units_Z 21
_cell_length_a 8.426445
_cell_length_b 8.426445
_cell_length_c 13.751935
_cell_angle_alpha 90.000000
_cell_angle_beta 90.000000
_cell_angle_gamma 90.000000
_cell_volume 976.455806
_symmetry_space_group_name_H-M "P 4"
_symmetry_group_IT_number 75
_symmetry_cell_setting 'tetragonal'
loop_
_space_group_symop_operation_xyz
x,y,z
-y,x,z
-x,-y,z
y,-x,z
loop_
_atom_site_type_symbol
_atom_site_label
_atom_site_fract_x
_atom_site_fract_y
_atom_site_fract_z
Si Si1 0.864009 0.765121 0.921420
Si Si2 0.393522 0.743506 0.323307
Si Si3 0.656708 0.103090 0.719649
Si Si4 0.124420 0.239943 0.514314
Si Si5 0.758479 0.117920 0.134771
Si Si6 0.000000 0.000000 0.718876
O O1 0.812220 0.671602 0.824977
O O2 0.055924 0.793749 0.918520
O O3 0.836938 0.692361 0.027870
O O4 0.298049 0.577963 0.325236
O O5 0.337695 0.837026 0.418352
O O6 0.348593 0.832422 0.224391
O O7 0.820590 0.669474 0.612372
O O8 0.500000 0.000000 0.722250
O O9 0.808347 0.985600 0.718540
O O10 0.934943 0.204158 0.514048
O O11 0.930521 0.203374 0.140715
#
# Coordination Sequence:
#
# PCOD9541017 Si02
#       6
#     4   4   4   4   4   1
#     4   9  15  35  63  92 133 165 204 271 323 384
#     4  11  26  43  58  84 129 175 217 277 340 397
#     4  12  22  36  69 101 132 181 221 261 361 408
#     4  11  22  40  66  94 125 165 217 275 327 393
#     4   9  19  37  65  94 120 160 215 268 324 395
#     4  12  20  48  60  92 150 176 220 304 308 402
#
# _framework density 21.506347999999999
#
# number of rings (size 3 to 8) (size 9 to 14) (size 15 to 20)
#    0.000    1.524    3.810    2.286    2.667    3.810 
#    6.857    0.000    0.000    0.571    0.000    0.000 
#    0.000    0.000    0.000    0.000    0.000    0.000 
#
# Total GULP energy -116960.093526 kJ/mol
# GULP energy per Si atom -5569.528263 kJ/mol
# Density = 2.145740 g / cm^3
# Si number density = 21.506348 Si / 1000 Ang^3
#
#
#
# Elastic Constant Matrix: (Units=GPa)
#
#
# Indices 1 2 3 4 5 6 
#
# 1 48.3988 20.9450 29.1888 0.0000 0.0000 6.5446
# 2 20.9450 48.3988 29.1888 0.0000 0.0000 -6.5446
# 3 29.1888 29.1888 223.0459 0.0000 0.0000 0.0000
# 4 0.0000 0.0000 0.0000 0.8189 0.0000 0.0000
# 5 0.0000 0.0000 0.0000 0.0000 0.8189 0.0000
# 6 6.5446 -6.5446 0.0000 0.0000 0.0000 20.5283
#
#
#
# Elastic Compliance Matrix: (Units=1/GPa)
#
#
# Indices 1 2 3 4 5 6 
#
# 1 0.029580 -0.013374 -0.002121 0.000000 0.000000 -0.013694
# 2 -0.013374 0.029580 -0.002121 0.000000 0.000000 0.013694
# 3 -0.002121 -0.002121 0.005038 0.000000 0.000000 0.000000
# 4 0.000000 0.000000 0.000000 1.221184 0.000000 0.000000
# 5 0.000000 0.000000 0.000000 0.000000 1.221184 0.000000
# 6 -0.013694 0.013694 0.000000 0.000000 0.000000 0.057445
#
#
# Mechanical properties :
#
#
# Convention : Reuss Voigt Hill
#
# Bulk Modulus (GPa) = 34.52105 53.16542 43.84324
# Shear Modulus (GPa) = 1.91652 20.46792 11.19222
#
# Velocity S-wave (km/s) = 0.94503 3.08834 2.28373
# Velocity P-wave (km/s) = 4.15658 6.12303 5.23301
#
# Compressibility (1/GPa) = 0.02896783
#
# Stress axis : x y z
#
# Youngs Moduli (GPa) = 33.80659 33.80659 198.47300
#
# Poissons Ratio (x) = 0.45212 0.42093
# Poissons Ratio (y) = 0.45212 0.42093
# Poissons Ratio (z) = 0.07170 0.07170
#
# Static dielectric constant tensor:
#      x y z
#    x 1.768980 0.000000 0.000000 
#    y 0.000000 1.768980 0.000000 
#    z 0.000000 0.000000 1.911570 
# 
# From -- ./inp_files/644.got.cif
#   From: 2010.05.17/outbox.cif.g08.bks.cpg/sg75_cif.got.tgz:644.got - 2010.06.03 18:42:43.
