data_PCOD9541388
_publ_section_title
;
Structure prediction by ZEFSAII (Michael W. Deem and Ramdas Pophale) SiO2 
 PCOD9541388
Probable space group: P 41
;
_chemical_formula_sum "Si O2"
_cell_formula_units_Z 20
_cell_length_a 11.236698
_cell_length_b 11.236698
_cell_length_c 6.555966
_cell_angle_alpha 90.000000
_cell_angle_beta 90.000000
_cell_angle_gamma 90.000000
_cell_volume 827.778439
_symmetry_space_group_name_H-M "P 41"
_symmetry_group_IT_number 76
_symmetry_cell_setting 'tetragonal'
loop_
_space_group_symop_operation_xyz
x,y,z
-y,x,1/4+z
-x,-y,1/2+z
y,-x,3/4+z
loop_
_atom_site_type_symbol
_atom_site_label
_atom_site_fract_x
_atom_site_fract_y
_atom_site_fract_z
Si Si1 0.057547 0.356967 0.484360
Si Si2 0.553056 0.666238 0.678411
Si Si3 0.089650 0.149803 0.810795
Si Si4 0.149703 0.559416 0.257226
Si Si5 0.145510 0.670146 0.679061
O O1 0.968490 0.442296 0.617012
O O2 0.975243 0.316239 0.299832
O O3 0.079201 0.247163 0.631795
O O4 0.160196 0.432714 0.372855
O O5 0.435876 0.611990 0.787226
O O6 0.602867 0.737883 0.876259
O O7 0.561786 0.776944 0.520826
O O8 0.198609 0.201398 0.947634
O O9 0.974638 0.123267 0.948686
O O10 0.130596 0.648459 0.441505
#
# Coordination Sequence:
#
# PCOD9541388 Si02
#       5
#     4   4   4   4   4
#     4  11  24  45  76 109 149 199 261 307 380 458
#     4  11  30  48  74 106 148 193 256 323 392 453
#     4  12  26  45  75 114 161 201 250 315 385 462
#     4  11  24  46  74 109 144 201 254 317 379 462
#     4  11  26  46  75 110 148 206 251 310 384 463
#
# _framework density 24.161055000000001
#
# number of rings (size 3 to 8) (size 9 to 14) (size 15 to 20)
#    0.000    0.800    4.000    1.200    8.400    1.600 
#    0.000    0.000    0.000    0.000    0.000    0.000 
#    0.000    0.000    0.000    0.000    0.000    0.000 
#
# Total GULP energy -111440.078231 kJ/mol
# GULP energy per Si atom -5572.003912 kJ/mol
# Density = 2.410606 g / cm^3
# Si number density = 24.161055 Si / 1000 Ang^3
#
#
#
# Elastic Constant Matrix: (Units=GPa)
#
#
# Indices 1 2 3 4 5 6 
#
# 1 70.9994 38.7753 37.5249 0.0000 0.0000 -4.8420
# 2 38.7753 70.9994 37.5249 0.0000 0.0000 4.8420
# 3 37.5249 37.5249 113.9371 0.0000 0.0000 0.0000
# 4 0.0000 0.0000 0.0000 41.3278 0.0000 0.0000
# 5 0.0000 0.0000 0.0000 0.0000 41.3278 0.0000
# 6 -4.8420 4.8420 0.0000 0.0000 0.0000 21.7646
#
#
#
# Elastic Compliance Matrix: (Units=1/GPa)
#
#
# Indices 1 2 3 4 5 6 
#
# 1 0.022506 -0.010750 -0.003872 0.000000 0.000000 0.007398
# 2 -0.010750 0.022506 -0.003872 0.000000 0.000000 -0.007398
# 3 -0.003872 -0.003872 0.011327 0.000000 0.000000 0.000000
# 4 0.000000 0.000000 0.000000 0.024197 0.000000 0.000000
# 5 0.000000 0.000000 0.000000 0.000000 0.024197 0.000000
# 6 0.007398 -0.007398 0.000000 0.000000 0.000000 0.049238
#
#
# Mechanical properties :
#
#
# Convention : Reuss Voigt Hill
#
# Bulk Modulus (GPa) = 51.67271 53.73182 52.70227
# Shear Modulus (GPa) = 25.32798 30.35810 27.84304
#
# Velocity S-wave (km/s) = 3.24126 3.54854 3.39837
# Velocity P-wave (km/s) = 5.95322 6.25115 6.10400
#
# Compressibility (1/GPa) = 0.01935257
#
# Stress axis : x y z
#
# Youngs Moduli (GPa) = 44.43179 44.43179 88.28235
#
# Poissons Ratio (x) = 0.47763 0.34184
# Poissons Ratio (y) = 0.47763 0.34184
# Poissons Ratio (z) = 0.17204 0.17204
#
# Static dielectric constant tensor:
#      x y z
#    x 1.997570 0.000000 0.000000 
#    y 0.000000 1.997570 0.000000 
#    z 0.000000 0.000000 1.896680 
# 
# From -- ./inp_files/138.got.cif
#   From: 2010.05.17/outbox.cif.g08.bks.cpg/sg76_cif.got.tgz:138.got - 2010.06.03 18:43:17.
