data_PCOD9541248
_publ_section_title
;
Structure prediction by ZEFSAII (Michael W. Deem and Ramdas Pophale) SiO2 
 PCOD9541248
Probable space group: P 41
;
_chemical_formula_sum "Si O2"
_cell_formula_units_Z 32
_cell_length_a 7.664671
_cell_length_b 7.664671
_cell_length_c 21.113939
_cell_angle_alpha 90.000000
_cell_angle_beta 90.000000
_cell_angle_gamma 90.000000
_cell_volume 1240.384407
_symmetry_space_group_name_H-M "P 41"
_symmetry_group_IT_number 76
_symmetry_cell_setting 'tetragonal'
loop_
_space_group_symop_operation_xyz
x,y,z
-y,x,1/4+z
-x,-y,1/2+z
y,-x,3/4+z
loop_
_atom_site_type_symbol
_atom_site_label
_atom_site_fract_x
_atom_site_fract_y
_atom_site_fract_z
Si Si1 0.902374 0.140691 0.989600
Si Si2 0.334282 0.150289 0.333284
Si Si3 0.829051 0.604609 0.143014
Si Si4 0.582292 0.897815 0.581243
Si Si5 0.727671 0.470868 0.803573
Si Si6 0.598753 0.447990 0.240065
Si Si7 0.056090 0.493128 0.973311
Si Si8 0.037750 0.045282 0.121384
O O1 0.725912 0.114869 0.951467
O O2 0.917554 0.350322 0.992573
O O3 0.048294 0.058170 0.940144
O O4 0.912175 0.073657 0.061011
O O5 0.355348 0.357161 0.338468
O O6 0.325941 0.069046 0.261526
O O7 0.151013 0.110501 0.365253
O O8 0.465226 0.010259 0.364696
O O9 0.708178 0.711463 0.092859
O O10 0.695008 0.472552 0.173738
O O11 0.502992 0.731372 0.546307
O O12 0.504677 0.946314 0.648896
O O13 0.540822 0.075802 0.541438
O O14 0.784018 0.855568 0.600836
O O15 0.589762 0.459887 0.745668
O O16 0.577689 0.241924 0.245415
#
# Coordination Sequence:
#
# PCOD9541248 Si02
#       8
#     4   4   4   4   4   4   4   4
#     4  11  23  39  66  98 131 170 229 280 343 405
#     4   9  23  42  65  93 131 176 224 270 347 406
#     4  11  24  41  65  98 129 177 220 281 344 406
#     4  11  22  43  67  89 134 181 216 277 349 399
#     4  10  23  43  63  91 132 172 219 274 337 408
#     4  11  25  41  63 100 129 171 229 277 339 413
#     4  11  22  42  62  95 129 170 225 279 333 413
#     4  10  22  43  65  98 131 179 226 282 340 420
#
# _framework density 25.798451
#
# number of rings (size 3 to 8) (size 9 to 14) (size 15 to 20)
#    0.000    1.500    2.500    1.500    3.500    2.000 
#    0.000    0.000    0.000    0.000    0.000    0.000 
#    0.000    0.000    0.000    0.000    0.000    0.000 
#
# Total GULP energy -178420.543377 kJ/mol
# GULP energy per Si atom -5575.641981 kJ/mol
# Density = 2.573973 g / cm^3
# Si number density = 25.798451 Si / 1000 Ang^3
#
#
#
# Elastic Constant Matrix: (Units=GPa)
#
#
# Indices 1 2 3 4 5 6 
#
# 1 44.0679 35.6091 13.4456 0.0000 0.0000 2.6087
# 2 35.6091 44.0679 13.4456 0.0000 0.0000 -2.6087
# 3 13.4456 13.4456 50.0744 0.0000 0.0000 0.0000
# 4 0.0000 0.0000 0.0000 32.9654 0.0000 0.0000
# 5 0.0000 0.0000 0.0000 0.0000 32.9654 0.0000
# 6 2.6087 -2.6087 0.0000 0.0000 0.0000 26.2956
#
#
#
# Elastic Compliance Matrix: (Units=1/GPa)
#
#
# Indices 1 2 3 4 5 6 
#
# 1 0.069863 -0.056062 -0.003706 0.000000 0.000000 -0.012492
# 2 -0.056062 0.069863 -0.003706 0.000000 0.000000 0.012492
# 3 -0.003706 -0.003706 0.021960 0.000000 0.000000 0.000000
# 4 0.000000 0.000000 0.000000 0.030335 0.000000 0.000000
# 5 0.000000 0.000000 0.000000 0.000000 0.030335 0.000000
# 6 -0.012492 0.012492 0.000000 0.000000 0.000000 0.040508
#
#
# Mechanical properties :
#
#
# Convention : Reuss Voigt Hill
#
# Bulk Modulus (GPa) = 28.78542 29.24566 29.01554
# Shear Modulus (GPa) = 12.45670 23.49260 17.97465
#
# Velocity S-wave (km/s) = 2.19976 3.02092 2.64243
# Velocity P-wave (km/s) = 4.19928 4.85065 4.53667
#
# Compressibility (1/GPa) = 0.03473981
#
# Stress axis : x y z
#
# Youngs Moduli (GPa) = 14.31373 14.31373 45.53642
#
# Poissons Ratio (x) = 0.80245 0.16875
# Poissons Ratio (y) = 0.80245 0.16875
# Poissons Ratio (z) = 0.05304 0.05304
#
# Static dielectric constant tensor:
#      x y z
#    x 2.140110 0.000000 0.000000 
#    y 0.000000 2.140110 0.000000 
#    z 0.000000 0.000000 2.192470 
# 
# From -- ./inp_files/1431.got.cif
#   From: 2010.05.17/outbox.cif.g08.bks.cpg/sg76_cif.got.tgz:1431.got - 2010.06.03 18:43:17.
