data_PCOD9541775
_publ_section_title
;
Structure prediction by ZEFSAII (Michael W. Deem and Ramdas Pophale) SiO2 
 PCOD9541775
Probable space group: P 43
;
_chemical_formula_sum "Si O2"
_cell_formula_units_Z 24
_cell_length_a 9.806957
_cell_length_b 9.806957
_cell_length_c 9.140431
_cell_angle_alpha 90.000000
_cell_angle_beta 90.000000
_cell_angle_gamma 90.000000
_cell_volume 879.093799
_symmetry_space_group_name_H-M "P 43"
_symmetry_group_IT_number 78
_symmetry_cell_setting 'tetragonal'
loop_
_space_group_symop_operation_xyz
x,y,z
-y,x,3/4+z
-x,-y,1/2+z
y,-x,1/4+z
loop_
_atom_site_type_symbol
_atom_site_label
_atom_site_fract_x
_atom_site_fract_y
_atom_site_fract_z
Si Si1 0.846008 0.780824 0.975660
Si Si2 0.944824 0.544932 0.819368
Si Si3 0.262132 0.351752 0.092149
Si Si4 0.925226 0.898880 0.590877
Si Si5 0.310767 0.469193 0.480639
Si Si6 0.628132 0.211600 0.507248
O O1 0.965720 0.692203 0.897331
O O2 0.851016 0.931808 0.914966
O O3 0.442376 0.675099 0.902677
O O4 0.840758 0.749158 0.148944
O O5 0.852773 0.555048 0.672081
O O6 0.845640 0.479438 0.941991
O O7 0.081610 0.467947 0.785093
O O8 0.409210 0.390462 0.156443
O O9 0.196212 0.203089 0.122847
O O10 0.268504 0.350597 0.917383
O O11 0.900650 0.042262 0.669616
O O12 0.283357 0.313143 0.422400
#
# Coordination Sequence:
#
# PCOD9541775 Si02
#       6
#     4   4   4   4   4   4
#     4   8  21  44  55  90 155 200 229 314 390 460
#     4   9  19  38  66  95 140 195 243 298 383 463
#     4  12  22  41  76 107 135 205 266 320 382 468
#     4  12  27  39  62 108 158 193 246 330 402 450
#     4   8  22  41  63  96 145 193 253 309 373 470
#     4   9  21  39  68  98 139 200 255 297 388 479
#
# _framework density 27.300840999999998
#
# number of rings (size 3 to 8) (size 9 to 14) (size 15 to 20)
#    2.000    0.000    1.667    2.000    7.000    0.000 
#    0.000    3.333    0.000    2.000    0.000    0.000 
#    0.000    0.000    0.000    0.000    0.000    0.000 
#
# Total GULP energy -133854.479951 kJ/mol
# GULP energy per Si atom -5577.269998 kJ/mol
# Density = 2.723870 g / cm^3
# Si number density = 27.300841 Si / 1000 Ang^3
#
#
#
# Elastic Constant Matrix: (Units=GPa)
#
#
# Indices 1 2 3 4 5 6 
#
# 1 95.6051 30.1645 25.8024 0.0000 0.0000 -4.1057
# 2 30.1645 95.6051 25.8024 0.0000 0.0000 4.1057
# 3 25.8024 25.8024 205.3889 0.0000 0.0000 0.0000
# 4 0.0000 0.0000 0.0000 34.0876 0.0000 0.0000
# 5 0.0000 0.0000 0.0000 0.0000 34.0876 0.0000
# 6 -4.1057 4.1057 0.0000 0.0000 0.0000 29.6981
#
#
#
# Elastic Compliance Matrix: (Units=1/GPa)
#
#
# Indices 1 2 3 4 5 6 
#
# 1 0.011967 -0.003584 -0.001053 0.000000 0.000000 0.002150
# 2 -0.003584 0.011967 -0.001053 0.000000 0.000000 -0.002150
# 3 -0.001053 -0.001053 0.005133 0.000000 0.000000 0.000000
# 4 0.000000 0.000000 0.000000 0.029336 0.000000 0.000000
# 5 0.000000 0.000000 0.000000 0.000000 0.029336 0.000000
# 6 0.002150 -0.002150 0.000000 0.000000 0.000000 0.034267
#
#
# Mechanical properties :
#
#
# Convention : Reuss Voigt Hill
#
# Bulk Modulus (GPa) = 56.53826 62.23754 59.38790
# Shear Modulus (GPa) = 35.89831 40.56331 38.23081
#
# Velocity S-wave (km/s) = 3.63011 3.85878 3.74619
# Velocity P-wave (km/s) = 6.19068 6.53452 6.36492
#
# Compressibility (1/GPa) = 0.01768714
#
# Stress axis : x y z
#
# Youngs Moduli (GPa) = 83.56328 83.56328 194.80189
#
# Poissons Ratio (x) = 0.29948 0.20516
# Poissons Ratio (y) = 0.29948 0.20516
# Poissons Ratio (z) = 0.08800 0.08800
#
# Static dielectric constant tensor:
#      x y z
#    x 2.285970 0.000000 0.000000 
#    y 0.000000 2.285970 0.000000 
#    z 0.000000 0.000000 2.252810 
# 
# From -- ./inp_files/591.got.cif
#   From: 2010.05.17/outbox.cif.g08.bks.cpg/sg78_cif.got.tgz:591.got - 2010.06.03 18:45:56.
