data_PCOD9541357
_publ_section_title
;
Structure prediction by ZEFSAII (Michael W. Deem and Ramdas Pophale) SiO2 
 PCOD9541357
Probable space group: P 41
;
_chemical_formula_sum "Si O2"
_cell_formula_units_Z 24
_cell_length_a 12.206848
_cell_length_b 12.206848
_cell_length_c 7.209667
_cell_angle_alpha 90.000000
_cell_angle_beta 90.000000
_cell_angle_gamma 90.000000
_cell_volume 1074.291846
_symmetry_space_group_name_H-M "P 41"
_symmetry_group_IT_number 76
_symmetry_cell_setting 'tetragonal'
loop_
_space_group_symop_operation_xyz
x,y,z
-y,x,1/4+z
-x,-y,1/2+z
y,-x,3/4+z
loop_
_atom_site_type_symbol
_atom_site_label
_atom_site_fract_x
_atom_site_fract_y
_atom_site_fract_z
Si Si1 0.433617 0.946403 0.337990
Si Si2 0.221991 0.785369 0.852658
Si Si3 0.432370 0.748106 0.619185
Si Si4 0.003474 0.673932 0.700381
Si Si5 0.614601 0.434522 0.849050
Si Si6 0.815698 0.375884 0.655035
O O1 0.412754 0.840628 0.462910
O O2 0.379072 0.947131 0.135218
O O3 0.564788 0.965291 0.336779
O O4 0.382793 0.055247 0.431097
O O5 0.326396 0.735540 0.747581
O O6 0.111098 0.741965 0.757199
O O7 0.247891 0.914214 0.856099
O O8 0.215480 0.738715 0.061431
O O9 0.445972 0.637075 0.504645
O O10 0.532065 0.786861 0.748384
O O11 0.559013 0.403178 0.655336
O O12 0.741269 0.403664 0.830823
#
# Coordination Sequence:
#
# PCOD9541357 Si02
#       6
#     4   4   4   4   4   4
#     4  11  22  41  70  95 125 172 229 265 322 388
#     4  11  23  44  64 100 133 169 224 274 333 386
#     4  12  23  40  66  95 128 169 221 276 324 392
#     4  11  23  43  71  98 135 178 220 282 331 395
#     4  12  26  39  58  91 136 173 206 261 346 414
#     4  11  23  41  67  91 129 169 218 278 324 391
#
# _framework density 22.340295999999999
#
# number of rings (size 3 to 8) (size 9 to 14) (size 15 to 20)
#    0.000    0.667    5.000    4.000    2.333    1.333 
#    0.000    3.333    0.000    0.000    0.000    0.000 
#    0.000    0.000    0.000    0.000    0.000    0.000 
#
# Total GULP energy -134351.074828 kJ/mol
# GULP energy per Si atom -5597.961451 kJ/mol
# Density = 2.228945 g / cm^3
# Si number density = 22.340296 Si / 1000 Ang^3
#
#
#
# Elastic Constant Matrix: (Units=GPa)
#
#
# Indices 1 2 3 4 5 6 
#
# 1 92.9056 25.9185 2.8130 0.0000 0.0000 -3.2710
# 2 25.9185 92.9056 2.8130 0.0000 0.0000 3.2710
# 3 2.8130 2.8130 47.4234 0.0000 0.0000 0.0000
# 4 0.0000 0.0000 0.0000 41.4596 0.0000 0.0000
# 5 0.0000 0.0000 0.0000 0.0000 41.4596 0.0000
# 6 -3.2710 3.2710 0.0000 0.0000 0.0000 30.5976
#
#
#
# Elastic Compliance Matrix: (Units=1/GPa)
#
#
# Indices 1 2 3 4 5 6 
#
# 1 0.011763 -0.003323 -0.000501 0.000000 0.000000 0.001613
# 2 -0.003323 0.011763 -0.000501 0.000000 0.000000 -0.001613
# 3 -0.000501 -0.000501 0.021146 0.000000 0.000000 0.000000
# 4 0.000000 0.000000 0.000000 0.024120 0.000000 0.000000
# 5 0.000000 0.000000 0.000000 0.000000 0.024120 0.000000
# 6 0.001613 -0.001613 0.000000 0.000000 0.000000 0.033027
#
#
# Mechanical properties :
#
#
# Convention : Reuss Voigt Hill
#
# Bulk Modulus (GPa) = 27.76033 32.92483 30.34258
# Shear Modulus (GPa) = 34.10775 36.14938 35.12857
#
# Velocity S-wave (km/s) = 3.91159 4.02696 3.96969
# Velocity P-wave (km/s) = 5.73182 6.03255 5.88411
#
# Compressibility (1/GPa) = 0.03602263
#
# Stress axis : x y z
#
# Youngs Moduli (GPa) = 85.01508 85.01508 47.29026
#
# Poissons Ratio (x) = 0.28251 0.02367
# Poissons Ratio (y) = 0.28251 0.02367
# Poissons Ratio (z) = 0.04256 0.04256
#
# Static dielectric constant tensor:
#      x y z
#    x 1.790570 0.000000 0.000000 
#    y 0.000000 1.790570 0.000000 
#    z 0.000000 0.000000 1.879820 
# 
# From -- ./inp_files/557.got.cif
#   From: 2010.05.17/outbox.cif.g08.bks.cpg/sg76_cif.got.tgz:557.got - 2010.06.03 18:43:17.
