data_PCOD9541474
_publ_section_title
;
Structure prediction by ZEFSAII (Michael W. Deem and Ramdas Pophale) SiO2 
 PCOD9541474
Probable space group: P 42
;
_chemical_formula_sum "Si O2"
_cell_formula_units_Z 26
_cell_length_a 7.951698
_cell_length_b 7.951698
_cell_length_c 17.234117
_cell_angle_alpha 90.000000
_cell_angle_beta 90.000000
_cell_angle_gamma 90.000000
_cell_volume 1089.704620
_symmetry_space_group_name_H-M "P 42"
_symmetry_group_IT_number 77
_symmetry_cell_setting 'tetragonal'
loop_
_space_group_symop_operation_xyz
x,y,z
-y,x,1/2+z
-x,-y,z
y,-x,1/2+z
loop_
_atom_site_type_symbol
_atom_site_label
_atom_site_fract_x
_atom_site_fract_y
_atom_site_fract_z
Si Si1 0.180186 0.039453 0.955610
Si Si2 0.650965 0.190848 0.185228
Si Si3 0.665250 0.826611 0.102147
Si Si4 0.799313 0.021407 0.680402
Si Si5 0.500000 0.500000 0.869992
Si Si6 0.618406 0.157261 0.370054
Si Si7 0.147253 0.362215 0.333829
O O1 0.140600 0.187636 0.894261
O O2 0.254177 0.878331 0.911682
O O3 0.318967 0.108210 0.014943
O O4 0.000000 0.000000 0.994501
O O5 0.500528 0.264645 0.132958
O O6 0.610117 0.186183 0.276754
O O7 0.833835 0.273109 0.174493
O O8 0.667216 0.998243 0.154127
O O9 0.842059 0.737005 0.118715
O O10 0.755806 0.105462 0.762126
O O11 0.000000 0.000000 0.675996
O O12 0.673026 0.551376 0.911069
O O13 0.553721 0.328853 0.826221
O O14 0.500000 0.000000 0.388360
O O15 0.000000 0.500000 0.336438
#
# Coordination Sequence:
#
# PCOD9541474 Si02
#       7
#     4   4   4   4   2   4   4
#     4  12  25  43  69 109 147 196 251 323 382 458
#     4  10  19  37  67  97 132 192 245 291 360 452
#     4  10  22  37  65 103 142 181 246 303 376 445
#     4  10  20  38  66  99 130 185 247 299 357 449
#     4  12  26  40  66 108 150 188 244 324 368 440
#     4  12  24  45  71 105 143 198 257 306 377 450
#     4  12  24  41  66 103 147 189 253 309 373 452
#
# _framework density 23.859677000000001
#
# number of rings (size 3 to 8) (size 9 to 14) (size 15 to 20)
#    0.000    0.923    4.615    3.692    6.462    0.000 
#    0.000    0.769    0.000   10.154    0.000    0.000 
#    0.000    0.000    0.000    0.000    0.000    0.000 
#
# Total GULP energy -145241.145538 kJ/mol
# GULP energy per Si atom -5586.197905 kJ/mol
# Density = 2.380537 g / cm^3
# Si number density = 23.859677 Si / 1000 Ang^3
#
#
#
# Elastic Constant Matrix: (Units=GPa)
#
#
# Indices 1 2 3 4 5 6 
#
# 1 144.5075 29.8701 22.7240 0.0000 0.0000 17.3637
# 2 29.8701 144.5075 22.7240 0.0000 0.0000 -17.3637
# 3 22.7240 22.7240 88.0603 0.0000 0.0000 0.0000
# 4 0.0000 0.0000 0.0000 -112.3352 0.0000 0.0000
# 5 0.0000 0.0000 0.0000 0.0000 -112.3352 0.0000
# 6 17.3637 -17.3637 0.0000 0.0000 0.0000 26.4411
#
#
#
# Elastic Compliance Matrix: (Units=1/GPa)
#
#
# Indices 1 2 3 4 5 6 
#
# 1 0.008519 -0.002371 -0.001587 0.000000 0.000000 -0.007151
# 2 -0.002371 0.008519 -0.001587 0.000000 0.000000 0.007151
# 3 -0.001587 -0.001587 0.012175 0.000000 0.000000 0.000000
# 4 0.000000 0.000000 0.000000 -0.008902 0.000000 0.000000
# 5 0.000000 0.000000 0.000000 0.000000 -0.008902 0.000000
# 6 -0.007151 0.007151 0.000000 0.000000 0.000000 0.047212
#
#
# Mechanical properties :
#
#
# Convention : Reuss Voigt Hill
#
# Bulk Modulus (GPa) = 55.17280 58.63460 56.90370
# Shear Modulus (GPa) = 66.00716 -19.52870 23.23923
#
# Velocity S-wave (km/s) = 5.26543 -2.86401 3.12428
# Velocity P-wave (km/s) = 7.75503 3.70018 6.07585
#
# Compressibility (1/GPa) = 0.01812487
#
# Stress axis : x y z
#
# Youngs Moduli (GPa) = 117.38740 117.38740 82.13770
#
# Poissons Ratio (x) = 0.27828 0.13031
# Poissons Ratio (y) = 0.27828 0.13031
# Poissons Ratio (z) = 0.18624 0.18624
#
# Static dielectric constant tensor:
#      x y z
#    x 2.138380 0.000000 0.000000 
#    y 0.000000 2.138380 0.000000 
#    z 0.000000 0.000000 1.915940 
# 
# From -- ./inp_files/1337.got.cif
#   From: 2010.05.17/outbox.cif.g08.bks.cpg/sg77_cif.got.tgz:1337.got - 2010.06.03 18:44:51.
