data_PCOD9541497
_publ_section_title
;
Structure prediction by ZEFSAII (Michael W. Deem and Ramdas Pophale) SiO2 
 PCOD9541497
Probable space group: P 42
;
_chemical_formula_sum "Si O2"
_cell_formula_units_Z 20
_cell_length_a 8.426462
_cell_length_b 8.426462
_cell_length_c 11.067784
_cell_angle_alpha 90.000000
_cell_angle_beta 90.000000
_cell_angle_gamma 90.000000
_cell_volume 785.870901
_symmetry_space_group_name_H-M "P 42"
_symmetry_group_IT_number 77
_symmetry_cell_setting 'tetragonal'
loop_
_space_group_symop_operation_xyz
x,y,z
-y,x,1/2+z
-x,-y,z
y,-x,1/2+z
loop_
_atom_site_type_symbol
_atom_site_label
_atom_site_fract_x
_atom_site_fract_y
_atom_site_fract_z
Si Si1 0.416045 0.739675 0.023500
Si Si2 0.336254 0.926638 0.259608
Si Si3 0.566210 0.265292 0.570675
Si Si4 0.918766 0.841575 0.173517
Si Si5 0.370769 0.172763 0.807986
O O1 0.343909 0.860288 0.120754
O O2 0.567665 0.656044 0.085823
O O3 0.302026 0.591302 0.988338
O O4 0.501848 0.828764 0.913964
O O5 0.301304 0.766828 0.334584
O O6 0.500000 0.000000 0.297925
O O7 0.214093 0.071740 0.254418
O O8 0.712549 0.139883 0.576224
O O9 0.472064 0.221925 0.692734
O O10 0.029411 0.741081 0.264217
O O11 0.000000 0.000000 0.617353
#
# Coordination Sequence:
#
# PCOD9541497 Si02
#       5
#     4   4   4   4   4
#     4  10  22  40  70 106 136 186 249 296 361 444
#     4  10  20  41  69  98 147 186 228 306 370 433
#     4  10  21  41  68 102 139 182 239 310 353 427
#     4  10  21  42  69  98 142 185 230 292 379 432
#     4  10  23  42  71 101 139 194 242 296 378 442
#
# _framework density 25.449470999999999
#
# number of rings (size 3 to 8) (size 9 to 14) (size 15 to 20)
#    0.000    2.000    2.000    0.600    0.000    8.000 
#    0.000    5.000   17.600    0.000    0.000    0.000 
#    0.000    0.000    0.000    0.000    0.000    0.000 
#
# Total GULP energy -111572.109445 kJ/mol
# GULP energy per Si atom -5578.605472 kJ/mol
# Density = 2.539155 g / cm^3
# Si number density = 25.449471 Si / 1000 Ang^3
#
#
#
# Elastic Constant Matrix: (Units=GPa)
#
#
# Indices 1 2 3 4 5 6 
#
# 1 123.5483 64.0933 33.9564 0.0000 0.0000 -11.4468
# 2 64.0933 123.5483 33.9564 0.0000 0.0000 11.4468
# 3 33.9564 33.9564 61.3085 0.0000 0.0000 0.0000
# 4 0.0000 0.0000 0.0000 17.6885 0.0000 0.0000
# 5 0.0000 0.0000 0.0000 0.0000 17.6885 0.0000
# 6 -11.4468 11.4468 0.0000 0.0000 0.0000 81.2803
#
#
#
# Elastic Compliance Matrix: (Units=1/GPa)
#
#
# Indices 1 2 3 4 5 6 
#
# 1 0.012225 -0.005559 -0.003692 0.000000 0.000000 0.002505
# 2 -0.005559 0.012225 -0.003692 0.000000 0.000000 -0.002505
# 3 -0.003692 -0.003692 0.020400 0.000000 0.000000 0.000000
# 4 0.000000 0.000000 0.000000 0.056534 0.000000 0.000000
# 5 0.000000 0.000000 0.000000 0.000000 0.056534 0.000000
# 6 0.002505 -0.002505 0.000000 0.000000 0.000000 0.013009
#
#
# Mechanical properties :
#
#
# Convention : Reuss Voigt Hill
#
# Bulk Modulus (GPa) = 52.73055 63.60191 58.16623
# Shear Modulus (GPa) = 24.61447 35.09140 29.85293
#
# Velocity S-wave (km/s) = 3.11334 3.71734 3.42866
# Velocity P-wave (km/s) = 5.80418 6.59322 6.21124
#
# Compressibility (1/GPa) = 0.01896434
#
# Stress axis : x y z
#
# Youngs Moduli (GPa) = 81.80194 81.80194 49.01873
#
# Poissons Ratio (x) = 0.45475 0.18096
# Poissons Ratio (y) = 0.45475 0.18096
# Poissons Ratio (z) = 0.30199 0.30199
#
# Static dielectric constant tensor:
#      x y z
#    x 2.087570 0.000000 0.000000 
#    y 0.000000 2.087570 0.000000 
#    z 0.000000 0.000000 2.012260 
# 
# From -- ./inp_files/793.got.cif
#   From: 2010.05.17/outbox.cif.g08.bks.cpg/sg77_cif.got.tgz:793.got - 2010.06.03 18:44:51.
