data_PCOD9541865
_publ_section_title
;
Structure prediction by ZEFSAII (Michael W. Deem and Ramdas Pophale) SiO2 
 PCOD9541865
Probable space group: I 4
;
_chemical_formula_sum "Si O2"
_cell_formula_units_Z 60
_cell_length_a 12.281069
_cell_length_b 12.281069
_cell_length_c 18.989831
_cell_angle_alpha 90.000000
_cell_angle_beta 90.000000
_cell_angle_gamma 90.000000
_cell_volume 2864.134724
_symmetry_space_group_name_H-M "I 4"
_symmetry_group_IT_number 79
_symmetry_cell_setting 'tetragonal'
loop_
_space_group_symop_operation_xyz
x,y,z
-y,x,z
-x,-y,z
y,-x,z
1/2+x,1/2+y,1/2+z
1/2-y,1/2+x,1/2+z
1/2-x,1/2-y,1/2+z
1/2+y,1/2-x,1/2+z
loop_
_atom_site_type_symbol
_atom_site_label
_atom_site_fract_x
_atom_site_fract_y
_atom_site_fract_z
Si Si1 0.500000 0.000000 0.806500
Si Si2 0.386305 0.362014 0.857693
Si Si3 0.350074 0.407377 0.651253
Si Si4 0.918707 0.158330 0.981900
Si Si5 0.364534 0.813011 0.362768
Si Si6 0.382556 0.365343 0.026698
Si Si7 0.996511 0.278769 0.737454
Si Si8 0.787793 0.206768 0.664266
O O1 0.436289 0.088085 0.854808
O O2 0.400794 0.962301 0.756486
O O3 0.514911 0.352300 0.839390
O O4 0.318430 0.257888 0.833088
O O5 0.374418 0.352846 0.942868
O O6 0.466690 0.355760 0.671569
O O7 0.336389 0.410750 0.566419
O O8 0.260678 0.327374 0.680739
O O9 0.872402 0.260079 0.939103
O O10 0.046076 0.142659 0.963196
O O11 0.443413 0.743476 0.311840
O O12 0.509981 0.351876 0.042967
O O13 0.314975 0.293402 0.080553
O O14 0.891498 0.278554 0.686524
O O15 0.091677 0.207815 0.704652
#
# Coordination Sequence:
#
# PCOD9541865 Si02
#       8
#     4   8   8   8   8   8   8   8
#     4   8  24  44  50  82 126 154 200 260 298 340
#     4   9  19  35  60  88 117 154 196 247 306 368
#     4   9  21  39  63  91 120 160 209 259 307 367
#     4   9  19  37  61  91 120 153 208 259 302 368
#     4  10  21  38  59  81 120 163 196 255 304 353
#     4   9  17  33  56  89 124 149 190 250 305 366
#     4  10  26  38  60  88 123 167 207 252 301 364
#     4  12  21  39  64  87 123 170 203 251 312 370
#
# _framework density 20.948734000000002
#
# number of rings (size 3 to 8) (size 9 to 14) (size 15 to 20)
#    0.800    1.600    1.333    2.400    3.733    2.400 
#    0.000    1.333    0.000    1.600    0.000    0.000 
#    0.000    0.000    0.000    0.000    0.000    0.000 
#
# Total GULP energy -167137.782505 kJ/mol
# GULP energy per Si atom -5571.259417 kJ/mol
# Density = 2.090105 g / cm^3
# Si number density = 20.948734 Si / 1000 Ang^3
#
#
#
# Elastic Constant Matrix: (Units=GPa)
#
#
# Indices 1 2 3 4 5 6 
#
# 1 65.1219 33.5234 23.3073 0.0000 0.0000 -1.7256
# 2 33.5234 65.1219 23.3073 0.0000 0.0000 1.7256
# 3 23.3073 23.3073 80.0724 0.0000 0.0000 0.0000
# 4 0.0000 0.0000 0.0000 20.2947 0.0000 0.0000
# 5 0.0000 0.0000 0.0000 0.0000 20.2947 0.0000
# 6 -1.7256 1.7256 0.0000 0.0000 0.0000 18.8109
#
#
#
# Elastic Compliance Matrix: (Units=1/GPa)
#
#
# Indices 1 2 3 4 5 6 
#
# 1 0.021861 -0.010107 -0.003421 0.000000 0.000000 0.002932
# 2 -0.010107 0.021861 -0.003421 0.000000 0.000000 -0.002932
# 3 -0.003421 -0.003421 0.014480 0.000000 0.000000 0.000000
# 4 0.000000 0.000000 0.000000 0.049274 0.000000 0.000000
# 5 0.000000 0.000000 0.000000 0.000000 0.049274 0.000000
# 6 0.002932 -0.002932 0.000000 0.000000 0.000000 0.053699
#
#
# Mechanical properties :
#
#
# Convention : Reuss Voigt Hill
#
# Bulk Modulus (GPa) = 41.14684 41.17692 41.16188
# Shear Modulus (GPa) = 19.80606 20.55863 20.18235
#
# Velocity S-wave (km/s) = 3.07816 3.13609 3.10726
# Velocity P-wave (km/s) = 5.68487 5.72819 5.70657
#
# Compressibility (1/GPa) = 0.02430321
#
# Stress axis : x y z
#
# Youngs Moduli (GPa) = 45.74421 45.74421 69.05860
#
# Poissons Ratio (x) = 0.46232 0.23627
# Poissons Ratio (y) = 0.46232 0.23627
# Poissons Ratio (z) = 0.15651 0.15651
#
# Static dielectric constant tensor:
#      x y z
#    x 1.733230 0.000000 0.000000 
#    y 0.000000 1.733230 0.000000 
#    z 0.000000 0.000000 1.782280 
# 
# From -- ./inp_files/1884.got.cif
#   From: 2010.05.17/outbox.cif.g08.bks.cpg/sg79_cif.got.tgz:1884.got - 2010.06.03 18:47:27.
