data_PCOD9541883
_publ_section_title
;
Structure prediction by ZEFSAII (Michael W. Deem and Ramdas Pophale) SiO2 
 PCOD9541883
Probable space group: I 4
;
_chemical_formula_sum "Si O2"
_cell_formula_units_Z 32
_cell_length_a 12.750498
_cell_length_b 12.750498
_cell_length_c 8.609033
_cell_angle_alpha 90.000000
_cell_angle_beta 90.000000
_cell_angle_gamma 90.000000
_cell_volume 1399.615255
_symmetry_space_group_name_H-M "I 4"
_symmetry_group_IT_number 79
_symmetry_cell_setting 'tetragonal'
loop_
_space_group_symop_operation_xyz
x,y,z
-y,x,z
-x,-y,z
y,-x,z
1/2+x,1/2+y,1/2+z
1/2-y,1/2+x,1/2+z
1/2-x,1/2-y,1/2+z
1/2+y,1/2-x,1/2+z
loop_
_atom_site_type_symbol
_atom_site_label
_atom_site_fract_x
_atom_site_fract_y
_atom_site_fract_z
Si Si1 0.487825 0.795428 0.075400
Si Si2 0.849248 0.602773 0.760304
Si Si3 0.833739 0.161118 0.730072
Si Si4 0.657069 0.557972 0.549669
O O1 0.536480 0.884439 0.185384
O O2 0.374494 0.758613 0.132048
O O3 0.566839 0.696599 0.110183
O O4 0.477296 0.831450 0.898963
O O5 0.824576 0.722512 0.815507
O O6 0.768219 0.584982 0.620460
O O7 0.922213 0.152168 0.863963
O O8 0.559656 0.629360 0.601326
#
# Coordination Sequence:
#
# PCOD9541883 Si02
#       4
#     8   8   8   8
#     4  10  23  42  73 114 147 206 252 332 393 477
#     4  10  24  41  72 110 154 196 261 328 400 467
#     4  10  21  41  73 101 149 192 264 311 396 455
#     4  11  22  39  65 104 144 200 259 325 386 462
#
# _framework density 22.863427000000001
#
# number of rings (size 3 to 8) (size 9 to 14) (size 15 to 20)
#    1.500    0.250    2.500    1.500    3.500    0.500 
#    0.000    0.000    0.000   34.500    0.000    0.000 
#    0.000    0.000    0.000    0.000    0.000    0.000 
#
# Total GULP energy -89115.779764 kJ/mol
# GULP energy per Si atom -5569.736235 kJ/mol
# Density = 2.281139 g / cm^3
# Si number density = 22.863427 Si / 1000 Ang^3
#
#
#
# Elastic Constant Matrix: (Units=GPa)
#
#
# Indices 1 2 3 4 5 6 
#
# 1 41.4395 49.9054 46.5525 0.0000 0.0000 21.5945
# 2 49.9054 41.4395 46.5525 0.0000 0.0000 -21.5945
# 3 46.5525 46.5525 126.2646 0.0000 0.0000 0.0000
# 4 0.0000 0.0000 0.0000 37.0345 0.0000 0.0000
# 5 0.0000 0.0000 0.0000 0.0000 37.0345 0.0000
# 6 21.5945 -21.5945 0.0000 0.0000 0.0000 16.0485
#
#
#
# Elastic Compliance Matrix: (Units=1/GPa)
#
#
# Indices 1 2 3 4 5 6 
#
# 1 0.001259 0.016279 -0.006466 0.000000 0.000000 0.020210
# 2 0.016279 0.001259 -0.006466 0.000000 0.000000 -0.020210
# 3 -0.006466 -0.006466 0.012688 0.000000 0.000000 0.000000
# 4 0.000000 0.000000 0.000000 0.027002 0.000000 0.000000
# 5 0.000000 0.000000 0.000000 0.000000 0.027002 0.000000
# 6 0.020210 -0.020210 0.000000 0.000000 0.000000 0.007923
#
#
# Mechanical properties :
#
#
# Convention : Reuss Voigt Hill
#
# Bulk Modulus (GPa) = 45.66261 55.01828 50.34045
# Shear Modulus (GPa) = 64.31657 22.43237 43.37447
#
# Velocity S-wave (km/s) = 5.30960 3.13572 4.36031
# Velocity P-wave (km/s) = 7.58975 6.10135 6.88589
#
# Compressibility (1/GPa) = 0.02189975
#
# Stress axis : x y z
#
# Youngs Moduli (GPa) = 794.02117 794.02117 78.81504
#
# Poissons Ratio (x) = -12.92581 0.50963
# Poissons Ratio (y) = -12.92581 0.50963
# Poissons Ratio (z) = 5.13431 5.13431
#
# Static dielectric constant tensor:
#      x y z
#    x 1.898260 0.000000 0.000000 
#    y 0.000000 1.898260 0.000000 
#    z 0.000000 0.000000 1.862840 
# 
# From -- ./inp_files/453.got.cif
#   From: 2010.05.17/outbox.cif.g08.bks.cpg/sg79_cif.got.tgz:453.got - 2010.06.03 18:47:27.
