data_PCOD9541695
_publ_section_title
;
Structure prediction by ZEFSAII (Michael W. Deem and Ramdas Pophale) SiO2 
 PCOD9541695
Probable space group: P 43
;
_chemical_formula_sum "Si O2"
_cell_formula_units_Z 16
_cell_length_a 6.639087
_cell_length_b 6.639087
_cell_length_c 12.892509
_cell_angle_alpha 90.000000
_cell_angle_beta 90.000000
_cell_angle_gamma 90.000000
_cell_volume 568.269259
_symmetry_space_group_name_H-M "P 43"
_symmetry_group_IT_number 78
_symmetry_cell_setting 'tetragonal'
loop_
_space_group_symop_operation_xyz
x,y,z
-y,x,3/4+z
-x,-y,1/2+z
y,-x,1/4+z
loop_
_atom_site_type_symbol
_atom_site_label
_atom_site_fract_x
_atom_site_fract_y
_atom_site_fract_z
Si Si1 0.492405 0.244460 0.500000
Si Si2 0.244462 0.492404 0.371336
Si Si3 0.751966 0.090617 0.926710
Si Si4 0.909384 0.248033 0.444626
O O1 0.233422 0.727204 0.345449
O O2 0.444634 0.444633 0.435668
O O3 0.432252 0.934967 0.700176
O O4 0.432253 0.065032 0.421160
O O5 0.204448 0.326754 0.281723
O O6 0.795553 0.326755 0.339613
O O7 0.272795 0.766579 0.025887
O O8 0.956646 0.956647 0.935668
#
# Coordination Sequence:
#
# PCOD9541695 Si02
#       4
#     4   4   4   4
#     4  10  22  42  67 100 136 174 231 287 348 421
#     4  10  22  42  67 100 136 174 231 287 348 421
#     4  10  23  43  68 100 139 181 229 288 347 414
#     4  10  23  43  68 100 139 181 229 288 347 414
#
# _framework density 28.155669
#
# number of rings (size 3 to 8) (size 9 to 14) (size 15 to 20)
#    0.000    2.000    0.000    1.500    0.000   18.000 
#    0.000   15.000    0.000    0.000    0.000    0.000 
#    0.000    0.000    0.000    0.000    0.000    0.000 
#
# Total GULP energy -89148.032024 kJ/mol
# GULP energy per Si atom -5571.752002 kJ/mol
# Density = 2.809159 g / cm^3
# Si number density = 28.155669 Si / 1000 Ang^3
#
#
#
# Elastic Constant Matrix: (Units=GPa)
#
#
# Indices 1 2 3 4 5 6 
#
# 1 181.6038 44.9727 7.4231 0.0000 0.0000 0.0003
# 2 44.9727 181.6038 7.4231 0.0000 0.0000 -0.0003
# 3 7.4231 7.4231 76.0240 0.0000 0.0000 0.0000
# 4 0.0000 0.0000 0.0000 31.0372 0.0000 0.0000
# 5 0.0000 0.0000 0.0000 0.0000 31.0372 0.0000
# 6 0.0003 -0.0003 0.0000 0.0000 0.0000 29.6169
#
#
#
# Elastic Compliance Matrix: (Units=1/GPa)
#
#
# Indices 1 2 3 4 5 6 
#
# 1 0.005880 -0.001439 -0.000434 0.000000 0.000000 0.000000
# 2 -0.001439 0.005880 -0.000434 0.000000 0.000000 0.000000
# 3 -0.000434 -0.000434 0.013238 0.000000 0.000000 0.000000
# 4 0.000000 0.000000 0.000000 0.032219 0.000000 0.000000
# 5 0.000000 0.000000 0.000000 0.000000 0.032219 0.000000
# 6 0.000000 0.000000 0.000000 0.000000 0.000000 0.033765
#
#
# Mechanical properties :
#
#
# Convention : Reuss Voigt Hill
#
# Bulk Modulus (GPa) = 49.04978 62.09660 55.57319
# Shear Modulus (GPa) = 37.14425 43.63246 40.38836
#
# Velocity S-wave (km/s) = 3.63608 3.94088 3.79154
# Velocity P-wave (km/s) = 5.92342 6.54293 6.24087
#
# Compressibility (1/GPa) = 0.02038745
#
# Stress axis : x y z
#
# Youngs Moduli (GPa) = 170.05481 170.05481 75.53759
#
# Poissons Ratio (x) = 0.24463 0.03276
# Poissons Ratio (y) = 0.24463 0.03276
# Poissons Ratio (z) = 0.07376 0.07376
#
# Static dielectric constant tensor:
#      x y z
#    x 2.246990 0.000000 0.000000 
#    y 0.000000 2.246990 0.000000 
#    z 0.000000 0.000000 2.488750 
# 
# From -- ./inp_files/1372.got.cif
#   From: 2010.05.17/outbox.cif.g08.bks.cpg/sg78_cif.got.tgz:1372.got - 2010.06.03 18:45:56.
