data_PCOD9541166
_publ_section_title
;
Structure prediction by ZEFSAII (Michael W. Deem and Ramdas Pophale) SiO2 
 PCOD9541166
Probable space group: P 41
;
_chemical_formula_sum "Si O2"
_cell_formula_units_Z 24
_cell_length_a 14.995852
_cell_length_b 14.995852
_cell_length_c 5.260886
_cell_angle_alpha 90.000000
_cell_angle_beta 90.000000
_cell_angle_gamma 90.000000
_cell_volume 1183.044776
_symmetry_space_group_name_H-M "P 41"
_symmetry_group_IT_number 76
_symmetry_cell_setting 'tetragonal'
loop_
_space_group_symop_operation_xyz
x,y,z
-y,x,1/4+z
-x,-y,1/2+z
y,-x,3/4+z
loop_
_atom_site_type_symbol
_atom_site_label
_atom_site_fract_x
_atom_site_fract_y
_atom_site_fract_z
Si Si1 0.652989 0.146473 0.851600
Si Si2 0.103290 0.076157 0.918755
Si Si3 0.972119 0.236072 0.538364
Si Si4 0.257320 0.185884 0.688309
Si Si5 0.091711 0.608399 0.732252
Si Si6 0.455447 0.903749 0.843780
O O1 0.716241 0.232926 0.837113
O O2 0.586984 0.131522 0.608952
O O3 0.722177 0.064136 0.875708
O O4 0.598638 0.140853 0.112418
O O5 0.173788 0.155231 0.868379
O O6 0.108632 0.996922 0.713701
O O7 0.137526 0.028773 0.176830
O O8 0.888582 0.252291 0.719283
O O9 0.956818 0.299123 0.293699
O O10 0.353770 0.174670 0.822948
O O11 0.012333 0.555187 0.590992
O O12 0.112356 0.556355 0.993898
#
# Coordination Sequence:
#
# PCOD9541166 Si02
#       6
#     4   4   4   4   4   4
#     4  11  24  37  59  84 124 154 206 260 315 366
#     4  11  25  34  48  72 109 162 220 267 305 347
#     4  10  21  37  55  77 112 157 212 258 306 367
#     4  11  23  38  57  80 116 161 205 262 317 373
#     4  10  22  38  63  83 114 158 214 258 318 372
#     4  11  23  40  60  90 113 158 209 267 311 371
#
# _framework density 20.286639999999998
#
# number of rings (size 3 to 8) (size 9 to 14) (size 15 to 20)
#    0.000    1.333    1.667    4.000   16.333    0.000 
#    0.000    0.000    0.000    0.000    0.000    0.000 
#    0.000    0.000    5.667    0.000    0.000    0.500 
#
# Total GULP energy -133801.477413 kJ/mol
# GULP energy per Si atom -5575.061559 kJ/mol
# Density = 2.024047 g / cm^3
# Si number density = 20.286640 Si / 1000 Ang^3
#
#
#
# Elastic Constant Matrix: (Units=GPa)
#
#
# Indices 1 2 3 4 5 6 
#
# 1 72.6193 33.5708 31.8389 0.0000 0.0000 4.4431
# 2 33.5708 72.6193 31.8389 0.0000 0.0000 -4.4431
# 3 31.8389 31.8389 107.0657 0.0000 0.0000 0.0000
# 4 0.0000 0.0000 0.0000 21.5829 0.0000 0.0000
# 5 0.0000 0.0000 0.0000 0.0000 21.5829 0.0000
# 6 4.4431 -4.4431 0.0000 0.0000 0.0000 18.7647
#
#
#
# Elastic Compliance Matrix: (Units=1/GPa)
#
#
# Indices 1 2 3 4 5 6 
#
# 1 0.019264 -0.007803 -0.003408 0.000000 0.000000 -0.006409
# 2 -0.007803 0.019264 -0.003408 0.000000 0.000000 0.006409
# 3 -0.003408 -0.003408 0.011367 0.000000 0.000000 0.000000
# 4 0.000000 0.000000 0.000000 0.046333 0.000000 0.000000
# 5 0.000000 0.000000 0.000000 0.000000 0.046333 0.000000
# 6 -0.006409 0.006409 0.000000 0.000000 0.000000 0.056327
#
#
# Mechanical properties :
#
#
# Convention : Reuss Voigt Hill
#
# Bulk Modulus (GPa) = 48.41212 49.64461 49.02836
# Shear Modulus (GPa) = 21.27544 22.72317 21.99930
#
# Velocity S-wave (km/s) = 3.24194 3.35043 3.29663
# Velocity P-wave (km/s) = 6.15869 6.28425 6.22179
#
# Compressibility (1/GPa) = 0.02065599
#
# Stress axis : x y z
#
# Youngs Moduli (GPa) = 51.90964 51.90964 87.97325
#
# Poissons Ratio (x) = 0.40507 0.29983
# Poissons Ratio (y) = 0.40507 0.29983
# Poissons Ratio (z) = 0.17692 0.17692
#
# Static dielectric constant tensor:
#      x y z
#    x 1.812510 0.000000 0.000000 
#    y 0.000000 1.812510 0.000000 
#    z 0.000000 0.000000 1.866430 
# 
# From -- ./inp_files/162.got.cif
#   From: 2010.05.17/outbox.cif.g08.bks.cpg/sg76_cif.got.tgz:162.got - 2010.06.03 18:43:17.
