data_PCOD9541702
_publ_section_title
;
Structure prediction by ZEFSAII (Michael W. Deem and Ramdas Pophale) SiO2 
 PCOD9541702
Probable space group: P 43
;
_chemical_formula_sum "Si O2"
_cell_formula_units_Z 28
_cell_length_a 8.684008
_cell_length_b 8.684008
_cell_length_c 14.973186
_cell_angle_alpha 90.000000
_cell_angle_beta 90.000000
_cell_angle_gamma 90.000000
_cell_volume 1129.157827
_symmetry_space_group_name_H-M "P 43"
_symmetry_group_IT_number 78
_symmetry_cell_setting 'tetragonal'
loop_
_space_group_symop_operation_xyz
x,y,z
-y,x,3/4+z
-x,-y,1/2+z
y,-x,1/4+z
loop_
_atom_site_type_symbol
_atom_site_label
_atom_site_fract_x
_atom_site_fract_y
_atom_site_fract_z
Si Si1 0.056373 0.799249 0.622550
Si Si2 0.726947 0.395756 0.006065
Si Si3 0.042132 0.501231 0.365408
Si Si4 0.104914 0.828236 0.830060
Si Si5 0.627573 0.258261 0.615634
Si Si6 0.383977 0.686626 0.917235
Si Si7 0.167608 0.482616 0.168502
O O1 0.177075 0.746222 0.547145
O O2 0.119163 0.806506 0.723842
O O3 0.933027 0.656273 0.624738
O O4 0.035625 0.981548 0.599547
O O5 0.674360 0.486426 0.092656
O O6 0.830704 0.495585 0.941046
O O7 0.595841 0.328727 0.943950
O O8 0.099335 0.526856 0.264818
O O9 0.968366 0.332296 0.365201
O O10 0.921106 0.636734 0.387778
O O11 0.267660 0.819207 0.880705
O O12 0.484524 0.314290 0.675536
O O13 0.562361 0.265313 0.514690
O O14 0.780626 0.361124 0.619273
#
# Coordination Sequence:
#
# PCOD9541702 Si02
#       7
#     4   4   4   4   4   4   4
#     4  11  22  46  69 103 139 194 239 293 368 439
#     4  12  24  42  78 104 144 198 243 309 366 443
#     4  10  24  45  68 107 145 190 239 307 373 434
#     4  10  22  45  69  99 145 188 246 291 371 446
#     4  11  26  46  70 110 148 189 250 314 368 436
#     4  11  24  42  73 106 142 188 246 313 369 432
#     4  11  26  44  75 107 151 193 253 303 367 456
#
# _framework density 24.797239999999999
#
# number of rings (size 3 to 8) (size 9 to 14) (size 15 to 20)
#    0.000    1.143    2.857    4.286   10.000    0.000 
#    5.143    0.000    0.000    0.000    0.000    0.000 
#    0.000    0.000    0.000    0.000    0.000    0.000 
#
# Total GULP energy -156435.467919 kJ/mol
# GULP energy per Si atom -5586.980997 kJ/mol
# Density = 2.474080 g / cm^3
# Si number density = 24.797240 Si / 1000 Ang^3
#
#
#
# Elastic Constant Matrix: (Units=GPa)
#
#
# Indices 1 2 3 4 5 6 
#
# 1 66.7745 12.5004 2.0756 0.0000 0.0000 -10.6170
# 2 12.5004 66.7745 2.0756 0.0000 0.0000 10.6170
# 3 2.0756 2.0756 53.7548 0.0000 0.0000 0.0000
# 4 0.0000 0.0000 0.0000 26.8673 0.0000 0.0000
# 5 0.0000 0.0000 0.0000 0.0000 26.8673 0.0000
# 6 -10.6170 10.6170 0.0000 0.0000 0.0000 37.7418
#
#
#
# Elastic Compliance Matrix: (Units=1/GPa)
#
#
# Indices 1 2 3 4 5 6 
#
# 1 0.016672 -0.004032 -0.000488 0.000000 0.000000 0.005824
# 2 -0.004032 0.016672 -0.000488 0.000000 0.000000 -0.005824
# 3 -0.000488 -0.000488 0.018641 0.000000 0.000000 0.000000
# 4 0.000000 0.000000 0.000000 0.037220 0.000000 0.000000
# 5 0.000000 0.000000 0.000000 0.000000 0.037220 0.000000
# 6 0.005824 -0.005824 0.000000 0.000000 0.000000 0.029772
#
#
# Mechanical properties :
#
#
# Convention : Reuss Voigt Hill
#
# Bulk Modulus (GPa) = 23.82753 24.51187 24.16970
# Shear Modulus (GPa) = 27.74664 29.67206 28.70935
#
# Velocity S-wave (km/s) = 3.34869 3.46293 3.40628
# Velocity P-wave (km/s) = 4.95796 5.08876 5.02379
#
# Compressibility (1/GPa) = 0.04196826
#
# Stress axis : x y z
#
# Youngs Moduli (GPa) = 59.98180 59.98180 53.64610
#
# Poissons Ratio (x) = 0.24184 0.02618
# Poissons Ratio (y) = 0.24184 0.02618
# Poissons Ratio (z) = 0.02927 0.02927
#
# Static dielectric constant tensor:
#      x y z
#    x 2.052550 0.000000 0.000000 
#    y 0.000000 2.052550 0.000000 
#    z 0.000000 0.000000 1.857580 
# 
# From -- ./inp_files/1123.got.cif
#   From: 2010.05.17/outbox.cif.g08.bks.cpg/sg78_cif.got.tgz:1123.got - 2010.06.03 18:45:56.
