data_PCOD9541529
_publ_section_title
;
Structure prediction by ZEFSAII (Michael W. Deem and Ramdas Pophale) SiO2 
 PCOD9541529
Probable space group: P 42
;
_chemical_formula_sum "Si O2"
_cell_formula_units_Z 20
_cell_length_a 8.826742
_cell_length_b 8.826742
_cell_length_c 12.012012
_cell_angle_alpha 90.000000
_cell_angle_beta 90.000000
_cell_angle_gamma 90.000000
_cell_volume 935.872363
_symmetry_space_group_name_H-M "P 42"
_symmetry_group_IT_number 77
_symmetry_cell_setting 'tetragonal'
loop_
_space_group_symop_operation_xyz
x,y,z
-y,x,1/2+z
-x,-y,z
y,-x,1/2+z
loop_
_atom_site_type_symbol
_atom_site_label
_atom_site_fract_x
_atom_site_fract_y
_atom_site_fract_z
Si Si1 0.818003 0.196831 0.834480
Si Si2 0.876858 0.883484 0.553628
Si Si3 0.109196 0.368955 0.117547
Si Si4 0.648175 0.105320 0.241221
Si Si5 0.493089 0.681650 0.423251
O O1 0.726807 0.165387 0.722408
O O2 0.739761 0.338548 0.896189
O O3 0.987676 0.241369 0.802017
O O4 0.826412 0.072539 0.931842
O O5 0.846728 0.740663 0.632314
O O6 0.731951 0.992632 0.546010
O O7 0.000000 0.000000 0.601461
O O8 0.000000 0.500000 0.162045
O O9 0.241358 0.429999 0.036664
O O10 0.602847 0.244590 0.320839
O O11 0.500000 0.000000 0.216568
O O12 0.500000 0.500000 0.427504
#
# Coordination Sequence:
#
# PCOD9541529 Si02
#       5
#     4   4   4   4   4
#     4  11  25  45  70 102 142 196 237 300 368 431
#     4  12  25  44  72 101 143 187 240 300 359 441
#     4  12  25  47  72 105 146 189 240 302 372 438
#     4  10  23  46  69  99 143 188 236 299 363 429
#     4  11  25  46  74 102 146 188 239 304 374 438
#
# _framework density 21.370435000000001
#
# number of rings (size 3 to 8) (size 9 to 14) (size 15 to 20)
#    0.000    0.800    6.000    0.600    5.600    4.800 
#    0.000    0.000    0.000    0.000    0.000    0.000 
#    0.000    0.000    0.000    0.000    0.000    0.000 
#
# Total GULP energy -111649.600360 kJ/mol
# GULP energy per Si atom -5582.480018 kJ/mol
# Density = 2.132179 g / cm^3
# Si number density = 21.370435 Si / 1000 Ang^3
#
#
#
# Elastic Constant Matrix: (Units=GPa)
#
#
# Indices 1 2 3 4 5 6 
#
# 1 107.4303 39.5796 66.6008 0.0000 0.0000 4.5524
# 2 39.5796 107.4303 66.6008 0.0000 0.0000 -4.5524
# 3 66.6008 66.6008 164.2851 0.0000 0.0000 0.0000
# 4 0.0000 0.0000 0.0000 33.6039 0.0000 0.0000
# 5 0.0000 0.0000 0.0000 0.0000 33.6039 0.0000
# 6 4.5524 -4.5524 0.0000 0.0000 0.0000 27.1280
#
#
#
# Elastic Compliance Matrix: (Units=1/GPa)
#
#
# Indices 1 2 3 4 5 6 
#
# 1 0.012915 -0.002163 -0.004359 0.000000 0.000000 -0.002530
# 2 -0.002163 0.012915 -0.004359 0.000000 0.000000 0.002530
# 3 -0.004359 -0.004359 0.009621 0.000000 0.000000 0.000000
# 4 0.000000 0.000000 0.000000 0.029758 0.000000 0.000000
# 5 0.000000 0.000000 0.000000 0.000000 0.029758 0.000000
# 6 -0.002530 0.002530 0.000000 0.000000 0.000000 0.037711
#
#
# Mechanical properties :
#
#
# Convention : Reuss Voigt Hill
#
# Bulk Modulus (GPa) = 73.04919 80.52313 76.78616
# Shear Modulus (GPa) = 31.44604 32.62480 32.03542
#
# Velocity S-wave (km/s) = 3.84014 3.91145 3.87596
# Velocity P-wave (km/s) = 7.34294 7.62632 7.48597
#
# Compressibility (1/GPa) = 0.01368941
#
# Stress axis : x y z
#
# Youngs Moduli (GPa) = 77.43153 77.43153 103.93999
#
# Poissons Ratio (x) = 0.16749 0.45304
# Poissons Ratio (y) = 0.16749 0.45304
# Poissons Ratio (z) = 0.33750 0.33750
#
# Static dielectric constant tensor:
#      x y z
#    x 1.805390 0.000000 0.000000 
#    y 0.000000 1.805390 0.000000 
#    z 0.000000 0.000000 1.817210 
# 
# From -- ./inp_files/748.got.cif
#   From: 2010.05.17/outbox.cif.g08.bks.cpg/sg77_cif.got.tgz:748.got - 2010.06.03 18:44:51.
