data_PCOD9541411
_publ_section_title
;
Structure prediction by ZEFSAII (Michael W. Deem and Ramdas Pophale) SiO2 
 PCOD9541411
Probable space group: P 41
;
_chemical_formula_sum "Si O2"
_cell_formula_units_Z 20
_cell_length_a 5.029398
_cell_length_b 5.029398
_cell_length_c 27.352302
_cell_angle_alpha 90.000000
_cell_angle_beta 90.000000
_cell_angle_gamma 90.000000
_cell_volume 691.872219
_symmetry_space_group_name_H-M "P 41"
_symmetry_group_IT_number 76
_symmetry_cell_setting 'tetragonal'
loop_
_space_group_symop_operation_xyz
x,y,z
-y,x,1/4+z
-x,-y,1/2+z
y,-x,3/4+z
loop_
_atom_site_type_symbol
_atom_site_label
_atom_site_fract_x
_atom_site_fract_y
_atom_site_fract_z
Si Si1 0.524376 0.226635 0.911480
Si Si2 0.763001 0.500001 0.499118
Si Si3 0.773364 0.475624 0.836756
Si Si4 0.036498 0.787363 0.586781
Si Si5 0.787363 0.036498 0.661455
O O1 0.408273 0.328976 0.961808
O O2 0.478451 0.270385 0.850380
O O3 0.258471 0.992877 0.897860
O O4 0.759358 0.022379 0.919274
O O5 0.591727 0.328979 0.536427
O O6 0.933599 0.670747 0.536548
O O7 0.933598 0.329254 0.461688
O O8 0.729615 0.521547 0.897855
O O9 0.977620 0.240642 0.828961
O O10 0.741529 0.992878 0.600375
#
# Coordination Sequence:
#
# PCOD9541411 Si02
#       5
#     4   4   4   4   4
#     4  11  26  54  77 115 167 208 277 342 410 496
#     4  12  26  52  90 118 160 230 268 338 436 478
#     4  11  26  54  77 115 167 208 277 342 410 496
#     4  11  26  54  77 118 165 209 279 345 402 509
#     4  11  26  54  77 118 165 209 279 345 402 509
#
# _framework density 28.907071999999999
#
# number of rings (size 3 to 8) (size 9 to 14) (size 15 to 20)
#    0.000    0.800    4.000    1.200    0.000    3.200 
#   14.400    0.000    0.000    0.000    0.000    0.000 
#    0.000    0.000    0.000    0.000    0.000    0.000 
#
# Total GULP energy -111873.882870 kJ/mol
# GULP energy per Si atom -5593.694144 kJ/mol
# Density = 2.884128 g / cm^3
# Si number density = 28.907072 Si / 1000 Ang^3
#
#
#
# Elastic Constant Matrix: (Units=GPa)
#
#
# Indices 1 2 3 4 5 6 
#
# 1 239.3091 109.8161 162.8624 0.0000 0.0000 0.0002
# 2 109.8161 239.3091 162.8624 0.0000 0.0000 -0.0002
# 3 162.8624 162.8624 398.6343 0.0000 0.0000 0.0000
# 4 0.0000 0.0000 0.0000 73.2255 0.0000 0.0000
# 5 0.0000 0.0000 0.0000 0.0000 73.2255 0.0000
# 6 0.0002 -0.0002 0.0000 0.0000 0.0000 96.3784
#
#
#
# Elastic Compliance Matrix: (Units=1/GPa)
#
#
# Indices 1 2 3 4 5 6 
#
# 1 0.006175 -0.001547 -0.001891 0.000000 0.000000 0.000000
# 2 -0.001547 0.006175 -0.001891 0.000000 0.000000 0.000000
# 3 -0.001891 -0.001891 0.004054 0.000000 0.000000 0.000000
# 4 0.000000 0.000000 0.000000 0.013656 0.000000 0.000000
# 5 0.000000 0.000000 0.000000 0.000000 0.013656 0.000000
# 6 0.000000 0.000000 0.000000 0.000000 0.000000 0.010376
#
#
# Mechanical properties :
#
#
# Convention : Reuss Voigt Hill
#
# Bulk Modulus (GPa) = 174.00943 194.25936 184.13439
# Shear Modulus (GPa) = 74.99982 78.01331 76.50657
#
# Velocity S-wave (km/s) = 5.09916 5.20060 5.15013
# Velocity P-wave (km/s) = 9.74656 10.16901 9.96003
#
# Compressibility (1/GPa) = 0.00574682
#
# Stress axis : x y z
#
# Youngs Moduli (GPa) = 161.93042 161.93042 246.68796
#
# Poissons Ratio (x) = 0.25050 0.46649
# Poissons Ratio (y) = 0.25050 0.46649
# Poissons Ratio (z) = 0.30621 0.30621
#
# Static dielectric constant tensor:
#      x y z
#    x 3.693090 0.000000 0.000000 
#    y 0.000000 3.693090 0.000000 
#    z 0.000000 0.000000 1.952630 
# 
# From -- ./inp_files/1353.got.cif
#   From: 2010.05.17/outbox.cif.g08.bks.cpg/sg76_cif.got.tgz:1353.got - 2010.06.03 18:43:17.
