data_PCOD9541185
_publ_section_title
;
Structure prediction by ZEFSAII (Michael W. Deem and Ramdas Pophale) SiO2 
 PCOD9541185
Probable space group: P 41
;
_chemical_formula_sum "Si O2"
_cell_formula_units_Z 24
_cell_length_a 10.808608
_cell_length_b 10.808608
_cell_length_c 9.094535
_cell_angle_alpha 90.000000
_cell_angle_beta 90.000000
_cell_angle_gamma 90.000000
_cell_volume 1062.478209
_symmetry_space_group_name_H-M "P 41"
_symmetry_group_IT_number 76
_symmetry_cell_setting 'tetragonal'
loop_
_space_group_symop_operation_xyz
x,y,z
-y,x,1/4+z
-x,-y,1/2+z
y,-x,3/4+z
loop_
_atom_site_type_symbol
_atom_site_label
_atom_site_fract_x
_atom_site_fract_y
_atom_site_fract_z
Si Si1 0.851815 0.462352 0.409320
Si Si2 0.989826 0.592112 0.628863
Si Si3 0.139225 0.038548 0.802169
Si Si4 0.383586 0.408932 0.215135
Si Si5 0.773662 0.513568 0.975879
Si Si6 0.307870 0.748471 0.490276
O O1 0.952237 0.416589 0.291087
O O2 0.730523 0.377379 0.404275
O O3 0.815042 0.597863 0.349203
O O4 0.891674 0.489435 0.576369
O O5 0.965473 0.736760 0.602532
O O6 0.095583 0.549195 0.511307
O O7 0.190971 0.172614 0.747919
O O8 0.070766 0.956894 0.680607
O O9 0.495400 0.406941 0.334158
O O10 0.266040 0.446508 0.314312
O O11 0.688544 0.397832 0.023848
O O12 0.761477 0.631659 0.079852
#
# Coordination Sequence:
#
# PCOD9541185 Si02
#       6
#     4   4   4   4   4   4
#     4  11  25  43  71 101 142 185 234 292 354 422
#     4  10  25  47  71 100 141 185 237 292 355 416
#     4  11  24  49  73  98 136 186 240 296 348 409
#     4  12  26  40  69 107 146 187 235 279 356 435
#     4  10  21  40  67 102 141 180 226 280 348 423
#     4  10  21  41  71  98 138 183 224 285 353 413
#
# _framework density 22.588698000000001
#
# number of rings (size 3 to 8) (size 9 to 14) (size 15 to 20)
#    0.000    1.333    3.333    1.000   11.667    0.000 
#    6.000    0.000    0.000    0.000    0.000    0.000 
#    0.000    0.000    0.000    0.000    0.000    0.000 
#
# Total GULP energy -134033.962990 kJ/mol
# GULP energy per Si atom -5584.748458 kJ/mol
# Density = 2.253728 g / cm^3
# Si number density = 22.588698 Si / 1000 Ang^3
#
#
#
# Elastic Constant Matrix: (Units=GPa)
#
#
# Indices 1 2 3 4 5 6 
#
# 1 56.8102 12.7217 38.9167 0.0000 0.0000 6.1183
# 2 12.7217 56.8102 38.9167 0.0000 0.0000 -6.1183
# 3 38.9167 38.9167 135.8194 0.0000 0.0000 0.0000
# 4 0.0000 0.0000 0.0000 39.6523 0.0000 0.0000
# 5 0.0000 0.0000 0.0000 0.0000 39.6523 0.0000
# 6 6.1183 -6.1183 0.0000 0.0000 0.0000 21.5523
#
#
#
# Elastic Compliance Matrix: (Units=1/GPa)
#
#
# Indices 1 2 3 4 5 6 
#
# 1 0.022897 -0.001724 -0.006067 0.000000 0.000000 -0.006990
# 2 -0.001724 0.022897 -0.006067 0.000000 0.000000 0.006990
# 3 -0.006067 -0.006067 0.010839 0.000000 0.000000 0.000000
# 4 0.000000 0.000000 0.000000 0.025219 0.000000 0.000000
# 5 0.000000 0.000000 0.000000 0.000000 0.025219 0.000000
# 6 -0.006990 0.006990 0.000000 0.000000 0.000000 0.050367
#
#
# Mechanical properties :
#
#
# Convention : Reuss Voigt Hill
#
# Bulk Modulus (GPa) = 34.58019 47.83888 41.20954
# Shear Modulus (GPa) = 25.66808 30.76370 28.21589
#
# Velocity S-wave (km/s) = 3.37460 3.69441 3.53812
# Velocity P-wave (km/s) = 5.52501 6.27873 5.91389
#
# Compressibility (1/GPa) = 0.02891829
#
# Stress axis : x y z
#
# Youngs Moduli (GPa) = 43.67334 43.67334 92.25632
#
# Poissons Ratio (x) = 0.07531 0.55970
# Poissons Ratio (y) = 0.07531 0.55970
# Poissons Ratio (z) = 0.26496 0.26496
#
# Static dielectric constant tensor:
#      x y z
#    x 1.895000 0.000000 0.000000 
#    y 0.000000 1.895000 0.000000 
#    z 0.000000 0.000000 1.840620 
# 
# From -- ./inp_files/580.got.cif
#   From: 2010.05.17/outbox.cif.g08.bks.cpg/sg76_cif.got.tgz:580.got - 2010.06.03 18:43:17.
