data_PCOD9541164
_publ_section_title
;
Structure prediction by ZEFSAII (Michael W. Deem and Ramdas Pophale) SiO2 
 PCOD9541164
Probable space group: P 41
;
_chemical_formula_sum "Si O2"
_cell_formula_units_Z 24
_cell_length_a 13.555177
_cell_length_b 13.555177
_cell_length_c 6.504502
_cell_angle_alpha 90.000000
_cell_angle_beta 90.000000
_cell_angle_gamma 90.000000
_cell_volume 1195.155563
_symmetry_space_group_name_H-M "P 41"
_symmetry_group_IT_number 76
_symmetry_cell_setting 'tetragonal'
loop_
_space_group_symop_operation_xyz
x,y,z
-y,x,1/4+z
-x,-y,1/2+z
y,-x,3/4+z
loop_
_atom_site_type_symbol
_atom_site_label
_atom_site_fract_x
_atom_site_fract_y
_atom_site_fract_z
Si Si1 0.232135 0.696826 0.105110
Si Si2 0.271087 0.405643 0.681786
Si Si3 0.019116 0.654923 0.279397
Si Si4 0.452094 0.903080 0.181626
Si Si5 0.626798 0.465605 0.474696
Si Si6 0.851255 0.685332 0.556448
O O1 0.315440 0.709270 0.279920
O O2 0.125751 0.692425 0.209772
O O3 0.272121 0.596387 0.998734
O O4 0.239404 0.785547 0.939991
O O5 0.196694 0.475574 0.555868
O O6 0.361261 0.465657 0.773946
O O7 0.216977 0.361753 0.881192
O O8 0.036266 0.550289 0.392334
O O9 0.950051 0.717546 0.433681
O O10 0.959837 0.626885 0.073028
O O11 0.399881 0.878248 0.968486
O O12 0.606026 0.535708 0.669433
#
# Coordination Sequence:
#
# PCOD9541164 Si02
#       6
#     4   4   4   4   4   4
#     4  11  25  39  62  91 130 176 218 270 332 384
#     4  10  23  40  56  84 131 173 220 262 309 384
#     4  11  22  36  66  91 124 173 209 276 335 372
#     4  10  21  35  61  90 124 163 220 264 325 381
#     4  12  24  37  55  83 128 187 233 260 310 387
#     4  10  21  43  56  89 129 158 220 278 315 398
#
# _framework density 20.081068999999999
#
# number of rings (size 3 to 8) (size 9 to 14) (size 15 to 20)
#    0.000    1.333    3.333    2.000    7.000    1.333 
#    0.000    0.000    0.000    0.000    0.000    0.000 
#  180.000    0.000    0.000    0.000    0.000    0.000 
#
# Total GULP energy -134021.877822 kJ/mol
# GULP energy per Si atom -5584.244909 kJ/mol
# Density = 2.003536 g / cm^3
# Si number density = 20.081069 Si / 1000 Ang^3
#
#
#
# Elastic Constant Matrix: (Units=GPa)
#
#
# Indices 1 2 3 4 5 6 
#
# 1 70.8833 24.8580 32.2625 0.0000 0.0000 1.2049
# 2 24.8580 70.8833 32.2625 0.0000 0.0000 -1.2049
# 3 32.2625 32.2625 112.9261 0.0000 0.0000 0.0000
# 4 0.0000 0.0000 0.0000 34.5777 0.0000 0.0000
# 5 0.0000 0.0000 0.0000 0.0000 34.5777 0.0000
# 6 1.2049 -1.2049 0.0000 0.0000 0.0000 14.5684
#
#
#
# Elastic Compliance Matrix: (Units=1/GPa)
#
#
# Indices 1 2 3 4 5 6 
#
# 1 0.017379 -0.004443 -0.003696 0.000000 0.000000 -0.001805
# 2 -0.004443 0.017379 -0.003696 0.000000 0.000000 0.001805
# 3 -0.003696 -0.003696 0.010967 0.000000 0.000000 0.000000
# 4 0.000000 0.000000 0.000000 0.028920 0.000000 0.000000
# 5 0.000000 0.000000 0.000000 0.000000 0.028920 0.000000
# 6 -0.001805 0.001805 0.000000 0.000000 0.000000 0.068940
#
#
# Mechanical properties :
#
#
# Convention : Reuss Voigt Hill
#
# Bulk Modulus (GPa) = 45.34016 48.16207 46.75112
# Shear Modulus (GPa) = 24.56693 27.76540 26.16616
#
# Velocity S-wave (km/s) = 3.50149 3.72245 3.61366
# Velocity P-wave (km/s) = 6.24298 6.52008 6.38303
#
# Compressibility (1/GPa) = 0.02205550
#
# Stress axis : x y z
#
# Youngs Moduli (GPa) = 57.54214 57.54214 91.18267
#
# Poissons Ratio (x) = 0.25566 0.33698
# Poissons Ratio (y) = 0.25566 0.33698
# Poissons Ratio (z) = 0.21265 0.21265
#
# Static dielectric constant tensor:
#      x y z
#    x 1.736560 0.000000 0.000000 
#    y 0.000000 1.736560 0.000000 
#    z 0.000000 0.000000 1.736870 
# 
# From -- ./inp_files/167.got.cif
#   From: 2010.05.17/outbox.cif.g08.bks.cpg/sg76_cif.got.tgz:167.got - 2010.06.03 18:43:17.
