data_PCOD9541094
_publ_section_title
;
Structure prediction by ZEFSAII (Michael W. Deem and Ramdas Pophale) SiO2 
 PCOD9541094
Probable space group: P 41
;
_chemical_formula_sum "Si O2"
_cell_formula_units_Z 28
_cell_length_a 12.370151
_cell_length_b 12.370151
_cell_length_c 7.723314
_cell_angle_alpha 90.000000
_cell_angle_beta 90.000000
_cell_angle_gamma 90.000000
_cell_volume 1181.826418
_symmetry_space_group_name_H-M "P 41"
_symmetry_group_IT_number 76
_symmetry_cell_setting 'tetragonal'
loop_
_space_group_symop_operation_xyz
x,y,z
-y,x,1/4+z
-x,-y,1/2+z
y,-x,3/4+z
loop_
_atom_site_type_symbol
_atom_site_label
_atom_site_fract_x
_atom_site_fract_y
_atom_site_fract_z
Si Si1 0.573477 0.806418 0.036260
Si Si2 0.054149 0.231350 0.489285
Si Si3 0.873459 0.979238 0.206930
Si Si4 0.745809 0.602118 0.525997
Si Si5 0.199193 0.758816 0.995128
Si Si6 0.387993 0.572404 0.497609
Si Si7 0.637681 0.038834 0.080377
O O1 0.596692 0.736613 0.206073
O O2 0.562854 0.933575 0.071865
O O3 0.469050 0.754536 0.947344
O O4 0.670662 0.794108 0.898363
O O5 0.092893 0.118586 0.577267
O O6 0.129050 0.244036 0.323398
O O7 0.071163 0.321776 0.638004
O O8 0.926995 0.230051 0.454046
O O9 0.916848 0.939579 0.390244
O O10 0.747670 0.002150 0.180043
O O11 0.729149 0.725614 0.584945
O O12 0.651464 0.568714 0.396794
O O13 0.858739 0.589297 0.425729
O O14 0.405344 0.453660 0.572809
#
# Coordination Sequence:
#
# PCOD9541094 Si02
#       7
#     4   4   4   4   4   4   4
#     4  11  24  46  68  94 138 176 211 275 333 400
#     4  10  19  38  61  90 130 178 215 278 309 366
#     4  10  19  33  59  92 130 175 223 269 313 358
#     4  12  27  41  68 101 131 175 216 271 334 407
#     4  11  23  41  64  98 134 173 230 269 330 383
#     4  12  26  48  77 100 124 163 224 287 333 385
#     4  10  24  39  63  95 139 178 219 259 330 407
#
# _framework density 23.692143000000002
#
# number of rings (size 3 to 8) (size 9 to 14) (size 15 to 20)
#    0.000    1.143    4.286    3.429    4.000    4.571 
#    0.000    0.000    0.000    0.000    0.000    0.000 
#    0.000    0.000    0.000    0.000    0.000    0.000 
#
# Total GULP energy -156906.553554 kJ/mol
# GULP energy per Si atom -5603.805484 kJ/mol
# Density = 2.363822 g / cm^3
# Si number density = 23.692143 Si / 1000 Ang^3
#
#
#
# Elastic Constant Matrix: (Units=GPa)
#
#
# Indices 1 2 3 4 5 6 
#
# 1 36.7930 20.5901 2.6040 0.0000 0.0000 -8.5162
# 2 20.5901 36.7930 2.6040 0.0000 0.0000 8.5162
# 3 2.6040 2.6040 56.1373 0.0000 0.0000 0.0000
# 4 0.0000 0.0000 0.0000 31.7397 0.0000 0.0000
# 5 0.0000 0.0000 0.0000 0.0000 31.7397 0.0000
# 6 -8.5162 8.5162 0.0000 0.0000 0.0000 13.6388
#
#
#
# Elastic Compliance Matrix: (Units=1/GPa)
#
#
# Indices 1 2 3 4 5 6 
#
# 1 0.098555 -0.081055 -0.000812 0.000000 0.000000 0.112151
# 2 -0.081055 0.098555 -0.000812 0.000000 0.000000 -0.112151
# 3 -0.000812 -0.000812 0.017889 0.000000 0.000000 0.000000
# 4 0.000000 0.000000 0.000000 0.031506 0.000000 0.000000
# 5 0.000000 0.000000 0.000000 0.000000 0.031506 0.000000
# 6 0.112151 -0.112151 0.000000 0.000000 0.000000 0.213377
#
#
# Mechanical properties :
#
#
# Convention : Reuss Voigt Hill
#
# Bulk Modulus (GPa) = 20.14404 20.14661 20.14532
# Shear Modulus (GPa) = 7.42617 22.35196 14.88906
#
# Velocity S-wave (km/s) = 1.77236 3.07487 2.50959
# Velocity P-wave (km/s) = 3.56500 4.59656 4.11325
#
# Compressibility (1/GPa) = 0.04964248
#
# Stress axis : x y z
#
# Youngs Moduli (GPa) = 10.14658 10.14658 55.90098
#
# Poissons Ratio (x) = 0.82243 0.04538
# Poissons Ratio (y) = 0.82243 0.04538
# Poissons Ratio (z) = 0.00824 0.00824
#
# Static dielectric constant tensor:
#      x y z
#    x 1.887740 0.000000 0.000000 
#    y 0.000000 1.887740 0.000000 
#    z 0.000000 0.000000 1.866650 
# 
# From -- ./inp_files/618.got.cif
#   From: 2010.05.17/outbox.cif.g08.bks.cpg/sg76_cif.got.tgz:618.got - 2010.06.03 18:43:17.
