data_PCOD9541831
_publ_section_title
;
Structure prediction by ZEFSAII (Michael W. Deem and Ramdas Pophale) SiO2 
 PCOD9541831
Probable space group: I 4
;
_chemical_formula_sum "Si O2"
_cell_formula_units_Z 64
_cell_length_a 20.017635
_cell_length_b 20.017635
_cell_length_c 8.951037
_cell_angle_alpha 90.000000
_cell_angle_beta 90.000000
_cell_angle_gamma 90.000000
_cell_volume 3586.731645
_symmetry_space_group_name_H-M "I 4"
_symmetry_group_IT_number 79
_symmetry_cell_setting 'tetragonal'
loop_
_space_group_symop_operation_xyz
x,y,z
-y,x,z
-x,-y,z
y,-x,z
1/2+x,1/2+y,1/2+z
1/2-y,1/2+x,1/2+z
1/2-x,1/2-y,1/2+z
1/2+y,1/2-x,1/2+z
loop_
_atom_site_type_symbol
_atom_site_label
_atom_site_fract_x
_atom_site_fract_y
_atom_site_fract_z
Si Si1 0.499893 0.261000 0.814340
Si Si2 0.482863 0.610451 0.306421
Si Si3 0.252609 0.145107 0.320742
Si Si4 0.354893 0.752609 0.461630
Si Si5 0.110451 0.017137 0.475953
Si Si6 0.760999 0.000107 0.968033
Si Si7 0.856054 0.763106 0.463345
Si Si8 0.143946 0.236894 0.819028
O O1 0.569626 0.227615 0.866400
O O2 0.519234 0.338185 0.842288
O O3 0.488674 0.245703 0.641187
O O4 0.430549 0.252837 0.901384
O O5 0.427277 0.553581 0.312457
O O6 0.480766 0.661815 0.440086
O O7 0.477887 0.643437 0.141187
O O8 0.185074 0.174459 0.394565
O O9 0.310848 0.198190 0.355093
O O10 0.243052 0.144327 0.141186
O O11 0.430375 0.772385 0.415972
O O12 0.301811 0.810849 0.427279
O O13 0.325541 0.685075 0.387807
O O14 0.053581 0.072723 0.469917
O O15 0.752837 0.069451 0.880990
O O16 0.858684 0.771742 0.641186
#
# Coordination Sequence:
#
# PCOD9541831 Si02
#       8
#     8   8   8   8   8   8   8   8
#     4  11  21  32  49  73 100 129 164 205 251 301
#     4   9  18  31  45  65  96 131 165 199 236 285
#     4   9  20  37  54  75 104 136 169 208 253 301
#     4   9  20  37  54  75 104 136 169 208 253 301
#     4   9  18  31  45  65  96 131 165 199 236 285
#     4  11  21  32  49  73 100 129 164 205 251 301
#     4  10  20  35  55  77 102 133 171 211 251 299
#     4  10  20  35  55  77 102 133 171 211 251 299
#
# _framework density 17.843543
#
# number of rings (size 3 to 8) (size 9 to 14) (size 15 to 20)
#    0.000    2.250    0.000    3.750    0.000    8.000 
#    0.000    1.250    0.000    0.750    0.000    5.250 
#    0.000    0.000    0.000    0.000    0.000    0.000 
#
# Total GULP energy -178400.913266 kJ/mol
# GULP energy per Si atom -5575.028540 kJ/mol
# Density = 1.780293 g / cm^3
# Si number density = 17.843543 Si / 1000 Ang^3
#
#
#
# Elastic Constant Matrix: (Units=GPa)
#
#
# Indices 1 2 3 4 5 6 
#
# 1 97.4454 27.1008 27.7673 0.0000 0.0000 -0.0649
# 2 27.1008 97.4454 27.7673 0.0000 0.0000 0.0649
# 3 27.7673 27.7673 28.1530 0.0000 0.0000 0.0000
# 4 0.0000 0.0000 0.0000 24.3608 0.0000 0.0000
# 5 0.0000 0.0000 0.0000 0.0000 24.3608 0.0000
# 6 -0.0649 0.0649 0.0000 0.0000 0.0000 14.5454
#
#
#
# Elastic Compliance Matrix: (Units=1/GPa)
#
#
# Indices 1 2 3 4 5 6 
#
# 1 0.014274 0.000058 -0.014136 0.000000 0.000000 0.000063
# 2 0.000058 0.014274 -0.014136 0.000000 0.000000 -0.000063
# 3 -0.014136 -0.014136 0.063405 0.000000 0.000000 0.000000
# 4 0.000000 0.000000 0.000000 0.041050 0.000000 0.000000
# 5 0.000000 0.000000 0.000000 0.000000 0.041050 0.000000
# 6 0.000063 -0.000063 0.000000 0.000000 0.000000 0.068751
#
#
# Mechanical properties :
#
#
# Convention : Reuss Voigt Hill
#
# Bulk Modulus (GPa) = 28.14874 43.14607 35.64741
# Shear Modulus (GPa) = 16.07343 22.01394 19.04369
#
# Velocity S-wave (km/s) = 3.00459 3.51625 3.27044
# Velocity P-wave (km/s) = 5.27696 6.38107 5.85510
#
# Compressibility (1/GPa) = 0.03552556
#
# Stress axis : x y z
#
# Youngs Moduli (GPa) = 70.05705 70.05705 15.77167
#
# Poissons Ratio (x) = -0.00408 0.22295
# Poissons Ratio (y) = -0.00408 0.22295
# Poissons Ratio (z) = 0.99032 0.99032
#
# Static dielectric constant tensor:
#      x y z
#    x 1.634590 0.000000 0.000000 
#    y 0.000000 1.634590 0.000000 
#    z 0.000000 0.000000 1.624730 
# 
# From -- ./inp_files/809.got.cif
#   From: 2010.05.17/outbox.cif.g08.bks.cpg/sg79_cif.got.tgz:809.got - 2010.06.03 18:47:27.
