data_PCOD9541369
_publ_section_title
;
Structure prediction by ZEFSAII (Michael W. Deem and Ramdas Pophale) SiO2 
 PCOD9541369
Probable space group: P 41
;
_chemical_formula_sum "Si O2"
_cell_formula_units_Z 20
_cell_length_a 10.128328
_cell_length_b 10.128328
_cell_length_c 9.959882
_cell_angle_alpha 90.000000
_cell_angle_beta 90.000000
_cell_angle_gamma 90.000000
_cell_volume 1021.714855
_symmetry_space_group_name_H-M "P 41"
_symmetry_group_IT_number 76
_symmetry_cell_setting 'tetragonal'
loop_
_space_group_symop_operation_xyz
x,y,z
-y,x,1/4+z
-x,-y,1/2+z
y,-x,3/4+z
loop_
_atom_site_type_symbol
_atom_site_label
_atom_site_fract_x
_atom_site_fract_y
_atom_site_fract_z
Si Si1 0.261911 0.252162 0.455270
Si Si2 0.003713 0.635002 0.048818
Si Si3 0.465032 0.131876 0.017532
Si Si4 0.398302 0.681383 0.699846
Si Si5 0.325702 0.461667 0.231889
O O1 0.125029 0.274079 0.527429
O O2 0.272241 0.357922 0.335515
O O3 0.393153 0.296591 0.536716
O O4 0.287770 0.112668 0.385796
O O5 0.955973 0.513824 0.143870
O O6 0.057941 0.595973 0.899118
O O7 0.586401 0.214915 0.081433
O O8 0.373434 0.251703 0.964252
O O9 0.521807 0.575743 0.691822
O O10 0.439099 0.748102 0.841197
#
# Coordination Sequence:
#
# PCOD9541369 Si02
#       5
#     4   4   4   4   4
#     4  11  23  41  65  96 132 181 221 284 331 401
#     4  12  26  41  66  97 146 181 230 272 352 403
#     4  11  24  40  67 107 137 179 222 292 344 415
#     4   9  18  37  65 101 133 164 215 277 355 389
#     4   9  17  37  69  95 128 161 218 287 336 392
#
# _framework density 19.574933999999999
#
# number of rings (size 3 to 8) (size 9 to 14) (size 15 to 20)
#    0.000    1.600    6.000    1.200    8.400    1.600 
#    0.000    2.000    0.000    0.000    0.000    0.000 
#    0.000    0.000    0.000    0.000    0.000    0.000 
#
# Total GULP energy -111367.499157 kJ/mol
# GULP energy per Si atom -5568.374958 kJ/mol
# Density = 1.953038 g / cm^3
# Si number density = 19.574934 Si / 1000 Ang^3
#
#
#
# Elastic Constant Matrix: (Units=GPa)
#
#
# Indices 1 2 3 4 5 6 
#
# 1 129.4777 40.7849 23.5963 0.0000 0.0000 14.4917
# 2 40.7849 129.4777 23.5963 0.0000 0.0000 -14.4917
# 3 23.5963 23.5963 43.1804 0.0000 0.0000 0.0000
# 4 0.0000 0.0000 0.0000 29.7902 0.0000 0.0000
# 5 0.0000 0.0000 0.0000 0.0000 29.7902 0.0000
# 6 14.4917 -14.4917 0.0000 0.0000 0.0000 26.8267
#
#
#
# Elastic Compliance Matrix: (Units=1/GPa)
#
#
# Indices 1 2 3 4 5 6 
#
# 1 0.010307 -0.003385 -0.003782 0.000000 0.000000 -0.007396
# 2 -0.003385 0.010307 -0.003782 0.000000 0.000000 0.007396
# 3 -0.003782 -0.003782 0.027293 0.000000 0.000000 0.000000
# 4 0.000000 0.000000 0.000000 0.033568 0.000000 0.000000
# 5 0.000000 0.000000 0.000000 0.000000 0.033568 0.000000
# 6 -0.007396 0.007396 0.000000 0.000000 0.000000 0.045267
#
#
# Mechanical properties :
#
#
# Convention : Reuss Voigt Hill
#
# Bulk Modulus (GPa) = 38.45232 53.12120 45.78676
# Shear Modulus (GPa) = 26.19470 31.55861 28.87665
#
# Velocity S-wave (km/s) = 3.66208 4.01957 3.84498
# Velocity P-wave (km/s) = 6.12922 6.98132 6.56910
#
# Compressibility (1/GPa) = 0.02600624
#
# Stress axis : x y z
#
# Youngs Moduli (GPa) = 97.02359 97.02359 36.64003
#
# Poissons Ratio (x) = 0.32843 0.13859
# Poissons Ratio (y) = 0.32843 0.13859
# Poissons Ratio (z) = 0.36698 0.36698
#
# Static dielectric constant tensor:
#      x y z
#    x 1.747290 0.000000 0.000000 
#    y 0.000000 1.747290 0.000000 
#    z 0.000000 0.000000 1.761920 
# 
# From -- ./inp_files/804.got.cif
#   From: 2010.05.17/outbox.cif.g08.bks.cpg/sg76_cif.got.tgz:804.got - 2010.06.03 18:43:17.
