data_PCOD9541557
_publ_section_title
;
Structure prediction by ZEFSAII (Michael W. Deem and Ramdas Pophale) SiO2 
 PCOD9541557
Probable space group: P 42
;
_chemical_formula_sum "Si O2"
_cell_formula_units_Z 16
_cell_length_a 8.905110
_cell_length_b 8.905110
_cell_length_c 7.965596
_cell_angle_alpha 90.000000
_cell_angle_beta 90.000000
_cell_angle_gamma 90.000000
_cell_volume 631.679602
_symmetry_space_group_name_H-M "P 42"
_symmetry_group_IT_number 77
_symmetry_cell_setting 'tetragonal'
loop_
_space_group_symop_operation_xyz
x,y,z
-y,x,1/2+z
-x,-y,z
y,-x,1/2+z
loop_
_atom_site_type_symbol
_atom_site_label
_atom_site_fract_x
_atom_site_fract_y
_atom_site_fract_z
Si Si1 0.596384 0.311690 0.977550
Si Si2 0.678507 0.017502 0.116683
Si Si3 0.599023 0.273211 0.598516
Si Si4 0.088075 0.151441 0.947350
O O1 0.552592 0.265417 0.791032
O O2 0.697196 0.188890 0.065058
O O3 0.699731 0.459293 0.976430
O O4 0.441254 0.329936 0.079168
O O5 0.780501 0.004931 0.284080
O O6 0.500000 0.000000 0.144320
O O7 0.742782 0.919493 0.961882
O O8 0.701261 0.130121 0.556313
O O9 0.000000 0.000000 0.000806
#
# Coordination Sequence:
#
# PCOD9541557 Si02
#       4
#     4   4   4   4
#     4  11  23  44  81 114 157 205 286 339 400 468
#     4  12  28  52  81 116 165 215 278 337 413 487
#     4  11  23  45  78 116 157 210 272 349 397 476
#     4  12  29  50  74 115 166 215 262 327 419 499
#
# _framework density 25.329298999999999
#
# number of rings (size 3 to 8) (size 9 to 14) (size 15 to 20)
#    0.000    0.500    2.500    6.750    7.000    0.000 
#    0.000    3.750    0.000    0.000    0.000    0.000 
#    0.000    0.000    0.000    0.000    0.000    0.000 
#
# Total GULP energy -89183.870557 kJ/mol
# GULP energy per Si atom -5573.991910 kJ/mol
# Density = 2.527165 g / cm^3
# Si number density = 25.329299 Si / 1000 Ang^3
#
#
#
# Elastic Constant Matrix: (Units=GPa)
#
#
# Indices 1 2 3 4 5 6 
#
# 1 85.3763 26.4090 11.3509 0.0000 0.0000 10.7908
# 2 26.4090 85.3763 11.3509 0.0000 0.0000 -10.7908
# 3 11.3509 11.3509 68.5092 0.0000 0.0000 0.0000
# 4 0.0000 0.0000 0.0000 30.4016 0.0000 0.0000
# 5 0.0000 0.0000 0.0000 0.0000 30.4016 0.0000
# 6 10.7908 -10.7908 0.0000 0.0000 0.0000 51.7715
#
#
#
# Elastic Compliance Matrix: (Units=1/GPa)
#
#
# Indices 1 2 3 4 5 6 
#
# 1 0.013808 -0.004551 -0.001534 0.000000 0.000000 -0.003827
# 2 -0.004551 0.013808 -0.001534 0.000000 0.000000 0.003827
# 3 -0.001534 -0.001534 0.015105 0.000000 0.000000 0.000000
# 4 0.000000 0.000000 0.000000 0.032893 0.000000 0.000000
# 5 0.000000 0.000000 0.000000 0.000000 0.032893 0.000000
# 6 -0.003827 0.003827 0.000000 0.000000 0.000000 0.020911
#
#
# Mechanical properties :
#
#
# Convention : Reuss Voigt Hill
#
# Bulk Modulus (GPa) = 36.38463 37.49816 36.94139
# Shear Modulus (GPa) = 32.50633 35.19167 33.84900
#
# Velocity S-wave (km/s) = 3.58627 3.73146 3.65959
# Velocity P-wave (km/s) = 5.61643 5.77940 5.69850
#
# Compressibility (1/GPa) = 0.02748413
#
# Stress axis : x y z
#
# Youngs Moduli (GPa) = 72.42119 72.42119 66.20406
#
# Poissons Ratio (x) = 0.32958 0.10154
# Poissons Ratio (y) = 0.32958 0.10154
# Poissons Ratio (z) = 0.11108 0.11108
#
# Static dielectric constant tensor:
#      x y z
#    x 2.101140 0.000000 0.000000 
#    y 0.000000 2.101140 0.000000 
#    z 0.000000 0.000000 1.977490 
# 
# From -- ./inp_files/253.got.cif
#   From: 2010.05.17/outbox.cif.g08.bks.cpg/sg77_cif.got.tgz:253.got - 2010.06.03 18:44:51.
