data_PCOD9541204
_publ_section_title
;
Structure prediction by ZEFSAII (Michael W. Deem and Ramdas Pophale) SiO2 
 PCOD9541204
Probable space group: P 41
;
_chemical_formula_sum "Si O2"
_cell_formula_units_Z 28
_cell_length_a 8.722872
_cell_length_b 8.722872
_cell_length_c 18.030815
_cell_angle_alpha 90.000000
_cell_angle_beta 90.000000
_cell_angle_gamma 90.000000
_cell_volume 1371.937594
_symmetry_space_group_name_H-M "P 41"
_symmetry_group_IT_number 76
_symmetry_cell_setting 'tetragonal'
loop_
_space_group_symop_operation_xyz
x,y,z
-y,x,1/4+z
-x,-y,1/2+z
y,-x,3/4+z
loop_
_atom_site_type_symbol
_atom_site_label
_atom_site_fract_x
_atom_site_fract_y
_atom_site_fract_z
Si Si1 0.006727 0.532733 0.204540
Si Si2 0.538847 0.511125 0.615465
Si Si3 0.670767 0.014049 0.797217
Si Si4 0.539350 0.795755 0.191267
Si Si5 0.674884 0.242041 0.048327
Si Si6 0.076222 0.748028 0.320471
Si Si7 0.286470 0.325079 0.238081
O O1 0.997432 0.551803 0.116317
O O2 0.080512 0.692626 0.234873
O O3 0.116772 0.398837 0.233777
O O4 0.843823 0.544396 0.247869
O O5 0.501565 0.380072 0.675530
O O6 0.395344 0.615360 0.591904
O O7 0.603284 0.409900 0.547033
O O8 0.650059 0.630926 0.656534
O O9 0.715179 0.851296 0.762531
O O10 0.593478 0.114144 0.732254
O O11 0.816870 0.106641 0.828659
O O12 0.687630 0.798289 0.243357
O O13 0.601897 0.861720 0.115021
O O14 0.753983 0.102689 0.091973
#
# Coordination Sequence:
#
# PCOD9541204 Si02
#       7
#     4   4   4   4   4   4   4
#     4  10  23  44  66 101 135 185 234 279 358 419
#     4  12  22  41  69 107 131 179 247 296 337 410
#     4  12  25  42  70 103 143 183 237 285 362 431
#     4  12  22  40  73  96 132 187 240 289 341 422
#     4  10  23  38  67  97 133 171 238 286 339 411
#     4  10  21  43  63  97 135 188 225 280 360 421
#     4  12  24  40  70 103 141 185 235 293 351 422
#
# _framework density 20.409089999999999
#
# number of rings (size 3 to 8) (size 9 to 14) (size 15 to 20)
#    0.857    0.000    5.714    2.571    0.000    0.000 
#    0.000    4.286    0.000    0.000    0.000    0.000 
#    0.000    0.000    0.000    0.000    0.000    0.000 
#
# Total GULP energy -155927.893107 kJ/mol
# GULP energy per Si atom -5568.853325 kJ/mol
# Density = 2.036264 g / cm^3
# Si number density = 20.409090 Si / 1000 Ang^3
#
#
#
# Elastic Constant Matrix: (Units=GPa)
#
#
# Indices 1 2 3 4 5 6 
#
# 1 101.7428 44.1230 32.3322 0.0000 0.0000 2.1654
# 2 44.1230 101.7428 32.3322 0.0000 0.0000 -2.1654
# 3 32.3322 32.3322 59.1106 0.0000 0.0000 0.0000
# 4 0.0000 0.0000 0.0000 31.4595 0.0000 0.0000
# 5 0.0000 0.0000 0.0000 0.0000 31.4595 0.0000
# 6 2.1654 -2.1654 0.0000 0.0000 0.0000 22.9344
#
#
#
# Elastic Compliance Matrix: (Units=1/GPa)
#
#
# Indices 1 2 3 4 5 6 
#
# 1 0.013265 -0.004215 -0.004950 0.000000 0.000000 -0.001650
# 2 -0.004215 0.013265 -0.004950 0.000000 0.000000 0.001650
# 3 -0.004950 -0.004950 0.022333 0.000000 0.000000 0.000000
# 4 0.000000 0.000000 0.000000 0.031787 0.000000 0.000000
# 5 0.000000 0.000000 0.000000 0.000000 0.031787 0.000000
# 6 -0.001650 0.001650 0.000000 0.000000 0.000000 0.043914
#
#
# Mechanical properties :
#
#
# Convention : Reuss Voigt Hill
#
# Bulk Modulus (GPa) = 48.46810 53.35234 50.91022
# Shear Modulus (GPa) = 26.11546 27.42460 26.77003
#
# Velocity S-wave (km/s) = 3.58103 3.66969 3.62563
# Velocity P-wave (km/s) = 6.39517 6.64482 6.52119
#
# Compressibility (1/GPa) = 0.02063213
#
# Stress axis : x y z
#
# Youngs Moduli (GPa) = 75.38828 75.38828 44.77727
#
# Poissons Ratio (x) = 0.31773 0.22166
# Poissons Ratio (y) = 0.31773 0.22166
# Poissons Ratio (z) = 0.37319 0.37319
#
# Static dielectric constant tensor:
#      x y z
#    x 1.749490 0.000000 0.000000 
#    y 0.000000 1.749490 0.000000 
#    z 0.000000 0.000000 1.840110 
# 
# From -- ./inp_files/1367.got.cif
#   From: 2010.05.17/outbox.cif.g08.bks.cpg/sg76_cif.got.tgz:1367.got - 2010.06.03 18:43:17.
