data_PCOD9541917
_publ_section_title
;
Structure prediction by ZEFSAII (Michael W. Deem and Ramdas Pophale) SiO2 
 PCOD9541917
Probable space group: I 4
;
_chemical_formula_sum "Si O2"
_cell_formula_units_Z 48
_cell_length_a 13.589119
_cell_length_b 13.589119
_cell_length_c 10.622616
_cell_angle_alpha 90.000000
_cell_angle_beta 90.000000
_cell_angle_gamma 90.000000
_cell_volume 1961.616410
_symmetry_space_group_name_H-M "I 4"
_symmetry_group_IT_number 79
_symmetry_cell_setting 'tetragonal'
loop_
_space_group_symop_operation_xyz
x,y,z
-y,x,z
-x,-y,z
y,-x,z
1/2+x,1/2+y,1/2+z
1/2-y,1/2+x,1/2+z
1/2-x,1/2-y,1/2+z
1/2+y,1/2-x,1/2+z
loop_
_atom_site_type_symbol
_atom_site_label
_atom_site_fract_x
_atom_site_fract_y
_atom_site_fract_z
Si Si1 0.172768 0.312040 0.808810
Si Si2 0.047354 0.354105 0.042338
Si Si3 0.443299 0.356294 0.641765
Si Si4 0.768659 0.002009 0.373251
Si Si5 0.190577 0.364744 0.386676
Si Si6 0.006538 0.705703 0.645726
O O1 0.241696 0.405964 0.791887
O O2 0.233390 0.226542 0.879281
O O3 0.107050 0.283474 0.688951
O O4 0.094161 0.358006 0.904586
O O5 0.096868 0.448508 0.110161
O O6 0.087608 0.253005 0.103864
O O7 0.934205 0.331083 0.007571
O O8 0.553365 0.379753 0.592532
O O9 0.449055 0.355704 0.794122
O O10 0.681945 0.082898 0.365078
O O11 0.772180 0.976612 0.521162
O O12 0.229540 0.430370 0.269840
#
# Coordination Sequence:
#
# PCOD9541917 Si02
#       6
#     8   8   8   8   8   8
#     4  10  24  42  67  97 135 182 231 289 350 428
#     4  10  22  42  66  96 132 170 232 286 354 417
#     4  11  23  40  63  93 132 177 226 282 346 422
#     4  11  24  39  62  93 133 172 224 280 346 413
#     4  11  23  42  66  95 136 181 229 288 354 424
#     4  10  24  42  65 100 133 179 232 289 357 417
#
# _framework density 24.469618000000001
#
# number of rings (size 3 to 8) (size 9 to 14) (size 15 to 20)
#    0.000    1.500    1.667    2.000    2.333   11.333 
#    0.000    0.000    0.000    4.500    0.000    0.000 
#    0.000    0.000    0.000    0.000    0.000    0.000 
#
# Total GULP energy -133755.191343 kJ/mol
# GULP energy per Si atom -5573.132973 kJ/mol
# Density = 2.441392 g / cm^3
# Si number density = 24.469618 Si / 1000 Ang^3
#
#
#
# Elastic Constant Matrix: (Units=GPa)
#
#
# Indices 1 2 3 4 5 6 
#
# 1 97.6503 31.0669 -5.0431 0.0000 0.0000 2.5492
# 2 31.0669 97.6503 -5.0431 0.0000 0.0000 -2.5492
# 3 -5.0431 -5.0431 54.5824 0.0000 0.0000 0.0000
# 4 0.0000 0.0000 0.0000 34.1984 0.0000 0.0000
# 5 0.0000 0.0000 0.0000 0.0000 34.1984 0.0000
# 6 2.5492 -2.5492 0.0000 0.0000 0.0000 26.2556
#
#
#
# Elastic Compliance Matrix: (Units=1/GPa)
#
#
# Indices 1 2 3 4 5 6 
#
# 1 0.011478 -0.003653 0.000723 0.000000 0.000000 -0.001469
# 2 -0.003653 0.011478 0.000723 0.000000 0.000000 0.001469
# 3 0.000723 0.000723 0.018455 0.000000 0.000000 0.000000
# 4 0.000000 0.000000 0.000000 0.029241 0.000000 0.000000
# 5 0.000000 0.000000 0.000000 0.000000 0.029241 0.000000
# 6 -0.001469 0.001469 0.000000 0.000000 0.000000 0.038372
#
#
# Mechanical properties :
#
#
# Convention : Reuss Voigt Hill
#
# Bulk Modulus (GPa) = 27.02850 32.42714 29.72782
# Shear Modulus (GPa) = 32.25553 34.19064 33.22308
#
# Velocity S-wave (km/s) = 3.63462 3.74206 3.68873
# Velocity P-wave (km/s) = 5.35572 5.65256 5.50614
#
# Compressibility (1/GPa) = 0.03699798
#
# Stress axis : x y z
#
# Youngs Moduli (GPa) = 87.11983 87.11983 54.18724
#
# Poissons Ratio (x) = 0.31823 -0.03918
# Poissons Ratio (y) = 0.31823 -0.03918
# Poissons Ratio (z) = -0.06299 -0.06299
#
# Static dielectric constant tensor:
#      x y z
#    x 1.993330 0.000000 0.000000 
#    y 0.000000 1.993330 0.000000 
#    z 0.000000 0.000000 2.011430 
# 
# From -- ./inp_files/1069.got.cif
#   From: 2010.05.17/outbox.cif.g08.bks.cpg/sg79_cif.got.tgz:1069.got - 2010.06.03 18:47:27.
