data_PCOD9541746
_publ_section_title
;
Structure prediction by ZEFSAII (Michael W. Deem and Ramdas Pophale) SiO2 
 PCOD9541746
Probable space group: P 43
;
_chemical_formula_sum "Si O2"
_cell_formula_units_Z 28
_cell_length_a 8.577554
_cell_length_b 8.577554
_cell_length_c 14.102804
_cell_angle_alpha 90.000000
_cell_angle_beta 90.000000
_cell_angle_gamma 90.000000
_cell_volume 1037.605803
_symmetry_space_group_name_H-M "P 43"
_symmetry_group_IT_number 78
_symmetry_cell_setting 'tetragonal'
loop_
_space_group_symop_operation_xyz
x,y,z
-y,x,3/4+z
-x,-y,1/2+z
y,-x,1/4+z
loop_
_atom_site_type_symbol
_atom_site_label
_atom_site_fract_x
_atom_site_fract_y
_atom_site_fract_z
Si Si1 0.131058 0.079937 0.814420
Si Si2 0.022367 0.629907 0.416555
Si Si3 0.584943 0.824733 0.047184
Si Si4 0.577213 0.586362 0.218458
Si Si5 0.651463 0.287337 0.988052
Si Si6 0.461639 0.107551 0.845541
Si Si7 0.036497 0.191771 0.353865
O O1 0.084768 0.240322 0.866556
O O2 0.293535 0.032284 0.866293
O O3 0.187422 0.052595 0.705642
O O4 0.967142 0.989326 0.825047
O O5 0.971182 0.482913 0.354299
O O6 0.980669 0.573236 0.522405
O O7 0.204013 0.668700 0.419458
O O8 0.565279 0.682151 0.120834
O O9 0.496674 0.746066 0.961438
O O10 0.753579 0.894982 0.031576
O O11 0.436613 0.464484 0.240001
O O12 0.574280 0.725810 0.294954
O O13 0.730712 0.202247 0.079185
O O14 0.552834 0.151377 0.938824
#
# Coordination Sequence:
#
# PCOD9541746 Si02
#       7
#     4   4   4   4   4   4   4
#     4  12  26  52  74 108 160 203 260 316 402 484
#     4  11  25  47  75 106 151 200 259 314 392 469
#     4  11  23  45  72 104 145 193 257 307 390 455
#     4  11  22  47  73 109 142 199 256 318 379 467
#     4  12  29  44  78 116 156 197 267 332 390 467
#     4  11  24  49  75 108 146 209 257 317 400 467
#     4  12  29  46  73 113 154 203 254 326 399 461
#
# _framework density 26.985202999999998
#
# number of rings (size 3 to 8) (size 9 to 14) (size 15 to 20)
#    0.000    0.571    5.714    1.714   10.000    3.429 
#    0.000    0.000    0.000    0.000    0.000    0.000 
#    0.000    0.000    0.000    0.000    0.000    0.000 
#
# Total GULP energy -156328.663666 kJ/mol
# GULP energy per Si atom -5583.166559 kJ/mol
# Density = 2.692378 g / cm^3
# Si number density = 26.985203 Si / 1000 Ang^3
#
#
#
# Elastic Constant Matrix: (Units=GPa)
#
#
# Indices 1 2 3 4 5 6 
#
# 1 98.1328 41.0547 27.1523 0.0000 0.0000 -1.6488
# 2 41.0547 98.1328 27.1523 0.0000 0.0000 1.6488
# 3 27.1523 27.1523 60.6260 0.0000 0.0000 0.0000
# 4 0.0000 0.0000 0.0000 31.9940 0.0000 0.0000
# 5 0.0000 0.0000 0.0000 0.0000 31.9940 0.0000
# 6 -1.6488 1.6488 0.0000 0.0000 0.0000 53.6943
#
#
#
# Elastic Compliance Matrix: (Units=1/GPa)
#
#
# Indices 1 2 3 4 5 6 
#
# 1 0.013128 -0.004423 -0.003899 0.000000 0.000000 0.000539
# 2 -0.004423 0.013128 -0.003899 0.000000 0.000000 -0.000539
# 3 -0.003899 -0.003899 0.019987 0.000000 0.000000 0.000000
# 4 0.000000 0.000000 0.000000 0.031256 0.000000 0.000000
# 5 0.000000 0.000000 0.000000 0.000000 0.031256 0.000000
# 6 0.000539 -0.000539 0.000000 0.000000 0.000000 0.018657
#
#
# Mechanical properties :
#
#
# Convention : Reuss Voigt Hill
#
# Bulk Modulus (GPa) = 45.86626 49.73447 47.80036
# Shear Modulus (GPa) = 31.42255 34.30528 32.86391
#
# Velocity S-wave (km/s) = 3.41609 3.56934 3.49356
# Velocity P-wave (km/s) = 5.70905 5.95460 5.83312
#
# Compressibility (1/GPa) = 0.02180252
#
# Stress axis : x y z
#
# Youngs Moduli (GPa) = 76.17082 76.17082 50.03238
#
# Poissons Ratio (x) = 0.33687 0.19508
# Poissons Ratio (y) = 0.33687 0.19508
# Poissons Ratio (z) = 0.29699 0.29699
#
# Static dielectric constant tensor:
#      x y z
#    x 2.183890 0.000000 0.000000 
#    y 0.000000 2.183890 0.000000 
#    z 0.000000 0.000000 2.171290 
# 
# From -- ./inp_files/1322.got.cif
#   From: 2010.05.17/outbox.cif.g08.bks.cpg/sg78_cif.got.tgz:1322.got - 2010.06.03 18:45:56.
