data_PCOD9541646
_publ_section_title
;
Structure prediction by ZEFSAII (Michael W. Deem and Ramdas Pophale) SiO2 
 PCOD9541646
Probable space group: P 43
;
_chemical_formula_sum "Si O2"
_cell_formula_units_Z 28
_cell_length_a 12.499055
_cell_length_b 12.499055
_cell_length_c 10.283567
_cell_angle_alpha 90.000000
_cell_angle_beta 90.000000
_cell_angle_gamma 90.000000
_cell_volume 1606.564404
_symmetry_space_group_name_H-M "P 43"
_symmetry_group_IT_number 78
_symmetry_cell_setting 'tetragonal'
loop_
_space_group_symop_operation_xyz
x,y,z
-y,x,3/4+z
-x,-y,1/2+z
y,-x,1/4+z
loop_
_atom_site_type_symbol
_atom_site_label
_atom_site_fract_x
_atom_site_fract_y
_atom_site_fract_z
Si Si1 0.096522 0.647729 0.156900
Si Si2 0.263848 0.828159 0.105220
Si Si3 0.251451 0.822266 0.531316
Si Si4 0.992732 0.089243 0.256358
Si Si5 0.682918 0.950772 0.692753
Si Si6 0.257030 0.875721 0.814656
Si Si7 0.139500 0.420974 0.065236
O O1 0.173654 0.749673 0.155747
O O2 0.074324 0.621824 0.308428
O O3 0.148995 0.545348 0.090299
O O4 0.988269 0.682051 0.083049
O O5 0.374267 0.810080 0.182735
O O6 0.238493 0.952033 0.144873
O O7 0.274537 0.817191 0.951340
O O8 0.198092 0.939794 0.512867
O O9 0.153076 0.742410 0.497466
O O10 0.287112 0.816676 0.681225
O O11 0.348494 0.814454 0.431233
O O12 0.988926 0.046291 0.110623
O O13 0.870379 0.104727 0.300253
O O14 0.608376 0.012953 0.795489
#
# Coordination Sequence:
#
# PCOD9541646 Si02
#       7
#     4   4   4   4   4   4   4
#     4  11  21  36  56  81 119 156 196 233 284 357
#     4   9  20  38  54  78 112 153 186 231 288 340
#     4  11  20  35  54  81 115 149 195 234 279 351
#     4  10  21  27  45  74 106 149 182 225 265 334
#     4   9  20  36  56  84 115 150 187 240 290 341
#     4  10  22  31  49  80 112 148 189 231 287 335
#     4  10  22  35  58  80 111 157 189 234 289 340
#
# _framework density 17.428495999999999
#
# number of rings (size 3 to 8) (size 9 to 14) (size 15 to 20)
#    0.857    1.143    1.429    3.429    8.000    0.000 
#    0.000    0.000    0.000    0.000    0.000    6.000 
#    0.000    0.000    0.000    0.000    0.000    0.000 
#
# Total GULP energy -155975.892962 kJ/mol
# GULP energy per Si atom -5570.567606 kJ/mol
# Density = 1.738883 g / cm^3
# Si number density = 17.428496 Si / 1000 Ang^3
#
#
#
# Elastic Constant Matrix: (Units=GPa)
#
#
# Indices 1 2 3 4 5 6 
#
# 1 29.4998 -15.0343 -6.8950 0.0000 0.0000 6.7329
# 2 -15.0343 29.4998 -6.8950 0.0000 0.0000 -6.7329
# 3 -6.8950 -6.8950 69.3472 0.0000 0.0000 0.0000
# 4 0.0000 0.0000 0.0000 13.7990 0.0000 0.0000
# 5 0.0000 0.0000 0.0000 0.0000 13.7990 0.0000
# 6 6.7329 -6.7329 0.0000 0.0000 0.0000 3.3986
#
#
#
# Elastic Compliance Matrix: (Units=1/GPa)
#
#
# Indices 1 2 3 4 5 6 
#
# 1 0.066184 0.010184 0.007593 0.000000 0.000000 -0.110942
# 2 0.010184 0.066184 0.007593 0.000000 0.000000 0.110942
# 3 0.007593 0.007593 0.015930 0.000000 0.000000 0.000000
# 4 0.000000 0.000000 0.000000 0.072469 0.000000 0.000000
# 5 0.000000 0.000000 0.000000 0.000000 0.072469 0.000000
# 6 -0.110942 0.110942 0.000000 0.000000 0.000000 0.733812
#
#
# Mechanical properties :
#
#
# Convention : Reuss Voigt Hill
#
# Bulk Modulus (GPa) = 5.02413 7.85536 6.43975
# Shear Modulus (GPa) = 4.79545 16.67738 10.73642
#
# Velocity S-wave (km/s) = 1.66056 3.09674 2.48468
# Velocity P-wave (km/s) = 2.56234 4.15973 3.45463
#
# Compressibility (1/GPa) = 0.19903941
#
# Stress axis : x y z
#
# Youngs Moduli (GPa) = 15.10932 15.10932 62.77420
#
# Poissons Ratio (x) = -0.15388 -0.47665
# Poissons Ratio (y) = -0.15388 -0.47665
# Poissons Ratio (z) = -0.11473 -0.11473
#
# Static dielectric constant tensor:
#      x y z
#    x 1.586830 0.000000 0.000000 
#    y 0.000000 1.586830 0.000000 
#    z 0.000000 0.000000 1.648320 
# 
# From -- ./inp_files/912.got.cif
#   From: 2010.05.17/outbox.cif.g08.bks.cpg/sg78_cif.got.tgz:912.got - 2010.06.03 18:45:56.
