data_PCOD9541574
_publ_section_title
;
Structure prediction by ZEFSAII (Michael W. Deem and Ramdas Pophale) SiO2 
 PCOD9541574
Probable space group: P 42
;
_chemical_formula_sum "Si O2"
_cell_formula_units_Z 12
_cell_length_a 5.218403
_cell_length_b 5.218403
_cell_length_c 17.587624
_cell_angle_alpha 90.000000
_cell_angle_beta 90.000000
_cell_angle_gamma 90.000000
_cell_volume 478.941426
_symmetry_space_group_name_H-M "P 42"
_symmetry_group_IT_number 77
_symmetry_cell_setting 'tetragonal'
loop_
_space_group_symop_operation_xyz
x,y,z
-y,x,1/2+z
-x,-y,z
y,-x,1/2+z
loop_
_atom_site_type_symbol
_atom_site_label
_atom_site_fract_x
_atom_site_fract_y
_atom_site_fract_z
Si Si1 0.000000 0.000000 0.625000
Si Si2 0.158400 0.266360 0.416888
Si Si3 0.500000 0.000000 0.518242
Si Si4 0.242843 0.648829 0.753959
O O1 0.250587 0.026831 0.572097
O O2 0.106662 0.786836 0.683300
O O3 0.192549 0.322521 0.327752
O O4 0.000000 0.500000 0.452677
O O5 0.429521 0.225340 0.458831
O O6 0.000000 0.000000 0.422743
O O7 0.500000 0.500000 0.728970
O O8 0.000000 0.500000 0.787517
#
# Coordination Sequence:
#
# PCOD9541574 Si02
#       4
#     2   4   2   4
#     4  12  28  50  76 116 174 214 278 348 440 494
#     4  12  27  51  82 116 166 222 287 353 421 510
#     4  12  28  52  76 122 164 228 272 362 430 508
#     4  12  26  47  80 120 160 220 284 351 421 510
#
# _framework density 25.055257000000001
#
# number of rings (size 3 to 8) (size 9 to 14) (size 15 to 20)
#    0.000    0.000    5.000    4.000    2.333    4.000 
#    6.000    0.000    0.000    0.000    0.000    0.000 
#    0.000    0.000    0.000    0.000    0.000    0.000 
#
# Total GULP energy -66961.211582 kJ/mol
# GULP energy per Si atom -5580.100965 kJ/mol
# Density = 2.499823 g / cm^3
# Si number density = 25.055257 Si / 1000 Ang^3
#
#
#
# Elastic Constant Matrix: (Units=GPa)
#
#
# Indices 1 2 3 4 5 6 
#
# 1 183.2897 94.1951 52.3198 0.0000 0.0000 -12.7175
# 2 94.1951 183.2897 52.3198 0.0000 0.0000 12.7175
# 3 52.3198 52.3198 153.0896 0.0000 0.0000 0.0000
# 4 0.0000 0.0000 0.0000 -107.8860 0.0000 0.0000
# 5 0.0000 0.0000 0.0000 0.0000 -107.8860 0.0000
# 6 -12.7175 12.7175 0.0000 0.0000 0.0000 74.1354
#
#
#
# Elastic Compliance Matrix: (Units=1/GPa)
#
#
# Indices 1 2 3 4 5 6 
#
# 1 0.007969 -0.003833 -0.001414 0.000000 0.000000 0.002025
# 2 -0.003833 0.007969 -0.001414 0.000000 0.000000 -0.002025
# 3 -0.001414 -0.001414 0.007499 0.000000 0.000000 0.000000
# 4 0.000000 0.000000 0.000000 -0.009269 0.000000 0.000000
# 5 0.000000 0.000000 0.000000 0.000000 -0.009269 0.000000
# 6 0.002025 -0.002025 0.000000 0.000000 0.000000 0.014183
#
#
# Mechanical properties :
#
#
# Convention : Reuss Voigt Hill
#
# Bulk Modulus (GPa) = 98.84299 101.92648 100.38474
# Shear Modulus (GPa) = 139.76012 -6.93837 66.41088
#
# Velocity S-wave (km/s) = 7.47675 -1.66590 5.15396
# Velocity P-wave (km/s) = 10.68042 6.08840 8.69310
#
# Compressibility (1/GPa) = 0.01011706
#
# Stress axis : x y z
#
# Youngs Moduli (GPa) = 125.47872 125.47872 133.35984
#
# Poissons Ratio (x) = 0.48090 0.18855
# Poissons Ratio (y) = 0.48090 0.18855
# Poissons Ratio (z) = 0.17741 0.17741
#
# Static dielectric constant tensor:
#      x y z
#    x 2.044410 0.000000 0.000000 
#    y 0.000000 2.044410 0.000000 
#    z 0.000000 0.000000 2.051820 
# 
# From -- ./inp_files/1217.got.cif
#   From: 2010.05.17/outbox.cif.g08.bks.cpg/sg77_cif.got.tgz:1217.got - 2010.06.03 18:44:51.
