data_PCOD9541776
_publ_section_title
;
Structure prediction by ZEFSAII (Michael W. Deem and Ramdas Pophale) SiO2 
 PCOD9541776
Probable space group: P 43
;
_chemical_formula_sum "Si O2"
_cell_formula_units_Z 28
_cell_length_a 13.870622
_cell_length_b 13.870622
_cell_length_c 6.885260
_cell_angle_alpha 90.000000
_cell_angle_beta 90.000000
_cell_angle_gamma 90.000000
_cell_volume 1324.683777
_symmetry_space_group_name_H-M "P 43"
_symmetry_group_IT_number 78
_symmetry_cell_setting 'tetragonal'
loop_
_space_group_symop_operation_xyz
x,y,z
-y,x,3/4+z
-x,-y,1/2+z
y,-x,1/4+z
loop_
_atom_site_type_symbol
_atom_site_label
_atom_site_fract_x
_atom_site_fract_y
_atom_site_fract_z
Si Si1 0.388544 0.427183 0.691690
Si Si2 0.600450 0.047197 0.412596
Si Si3 0.219027 0.394688 0.396916
Si Si4 0.729701 0.998267 0.785626
Si Si5 0.787126 0.795493 0.648080
Si Si6 0.596069 0.757850 0.405225
Si Si7 0.594035 0.896291 0.095626
O O1 0.468353 0.404544 0.530568
O O2 0.289425 0.415853 0.575712
O O3 0.397278 0.356924 0.878611
O O4 0.637354 0.118737 0.247547
O O5 0.502479 0.096140 0.477016
O O6 0.662174 0.022650 0.600676
O O7 0.578387 0.950020 0.299470
O O8 0.243121 0.297733 0.277556
O O9 0.216369 0.493665 0.263919
O O10 0.792836 0.904478 0.730901
O O11 0.774111 0.103471 0.828338
O O12 0.671635 0.952581 0.967672
O O13 0.694153 0.796844 0.504544
O O14 0.607161 0.790238 0.178184
#
# Coordination Sequence:
#
# PCOD9541776 Si02
#       7
#     4   4   4   4   4   4   4
#     4  12  24  41  62  97 144 196 232 274 340 436
#     4  12  22  42  70 107 136 174 225 299 369 409
#     4  12  24  44  70 105 139 184 237 298 357 422
#     4  12  26  46  68 102 142 184 242 286 360 430
#     4  12  26  47  70 101 140 188 238 294 352 428
#     4  12  24  44  70 105 139 184 237 298 357 422
#     4  12  22  42  70 107 136 174 225 299 369 409
#
# _framework density 21.137118999999998
#
# number of rings (size 3 to 8) (size 9 to 14) (size 15 to 20)
#    0.000    0.000    4.286    7.714    0.000    0.000 
#    0.000    2.857    0.000    0.000    0.000    0.000 
#    0.000    0.000    0.000    0.000    0.000    0.000 
#
# Total GULP energy -156103.884365 kJ/mol
# GULP energy per Si atom -5575.138727 kJ/mol
# Density = 2.108901 g / cm^3
# Si number density = 21.137119 Si / 1000 Ang^3
#
#
#
# Elastic Constant Matrix: (Units=GPa)
#
#
# Indices 1 2 3 4 5 6 
#
# 1 105.9488 13.5744 40.9471 0.0000 0.0000 2.8655
# 2 13.5744 105.9488 40.9471 0.0000 0.0000 -2.8655
# 3 40.9471 40.9471 116.3440 0.0000 0.0000 0.0000
# 4 0.0000 0.0000 0.0000 35.0923 0.0000 0.0000
# 5 0.0000 0.0000 0.0000 0.0000 35.0923 0.0000
# 6 2.8655 -2.8655 0.0000 0.0000 0.0000 26.6193
#
#
#
# Elastic Compliance Matrix: (Units=1/GPa)
#
#
# Indices 1 2 3 4 5 6 
#
# 1 0.010962 0.000063 -0.003880 0.000000 0.000000 -0.001173
# 2 0.000063 0.010962 -0.003880 0.000000 0.000000 0.001173
# 3 -0.003880 -0.003880 0.011327 0.000000 0.000000 0.000000
# 4 0.000000 0.000000 0.000000 0.028496 0.000000 0.000000
# 5 0.000000 0.000000 0.000000 0.000000 0.028496 0.000000
# 6 -0.001173 0.001173 0.000000 0.000000 0.000000 0.037819
#
#
# Mechanical properties :
#
#
# Convention : Reuss Voigt Hill
#
# Bulk Modulus (GPa) = 56.00426 57.68655 56.84540
# Shear Modulus (GPa) = 33.46534 34.87898 34.17216
#
# Velocity S-wave (km/s) = 3.98332 4.06659 4.02517
# Velocity P-wave (km/s) = 6.90717 7.02854 6.96812
#
# Compressibility (1/GPa) = 0.01785578
#
# Stress axis : x y z
#
# Youngs Moduli (GPa) = 91.22603 91.22603 88.28812
#
# Poissons Ratio (x) = -0.00579 0.34259
# Poissons Ratio (y) = -0.00579 0.34259
# Poissons Ratio (z) = 0.35399 0.35399
#
# Static dielectric constant tensor:
#      x y z
#    x 1.820500 0.000000 0.000000 
#    y 0.000000 1.820500 0.000000 
#    z 0.000000 0.000000 1.802840 
# 
# From -- ./inp_files/245.got.cif
#   From: 2010.05.17/outbox.cif.g08.bks.cpg/sg78_cif.got.tgz:245.got - 2010.06.03 18:45:56.
