data_PCOD9541669
_publ_section_title
;
Structure prediction by ZEFSAII (Michael W. Deem and Ramdas Pophale) SiO2 
 PCOD9541669
Probable space group: P 43
;
_chemical_formula_sum "Si O2"
_cell_formula_units_Z 32
_cell_length_a 7.971435
_cell_length_b 7.971435
_cell_length_c 23.046252
_cell_angle_alpha 90.000000
_cell_angle_beta 90.000000
_cell_angle_gamma 90.000000
_cell_volume 1464.445874
_symmetry_space_group_name_H-M "P 43"
_symmetry_group_IT_number 78
_symmetry_cell_setting 'tetragonal'
loop_
_space_group_symop_operation_xyz
x,y,z
-y,x,3/4+z
-x,-y,1/2+z
y,-x,1/4+z
loop_
_atom_site_type_symbol
_atom_site_label
_atom_site_fract_x
_atom_site_fract_y
_atom_site_fract_z
Si Si1 0.391123 0.626003 0.429870
Si Si2 0.648076 0.951993 0.036101
Si Si3 0.657792 0.597831 0.244657
Si Si4 0.882984 0.837128 0.945005
Si Si5 0.861038 0.451860 0.590629
Si Si6 0.155168 0.218720 0.640917
Si Si7 0.654628 0.300410 0.091815
Si Si8 0.473852 0.118676 0.257938
O O1 0.506640 0.515750 0.474262
O O2 0.467847 0.788781 0.399589
O O3 0.367811 0.502357 0.375819
O O4 0.205669 0.637506 0.458211
O O5 0.520531 0.813690 0.011975
O O6 0.788424 0.961372 0.987025
O O7 0.728755 0.866467 0.092453
O O8 0.598725 0.141467 0.052612
O O9 0.630419 0.717868 0.300165
O O10 0.726731 0.685913 0.186449
O O11 0.902496 0.658617 0.979933
O O12 0.773473 0.785714 0.889016
O O13 0.059331 0.912264 0.926580
O O14 0.006125 0.323891 0.611750
O O15 0.951124 0.572411 0.542761
O O16 0.743164 0.451321 0.058309
#
# Coordination Sequence:
#
# PCOD9541669 Si02
#       8
#     4   4   4   4   4   4   4   4
#     4  11  24  42  68 100 138 181 240 292 351 424
#     4  11  22  41  70  96 133 185 228 279 358 418
#     4  12  22  42  70  97 138 187 234 290 355 424
#     4  10  21  42  65  97 132 182 221 286 350 423
#     4  12  25  42  72 104 137 184 240 298 354 428
#     4  11  22  41  66  98 138 175 235 282 352 427
#     4  10  23  40  67  96 131 178 236 276 346 427
#     4  11  21  44  64  96 137 176 228 289 348 423
#
# _framework density 21.85127
#
# number of rings (size 3 to 8) (size 9 to 14) (size 15 to 20)
#    0.000    1.000    5.000    2.250    1.750    0.000 
#    2.250    2.500    0.000    0.000    0.000    0.000 
#    0.000    0.000    0.000    0.000    0.000    0.000 
#
# Total GULP energy -178580.145249 kJ/mol
# GULP energy per Si atom -5580.629539 kJ/mol
# Density = 2.180154 g / cm^3
# Si number density = 21.851270 Si / 1000 Ang^3
#
#
#
# Elastic Constant Matrix: (Units=GPa)
#
#
# Indices 1 2 3 4 5 6 
#
# 1 73.3028 32.9361 32.9986 0.0000 0.0000 2.0240
# 2 32.9361 73.3028 32.9986 0.0000 0.0000 -2.0240
# 3 32.9986 32.9986 98.1123 0.0000 0.0000 0.0000
# 4 0.0000 0.0000 0.0000 46.5290 0.0000 0.0000
# 5 0.0000 0.0000 0.0000 0.0000 46.5290 0.0000
# 6 2.0240 -2.0240 0.0000 0.0000 0.0000 7.9638
#
#
#
# Elastic Compliance Matrix: (Units=1/GPa)
#
#
# Indices 1 2 3 4 5 6 
#
# 1 0.018660 -0.006761 -0.004002 0.000000 0.000000 -0.006461
# 2 -0.006761 0.018660 -0.004002 0.000000 0.000000 0.006461
# 3 -0.004002 -0.004002 0.012884 0.000000 0.000000 0.000000
# 4 0.000000 0.000000 0.000000 0.021492 0.000000 0.000000
# 5 0.000000 0.000000 0.000000 0.000000 0.021492 0.000000
# 6 -0.006461 0.006461 0.000000 0.000000 0.000000 0.128852
#
#
# Mechanical properties :
#
#
# Convention : Reuss Voigt Hill
#
# Bulk Modulus (GPa) = 48.36962 49.17604 48.77283
# Shear Modulus (GPa) = 19.34528 29.92334 24.63431
#
# Velocity S-wave (km/s) = 2.97865 3.70457 3.36126
# Velocity P-wave (km/s) = 5.83213 6.39157 6.11825
#
# Compressibility (1/GPa) = 0.02067413
#
# Stress axis : x y z
#
# Youngs Moduli (GPa) = 53.59111 53.59111 77.61305
#
# Poissons Ratio (x) = 0.36233 0.31061
# Poissons Ratio (y) = 0.36233 0.31061
# Poissons Ratio (z) = 0.21447 0.21447
#
# Static dielectric constant tensor:
#      x y z
#    x 1.832220 0.000000 0.000000 
#    y 0.000000 1.832220 0.000000 
#    z 0.000000 0.000000 1.865540 
# 
# From -- ./inp_files/1514.got.cif
#   From: 2010.05.17/outbox.cif.g08.bks.cpg/sg78_cif.got.tgz:1514.got - 2010.06.03 18:45:56.
