data_PCOD9541572
_publ_section_title
;
Structure prediction by ZEFSAII (Michael W. Deem and Ramdas Pophale) SiO2 
 PCOD9541572
Probable space group: P 42
;
_chemical_formula_sum "Si O2"
_cell_formula_units_Z 16
_cell_length_a 9.119045
_cell_length_b 9.119045
_cell_length_c 6.881783
_cell_angle_alpha 90.000000
_cell_angle_beta 90.000000
_cell_angle_gamma 90.000000
_cell_volume 572.268303
_symmetry_space_group_name_H-M "P 42"
_symmetry_group_IT_number 77
_symmetry_cell_setting 'tetragonal'
loop_
_space_group_symop_operation_xyz
x,y,z
-y,x,1/2+z
-x,-y,z
y,-x,1/2+z
loop_
_atom_site_type_symbol
_atom_site_label
_atom_site_fract_x
_atom_site_fract_y
_atom_site_fract_z
Si Si1 0.303310 0.059649 0.538850
Si Si2 0.734308 0.265694 0.510403
Si Si3 0.754962 0.500001 0.760402
Si Si4 0.303310 0.940350 0.981949
O O1 0.562696 0.850956 0.442489
O O2 0.274912 0.902583 0.442381
O O3 0.162237 0.162236 0.510399
O O4 0.325445 0.000003 0.760401
O O5 0.666575 0.357961 0.688329
O O6 0.642039 0.333426 0.332479
O O7 0.902586 0.274915 0.578426
O O8 0.850952 0.562698 0.578312
#
# Coordination Sequence:
#
# PCOD9541572 Si02
#       4
#     4   4   4   4
#     4  12  26  51  86 122 166 220 290 368 429 503
#     4  12  25  48  83 120 170 212 298 345 439 510
#     4  12  29  52  83 128 171 236 283 364 437 510
#     4  12  26  51  86 122 166 220 290 368 429 503
#
# _framework density 27.958915000000001
#
# number of rings (size 3 to 8) (size 9 to 14) (size 15 to 20)
#    0.000    0.000    5.000    5.250    0.000    6.000 
#    0.000    3.750    0.000    0.000    0.000    0.000 
#    0.000    0.000    0.000    0.000    0.000    0.000 
#
# Total GULP energy -89254.733154 kJ/mol
# GULP energy per Si atom -5578.420822 kJ/mol
# Density = 2.789528 g / cm^3
# Si number density = 27.958915 Si / 1000 Ang^3
#
#
#
# Elastic Constant Matrix: (Units=GPa)
#
#
# Indices 1 2 3 4 5 6 
#
# 1 185.8111 70.4675 45.7283 0.0000 0.0000 0.0018
# 2 70.4675 185.8111 45.7283 0.0000 0.0000 -0.0018
# 3 45.7283 45.7283 176.7624 0.0000 0.0000 0.0000
# 4 0.0000 0.0000 0.0000 54.5537 0.0000 0.0000
# 5 0.0000 0.0000 0.0000 0.0000 54.5537 0.0000
# 6 0.0018 -0.0018 0.0000 0.0000 0.0000 -3.4081
#
#
#
# Elastic Compliance Matrix: (Units=1/GPa)
#
#
# Indices 1 2 3 4 5 6 
#
# 1 0.006484 -0.002185 -0.001112 0.000000 0.000000 0.000005
# 2 -0.002185 0.006484 -0.001112 0.000000 0.000000 -0.000005
# 3 -0.001112 -0.001112 0.006233 0.000000 0.000000 0.000000
# 4 0.000000 0.000000 0.000000 0.018331 0.000000 0.000000
# 5 0.000000 0.000000 0.000000 0.000000 0.018331 0.000000
# 6 0.000005 -0.000005 0.000000 0.000000 0.000000 -0.293419
#
#
# Mechanical properties :
#
#
# Convention : Reuss Voigt Hill
#
# Bulk Modulus (GPa) = 96.32046 96.91474 96.61760
# Shear Modulus (GPa) = -22.19493 46.90388 12.35448
#
# Velocity S-wave (km/s) = -2.82057 4.10030 2.10437
# Velocity P-wave (km/s) = 4.89060 7.56010 6.36683
#
# Compressibility (1/GPa) = 0.01038201
#
# Stress axis : x y z
#
# Youngs Moduli (GPa) = 154.21833 154.21833 160.44364
#
# Poissons Ratio (x) = 0.33703 0.17843
# Poissons Ratio (y) = 0.33703 0.17843
# Poissons Ratio (z) = 0.17151 0.17151
#
# Static dielectric constant tensor:
#      x y z
#    x 2.322900 0.000000 0.000000 
#    y 0.000000 2.322900 0.000000 
#    z 0.000000 0.000000 2.542930 
# 
# From -- ./inp_files/56.got.cif
#   From: 2010.05.17/outbox.cif.g08.bks.cpg/sg77_cif.got.tgz:56.got - 2010.06.03 18:44:51.
