data_PCOD9541074
_publ_section_title
;
Structure prediction by ZEFSAII (Michael W. Deem and Ramdas Pophale) SiO2 
 PCOD9541074
Probable space group: P 41
;
_chemical_formula_sum "Si O2"
_cell_formula_units_Z 32
_cell_length_a 13.628414
_cell_length_b 13.628414
_cell_length_c 9.469059
_cell_angle_alpha 90.000000
_cell_angle_beta 90.000000
_cell_angle_gamma 90.000000
_cell_volume 1758.723062
_symmetry_space_group_name_H-M "P 41"
_symmetry_group_IT_number 76
_symmetry_cell_setting 'tetragonal'
loop_
_space_group_symop_operation_xyz
x,y,z
-y,x,1/4+z
-x,-y,1/2+z
y,-x,3/4+z
loop_
_atom_site_type_symbol
_atom_site_label
_atom_site_fract_x
_atom_site_fract_y
_atom_site_fract_z
Si Si1 0.267582 0.628839 0.597530
Si Si2 0.489972 0.176017 0.098962
Si Si3 0.731599 0.011202 0.391114
Si Si4 0.676291 0.059998 0.976240
Si Si5 0.101772 0.607173 0.408469
Si Si6 0.482562 0.606318 0.687032
Si Si7 0.973876 0.608963 0.915051
Si Si8 0.836827 0.811196 0.420717
O O1 0.211673 0.552600 0.698672
O O2 0.213504 0.629325 0.447367
O O3 0.381049 0.603959 0.598034
O O4 0.247668 0.734425 0.667260
O O5 0.593342 0.123687 0.060905
O O6 0.492852 0.276620 0.189639
O O7 0.422565 0.089396 0.162876
O O8 0.778993 0.098442 0.302864
O O9 0.647645 0.960957 0.292729
O O10 0.681575 0.042712 0.535529
O O11 0.809065 0.924743 0.418751
O O12 0.777963 0.104054 0.030997
O O13 0.662836 0.948430 0.029286
O O14 0.654934 0.060340 0.811775
O O15 0.083809 0.492381 0.391085
O O16 0.454177 0.560579 0.840300
#
# Coordination Sequence:
#
# PCOD9541074 Si02
#       8
#     4   4   4   4   4   4   4   4
#     4  10  17  36  61  78 115 160 193 222 295 351
#     4  10  18  34  59  82 113 154 184 236 306 338
#     4  10  21  38  62  81 119 153 198 236 291 363
#     4  10  19  31  56  90 117 141 191 245 293 345
#     4   9  17  32  54  87 116 148 185 238 301 340
#     4  10  22  39  60  81 118 168 205 229 279 362
#     4  11  18  33  57  93 114 139 194 260 288 328
#     4  10  20  39  59  84 110 165 192 226 297 359
#
# _framework density 18.19502
#
# number of rings (size 3 to 8) (size 9 to 14) (size 15 to 20)
#    0.000    2.000    5.000    0.750    0.000    0.000 
#    2.250    6.250    0.000    0.000    0.000    0.000 
#    0.000    0.000    0.000    0.000    0.000    0.000 
#
# Total GULP energy -178354.344156 kJ/mol
# GULP energy per Si atom -5573.573255 kJ/mol
# Density = 1.815361 g / cm^3
# Si number density = 18.195020 Si / 1000 Ang^3
#
#
#
# Elastic Constant Matrix: (Units=GPa)
#
#
# Indices 1 2 3 4 5 6 
#
# 1 40.5842 60.6692 19.8595 0.0000 0.0000 -4.4331
# 2 60.6692 40.5842 19.8595 0.0000 0.0000 4.4331
# 3 19.8595 19.8595 53.0081 0.0000 0.0000 0.0000
# 4 0.0000 0.0000 0.0000 17.2215 0.0000 0.0000
# 5 0.0000 0.0000 0.0000 0.0000 17.2215 0.0000
# 6 -4.4331 4.4331 0.0000 0.0000 0.0000 26.9979
#
#
#
# Elastic Compliance Matrix: (Units=1/GPa)
#
#
# Indices 1 2 3 4 5 6 
#
# 1 -0.017423 0.029001 -0.004338 0.000000 0.000000 -0.007623
# 2 0.029001 -0.017423 -0.004338 0.000000 0.000000 0.007623
# 3 -0.004338 -0.004338 0.022115 0.000000 0.000000 0.000000
# 4 0.000000 0.000000 0.000000 0.058067 0.000000 0.000000
# 5 0.000000 0.000000 0.000000 0.000000 0.058067 0.000000
# 6 -0.007623 0.007623 0.000000 0.000000 0.000000 0.034537
#
#
# Mechanical properties :
#
#
# Convention : Reuss Voigt Hill
#
# Bulk Modulus (GPa) = 35.81629 37.21701 36.51665
# Shear Modulus (GPa) = 46.90628 14.54076 30.72352
#
# Velocity S-wave (km/s) = 5.08288 2.83001 4.11368
# Velocity P-wave (km/s) = 7.36037 5.58368 6.53271
#
# Compressibility (1/GPa) = 0.02792025
#
# Stress axis : x y z
#
# Youngs Moduli (GPa) = -57.39581 -57.39581 45.21780
#
# Poissons Ratio (x) = 1.66451 0.19614
# Poissons Ratio (y) = 1.66451 0.19614
# Poissons Ratio (z) = -0.24896 -0.24896
#
# Static dielectric constant tensor:
#      x y z
#    x 1.651900 0.000000 0.000000 
#    y 0.000000 1.651900 0.000000 
#    z 0.000000 0.000000 1.622600 
# 
# From -- ./inp_files/697.got.cif
#   From: 2010.05.17/outbox.cif.g08.bks.cpg/sg76_cif.got.tgz:697.got - 2010.06.03 18:43:17.
