data_PCOD9541860
_publ_section_title
;
Structure prediction by ZEFSAII (Michael W. Deem and Ramdas Pophale) SiO2 
 PCOD9541860
Probable space group: I 4
;
_chemical_formula_sum "Si O2"
_cell_formula_units_Z 64
_cell_length_a 24.641857
_cell_length_b 24.641857
_cell_length_c 5.003997
_cell_angle_alpha 90.000000
_cell_angle_beta 90.000000
_cell_angle_gamma 90.000000
_cell_volume 3038.532645
_symmetry_space_group_name_H-M "I 4"
_symmetry_group_IT_number 79
_symmetry_cell_setting 'tetragonal'
loop_
_space_group_symop_operation_xyz
x,y,z
-y,x,z
-x,-y,z
y,-x,z
1/2+x,1/2+y,1/2+z
1/2-y,1/2+x,1/2+z
1/2-x,1/2-y,1/2+z
1/2+y,1/2-x,1/2+z
loop_
_atom_site_type_symbol
_atom_site_label
_atom_site_fract_x
_atom_site_fract_y
_atom_site_fract_z
Si Si1 0.164854 0.879002 0.243040
Si Si2 0.117989 0.098657 0.760063
Si Si3 0.235323 0.400113 0.621667
Si Si4 0.872536 0.495995 0.155528
Si Si5 0.471745 0.749956 0.110212
Si Si6 0.481359 0.344052 0.417970
Si Si7 0.780566 0.226642 0.298968
Si Si8 0.565471 0.112011 0.665550
O O1 0.116375 0.870777 0.457495
O O2 0.213336 0.839043 0.326196
O O3 0.171284 0.943698 0.175610
O O4 0.145585 0.858533 0.951549
O O5 0.135973 0.043014 0.895285
O O6 0.053739 0.107065 0.794104
O O7 0.247847 0.421563 0.323245
O O8 0.253168 0.340299 0.706833
O O9 0.170430 0.405559 0.660455
O O10 0.261035 0.444858 0.823751
O O11 0.808564 0.500989 0.105756
O O12 0.884420 0.516991 0.452064
O O13 0.894509 0.436631 0.101573
O O14 0.898483 0.538952 0.952351
O O15 0.515152 0.708050 0.226545
O O16 0.761858 0.254658 0.572930
#
# Coordination Sequence:
#
# PCOD9541860 Si02
#       8
#     8   8   8   8   8   8   8   8
#     4  10  24  41  61  96 127 161 221 257 327 400
#     4  10  23  38  66  90 132 165 208 270 322 395
#     4  10  22  40  62  85 122 165 210 247 309 383
#     4  10  21  36  56  86 116 156 202 246 307 370
#     4  10  21  38  64  84 119 169 211 245 311 377
#     4  10  24  39  67  92 129 167 213 267 324 379
#     4  12  24  41  65  92 126 166 209 270 326 370
#     4  10  21  37  56  86 117 154 198 250 302 365
#
# _framework density 21.062798999999998
#
# number of rings (size 3 to 8) (size 9 to 14) (size 15 to 20)
#    0.750    1.000    0.000    3.750    3.500    2.750 
#    0.000    0.000    2.750    0.000    0.000    0.000 
#    0.000    0.000    0.000    0.000    0.000    0.000 
#
# Total GULP energy -178344.573111 kJ/mol
# GULP energy per Si atom -5573.267910 kJ/mol
# Density = 2.101486 g / cm^3
# Si number density = 21.062799 Si / 1000 Ang^3
#
#
#
# Elastic Constant Matrix: (Units=GPa)
#
#
# Indices 1 2 3 4 5 6 
#
# 1 62.1459 46.7162 2.4727 0.0000 0.0000 3.1388
# 2 46.7162 62.1459 2.4727 0.0000 0.0000 -3.1388
# 3 2.4727 2.4727 77.1428 0.0000 0.0000 0.0000
# 4 0.0000 0.0000 0.0000 12.8330 0.0000 0.0000
# 5 0.0000 0.0000 0.0000 0.0000 12.8330 0.0000
# 6 3.1388 -3.1388 0.0000 0.0000 0.0000 26.3526
#
#
#
# Elastic Compliance Matrix: (Units=1/GPa)
#
#
# Indices 1 2 3 4 5 6 
#
# 1 0.038655 -0.029456 -0.000295 0.000000 0.000000 -0.008113
# 2 -0.029456 0.038655 -0.000295 0.000000 0.000000 0.008113
# 3 -0.000295 -0.000295 0.012982 0.000000 0.000000 0.000000
# 4 0.000000 0.000000 0.000000 0.077924 0.000000 0.000000
# 5 0.000000 0.000000 0.000000 0.000000 0.077924 0.000000
# 6 -0.008113 0.008113 0.000000 0.000000 0.000000 0.039879
#
#
# Mechanical properties :
#
#
# Convention : Reuss Voigt Hill
#
# Bulk Modulus (GPa) = 33.11141 33.86196 33.48669
# Shear Modulus (GPa) = 14.03797 20.38860 17.21329
#
# Velocity S-wave (km/s) = 2.58443 3.11463 2.86184
# Velocity P-wave (km/s) = 4.96590 5.38945 5.18200
#
# Compressibility (1/GPa) = 0.03020107
#
# Stress axis : x y z
#
# Youngs Moduli (GPa) = 25.86987 25.86987 77.03045
#
# Poissons Ratio (x) = 0.76201 0.02271
# Poissons Ratio (y) = 0.76201 0.02271
# Poissons Ratio (z) = 0.00763 0.00763
#
# Static dielectric constant tensor:
#      x y z
#    x 1.778700 0.000000 0.000000 
#    y 0.000000 1.778700 0.000000 
#    z 0.000000 0.000000 1.758810 
# 
# From -- ./inp_files/302.got.cif
#   From: 2010.05.17/outbox.cif.g08.bks.cpg/sg79_cif.got.tgz:302.got - 2010.06.03 18:47:27.
