data_PCOD9541996
_publ_section_title
;
Structure prediction by ZEFSAII (Michael W. Deem and Ramdas Pophale) SiO2 
 PCOD9541996
Probable space group: I 4
;
_chemical_formula_sum "Si O2"
_cell_formula_units_Z 48
_cell_length_a 8.102100
_cell_length_b 8.102100
_cell_length_c 33.063592
_cell_angle_alpha 90.000000
_cell_angle_beta 90.000000
_cell_angle_gamma 90.000000
_cell_volume 2170.427240
_symmetry_space_group_name_H-M "I 4"
_symmetry_group_IT_number 79
_symmetry_cell_setting 'tetragonal'
loop_
_space_group_symop_operation_xyz
x,y,z
-y,x,z
-x,-y,z
y,-x,z
1/2+x,1/2+y,1/2+z
1/2-y,1/2+x,1/2+z
1/2-x,1/2-y,1/2+z
1/2+y,1/2-x,1/2+z
loop_
_atom_site_type_symbol
_atom_site_label
_atom_site_fract_x
_atom_site_fract_y
_atom_site_fract_z
Si Si1 0.376528 0.257421 0.000000
Si Si2 0.090616 0.263951 0.880104
Si Si3 0.195826 0.800290 0.084611
Si Si4 0.736271 0.086718 0.789212
Si Si5 0.759713 0.876544 0.668114
Si Si6 0.500000 0.000000 0.221494
Si Si7 0.000000 0.500000 0.945408
O O1 0.569861 0.288907 0.991630
O O2 0.362059 0.092531 0.973168
O O3 0.313494 0.234701 0.045821
O O4 0.900588 0.200956 0.883893
O O5 0.112784 0.330535 0.834537
O O6 0.117227 0.399530 0.914347
O O7 0.314510 0.753825 0.122003
O O8 0.997880 0.778670 0.085270
O O9 0.610993 0.104458 0.752941
O O10 0.801196 0.898389 0.785707
O O11 0.592268 0.863476 0.693293
O O12 0.931220 0.790992 0.678364
#
# Coordination Sequence:
#
# PCOD9541996 Si02
#       7
#     8   8   8   8   8   4   4
#     4  11  24  40  59  86 123 168 216 270 335 409
#     4   9  19  36  59  89 128 172 217 270 334 402
#     4  11  24  43  66  92 122 158 207 272 348 421
#     4   9  19  37  60  89 128 173 218 267 333 410
#     4  11  24  41  62  89 123 165 214 271 336 410
#     4  12  21  34  61  94 124 162 218 278 332 398
#     4  12  21  36  61  94 128 166 222 282 336 402
#
# _framework density 22.115463999999999
#
# number of rings (size 3 to 8) (size 9 to 14) (size 15 to 20)
#    0.000    1.500    0.000    6.500    0.000    4.000 
#    0.000    1.667    0.000    4.500    0.000   14.000 
#    0.000    0.000    0.000    0.000    0.000    0.000 
#
# Total GULP energy -133651.766535 kJ/mol
# GULP energy per Si atom -5568.823606 kJ/mol
# Density = 2.206513 g / cm^3
# Si number density = 22.115464 Si / 1000 Ang^3
#
#
#
# Elastic Constant Matrix: (Units=GPa)
#
#
# Indices 1 2 3 4 5 6 
#
# 1 65.5342 7.3935 49.1735 0.0000 0.0000 -0.2305
# 2 7.3935 65.5342 49.1735 0.0000 0.0000 0.2305
# 3 49.1735 49.1735 190.1031 0.0000 0.0000 0.0000
# 4 0.0000 0.0000 0.0000 20.1173 0.0000 0.0000
# 5 0.0000 0.0000 0.0000 0.0000 20.1173 0.0000
# 6 -0.2305 0.2305 0.0000 0.0000 0.0000 55.2301
#
#
#
# Elastic Compliance Matrix: (Units=1/GPa)
#
#
# Indices 1 2 3 4 5 6 
#
# 1 0.019129 0.001929 -0.005447 0.000000 0.000000 0.000072
# 2 0.001929 0.019129 -0.005447 0.000000 0.000000 -0.000072
# 3 -0.005447 -0.005447 0.008078 0.000000 0.000000 0.000000
# 4 0.000000 0.000000 0.000000 0.049708 0.000000 0.000000
# 5 0.000000 0.000000 0.000000 0.000000 0.049708 0.000000
# 6 0.000072 -0.000072 0.000000 0.000000 0.000000 0.018107
#
#
# Mechanical properties :
#
#
# Convention : Reuss Voigt Hill
#
# Bulk Modulus (GPa) = 35.20403 59.18364 47.19384
# Shear Modulus (GPa) = 26.14262 33.45501 29.79882
#
# Velocity S-wave (km/s) = 3.44189 3.89362 3.67470
# Velocity P-wave (km/s) = 5.63457 6.85806 6.27620
#
# Compressibility (1/GPa) = 0.02840584
#
# Stress axis : x y z
#
# Youngs Moduli (GPa) = 52.27675 52.27675 123.78991
#
# Poissons Ratio (x) = -0.10083 0.67428
# Poissons Ratio (y) = -0.10083 0.67428
# Poissons Ratio (z) = 0.28475 0.28475
#
# Static dielectric constant tensor:
#      x y z
#    x 1.979420 0.000000 0.000000 
#    y 0.000000 1.979420 0.000000 
#    z 0.000000 0.000000 1.850840 
# 
# From -- ./inp_files/2165.got.cif
#   From: 2010.05.17/outbox.cif.g08.bks.cpg/sg79_cif.got.tgz:2165.got - 2010.06.03 18:47:27.
