data_PCOD9541292
_publ_section_title
;
Structure prediction by ZEFSAII (Michael W. Deem and Ramdas Pophale) SiO2 
 PCOD9541292
Probable space group: P 41
;
_chemical_formula_sum "Si O2"
_cell_formula_units_Z 24
_cell_length_a 8.312560
_cell_length_b 8.312560
_cell_length_c 15.372710
_cell_angle_alpha 90.000000
_cell_angle_beta 90.000000
_cell_angle_gamma 90.000000
_cell_volume 1062.233566
_symmetry_space_group_name_H-M "P 41"
_symmetry_group_IT_number 76
_symmetry_cell_setting 'tetragonal'
loop_
_space_group_symop_operation_xyz
x,y,z
-y,x,1/4+z
-x,-y,1/2+z
y,-x,3/4+z
loop_
_atom_site_type_symbol
_atom_site_label
_atom_site_fract_x
_atom_site_fract_y
_atom_site_fract_z
Si Si1 0.954043 0.910232 0.344680
Si Si2 0.349563 0.205564 0.766978
Si Si3 0.337861 0.553247 0.700220
Si Si4 0.295649 0.622681 0.889881
Si Si5 0.785986 0.071728 0.504879
Si Si6 0.020194 0.542379 0.364589
O O1 0.808932 0.901590 0.274774
O O2 0.034132 0.731489 0.337770
O O3 0.852093 0.948914 0.431845
O O4 0.065977 0.065640 0.324043
O O5 0.293379 0.376341 0.731098
O O6 0.415105 0.238295 0.863261
O O7 0.473848 0.132228 0.698876
O O8 0.315970 0.659885 0.787804
O O9 0.527387 0.550837 0.675337
O O10 0.161803 0.483060 0.895798
O O11 0.238469 0.765948 0.949785
O O12 0.609979 0.043148 0.549230
#
# Coordination Sequence:
#
# PCOD9541292 Si02
#       6
#     4   4   4   4   4   4
#     4  12  25  50  75 108 162 207 259 335 408 477
#     4  11  25  43  76 106 148 193 270 319 401 476
#     4  10  23  48  77 103 147 207 253 336 393 485
#     4  11  25  48  74 108 150 202 264 318 411 476
#     4  12  28  50  74 114 160 204 267 332 395 498
#     4  12  26  47  76 113 149 215 253 330 416 468
#
# _framework density 22.593900999999999
#
# number of rings (size 3 to 8) (size 9 to 14) (size 15 to 20)
#    0.000    0.667    6.667    1.000    7.000    1.333 
#    3.000    0.000    0.000    0.000    0.000    0.000 
#    0.000    0.000    0.000    0.000    0.000    0.000 
#
# Total GULP energy -133736.084606 kJ/mol
# GULP energy per Si atom -5572.336859 kJ/mol
# Density = 2.254248 g / cm^3
# Si number density = 22.593901 Si / 1000 Ang^3
#
#
#
# Elastic Constant Matrix: (Units=GPa)
#
#
# Indices 1 2 3 4 5 6 
#
# 1 105.0502 35.4885 70.1332 0.0000 0.0000 9.6885
# 2 35.4885 105.0502 70.1332 0.0000 0.0000 -9.6885
# 3 70.1332 70.1332 141.2839 0.0000 0.0000 0.0000
# 4 0.0000 0.0000 0.0000 28.4286 0.0000 0.0000
# 5 0.0000 0.0000 0.0000 0.0000 28.4286 0.0000
# 6 9.6885 -9.6885 0.0000 0.0000 0.0000 22.4832
#
#
#
# Elastic Compliance Matrix: (Units=1/GPa)
#
#
# Indices 1 2 3 4 5 6 
#
# 1 0.015220 -0.001117 -0.007000 0.000000 0.000000 -0.007040
# 2 -0.001117 0.015220 -0.007000 0.000000 0.000000 0.007040
# 3 -0.007000 -0.007000 0.014028 0.000000 0.000000 0.000000
# 4 0.000000 0.000000 0.000000 0.035176 0.000000 0.000000
# 5 0.000000 0.000000 0.000000 0.000000 0.035176 0.000000
# 6 -0.007040 0.007040 0.000000 0.000000 0.000000 0.050545
#
#
# Mechanical properties :
#
#
# Convention : Reuss Voigt Hill
#
# Bulk Modulus (GPa) = 70.26913 78.09939 74.18426
# Shear Modulus (GPa) = 24.95718 27.57670 26.26694
#
# Velocity S-wave (km/s) = 3.32716 3.49741 3.41334
# Velocity P-wave (km/s) = 6.77705 7.13798 6.95986
#
# Compressibility (1/GPa) = 0.01423100
#
# Stress axis : x y z
#
# Youngs Moduli (GPa) = 65.70518 65.70518 71.28657
#
# Poissons Ratio (x) = 0.07341 0.49903
# Poissons Ratio (y) = 0.07341 0.49903
# Poissons Ratio (z) = 0.45996 0.45996
#
# Static dielectric constant tensor:
#      x y z
#    x 1.910610 0.000000 0.000000 
#    y 0.000000 1.910610 0.000000 
#    z 0.000000 0.000000 1.908940 
# 
# From -- ./inp_files/1078.got.cif
#   From: 2010.05.17/outbox.cif.g08.bks.cpg/sg76_cif.got.tgz:1078.got - 2010.06.03 18:43:17.
