data_PCOD9541571
_publ_section_title
;
Structure prediction by ZEFSAII (Michael W. Deem and Ramdas Pophale) SiO2 
 PCOD9541571
Probable space group: P 42
;
_chemical_formula_sum "Si O2"
_cell_formula_units_Z 14
_cell_length_a 5.417544
_cell_length_b 5.417544
_cell_length_c 19.171498
_cell_angle_alpha 90.000000
_cell_angle_beta 90.000000
_cell_angle_gamma 90.000000
_cell_volume 562.679306
_symmetry_space_group_name_H-M "P 42"
_symmetry_group_IT_number 77
_symmetry_cell_setting 'tetragonal'
loop_
_space_group_symop_operation_xyz
x,y,z
-y,x,1/2+z
-x,-y,z
y,-x,1/2+z
loop_
_atom_site_type_symbol
_atom_site_label
_atom_site_fract_x
_atom_site_fract_y
_atom_site_fract_z
Si Si1 0.645634 0.747774 0.756740
Si Si2 0.252225 0.645635 0.947421
Si Si3 0.251157 0.840953 0.102080
Si Si4 0.000000 0.000000 0.352080
O O1 0.500000 0.500000 0.775039
O O2 0.692434 0.743605 0.673954
O O3 0.500000 0.000000 0.770730
O O4 0.895083 0.789356 0.800604
O O5 0.500000 0.500000 0.929122
O O6 0.000000 0.500000 0.933431
O O7 0.210644 0.895082 0.903556
O O8 0.256394 0.692437 0.030207
O O9 0.500000 0.000000 0.102080
O O10 0.000000 0.000000 0.102081
#
# Coordination Sequence:
#
# PCOD9541571 Si02
#       4
#     4   4   4   2
#     4  12  29  51  83 116 163 218 279 345 426 500
#     4  12  29  51  83 116 163 218 279 345 426 500
#     4  12  24  50  82 115 157 212 281 352 414 494
#     4  12  32  50  76 120 172 206 280 344 424 522
#
# _framework density 24.880953999999999
#
# number of rings (size 3 to 8) (size 9 to 14) (size 15 to 20)
#    0.000    0.000    2.857    5.143    8.000    0.000 
#    0.000    0.000    0.000    0.000    0.000    0.000 
#    0.000    0.000    0.000    0.000    0.000    0.000 
#
# Total GULP energy -78570.340147 kJ/mol
# GULP energy per Si atom -5612.167153 kJ/mol
# Density = 2.482432 g / cm^3
# Si number density = 24.880954 Si / 1000 Ang^3
#
#
#
# Elastic Constant Matrix: (Units=GPa)
#
#
# Indices 1 2 3 4 5 6 
#
# 1 161.3800 73.1647 46.9699 0.0000 0.0000 -4.8744
# 2 73.1647 161.3800 46.9699 0.0000 0.0000 4.8744
# 3 46.9699 46.9699 224.3567 0.0000 0.0000 0.0000
# 4 0.0000 0.0000 0.0000 -59.1107 0.0000 0.0000
# 5 0.0000 0.0000 0.0000 0.0000 -59.1107 0.0000
# 6 -4.8744 4.8744 0.0000 0.0000 0.0000 69.7670
#
#
#
# Elastic Compliance Matrix: (Units=1/GPa)
#
#
# Indices 1 2 3 4 5 6 
#
# 1 0.008039 -0.003385 -0.000974 0.000000 0.000000 0.000798
# 2 -0.003385 0.008039 -0.000974 0.000000 0.000000 -0.000798
# 3 -0.000974 -0.000974 0.004865 0.000000 0.000000 0.000000
# 4 0.000000 0.000000 0.000000 -0.016917 0.000000 0.000000
# 5 0.000000 0.000000 0.000000 0.000000 -0.016917 0.000000
# 6 0.000798 -0.000798 0.000000 0.000000 0.000000 0.014445
#
#
# Mechanical properties :
#
#
# Convention : Reuss Voigt Hill
#
# Bulk Modulus (GPa) = 97.31817 97.92507 97.62162
# Shear Modulus (GPa) = 319.57447 15.64329 167.60888
#
# Velocity S-wave (km/s) = 11.34549 2.51016 8.21648
# Velocity P-wave (km/s) = 14.51983 6.91694 11.37254
#
# Compressibility (1/GPa) = 0.01027557
#
# Stress axis : x y z
#
# Youngs Moduli (GPa) = 124.39431 124.39431 205.54431
#
# Poissons Ratio (x) = 0.42109 0.20026
# Poissons Ratio (y) = 0.42109 0.20026
# Poissons Ratio (z) = 0.12120 0.12120
#
# Static dielectric constant tensor:
#      x y z
#    x 2.484710 0.000000 0.000000 
#    y 0.000000 2.484710 0.000000 
#    z 0.000000 0.000000 1.953520 
# 
# From -- ./inp_files/1416.got.cif
#   From: 2010.05.17/outbox.cif.g08.bks.cpg/sg77_cif.got.tgz:1416.got - 2010.06.03 18:44:51.
