data_PCOD9541909
_publ_section_title
;
Structure prediction by ZEFSAII (Michael W. Deem and Ramdas Pophale) SiO2 
 PCOD9541909
Probable space group: I 4
;
_chemical_formula_sum "Si O2"
_cell_formula_units_Z 50
_cell_length_a 13.905586
_cell_length_b 13.905586
_cell_length_c 11.605607
_cell_angle_alpha 90.000000
_cell_angle_beta 90.000000
_cell_angle_gamma 90.000000
_cell_volume 2244.121935
_symmetry_space_group_name_H-M "I 4"
_symmetry_group_IT_number 79
_symmetry_cell_setting 'tetragonal'
loop_
_space_group_symop_operation_xyz
x,y,z
-y,x,z
-x,-y,z
y,-x,z
1/2+x,1/2+y,1/2+z
1/2-y,1/2+x,1/2+z
1/2-x,1/2-y,1/2+z
1/2+y,1/2-x,1/2+z
loop_
_atom_site_type_symbol
_atom_site_label
_atom_site_fract_x
_atom_site_fract_y
_atom_site_fract_z
Si Si1 0.571497 0.918007 0.089030
Si Si2 0.155588 0.736661 0.921505
Si Si3 0.771787 0.588505 0.161804
Si Si4 0.326922 0.375654 0.945504
Si Si5 0.000000 0.000000 0.392767
Si Si6 0.949231 0.261336 0.240596
Si Si7 0.362230 0.292037 0.616734
O O1 0.509571 0.826314 0.129825
O O2 0.629373 0.955641 0.200847
O O3 0.500000 0.000000 0.046652
O O4 0.656042 0.898760 0.997312
O O5 0.107942 0.745075 0.796549
O O6 0.264567 0.696282 0.921403
O O7 0.165103 0.837931 0.990758
O O8 0.835583 0.679703 0.119387
O O9 0.678864 0.599819 0.080574
O O10 0.429155 0.406479 0.897717
O O11 0.247621 0.438761 0.876957
O O12 0.850555 0.213741 0.194310
O O13 0.033302 0.202917 0.174422
#
# Coordination Sequence:
#
# PCOD9541909 Si02
#       7
#     8   8   8   8   2   8   8
#     4  11  24  40  69 103 136 178 237 294 350 424
#     4  10  24  46  64  98 143 187 228 286 364 426
#     4  11  23  43  67  97 139 182 225 297 361 414
#     4  11  24  42  70  98 140 185 232 291 357 421
#     4  12  24  40  68 104 134 176 244 288 328 438
#     4  11  22  43  66 101 134 177 234 285 352 422
#     4  10  22  41  66  94 135 178 224 286 349 418
#
# _framework density 22.280429999999999
#
# number of rings (size 3 to 8) (size 9 to 14) (size 15 to 20)
#    0.000    1.280    3.200    1.920    2.240    2.240 
#    2.880    0.000    0.000    0.000    0.000    0.000 
#    0.000    0.000    0.000    0.000    0.000    0.000 
#
# Total GULP energy -139340.347774 kJ/mol
# GULP energy per Si atom -5573.613911 kJ/mol
# Density = 2.222972 g / cm^3
# Si number density = 22.280430 Si / 1000 Ang^3
#
#
#
# Elastic Constant Matrix: (Units=GPa)
#
#
# Indices 1 2 3 4 5 6 
#
# 1 92.8304 -18.9704 18.8358 0.0000 0.0000 10.9389
# 2 -18.9704 92.8304 18.8358 0.0000 0.0000 -10.9389
# 3 18.8358 18.8358 143.4629 0.0000 0.0000 0.0000
# 4 0.0000 0.0000 0.0000 12.9885 0.0000 0.0000
# 5 0.0000 0.0000 0.0000 0.0000 12.9885 0.0000
# 6 10.9389 -10.9389 0.0000 0.0000 0.0000 35.1477
#
#
#
# Elastic Compliance Matrix: (Units=1/GPa)
#
#
# Indices 1 2 3 4 5 6 
#
# 1 0.012018 0.002493 -0.001905 0.000000 0.000000 -0.002964
# 2 0.002493 0.012018 -0.001905 0.000000 0.000000 0.002964
# 3 -0.001905 -0.001905 0.007471 0.000000 0.000000 0.000000
# 4 0.000000 0.000000 0.000000 0.076991 0.000000 0.000000
# 5 0.000000 0.000000 0.000000 0.000000 0.076991 0.000000
# 6 -0.002964 0.002964 0.000000 0.000000 0.000000 0.030296
#
#
# Mechanical properties :
#
#
# Convention : Reuss Voigt Hill
#
# Bulk Modulus (GPa) = 34.63601 40.72511 37.68056
# Shear Modulus (GPa) = 21.92569 32.91978 27.42274
#
# Velocity S-wave (km/s) = 3.14041 3.84802 3.51208
# Velocity P-wave (km/s) = 5.35992 6.16937 5.77884
#
# Compressibility (1/GPa) = 0.02887169
#
# Stress axis : x y z
#
# Youngs Moduli (GPa) = 83.21057 83.21057 133.85583
#
# Poissons Ratio (x) = -0.20746 0.25502
# Poissons Ratio (y) = -0.20746 0.25502
# Poissons Ratio (z) = 0.15853 0.15853
#
# Static dielectric constant tensor:
#      x y z
#    x 1.830800 0.000000 0.000000 
#    y 0.000000 1.830800 0.000000 
#    z 0.000000 0.000000 1.930920 
# 
# From -- ./inp_files/1121.got.cif
#   From: 2010.05.17/outbox.cif.g08.bks.cpg/sg79_cif.got.tgz:1121.got - 2010.06.03 18:47:27.
