data_PCOD9541835
_publ_section_title
;
Structure prediction by ZEFSAII (Michael W. Deem and Ramdas Pophale) SiO2 
 PCOD9541835
Probable space group: I 4
;
_chemical_formula_sum "Si O2"
_cell_formula_units_Z 64
_cell_length_a 10.587436
_cell_length_b 10.587436
_cell_length_c 32.182883
_cell_angle_alpha 90.000000
_cell_angle_beta 90.000000
_cell_angle_gamma 90.000000
_cell_volume 3607.501684
_symmetry_space_group_name_H-M "I 4"
_symmetry_group_IT_number 79
_symmetry_cell_setting 'tetragonal'
loop_
_space_group_symop_operation_xyz
x,y,z
-y,x,z
-x,-y,z
y,-x,z
1/2+x,1/2+y,1/2+z
1/2-y,1/2+x,1/2+z
1/2-x,1/2-y,1/2+z
1/2+y,1/2-x,1/2+z
loop_
_atom_site_type_symbol
_atom_site_label
_atom_site_fract_x
_atom_site_fract_y
_atom_site_fract_z
Si Si1 0.212106 0.978425 0.473230
Si Si2 0.677907 0.405375 0.755151
Si Si3 0.212106 0.978425 0.568670
Si Si4 0.309962 0.714771 0.841220
Si Si5 0.147738 0.531365 0.889904
Si Si6 0.905375 0.822093 0.786749
Si Si7 0.147738 0.531365 0.151996
Si Si8 0.190038 0.785229 0.700680
O O1 0.132873 0.108368 0.467700
O O2 0.256778 0.973987 0.520950
O O3 0.319214 0.967162 0.438677
O O4 0.665513 0.549403 0.743115
O O5 0.680917 0.391589 0.804963
O O6 0.785653 0.335903 0.730106
O O7 0.108368 0.867127 0.574200
O O8 0.319214 0.967162 0.603223
O O9 0.196036 0.662804 0.869648
O O10 0.425602 0.757405 0.870084
O O11 0.285653 0.835903 0.811794
O O12 0.000000 0.500000 0.882344
O O13 0.891589 0.819083 0.736937
O O14 0.049402 0.834487 0.798785
O O15 0.196036 0.662804 0.172252
O O16 0.242595 0.425602 0.171816
O O17 0.000000 0.500000 0.159557
#
# Coordination Sequence:
#
# PCOD9541835 Si02
#       8
#     8   8   8   8   8   8   8   8
#     4   9  18  35  61  89 115 144 181 231 287 349
#     4  10  20  36  54  72 104 151 193 231 281 324
#     4   9  18  35  61  89 115 144 181 231 287 349
#     4  11  22  36  51  83 112 142 193 236 276 338
#     4  12  23  36  58  84 115 152 187 234 292 338
#     4  10  20  36  54  72 104 151 193 231 281 324
#     4  12  23  36  58  84 115 152 187 234 292 338
#     4  11  22  36  51  83 112 142 193 236 276 338
#
# _framework density 17.74081
#
# number of rings (size 3 to 8) (size 9 to 14) (size 15 to 20)
#    0.000    1.500    5.000    2.250    0.000    1.000 
#    0.000    0.000    0.000    0.000    0.000    0.000 
#    0.000    4.000    0.000    0.000    0.000    0.000 
#
# Total GULP energy -178188.274889 kJ/mol
# GULP energy per Si atom -5568.383590 kJ/mol
# Density = 1.770043 g / cm^3
# Si number density = 17.740810 Si / 1000 Ang^3
#
#
#
# Elastic Constant Matrix: (Units=GPa)
#
#
# Indices 1 2 3 4 5 6 
#
# 1 -46.1811 82.4222 25.6936 0.0000 0.0000 29.3945
# 2 82.4222 -46.1811 25.6936 0.0000 0.0000 -29.3945
# 3 25.6936 25.6936 104.8884 0.0000 0.0000 0.0000
# 4 0.0000 0.0000 0.0000 22.0799 0.0000 0.0000
# 5 0.0000 0.0000 0.0000 0.0000 22.0799 0.0000
# 6 29.3945 -29.3945 0.0000 0.0000 0.0000 15.6757
#
#
#
# Elastic Compliance Matrix: (Units=1/GPa)
#
#
# Indices 1 2 3 4 5 6 
#
# 1 0.019045 0.023232 -0.010356 0.000000 0.000000 0.007851
# 2 0.023232 0.019045 -0.010356 0.000000 0.000000 -0.007851
# 3 -0.010356 -0.010356 0.014608 0.000000 0.000000 0.000000
# 4 0.000000 0.000000 0.000000 0.045290 0.000000 0.000000
# 5 0.000000 0.000000 0.000000 0.000000 0.045290 0.000000
# 6 0.007851 -0.007851 0.000000 0.000000 0.000000 0.034349
#
#
# Mechanical properties :
#
#
# Convention : Reuss Voigt Hill
#
# Bulk Modulus (GPa) = 17.31984 31.12724 24.22354
# Shear Modulus (GPa) = 26.06414 3.88154 14.97284
#
# Velocity S-wave (km/s) = 3.83712 1.48076 2.90828
# Velocity P-wave (km/s) = 5.42358 4.52849 4.99612
#
# Compressibility (1/GPa) = 0.05773725
#
# Stress axis : x y z
#
# Youngs Moduli (GPa) = 52.50642 52.50642 68.45674
#
# Poissons Ratio (x) = -1.21984 0.70896
# Poissons Ratio (y) = -1.21984 0.70896
# Poissons Ratio (z) = 0.54378 0.54378
#
# Static dielectric constant tensor:
#      x y z
#    x 1.612770 0.000000 0.000000 
#    y 0.000000 1.612770 0.000000 
#    z 0.000000 0.000000 1.615450 
# 
# From -- ./inp_files/2065.got.cif
#   From: 2010.05.17/outbox.cif.g08.bks.cpg/sg79_cif.got.tgz:2065.got - 2010.06.03 18:47:27.
