data_PCOD9541196
_publ_section_title
;
Structure prediction by ZEFSAII (Michael W. Deem and Ramdas Pophale) SiO2 
 PCOD9541196
Probable space group: P 41
;
_chemical_formula_sum "Si O2"
_cell_formula_units_Z 16
_cell_length_a 9.782688
_cell_length_b 9.782688
_cell_length_c 7.994092
_cell_angle_alpha 90.000000
_cell_angle_beta 90.000000
_cell_angle_gamma 90.000000
_cell_volume 765.042475
_symmetry_space_group_name_H-M "P 41"
_symmetry_group_IT_number 76
_symmetry_cell_setting 'tetragonal'
loop_
_space_group_symop_operation_xyz
x,y,z
-y,x,1/4+z
-x,-y,1/2+z
y,-x,3/4+z
loop_
_atom_site_type_symbol
_atom_site_label
_atom_site_fract_x
_atom_site_fract_y
_atom_site_fract_z
Si Si1 0.569759 0.667338 0.756130
Si Si2 0.374529 0.142906 0.760999
Si Si3 0.581749 0.961862 0.607183
Si Si4 0.791332 0.668287 0.039379
O O1 0.613708 0.554999 0.619532
O O2 0.543633 0.813997 0.674941
O O3 0.696479 0.694869 0.880326
O O4 0.350836 0.051655 0.924928
O O5 0.255884 0.236576 0.690012
O O6 0.505993 0.232764 0.818292
O O7 0.441939 0.051427 0.613117
O O8 0.675155 0.051082 0.732656
#
# Coordination Sequence:
#
# PCOD9541196 Si02
#       4
#     4   4   4   4
#     4  12  25  39  66 106 141 177 243 297 358 423
#     4  10  21  42  65 101 143 188 231 287 362 425
#     4  10  24  40  68 104 142 192 226 302 366 424
#     4  10  22  41  65  99 142 181 230 294 354 424
#
# _framework density 20.913871
#
# number of rings (size 3 to 8) (size 9 to 14) (size 15 to 20)
#    1.500    0.000    2.500    3.000    7.000    0.000 
#    0.000    0.000    0.000    6.000    0.000    0.000 
#    0.000    0.000    0.000    0.000    0.000    0.000 
#
# Total GULP energy -89176.011428 kJ/mol
# GULP energy per Si atom -5573.500714 kJ/mol
# Density = 2.086627 g / cm^3
# Si number density = 20.913871 Si / 1000 Ang^3
#
#
#
# Elastic Constant Matrix: (Units=GPa)
#
#
# Indices 1 2 3 4 5 6 
#
# 1 96.6981 36.6739 57.2667 0.0000 0.0000 -5.4623
# 2 36.6739 96.6981 57.2667 0.0000 0.0000 5.4623
# 3 57.2667 57.2667 132.9452 0.0000 0.0000 0.0000
# 4 0.0000 0.0000 0.0000 32.4656 0.0000 0.0000
# 5 0.0000 0.0000 0.0000 0.0000 32.4656 0.0000
# 6 -5.4623 5.4623 0.0000 0.0000 0.0000 16.8661
#
#
#
# Elastic Compliance Matrix: (Units=1/GPa)
#
#
# Indices 1 2 3 4 5 6 
#
# 1 0.014802 -0.002902 -0.005126 0.000000 0.000000 0.005734
# 2 -0.002902 0.014802 -0.005126 0.000000 0.000000 -0.005734
# 3 -0.005126 -0.005126 0.011938 0.000000 0.000000 0.000000
# 4 0.000000 0.000000 0.000000 0.030802 0.000000 0.000000
# 5 0.000000 0.000000 0.000000 0.000000 0.030802 0.000000
# 6 0.005734 -0.005734 0.000000 0.000000 0.000000 0.063004
#
#
# Mechanical properties :
#
#
# Convention : Reuss Voigt Hill
#
# Bulk Modulus (GPa) = 65.64341 69.86180 67.75260
# Shear Modulus (GPa) = 25.31213 28.03508 26.67360
#
# Velocity S-wave (km/s) = 3.48272 3.66526 3.57515
# Velocity P-wave (km/s) = 6.90131 7.16863 7.03624
#
# Compressibility (1/GPa) = 0.01523382
#
# Stress axis : x y z
#
# Youngs Moduli (GPa) = 67.56043 67.56043 83.76727
#
# Poissons Ratio (x) = 0.19606 0.42938
# Poissons Ratio (y) = 0.19606 0.42938
# Poissons Ratio (z) = 0.34630 0.34630
#
# Static dielectric constant tensor:
#      x y z
#    x 1.764740 0.000000 0.000000 
#    y 0.000000 1.764740 0.000000 
#    z 0.000000 0.000000 1.879480 
# 
# From -- ./inp_files/425.got.cif
#   From: 2010.05.17/outbox.cif.g08.bks.cpg/sg76_cif.got.tgz:425.got - 2010.06.03 18:43:17.
