data_PCOD9541549
_publ_section_title
;
Structure prediction by ZEFSAII (Michael W. Deem and Ramdas Pophale) SiO2 
 PCOD9541549
Probable space group: P 42
;
_chemical_formula_sum "Si O2"
_cell_formula_units_Z 12
_cell_length_a 5.032566
_cell_length_b 5.032566
_cell_length_c 18.082902
_cell_angle_alpha 90.000000
_cell_angle_beta 90.000000
_cell_angle_gamma 90.000000
_cell_volume 457.980606
_symmetry_space_group_name_H-M "P 42"
_symmetry_group_IT_number 77
_symmetry_cell_setting 'tetragonal'
loop_
_space_group_symop_operation_xyz
x,y,z
-y,x,1/2+z
-x,-y,z
y,-x,1/2+z
loop_
_atom_site_type_symbol
_atom_site_label
_atom_site_fract_x
_atom_site_fract_y
_atom_site_fract_z
Si Si1 0.748035 0.809485 0.565550
Si Si2 0.190515 0.251965 0.802435
Si Si3 0.500000 0.500000 0.933993
Si Si4 0.500000 0.500000 0.183993
O O1 0.683932 0.680486 0.486330
O O2 0.729698 0.569839 0.624473
O O3 0.500000 0.000000 0.584439
O O4 0.000000 0.000000 0.566827
O O5 0.319513 0.316069 0.881655
O O6 0.430161 0.270302 0.743513
O O7 0.000000 0.500000 0.783547
O O8 0.000000 0.000000 0.801159
#
# Coordination Sequence:
#
# PCOD9541549 Si02
#       4
#     4   4   2   2
#     4  11  26  46  77 112 160 211 271 340 417 494
#     4  11  26  46  77 112 160 211 271 340 417 494
#     4  10  26  48  72 118 156 216 274 344 416 506
#     4  10  26  42  74 112 160 202 274 332 420 488
#
# _framework density 26.201989000000001
#
# number of rings (size 3 to 8) (size 9 to 14) (size 15 to 20)
#    0.000    1.333    0.000    2.000    9.333   16.000 
#    0.000    0.000    0.000    0.000    0.000    0.000 
#    0.000    0.000    0.000    0.000    0.000    0.000 
#
# Total GULP energy -67111.312049 kJ/mol
# GULP energy per Si atom -5592.609337 kJ/mol
# Density = 2.614235 g / cm^3
# Si number density = 26.201989 Si / 1000 Ang^3
#
#
#
# Elastic Constant Matrix: (Units=GPa)
#
#
# Indices 1 2 3 4 5 6 
#
# 1 219.3401 121.6731 81.9494 0.0000 0.0000 -0.0001
# 2 121.6731 219.3401 81.9494 0.0000 0.0000 0.0001
# 3 81.9494 81.9494 220.8371 0.0000 0.0000 0.0000
# 4 0.0000 0.0000 0.0000 -1.5891 0.0000 0.0000
# 5 0.0000 0.0000 0.0000 0.0000 -1.5891 0.0000
# 6 -0.0001 0.0001 0.0000 0.0000 0.0000 80.0167
#
#
#
# Elastic Compliance Matrix: (Units=1/GPa)
#
#
# Indices 1 2 3 4 5 6 
#
# 1 0.006904 -0.003335 -0.001324 0.000000 0.000000 0.000000
# 2 -0.003335 0.006904 -0.001324 0.000000 0.000000 0.000000
# 3 -0.001324 -0.001324 0.005511 0.000000 0.000000 0.000000
# 4 0.000000 0.000000 0.000000 -0.629271 0.000000 0.000000
# 5 0.000000 0.000000 0.000000 0.000000 -0.629271 0.000000
# 6 0.000000 0.000000 0.000000 0.000000 0.000000 0.012497
#
#
# Mechanical properties :
#
#
# Convention : Reuss Voigt Hill
#
# Bulk Modulus (GPa) = 136.02625 136.74011 136.38318
# Shear Modulus (GPa) = -4.12437 40.29738 18.08651
#
# Velocity S-wave (km/s) = -1.25598 3.92593 2.63015
# Velocity P-wave (km/s) = 7.06568 8.53526 7.83501
#
# Compressibility (1/GPa) = 0.00735152
#
# Stress axis : x y z
#
# Youngs Moduli (GPa) = 144.84518 144.84518 181.45030
#
# Poissons Ratio (x) = 0.48305 0.24031
# Poissons Ratio (y) = 0.48305 0.24031
# Poissons Ratio (z) = 0.19183 0.19183
#
# Static dielectric constant tensor:
#      x y z
#    x 1.855810 0.000000 0.000000 
#    y 0.000000 1.855810 0.000000 
#    z 0.000000 0.000000 2.051100 
# 
# From -- ./inp_files/1213.got.cif
#   From: 2010.05.17/outbox.cif.g08.bks.cpg/sg77_cif.got.tgz:1213.got - 2010.06.03 18:44:51.
