data_PCOD9541472
_publ_section_title
;
Structure prediction by ZEFSAII (Michael W. Deem and Ramdas Pophale) SiO2 
 PCOD9541472
Probable space group: P 42
;
_chemical_formula_sum "Si O2"
_cell_formula_units_Z 20
_cell_length_a 8.435294
_cell_length_b 8.435294
_cell_length_c 12.416006
_cell_angle_alpha 90.000000
_cell_angle_beta 90.000000
_cell_angle_gamma 90.000000
_cell_volume 883.450786
_symmetry_space_group_name_H-M "P 42"
_symmetry_group_IT_number 77
_symmetry_cell_setting 'tetragonal'
loop_
_space_group_symop_operation_xyz
x,y,z
-y,x,1/2+z
-x,-y,z
y,-x,1/2+z
loop_
_atom_site_type_symbol
_atom_site_label
_atom_site_fract_x
_atom_site_fract_y
_atom_site_fract_z
Si Si1 0.729206 0.708935 0.136090
Si Si2 0.289484 0.647106 0.034885
Si Si3 0.528538 0.820993 0.328381
Si Si4 0.381213 0.237661 0.924126
Si Si5 0.668774 0.940068 0.705995
O O1 0.551846 0.288813 0.975401
O O2 0.601054 0.730224 0.228170
O O3 0.894056 0.755826 0.193287
O O4 0.709908 0.816893 0.030864
O O5 0.202984 0.736379 0.133632
O O6 0.169090 0.638401 0.934606
O O7 0.303734 0.470023 0.088518
O O8 0.384624 0.714195 0.372018
O O9 0.500000 0.000000 0.294024
O O10 0.373767 0.115954 0.825671
O O11 0.500000 0.000000 0.656255
#
# Coordination Sequence:
#
# PCOD9541472 Si02
#       5
#     4   4   4   4   4
#     4  10  21  37  59  90 131 172 209 262 331 391
#     4  10  19  35  63  96 123 157 212 275 330 383
#     4  11  22  38  61  90 127 168 216 270 325 388
#     4  11  22  38  66  96 122 164 221 274 326 387
#     4  10  21  38  61  94 133 165 207 269 333 389
#
# _framework density 22.638501000000002
#
# number of rings (size 3 to 8) (size 9 to 14) (size 15 to 20)
#    0.000    1.600    0.000    9.000    0.000    4.000 
#    0.000    3.000    0.000    4.800    0.000    0.000 
#    0.000    0.000    0.000    0.000    0.000    0.000 
#
# Total GULP energy -111343.797258 kJ/mol
# GULP energy per Si atom -5567.189863 kJ/mol
# Density = 2.258697 g / cm^3
# Si number density = 22.638501 Si / 1000 Ang^3
#
#
#
# Elastic Constant Matrix: (Units=GPa)
#
#
# Indices 1 2 3 4 5 6 
#
# 1 509.5182 -405.7540 61.5418 0.0000 0.0000 -190.0804
# 2 -405.7540 509.5182 61.5418 0.0000 0.0000 190.0804
# 3 61.5418 61.5418 198.9485 0.0000 0.0000 0.0000
# 4 0.0000 0.0000 0.0000 31.5115 0.0000 0.0000
# 5 0.0000 0.0000 0.0000 0.0000 31.5115 0.0000
# 6 -190.0804 190.0804 0.0000 0.0000 0.0000 86.3147
#
#
#
# Elastic Compliance Matrix: (Units=1/GPa)
#
#
# Indices 1 2 3 4 5 6 
#
# 1 0.014014 0.001209 -0.004709 0.000000 0.000000 0.028200
# 2 0.001209 0.014014 -0.004709 0.000000 0.000000 -0.028200
# 3 -0.004709 -0.004709 0.007940 0.000000 0.000000 0.000000
# 4 0.000000 0.000000 0.000000 0.031734 0.000000 0.000000
# 5 0.000000 0.000000 0.000000 0.000000 0.031734 0.000000
# 6 0.028200 -0.028200 0.000000 0.000000 0.000000 0.135790
#
#
# Mechanical properties :
#
#
# Convention : Reuss Voigt Hill
#
# Bulk Modulus (GPa) = 51.15164 72.51601 61.83383
# Shear Modulus (GPa) = 19.36760 129.91122 74.63941
#
# Velocity S-wave (km/s) = 2.92809 7.58351 5.74819
# Velocity P-wave (km/s) = 5.83744 10.42982 8.45154
#
# Compressibility (1/GPa) = 0.01954972
#
# Stress axis : x y z
#
# Youngs Moduli (GPa) = 71.35537 71.35537 125.94837
#
# Poissons Ratio (x) = -0.08624 0.59309
# Poissons Ratio (y) = -0.08624 0.59309
# Poissons Ratio (z) = 0.33601 0.33601
#
# Static dielectric constant tensor:
#      x y z
#    x 2.059780 0.000000 0.000000 
#    y 0.000000 2.059780 0.000000 
#    z 0.000000 0.000000 1.856080 
# 
# From -- ./inp_files/767.got.cif
#   From: 2010.05.17/outbox.cif.g08.bks.cpg/sg77_cif.got.tgz:767.got - 2010.06.03 18:44:51.
