data_PCOD9541373
_publ_section_title
;
Structure prediction by ZEFSAII (Michael W. Deem and Ramdas Pophale) SiO2 
 PCOD9541373
Probable space group: P 41
;
_chemical_formula_sum "Si O2"
_cell_formula_units_Z 28
_cell_length_a 12.417131
_cell_length_b 12.417131
_cell_length_c 7.584854
_cell_angle_alpha 90.000000
_cell_angle_beta 90.000000
_cell_angle_gamma 90.000000
_cell_volume 1169.471793
_symmetry_space_group_name_H-M "P 41"
_symmetry_group_IT_number 76
_symmetry_cell_setting 'tetragonal'
loop_
_space_group_symop_operation_xyz
x,y,z
-y,x,1/4+z
-x,-y,1/2+z
y,-x,3/4+z
loop_
_atom_site_type_symbol
_atom_site_label
_atom_site_fract_x
_atom_site_fract_y
_atom_site_fract_z
Si Si1 0.696772 0.155363 0.462710
Si Si2 0.261918 0.697891 0.288440
Si Si3 0.133241 0.932107 0.749632
Si Si4 0.432222 0.610741 0.488543
Si Si5 0.338503 0.020042 0.560081
Si Si6 0.580450 0.981908 0.667935
Si Si7 0.510163 0.754868 0.773903
O O1 0.695947 0.219903 0.644709
O O2 0.819081 0.153450 0.391117
O O3 0.607820 0.208406 0.336358
O O4 0.651969 0.036790 0.516555
O O5 0.334589 0.692338 0.459995
O O6 0.266575 0.580364 0.196256
O O7 0.137653 0.713754 0.324836
O O8 0.244268 0.948102 0.640284
O O9 0.036285 0.900387 0.618576
O O10 0.392189 0.497029 0.557689
O O11 0.506535 0.654592 0.644757
O O12 0.456704 0.022724 0.650763
O O13 0.367466 0.992536 0.357916
O O14 0.566344 0.853151 0.669079
#
# Coordination Sequence:
#
# PCOD9541373 Si02
#       7
#     4   4   4   4   4   4   4
#     4  12  26  47  73 107 148 191 246 309 370 438
#     4  11  26  43  73 103 143 187 239 297 367 443
#     4  12  32  51  74 106 151 199 250 307 379 451
#     4  12  26  43  71 101 150 190 235 291 369 451
#     4  11  25  47  75 109 141 189 243 304 374 432
#     4  11  23  45  77 109 145 183 246 318 360 435
#     4  11  24  46  69 107 140 185 243 304 367 438
#
# _framework density 23.942433999999999
#
# number of rings (size 3 to 8) (size 9 to 14) (size 15 to 20)
#    0.000    0.571    4.286    2.571   12.000    1.143 
#    0.000    0.000    0.000    0.000    0.000    0.000 
#    0.000    0.000    0.000    0.000    0.000    0.000 
#
# Total GULP energy -156644.913581 kJ/mol
# GULP energy per Si atom -5594.461199 kJ/mol
# Density = 2.388794 g / cm^3
# Si number density = 23.942434 Si / 1000 Ang^3
#
#
#
# Elastic Constant Matrix: (Units=GPa)
#
#
# Indices 1 2 3 4 5 6 
#
# 1 66.8847 1.2470 -0.6353 0.0000 0.0000 2.9460
# 2 1.2470 66.8847 -0.6353 0.0000 0.0000 -2.9460
# 3 -0.6353 -0.6353 22.3456 0.0000 0.0000 0.0000
# 4 0.0000 0.0000 0.0000 41.4126 0.0000 0.0000
# 5 0.0000 0.0000 0.0000 0.0000 41.4126 0.0000
# 6 2.9460 -2.9460 0.0000 0.0000 0.0000 20.9908
#
#
#
# Elastic Compliance Matrix: (Units=1/GPa)
#
#
# Indices 1 2 3 4 5 6 
#
# 1 0.015057 -0.000372 0.000418 0.000000 0.000000 -0.002165
# 2 -0.000372 0.015057 0.000418 0.000000 0.000000 0.002165
# 3 0.000418 0.000418 0.044775 0.000000 0.000000 0.000000
# 4 0.000000 0.000000 0.000000 0.024147 0.000000 0.000000
# 5 0.000000 0.000000 0.000000 0.000000 0.024147 0.000000
# 6 -0.002165 0.002165 0.000000 0.000000 0.000000 0.048248
#
#
# Mechanical properties :
#
#
# Convention : Reuss Voigt Hill
#
# Bulk Modulus (GPa) = 13.18984 17.34085 15.26535
# Shear Modulus (GPa) = 25.53909 31.17246 28.35578
#
# Velocity S-wave (km/s) = 3.26956 3.61220 3.44515
# Velocity P-wave (km/s) = 4.44683 4.96546 4.71329
#
# Compressibility (1/GPa) = 0.07581591
#
# Stress axis : x y z
#
# Youngs Moduli (GPa) = 66.41256 66.41256 22.33377
#
# Poissons Ratio (x) = 0.02472 -0.00933
# Poissons Ratio (y) = 0.02472 -0.00933
# Poissons Ratio (z) = -0.02773 -0.02773
#
# Static dielectric constant tensor:
#      x y z
#    x 1.908230 0.000000 0.000000 
#    y 0.000000 1.908230 0.000000 
#    z 0.000000 0.000000 1.924110 
# 
# From -- ./inp_files/611.got.cif
#   From: 2010.05.17/outbox.cif.g08.bks.cpg/sg76_cif.got.tgz:611.got - 2010.06.03 18:43:17.
