data_PCOD9541018
_publ_section_title
;
Structure prediction by ZEFSAII (Michael W. Deem and Ramdas Pophale) SiO2 
 PCOD9541018
Probable space group: P 4
;
_chemical_formula_sum "Si O2"
_cell_formula_units_Z 25
_cell_length_a 11.704516
_cell_length_b 11.704516
_cell_length_c 7.679079
_cell_angle_alpha 90.000000
_cell_angle_beta 90.000000
_cell_angle_gamma 90.000000
_cell_volume 1052.000763
_symmetry_space_group_name_H-M "P 4"
_symmetry_group_IT_number 75
_symmetry_cell_setting 'tetragonal'
loop_
_space_group_symop_operation_xyz
x,y,z
-y,x,z
-x,-y,z
y,-x,z
loop_
_atom_site_type_symbol
_atom_site_label
_atom_site_fract_x
_atom_site_fract_y
_atom_site_fract_z
Si Si1 0.986491 0.814632 0.076880
Si Si2 0.422455 0.826142 0.507048
Si Si3 0.004698 0.749757 0.670976
Si Si4 0.594103 0.334460 0.975569
Si Si5 0.259873 0.662435 0.625469
Si Si6 0.417729 0.909803 0.142951
Si Si7 0.000000 0.000000 0.532045
O O1 0.977460 0.698223 0.178008
O O2 0.100473 0.883416 0.117479
O O3 0.980602 0.787352 0.870557
O O4 0.325383 0.729859 0.472666
O O5 0.531278 0.767660 0.593787
O O6 0.469471 0.876140 0.327307
O O7 0.356384 0.924532 0.615123
O O8 0.137843 0.717549 0.665092
O O9 0.981812 0.860203 0.552535
O O10 0.648126 0.459006 0.019358
O O11 0.650123 0.324699 0.783071
O O12 0.616395 0.208625 0.052201
O O13 0.500000 0.000000 0.045627
#
# Coordination Sequence:
#
# PCOD9541018 Si02
#       7
#     4   4   4   4   4   4   1
#     4  11  23  44  72 106 144 192 250 312 377 450
#     4  12  28  47  72 107 151 202 251 315 388 472
#     4  12  22  44  72 110 142 191 249 321 376 452
#     4  11  26  49  75 111 142 190 253 311 374 449
#     4  12  25  47  79 105 148 189 259 320 377 443
#     4  12  30  47  71 107 155 198 243 307 391 467
#     4  12  20  40  72 102 140 176 248 302 388 428
#
# _framework density 23.764240999999998
#
# number of rings (size 3 to 8) (size 9 to 14) (size 15 to 20)
#    0.000    0.320    4.800    3.360    6.720    1.600 
#    0.000    0.000    0.000    0.000    0.000    0.000 
#    0.000    0.000    0.000    0.000    0.000    0.000 
#
# Total GULP energy -139464.806397 kJ/mol
# GULP energy per Si atom -5578.592256 kJ/mol
# Density = 2.371015 g / cm^3
# Si number density = 23.764241 Si / 1000 Ang^3
#
#
#
# Elastic Constant Matrix: (Units=GPa)
#
#
# Indices 1 2 3 4 5 6 
#
# 1 127.9699 72.7461 19.2580 0.0000 0.0000 -35.5575
# 2 72.7461 127.9699 19.2580 0.0000 0.0000 35.5575
# 3 19.2580 19.2580 34.9186 0.0000 0.0000 0.0000
# 4 0.0000 0.0000 0.0000 18.1083 0.0000 0.0000
# 5 0.0000 0.0000 0.0000 0.0000 18.1083 0.0000
# 6 -35.5575 35.5575 0.0000 0.0000 0.0000 10.8403
#
#
#
# Elastic Compliance Matrix: (Units=1/GPa)
#
#
# Indices 1 2 3 4 5 6 
#
# 1 -0.000022 0.005594 -0.003073 0.000000 0.000000 -0.018423
# 2 0.005594 -0.000022 -0.003073 0.000000 0.000000 0.018423
# 3 -0.003073 -0.003073 0.032028 0.000000 0.000000 0.000000
# 4 0.000000 0.000000 0.000000 0.055223 0.000000 0.000000
# 5 0.000000 0.000000 0.000000 0.000000 0.055223 0.000000
# 6 -0.018423 0.018423 0.000000 0.000000 0.000000 -0.028613
#
#
# Mechanical properties :
#
#
# Convention : Reuss Voigt Hill
#
# Bulk Modulus (GPa) = 32.38393 57.04251 44.71322
# Shear Modulus (GPa) = 39.93205 21.38448 30.65827
#
# Velocity S-wave (km/s) = 4.10364 3.00302 3.59569
# Velocity P-wave (km/s) = 6.00916 6.00665 6.00790
#
# Compressibility (1/GPa) = 0.03087952
#
# Stress axis : x y z
#
# Youngs Moduli (GPa) = -44637.83634 -44637.83634 31.22311
#
# Poissons Ratio (x) = 249.71468 0.09595
# Poissons Ratio (y) = 249.71468 0.09595
# Poissons Ratio (z) = -137.16888 -137.16888
#
# Static dielectric constant tensor:
#      x y z
#    x 1.893960 0.000000 0.000000 
#    y 0.000000 1.893960 0.000000 
#    z 0.000000 0.000000 1.977490 
# 
# From -- ./inp_files/359.got.cif
#   From: 2010.05.17/outbox.cif.g08.bks.cpg/sg75_cif.got.tgz:359.got - 2010.06.03 18:42:43.
