data_PCOD9541045
_publ_section_title
;
Structure prediction by ZEFSAII (Michael W. Deem and Ramdas Pophale) SiO2 
 PCOD9541045
Probable space group: P 4
;
_chemical_formula_sum "Si O2"
_cell_formula_units_Z 18
_cell_length_a 8.233954
_cell_length_b 8.233954
_cell_length_c 12.319525
_cell_angle_alpha 90.000000
_cell_angle_beta 90.000000
_cell_angle_gamma 90.000000
_cell_volume 835.239137
_symmetry_space_group_name_H-M "P 4"
_symmetry_group_IT_number 75
_symmetry_cell_setting 'tetragonal'
loop_
_space_group_symop_operation_xyz
x,y,z
-y,x,z
-x,-y,z
y,-x,z
loop_
_atom_site_type_symbol
_atom_site_label
_atom_site_fract_x
_atom_site_fract_y
_atom_site_fract_z
Si Si1 0.406873 0.754497 0.724440
Si Si2 0.456262 0.767530 0.108503
Si Si3 0.928474 0.737042 0.920765
Si Si4 0.592996 0.242765 0.469447
Si Si5 0.000000 0.500000 0.311878
O O1 0.300420 0.591942 0.744768
O O2 0.346105 0.890857 0.805740
O O3 0.392401 0.794105 0.597177
O O4 0.323383 0.625902 0.097955
O O5 0.481219 0.855390 0.223584
O O6 0.386821 0.885679 0.016412
O O7 0.107924 0.808681 0.929073
O O8 0.700432 0.404675 0.447103
O O9 0.625587 0.081833 0.399116
#
# Coordination Sequence:
#
# PCOD9541045 Si02
#       5
#     4   4   4   4   2
#     4   9  19  37  62  91 123 163 210 255 302 367
#     4  11  24  42  64  89 120 164 216 261 309 375
#     4  11  24  40  60  93 135 170 204 254 316 374
#     4   9  20  39  62  90 122 159 207 256 306 372
#     4  12  22  36  62  90 116 154 202 266 322 354
#
# _framework density 21.550713999999999
#
# number of rings (size 3 to 8) (size 9 to 14) (size 15 to 20)
#    0.000    1.778    0.000    5.333    0.000    9.778 
#    0.000    0.000    0.000    6.000    0.000    0.000 
#    0.000    0.000    0.000    0.000    0.000    0.000 
#
# Total GULP energy -100287.770780 kJ/mol
# GULP energy per Si atom -5571.542821 kJ/mol
# Density = 2.150166 g / cm^3
# Si number density = 21.550714 Si / 1000 Ang^3
#
#
#
# Elastic Constant Matrix: (Units=GPa)
#
#
# Indices 1 2 3 4 5 6 
#
# 1 109.9855 59.5566 68.1328 0.0000 0.0000 -12.6096
# 2 59.5566 109.9855 68.1328 0.0000 0.0000 12.6096
# 3 68.1328 68.1328 125.2551 0.0000 0.0000 0.0000
# 4 0.0000 0.0000 0.0000 25.6891 0.0000 0.0000
# 5 0.0000 0.0000 0.0000 0.0000 25.6891 0.0000
# 6 -12.6096 12.6096 0.0000 0.0000 0.0000 41.0937
#
#
#
# Elastic Compliance Matrix: (Units=1/GPa)
#
#
# Indices 1 2 3 4 5 6 
#
# 1 0.016952 -0.006472 -0.005701 0.000000 0.000000 0.007188
# 2 -0.006472 0.016952 -0.005701 0.000000 0.000000 -0.007188
# 3 -0.005701 -0.005701 0.014185 0.000000 0.000000 0.000000
# 4 0.000000 0.000000 0.000000 0.038927 0.000000 0.000000
# 5 0.000000 0.000000 0.000000 0.000000 0.038927 0.000000
# 6 0.007188 -0.007188 0.000000 0.000000 0.000000 0.028746
#
#
# Mechanical properties :
#
#
# Convention : Reuss Voigt Hill
#
# Bulk Modulus (GPa) = 81.01793 81.87449 81.44621
# Shear Modulus (GPa) = 25.70023 28.45467 27.07745
#
# Velocity S-wave (km/s) = 3.45707 3.63762 3.54849
# Velocity P-wave (km/s) = 7.32194 7.46438 7.39351
#
# Compressibility (1/GPa) = 0.01234295
#
# Stress axis : x y z
#
# Youngs Moduli (GPa) = 58.98929 58.98929 70.49492
#
# Poissons Ratio (x) = 0.38179 0.40186
# Poissons Ratio (y) = 0.38179 0.40186
# Poissons Ratio (z) = 0.33627 0.33627
#
# Static dielectric constant tensor:
#      x y z
#    x 1.797480 0.000000 0.000000 
#    y 0.000000 1.797480 0.000000 
#    z 0.000000 0.000000 1.764680 
# 
# From -- ./inp_files/486.got.cif
#   From: 2010.05.17/outbox.cif.g08.bks.cpg/sg75_cif.got.tgz:486.got - 2010.06.03 18:42:43.
