data_PCOD9541512
_publ_section_title
;
Structure prediction by ZEFSAII (Michael W. Deem and Ramdas Pophale) SiO2 
 PCOD9541512
Probable space group: P 42
;
_chemical_formula_sum "Si O2"
_cell_formula_units_Z 24
_cell_length_a 11.416134
_cell_length_b 11.416134
_cell_length_c 8.253503
_cell_angle_alpha 90.000000
_cell_angle_beta 90.000000
_cell_angle_gamma 90.000000
_cell_volume 1075.663492
_symmetry_space_group_name_H-M "P 42"
_symmetry_group_IT_number 77
_symmetry_cell_setting 'tetragonal'
loop_
_space_group_symop_operation_xyz
x,y,z
-y,x,1/2+z
-x,-y,z
y,-x,1/2+z
loop_
_atom_site_type_symbol
_atom_site_label
_atom_site_fract_x
_atom_site_fract_y
_atom_site_fract_z
Si Si1 0.326690 0.823259 0.853400
Si Si2 0.862864 0.739350 0.990306
Si Si3 0.925695 0.312478 0.513216
Si Si4 0.304696 0.536956 0.496911
Si Si5 0.888260 0.323477 0.896396
Si Si6 0.539602 0.269557 0.360643
O O1 0.312988 0.817153 0.660148
O O2 0.417703 0.722988 0.904115
O O3 0.201864 0.781564 0.917548
O O4 0.346441 0.953450 0.925542
O O5 0.818266 0.873196 0.980212
O O6 0.806804 0.658778 0.850472
O O7 0.998648 0.711015 0.995445
O O8 0.814544 0.390250 0.459336
O O9 0.929765 0.330623 0.707729
O O10 0.416938 0.613528 0.450186
O O11 0.303735 0.508056 0.685895
O O12 0.817622 0.442448 0.936967
#
# Coordination Sequence:
#
# PCOD9541512 Si02
#       6
#     4   4   4   4   4   4
#     4  11  23  38  62  94 126 164 211 262 320 382
#     4  10  22  39  63  93 125 165 214 264 317 376
#     4   9  21  41  60  88 124 163 210 258 317 382
#     4  10  22  41  66  91 124 168 212 262 317 382
#     4  10  22  40  61  88 126 165 204 261 322 378
#     4  10  22  43  66  90 125 167 213 261 317 382
#
# _framework density 22.311809
#
# number of rings (size 3 to 8) (size 9 to 14) (size 15 to 20)
#    0.000    2.000    0.000    3.000    0.000   12.000 
#    0.000    8.333    0.000    2.000    0.000    0.000 
#    0.000    0.000    0.000    0.000    0.000    0.000 
#
# Total GULP energy -134002.926595 kJ/mol
# GULP energy per Si atom -5583.455275 kJ/mol
# Density = 2.226103 g / cm^3
# Si number density = 22.311809 Si / 1000 Ang^3
#
#
#
# Elastic Constant Matrix: (Units=GPa)
#
#
# Indices 1 2 3 4 5 6 
#
# 1 86.3832 57.0150 29.6024 0.0000 0.0000 0.3297
# 2 57.0150 86.3832 29.6024 0.0000 0.0000 -0.3297
# 3 29.6024 29.6024 21.7148 0.0000 0.0000 0.0000
# 4 0.0000 0.0000 0.0000 8.0903 0.0000 0.0000
# 5 0.0000 0.0000 0.0000 0.0000 8.0903 0.0000
# 6 0.3297 -0.3297 0.0000 0.0000 0.0000 31.5082
#
#
#
# Elastic Compliance Matrix: (Units=1/GPa)
#
#
# Indices 1 2 3 4 5 6 
#
# 1 0.025005 -0.009053 -0.021746 0.000000 0.000000 -0.000356
# 2 -0.009053 0.025005 -0.021746 0.000000 0.000000 0.000356
# 3 -0.021746 -0.021746 0.105342 0.000000 0.000000 0.000000
# 4 0.000000 0.000000 0.000000 0.123604 0.000000 0.000000
# 5 0.000000 0.000000 0.000000 0.000000 0.123604 0.000000
# 6 -0.000356 0.000356 0.000000 0.000000 0.000000 0.031745
#
#
# Mechanical properties :
#
#
# Convention : Reuss Voigt Hill
#
# Bulk Modulus (GPa) = 19.89619 47.43566 33.66592
# Shear Modulus (GPa) = 8.99035 14.75521 11.87278
#
# Velocity S-wave (km/s) = 2.00952 2.57440 2.30930
# Velocity P-wave (km/s) = 3.78430 5.49028 4.71509
#
# Compressibility (1/GPa) = 0.05026089
#
# Stress axis : x y z
#
# Youngs Moduli (GPa) = 39.99170 39.99170 9.49288
#
# Poissons Ratio (x) = 0.36205 0.20644
# Poissons Ratio (y) = 0.36205 0.20644
# Poissons Ratio (z) = 0.86967 0.86967
#
# Static dielectric constant tensor:
#      x y z
#    x 1.863040 0.000000 0.000000 
#    y 0.000000 1.863040 0.000000 
#    z 0.000000 0.000000 1.835690 
# 
# From -- ./inp_files/446.got.cif
#   From: 2010.05.17/outbox.cif.g08.bks.cpg/sg77_cif.got.tgz:446.got - 2010.06.03 18:44:51.
