data_PCOD9541296
_publ_section_title
;
Structure prediction by ZEFSAII (Michael W. Deem and Ramdas Pophale) SiO2 
 PCOD9541296
Probable space group: P 41
;
_chemical_formula_sum "Si O2"
_cell_formula_units_Z 28
_cell_length_a 15.022762
_cell_length_b 15.022762
_cell_length_c 6.269564
_cell_angle_alpha 90.000000
_cell_angle_beta 90.000000
_cell_angle_gamma 90.000000
_cell_volume 1414.936383
_symmetry_space_group_name_H-M "P 41"
_symmetry_group_IT_number 76
_symmetry_cell_setting 'tetragonal'
loop_
_space_group_symop_operation_xyz
x,y,z
-y,x,1/4+z
-x,-y,1/2+z
y,-x,3/4+z
loop_
_atom_site_type_symbol
_atom_site_label
_atom_site_fract_x
_atom_site_fract_y
_atom_site_fract_z
Si Si1 0.232841 0.915849 0.835860
Si Si2 0.937065 0.588946 0.412618
Si Si3 0.776105 0.870243 0.326833
Si Si4 0.212877 0.470207 0.620786
Si Si5 0.545560 0.880056 0.994761
Si Si6 0.781457 0.726387 0.948480
Si Si7 0.778575 0.365025 0.374657
O O1 0.314664 0.895306 0.678295
O O2 0.153815 0.859648 0.731124
O O3 0.223594 0.022397 0.822693
O O4 0.260561 0.874223 0.065836
O O5 0.885029 0.536837 0.228628
O O6 0.919575 0.542938 0.638156
O O7 0.040426 0.592271 0.366284
O O8 0.689412 0.830121 0.444008
O O9 0.777961 0.812736 0.105872
O O10 0.200712 0.517647 0.394377
O O11 0.234933 0.366583 0.576547
O O12 0.261251 0.542931 0.774345
O O13 0.604486 0.848831 0.800946
O O14 0.706704 0.722394 0.759772
#
# Coordination Sequence:
#
# PCOD9541296 Si02
#       7
#     4   4   4   4   4   4   4
#     4  11  24  41  60  86 122 175 223 266 318 377
#     4  11  20  32  57  90 122 163 200 255 332 389
#     4  11  25  44  61  89 129 171 223 271 319 372
#     4  11  21  36  61  90 130 164 204 257 324 391
#     4  11  21  34  57  94 129 156 198 258 325 395
#     4  11  23  42  64  89 134 170 212 267 326 384
#     4  10  24  37  60  94 130 163 208 258 328 388
#
# _framework density 19.788875000000001
#
# number of rings (size 3 to 8) (size 9 to 14) (size 15 to 20)
#    0.000    1.143    4.286    2.571    4.000    2.286 
#    2.571    0.000    0.000    0.000    0.000    0.000 
#   60.000    0.000    0.000    0.000    0.000    0.000 
#
# Total GULP energy -155893.294568 kJ/mol
# GULP energy per Si atom -5567.617663 kJ/mol
# Density = 1.974383 g / cm^3
# Si number density = 19.788875 Si / 1000 Ang^3
#
#
#
# Elastic Constant Matrix: (Units=GPa)
#
#
# Indices 1 2 3 4 5 6 
#
# 1 95.1566 22.1506 32.7570 0.0000 0.0000 -0.8683
# 2 22.1506 95.1566 32.7570 0.0000 0.0000 0.8683
# 3 32.7570 32.7570 81.4404 0.0000 0.0000 0.0000
# 4 0.0000 0.0000 0.0000 34.7960 0.0000 0.0000
# 5 0.0000 0.0000 0.0000 0.0000 34.7960 0.0000
# 6 -0.8683 0.8683 0.0000 0.0000 0.0000 8.0053
#
#
#
# Elastic Compliance Matrix: (Units=1/GPa)
#
#
# Indices 1 2 3 4 5 6 
#
# 1 0.012364 -0.001369 -0.004422 0.000000 0.000000 0.001490
# 2 -0.001369 0.012364 -0.004422 0.000000 0.000000 -0.001490
# 3 -0.004422 -0.004422 0.015836 0.000000 0.000000 0.000000
# 4 0.000000 0.000000 0.000000 0.028739 0.000000 0.000000
# 5 0.000000 0.000000 0.000000 0.000000 0.028739 0.000000
# 6 0.001490 -0.001490 0.000000 0.000000 0.000000 0.125240
#
#
# Mechanical properties :
#
#
# Convention : Reuss Voigt Hill
#
# Bulk Modulus (GPa) = 49.66146 49.67587 49.66866
# Shear Modulus (GPa) = 19.96641 27.79208 23.87924
#
# Velocity S-wave (km/s) = 3.17988 3.75164 3.47753
# Velocity P-wave (km/s) = 6.21549 6.62750 6.42480
#
# Compressibility (1/GPa) = 0.02013634
#
# Stress axis : x y z
#
# Youngs Moduli (GPa) = 80.88247 80.88247 63.14628
#
# Poissons Ratio (x) = 0.11075 0.27924
# Poissons Ratio (y) = 0.11075 0.27924
# Poissons Ratio (z) = 0.35767 0.35767
#
# Static dielectric constant tensor:
#      x y z
#    x 1.731820 0.000000 0.000000 
#    y 0.000000 1.731820 0.000000 
#    z 0.000000 0.000000 1.722580 
# 
# From -- ./inp_files/243.got.cif
#   From: 2010.05.17/outbox.cif.g08.bks.cpg/sg76_cif.got.tgz:243.got - 2010.06.03 18:43:17.
