data_PCOD9541820
_publ_section_title
;
Structure prediction by ZEFSAII (Michael W. Deem and Ramdas Pophale) SiO2 
 PCOD9541820
Probable space group: I 4
;
_chemical_formula_sum "Si O2"
_cell_formula_units_Z 32
_cell_length_a 16.385928
_cell_length_b 16.385928
_cell_length_c 5.015062
_cell_angle_alpha 90.000000
_cell_angle_beta 90.000000
_cell_angle_gamma 90.000000
_cell_volume 1346.537309
_symmetry_space_group_name_H-M "I 4"
_symmetry_group_IT_number 79
_symmetry_cell_setting 'tetragonal'
loop_
_space_group_symop_operation_xyz
x,y,z
-y,x,z
-x,-y,z
y,-x,z
1/2+x,1/2+y,1/2+z
1/2-y,1/2+x,1/2+z
1/2-x,1/2-y,1/2+z
1/2+y,1/2-x,1/2+z
loop_
_atom_site_type_symbol
_atom_site_label
_atom_site_fract_x
_atom_site_fract_y
_atom_site_fract_z
Si Si1 0.366285 0.315271 0.066910
Si Si2 0.980228 0.689262 0.360569
Si Si3 0.087969 0.895266 0.078078
Si Si4 0.654670 0.121080 0.817266
O O1 0.368895 0.383824 0.287779
O O2 0.329032 0.233385 0.202452
O O3 0.454181 0.273963 0.999934
O O4 0.345639 0.358775 0.791558
O O5 0.938435 0.628375 0.573887
O O6 0.075561 0.674731 0.365105
O O7 0.932619 0.680373 0.077411
O O8 0.109540 0.991212 0.105758
#
# Coordination Sequence:
#
# PCOD9541820 Si02
#       4
#     8   8   8   8
#     4  10  20  37  55  84 116 146 168 236 286 324
#     4  10  20  33  54  83 114 151 187 224 267 320
#     4  11  22  38  62  88 105 132 186 242 291 338
#     4  10  20  33  54  83 114 151 187 224 267 320
#
# _framework density 23.764661
#
# number of rings (size 3 to 8) (size 9 to 14) (size 15 to 20)
#    1.500    0.250    2.500    3.000    0.000    5.000 
#    0.000    0.000    0.000    6.000    0.000    0.000 
#    0.000    0.000    0.000    0.000    0.000    0.000 
#
# Total GULP energy -89132.068558 kJ/mol
# GULP energy per Si atom -5570.754285 kJ/mol
# Density = 2.371057 g / cm^3
# Si number density = 23.764661 Si / 1000 Ang^3
#
#
#
# Elastic Constant Matrix: (Units=GPa)
#
#
# Indices 1 2 3 4 5 6 
#
# 1 122.4660 -31.4065 25.5725 0.0000 0.0000 50.0950
# 2 -31.4065 122.4660 25.5725 0.0000 0.0000 -50.0950
# 3 25.5725 25.5725 164.4282 0.0000 0.0000 0.0000
# 4 0.0000 0.0000 0.0000 13.6830 0.0000 0.0000
# 5 0.0000 0.0000 0.0000 0.0000 13.6830 0.0000
# 6 50.0950 -50.0950 0.0000 0.0000 0.0000 85.6239
#
#
#
# Elastic Compliance Matrix: (Units=1/GPa)
#
#
# Indices 1 2 3 4 5 6 
#
# 1 0.011266 0.000767 -0.001871 0.000000 0.000000 -0.006142
# 2 0.000767 0.011266 -0.001871 0.000000 0.000000 0.006142
# 3 -0.001871 -0.001871 0.006664 0.000000 0.000000 0.000000
# 4 0.000000 0.000000 0.000000 0.073083 0.000000 0.000000
# 5 0.000000 0.000000 0.000000 0.000000 0.073083 0.000000
# 6 -0.006142 0.006142 0.000000 0.000000 0.000000 0.018866
#
#
# Mechanical properties :
#
#
# Convention : Reuss Voigt Hill
#
# Bulk Modulus (GPa) = 43.02180 49.87078 46.44629
# Shear Modulus (GPa) = 24.04704 48.57277 36.30990
#
# Velocity S-wave (km/s) = 3.18446 4.52586 3.91307
# Velocity P-wave (km/s) = 5.62704 6.95285 6.32478
#
# Compressibility (1/GPa) = 0.02324403
#
# Stress axis : x y z
#
# Youngs Moduli (GPa) = 88.76652 88.76652 150.06496
#
# Poissons Ratio (x) = -0.06812 0.28083
# Poissons Ratio (y) = -0.06812 0.28083
# Poissons Ratio (z) = 0.16612 0.16612
#
# Static dielectric constant tensor:
#      x y z
#    x 1.949600 0.000000 0.000000 
#    y 0.000000 1.949600 0.000000 
#    z 0.000000 0.000000 1.915570 
# 
# From -- ./inp_files/105.got.cif
#   From: 2010.05.17/outbox.cif.g08.bks.cpg/sg79_cif.got.tgz:105.got - 2010.06.03 18:47:27.
