data_PCOD9541123
_publ_section_title
;
Structure prediction by ZEFSAII (Michael W. Deem and Ramdas Pophale) SiO2 
 PCOD9541123
Probable space group: P 41
;
_chemical_formula_sum "Si O2"
_cell_formula_units_Z 16
_cell_length_a 7.963728
_cell_length_b 7.963728
_cell_length_c 9.132847
_cell_angle_alpha 90.000000
_cell_angle_beta 90.000000
_cell_angle_gamma 90.000000
_cell_volume 579.213958
_symmetry_space_group_name_H-M "P 41"
_symmetry_group_IT_number 76
_symmetry_cell_setting 'tetragonal'
loop_
_space_group_symop_operation_xyz
x,y,z
-y,x,1/4+z
-x,-y,1/2+z
y,-x,3/4+z
loop_
_atom_site_type_symbol
_atom_site_label
_atom_site_fract_x
_atom_site_fract_y
_atom_site_fract_z
Si Si1 0.107224 0.435477 0.195510
Si Si2 0.754550 0.226999 0.834791
Si Si3 0.105334 0.675079 0.944185
Si Si4 0.397282 0.363316 0.840598
O O1 0.145594 0.615187 0.271324
O O2 0.942375 0.363375 0.276230
O O3 0.233796 0.281298 0.215444
O O4 0.457753 0.396780 0.005086
O O5 0.785630 0.044176 0.768632
O O6 0.563868 0.267561 0.783063
O O7 0.737268 0.245775 0.011401
O O8 0.101627 0.495945 0.027999
#
# Coordination Sequence:
#
# PCOD9541123 Si02
#       4
#     4   4   4   4
#     4  12  26  54  81 117 170 213 273 345 409 491
#     4  10  19  44  73 102 161 196 251 341 377 464
#     4  12  26  54  79 122 167 212 277 342 404 499
#     4   8  15  30  63  99 136 195 245 300 388 446
#
# _framework density 27.623645
#
# number of rings (size 3 to 8) (size 9 to 14) (size 15 to 20)
#    1.500    0.000    5.000    0.000    0.000    2.000 
#   13.500    0.000    0.000    0.000    0.000    0.000 
#    0.000    0.000    0.000    0.000    0.000    0.000 
#
# Total GULP energy -89346.959060 kJ/mol
# GULP energy per Si atom -5584.184941 kJ/mol
# Density = 2.756077 g / cm^3
# Si number density = 27.623645 Si / 1000 Ang^3
#
#
#
# Elastic Constant Matrix: (Units=GPa)
#
#
# Indices 1 2 3 4 5 6 
#
# 1 129.3291 64.5838 32.1443 0.0000 0.0000 -15.0511
# 2 64.5838 129.3291 32.1443 0.0000 0.0000 15.0511
# 3 32.1443 32.1443 107.5140 0.0000 0.0000 0.0000
# 4 0.0000 0.0000 0.0000 44.1651 0.0000 0.0000
# 5 0.0000 0.0000 0.0000 0.0000 44.1651 0.0000
# 6 -15.0511 15.0511 0.0000 0.0000 0.0000 20.4675
#
#
#
# Elastic Compliance Matrix: (Units=1/GPa)
#
#
# Indices 1 2 3 4 5 6 
#
# 1 0.014597 -0.008872 -0.001711 0.000000 0.000000 0.017258
# 2 -0.008872 0.014597 -0.001711 0.000000 0.000000 -0.017258
# 3 -0.001711 -0.001711 0.010324 0.000000 0.000000 0.000000
# 4 0.000000 0.000000 0.000000 0.022642 0.000000 0.000000
# 5 0.000000 0.000000 0.000000 0.000000 0.022642 0.000000
# 6 0.017258 -0.017258 0.000000 0.000000 0.000000 0.074241
#
#
# Mechanical properties :
#
#
# Convention : Reuss Voigt Hill
#
# Bulk Modulus (GPa) = 66.99098 69.32411 68.15754
# Shear Modulus (GPa) = 26.50978 37.57953 32.04466
#
# Velocity S-wave (km/s) = 3.10123 3.69238 3.40964
# Velocity P-wave (km/s) = 6.09323 6.58245 6.34256
#
# Compressibility (1/GPa) = 0.01492738
#
# Stress axis : x y z
#
# Youngs Moduli (GPa) = 68.50840 68.50840 96.85716
#
# Poissons Ratio (x) = 0.60783 0.16577
# Poissons Ratio (y) = 0.60783 0.16577
# Poissons Ratio (z) = 0.11725 0.11725
#
# Static dielectric constant tensor:
#      x y z
#    x 2.199890 0.000000 0.000000 
#    y 0.000000 2.199890 0.000000 
#    z 0.000000 0.000000 2.323560 
# 
# From -- ./inp_files/767.got.cif
#   From: 2010.05.17/outbox.cif.g08.bks.cpg/sg76_cif.got.tgz:767.got - 2010.06.03 18:43:17.
