data_PCOD9541562
_publ_section_title
;
Structure prediction by ZEFSAII (Michael W. Deem and Ramdas Pophale) SiO2 
 PCOD9541562
Probable space group: P 42
;
_chemical_formula_sum "Si O2"
_cell_formula_units_Z 20
_cell_length_a 8.693371
_cell_length_b 8.693371
_cell_length_c 11.240124
_cell_angle_alpha 90.000000
_cell_angle_beta 90.000000
_cell_angle_gamma 90.000000
_cell_volume 849.468992
_symmetry_space_group_name_H-M "P 42"
_symmetry_group_IT_number 77
_symmetry_cell_setting 'tetragonal'
loop_
_space_group_symop_operation_xyz
x,y,z
-y,x,1/2+z
-x,-y,z
y,-x,1/2+z
loop_
_atom_site_type_symbol
_atom_site_label
_atom_site_fract_x
_atom_site_fract_y
_atom_site_fract_z
Si Si1 0.158267 0.931517 0.623090
Si Si2 0.358700 0.814177 0.420652
Si Si3 0.410744 0.336103 0.581665
Si Si4 0.878928 0.373912 0.294909
Si Si5 0.938066 0.654945 0.654816
O O1 0.289703 0.920132 0.524261
O O2 0.083539 0.769994 0.660861
O O3 0.229363 0.032352 0.730917
O O4 0.000000 0.000000 0.569773
O O5 0.516122 0.741385 0.465687
O O6 0.227878 0.685263 0.400292
O O7 0.370027 0.887721 0.291644
O O8 0.500000 0.500000 0.594040
O O9 0.451304 0.232380 0.696619
O O10 0.224778 0.321099 0.585840
O O11 0.000000 0.500000 0.330569
O O12 0.000000 0.500000 0.602267
#
# Coordination Sequence:
#
# PCOD9541562 Si02
#       5
#     4   4   4   4   4
#     4  12  24  46  71 104 155 181 251 312 375 452
#     4  11  26  43  74 107 144 204 240 305 397 435
#     4  11  24  47  71 103 152 194 253 312 374 458
#     4  11  25  49  74 110 147 199 251 318 378 467
#     4  11  27  46  73 110 146 196 253 313 379 466
#
# _framework density 23.544122000000002
#
# number of rings (size 3 to 8) (size 9 to 14) (size 15 to 20)
#    0.000    0.800    6.000    1.200    5.600    5.600 
#    0.000    0.000    0.000    0.000    0.000    0.000 
#    0.000    0.000    0.000    0.000    0.000    0.000 
#
# Total GULP energy -111669.786197 kJ/mol
# GULP energy per Si atom -5583.489310 kJ/mol
# Density = 2.349053 g / cm^3
# Si number density = 23.544122 Si / 1000 Ang^3
#
#
#
# Elastic Constant Matrix: (Units=GPa)
#
#
# Indices 1 2 3 4 5 6 
#
# 1 96.2383 60.1518 31.0380 0.0000 0.0000 -5.7165
# 2 60.1518 96.2383 31.0380 0.0000 0.0000 5.7165
# 3 31.0380 31.0380 94.6648 0.0000 0.0000 0.0000
# 4 0.0000 0.0000 0.0000 11.6392 0.0000 0.0000
# 5 0.0000 0.0000 0.0000 0.0000 11.6392 0.0000
# 6 -5.7165 5.7165 0.0000 0.0000 0.0000 50.8832
#
#
#
# Elastic Compliance Matrix: (Units=1/GPa)
#
#
# Indices 1 2 3 4 5 6 
#
# 1 0.018042 -0.010692 -0.002410 0.000000 0.000000 0.003228
# 2 -0.010692 0.018042 -0.002410 0.000000 0.000000 -0.003228
# 3 -0.002410 -0.002410 0.012144 0.000000 0.000000 0.000000
# 4 0.000000 0.000000 0.000000 0.085916 0.000000 0.000000
# 5 0.000000 0.000000 0.000000 0.000000 0.085916 0.000000
# 6 0.003228 -0.003228 0.000000 0.000000 0.000000 0.020378
#
#
# Mechanical properties :
#
#
# Convention : Reuss Voigt Hill
#
# Bulk Modulus (GPa) = 58.12186 59.06635 58.59410
# Shear Modulus (GPa) = 18.03762 25.82656 21.93209
#
# Velocity S-wave (km/s) = 2.77089 3.31561 3.05541
# Velocity P-wave (km/s) = 5.91414 6.30870 6.11460
#
# Compressibility (1/GPa) = 0.01720523
#
# Stress axis : x y z
#
# Youngs Moduli (GPa) = 55.42483 55.42483 82.34487
#
# Poissons Ratio (x) = 0.59258 0.19847
# Poissons Ratio (y) = 0.59258 0.19847
# Poissons Ratio (z) = 0.13358 0.13358
#
# Static dielectric constant tensor:
#      x y z
#    x 2.020030 0.000000 0.000000 
#    y 0.000000 2.020030 0.000000 
#    z 0.000000 0.000000 1.847840 
# 
# From -- ./inp_files/766.got.cif
#   From: 2010.05.17/outbox.cif.g08.bks.cpg/sg77_cif.got.tgz:766.got - 2010.06.03 18:44:51.
