data_PCOD9541224
_publ_section_title
;
Structure prediction by ZEFSAII (Michael W. Deem and Ramdas Pophale) SiO2 
 PCOD9541224
Probable space group: P 41
;
_chemical_formula_sum "Si O2"
_cell_formula_units_Z 24
_cell_length_a 10.926727
_cell_length_b 10.926727
_cell_length_c 8.720630
_cell_angle_alpha 90.000000
_cell_angle_beta 90.000000
_cell_angle_gamma 90.000000
_cell_volume 1041.185343
_symmetry_space_group_name_H-M "P 41"
_symmetry_group_IT_number 76
_symmetry_cell_setting 'tetragonal'
loop_
_space_group_symop_operation_xyz
x,y,z
-y,x,1/4+z
-x,-y,1/2+z
y,-x,3/4+z
loop_
_atom_site_type_symbol
_atom_site_label
_atom_site_fract_x
_atom_site_fract_y
_atom_site_fract_z
Si Si1 0.087175 0.103420 0.088630
Si Si2 0.796958 0.433617 0.129539
Si Si3 0.186126 0.332779 0.454271
Si Si4 0.430454 0.032680 0.366085
Si Si5 0.896305 0.259489 0.886320
Si Si6 0.243228 0.671268 0.933224
O O1 0.218816 0.163037 0.109276
O O2 0.025438 0.096033 0.253912
O O3 0.994802 0.181114 0.979643
O O4 0.945394 0.455157 0.155336
O O5 0.723418 0.403316 0.282101
O O6 0.752773 0.561288 0.057632
O O7 0.805381 0.328140 0.003563
O O8 0.045994 0.370982 0.477315
O O9 0.191042 0.197375 0.524378
O O10 0.252090 0.334596 0.291000
O O11 0.352810 0.034568 0.522791
O O12 0.420530 0.168355 0.296879
#
# Coordination Sequence:
#
# PCOD9541224 Si02
#       6
#     4   4   4   4   4   4
#     4  12  26  34  58  94 138 181 216 265 346 416
#     4  10  22  39  63  95 126 176 236 280 333 419
#     4   9  23  38  62  89 132 174 221 285 344 404
#     4   9  21  37  60  87 126 175 220 274 339 398
#     4  11  21  40  59  91 130 172 221 280 340 412
#     4  11  21  40  60  92 134 176 230 280 338 415
#
# _framework density 23.050651999999999
#
# number of rings (size 3 to 8) (size 9 to 14) (size 15 to 20)
#    1.000    0.667    1.667    3.000    7.000    0.000 
#    0.000    3.333    0.000    2.000    0.000    0.000 
#    0.000    0.000    0.000    0.000    0.000    0.000 
#
# Total GULP energy -133774.955531 kJ/mol
# GULP energy per Si atom -5573.956480 kJ/mol
# Density = 2.299819 g / cm^3
# Si number density = 23.050652 Si / 1000 Ang^3
#
#
#
# Elastic Constant Matrix: (Units=GPa)
#
#
# Indices 1 2 3 4 5 6 
#
# 1 9.8828 14.1770 28.4744 0.0000 0.0000 -15.2902
# 2 14.1770 9.8828 28.4744 0.0000 0.0000 15.2902
# 3 28.4744 28.4744 147.2328 0.0000 0.0000 0.0000
# 4 0.0000 0.0000 0.0000 32.3188 0.0000 0.0000
# 5 0.0000 0.0000 0.0000 0.0000 32.3188 0.0000
# 6 -15.2902 15.2902 0.0000 0.0000 0.0000 -0.6643
#
#
#
# Elastic Compliance Matrix: (Units=1/GPa)
#
#
# Indices 1 2 3 4 5 6 
#
# 1 0.039040 0.037611 -0.014824 0.000000 0.000000 -0.032901
# 2 0.037611 0.039040 -0.014824 0.000000 0.000000 0.032901
# 3 -0.014824 -0.014824 0.012526 0.000000 0.000000 0.000000
# 4 0.000000 0.000000 0.000000 0.030942 0.000000 0.000000
# 5 0.000000 0.000000 0.000000 0.000000 0.030942 0.000000
# 6 -0.032901 0.032901 0.000000 0.000000 0.000000 0.009240
#
#
# Mechanical properties :
#
#
# Convention : Reuss Voigt Hill
#
# Bulk Modulus (GPa) = 9.38685 34.36109 21.87397
# Shear Modulus (GPa) = 27.57624 19.18617 23.38120
#
# Velocity S-wave (km/s) = 3.46256 2.88817 3.18833
# Velocity P-wave (km/s) = 4.47960 5.10502 4.80250
#
# Compressibility (1/GPa) = 0.10653200
#
# Stress axis : x y z
#
# Youngs Moduli (GPa) = 25.61451 25.61451 79.83494
#
# Poissons Ratio (x) = -0.96339 1.18348
# Poissons Ratio (y) = -0.96339 1.18348
# Poissons Ratio (z) = 0.37971 0.37971
#
# Static dielectric constant tensor:
#      x y z
#    x 1.907890 0.000000 0.000000 
#    y 0.000000 1.907890 0.000000 
#    z 0.000000 0.000000 1.882160 
# 
# From -- ./inp_files/531.got.cif
#   From: 2010.05.17/outbox.cif.g08.bks.cpg/sg76_cif.got.tgz:531.got - 2010.06.03 18:43:17.
