data_PCOD9541560
_publ_section_title
;
Structure prediction by ZEFSAII (Michael W. Deem and Ramdas Pophale) SiO2 
 PCOD9541560
Probable space group: P 42
;
_chemical_formula_sum "Si O2"
_cell_formula_units_Z 14
_cell_length_a 5.181053
_cell_length_b 5.181053
_cell_length_c 21.571220
_cell_angle_alpha 90.000000
_cell_angle_beta 90.000000
_cell_angle_gamma 90.000000
_cell_volume 579.042950
_symmetry_space_group_name_H-M "P 42"
_symmetry_group_IT_number 77
_symmetry_cell_setting 'tetragonal'
loop_
_space_group_symop_operation_xyz
x,y,z
-y,x,1/2+z
-x,-y,z
y,-x,1/2+z
loop_
_atom_site_type_symbol
_atom_site_label
_atom_site_fract_x
_atom_site_fract_y
_atom_site_fract_z
Si Si1 0.760728 0.824617 0.545490
Si Si2 0.500000 0.500000 0.641909
Si Si3 0.000000 0.000000 0.300552
Si Si4 0.500000 0.000000 0.722063
Si Si5 0.250607 0.670634 0.908399
O O1 0.717409 0.601026 0.594833
O O2 0.803145 0.719801 0.475419
O O3 0.500000 0.000000 0.547193
O O4 0.000000 0.000000 0.562254
O O5 0.421793 0.747298 0.682720
O O6 0.905690 0.239131 0.258057
O O7 0.167791 0.169908 0.348797
O O8 0.500000 0.500000 0.895686
O O9 0.000000 0.500000 0.917943
#
# Coordination Sequence:
#
# PCOD9541560 Si02
#       5
#     4   2   2   2   4
#     4  11  25  48  80 119 157 203 262 342 413 478
#     4  12  28  56  74 120 156 218 278 328 408 492
#     4  12  28  52  74 116 154 218 276 328 406 492
#     4  12  32  48  80 104 168 220 268 334 388 500
#     4  11  24  46  78 116 156 202 261 341 412 477
#
# _framework density 24.17783
#
# number of rings (size 3 to 8) (size 9 to 14) (size 15 to 20)
#    0.000    0.571    4.286    1.714    8.000    3.429 
#    0.000    0.000    0.000    0.000    0.000    0.000 
#    0.000    0.000    0.000    0.000    0.000    0.000 
#
# Total GULP energy -78275.814126 kJ/mol
# GULP energy per Si atom -5591.129580 kJ/mol
# Density = 2.412280 g / cm^3
# Si number density = 24.177830 Si / 1000 Ang^3
#
#
#
# Elastic Constant Matrix: (Units=GPa)
#
#
# Indices 1 2 3 4 5 6 
#
# 1 172.1037 72.2476 64.8781 0.0000 0.0000 -4.9722
# 2 72.2476 172.1037 64.8781 0.0000 0.0000 4.9722
# 3 64.8781 64.8781 146.3946 0.0000 0.0000 0.0000
# 4 0.0000 0.0000 0.0000 32.2852 0.0000 0.0000
# 5 0.0000 0.0000 0.0000 0.0000 32.2852 0.0000
# 6 -4.9722 4.9722 0.0000 0.0000 0.0000 64.7419
#
#
#
# Elastic Compliance Matrix: (Units=1/GPa)
#
#
# Indices 1 2 3 4 5 6 
#
# 1 0.007722 -0.002370 -0.002372 0.000000 0.000000 0.000775
# 2 -0.002370 0.007722 -0.002372 0.000000 0.000000 -0.000775
# 3 -0.002372 -0.002372 0.008933 0.000000 0.000000 0.000000
# 4 0.000000 0.000000 0.000000 0.030974 0.000000 0.000000
# 5 0.000000 0.000000 0.000000 0.000000 0.030974 0.000000
# 6 0.000775 -0.000775 0.000000 0.000000 0.000000 0.015565
#
#
# Mechanical properties :
#
#
# Convention : Reuss Voigt Hill
#
# Bulk Modulus (GPa) = 98.52523 99.40106 98.96315
# Shear Modulus (GPa) = 41.84108 45.10236 43.47172
#
# Velocity S-wave (km/s) = 4.16451 4.32376 4.24488
# Velocity P-wave (km/s) = 7.99768 8.13193 8.06508
#
# Compressibility (1/GPa) = 0.01014968
#
# Stress axis : x y z
#
# Youngs Moduli (GPa) = 129.50374 129.50374 111.94286
#
# Poissons Ratio (x) = 0.30690 0.26551
# Poissons Ratio (y) = 0.30690 0.26551
# Poissons Ratio (z) = 0.30716 0.30716
#
# Static dielectric constant tensor:
#      x y z
#    x 1.925370 0.000000 0.000000 
#    y 0.000000 1.925370 0.000000 
#    z 0.000000 0.000000 2.056100 
# 
# From -- ./inp_files/1467.got.cif
#   From: 2010.05.17/outbox.cif.g08.bks.cpg/sg77_cif.got.tgz:1467.got - 2010.06.03 18:44:51.
