data_PCOD9541128
_publ_section_title
;
Structure prediction by ZEFSAII (Michael W. Deem and Ramdas Pophale) SiO2 
 PCOD9541128
Probable space group: P 41
;
_chemical_formula_sum "Si O2"
_cell_formula_units_Z 24
_cell_length_a 11.846258
_cell_length_b 11.846258
_cell_length_c 7.866902
_cell_angle_alpha 90.000000
_cell_angle_beta 90.000000
_cell_angle_gamma 90.000000
_cell_volume 1103.992477
_symmetry_space_group_name_H-M "P 41"
_symmetry_group_IT_number 76
_symmetry_cell_setting 'tetragonal'
loop_
_space_group_symop_operation_xyz
x,y,z
-y,x,1/4+z
-x,-y,1/2+z
y,-x,3/4+z
loop_
_atom_site_type_symbol
_atom_site_label
_atom_site_fract_x
_atom_site_fract_y
_atom_site_fract_z
Si Si1 0.987453 0.541810 0.148930
Si Si2 0.195745 0.295869 0.810036
Si Si3 0.227782 0.242481 0.169587
Si Si4 0.862486 0.992829 0.990675
Si Si5 0.806530 0.330853 0.749230
Si Si6 0.991253 0.321333 0.299864
O O1 0.113371 0.559255 0.232077
O O2 0.884166 0.601952 0.247700
O O3 0.964726 0.408620 0.147867
O O4 0.988875 0.601278 0.966236
O O5 0.104659 0.192384 0.824496
O O6 0.289454 0.260186 0.667968
O O7 0.241332 0.316685 0.999220
O O8 0.312783 0.265533 0.326748
O O9 0.249923 0.116902 0.099503
O O10 0.102809 0.255959 0.246244
O O11 0.958620 0.921255 0.077771
O O12 0.761486 0.905897 0.975664
#
# Coordination Sequence:
#
# PCOD9541128 Si02
#       6
#     4   4   4   4   4   4
#     4  10  21  40  62  84 127 174 217 273 324 387
#     4  10  20  35  53  78 119 154 210 255 316 368
#     4  11  24  37  55  87 121 167 208 258 315 392
#     4   9  19  26  40  65 102 154 194 234 281 351
#     4   9  20  37  48  81 116 152 209 263 298 375
#     4  11  24  41  62  91 133 171 228 265 330 387
#
# _framework density 21.739279
#
# number of rings (size 3 to 8) (size 9 to 14) (size 15 to 20)
#    0.000    2.000    1.667    1.000   14.000    0.000 
#    0.000    0.000    0.000    0.000    0.000    0.000 
#   45.000    0.000    0.000    0.000    0.000    0.000 
#
# Total GULP energy -133900.378593 kJ/mol
# GULP energy per Si atom -5579.182441 kJ/mol
# Density = 2.168980 g / cm^3
# Si number density = 21.739279 Si / 1000 Ang^3
#
#
#
# Elastic Constant Matrix: (Units=GPa)
#
#
# Indices 1 2 3 4 5 6 
#
# 1 34.5597 40.6781 12.6580 0.0000 0.0000 4.4701
# 2 40.6781 34.5597 12.6580 0.0000 0.0000 -4.4701
# 3 12.6580 12.6580 92.9432 0.0000 0.0000 0.0000
# 4 0.0000 0.0000 0.0000 28.8825 0.0000 0.0000
# 5 0.0000 0.0000 0.0000 0.0000 28.8825 0.0000
# 6 4.4701 -4.4701 0.0000 0.0000 0.0000 12.5325
#
#
#
# Elastic Compliance Matrix: (Units=1/GPa)
#
#
# Indices 1 2 3 4 5 6 
#
# 1 -0.046757 0.060687 -0.001897 0.000000 0.000000 0.038323
# 2 0.060687 -0.046757 -0.001897 0.000000 0.000000 -0.038323
# 3 -0.001897 -0.001897 0.011276 0.000000 0.000000 0.000000
# 4 0.000000 0.000000 0.000000 0.034623 0.000000 0.000000
# 5 0.000000 0.000000 0.000000 0.000000 0.034623 0.000000
# 6 0.038323 -0.038323 0.000000 0.000000 0.000000 0.052454
#
#
# Mechanical properties :
#
#
# Convention : Reuss Voigt Hill
#
# Bulk Modulus (GPa) = 31.69902 32.67233 32.18567
# Shear Modulus (GPa) = -78.36024 20.46410 -28.94807
#
# Velocity S-wave (km/s) = -6.01030 3.07146 -3.65307
# Velocity P-wave (km/s) = 5.79240 5.25740 1.71924
#
# Compressibility (1/GPa) = 0.03154672
#
# Stress axis : x y z
#
# Youngs Moduli (GPa) = -21.38710 -21.38710 88.68407
#
# Poissons Ratio (x) = 1.29791 0.16824
# Poissons Ratio (y) = 1.29791 0.16824
# Poissons Ratio (z) = -0.04057 -0.04057
#
# Static dielectric constant tensor:
#      x y z
#    x 1.938380 0.000000 0.000000 
#    y 0.000000 1.938380 0.000000 
#    z 0.000000 0.000000 1.935080 
# 
# From -- ./inp_files/570.got.cif
#   From: 2010.05.17/outbox.cif.g08.bks.cpg/sg76_cif.got.tgz:570.got - 2010.06.03 18:43:17.
