data_PCOD9541311
_publ_section_title
;
Structure prediction by ZEFSAII (Michael W. Deem and Ramdas Pophale) SiO2 
 PCOD9541311
Probable space group: P 41
;
_chemical_formula_sum "Si O2"
_cell_formula_units_Z 24
_cell_length_a 8.536035
_cell_length_b 8.536035
_cell_length_c 14.834263
_cell_angle_alpha 90.000000
_cell_angle_beta 90.000000
_cell_angle_gamma 90.000000
_cell_volume 1080.882160
_symmetry_space_group_name_H-M "P 41"
_symmetry_group_IT_number 76
_symmetry_cell_setting 'tetragonal'
loop_
_space_group_symop_operation_xyz
x,y,z
-y,x,1/4+z
-x,-y,1/2+z
y,-x,3/4+z
loop_
_atom_site_type_symbol
_atom_site_label
_atom_site_fract_x
_atom_site_fract_y
_atom_site_fract_z
Si Si1 0.616565 0.269122 0.424630
Si Si2 0.232368 0.317477 0.562481
Si Si3 0.852440 0.179787 0.267773
Si Si4 0.035443 0.166820 0.827485
Si Si5 0.954058 0.522142 0.206926
Si Si6 0.412278 0.672477 0.119331
O O1 0.736901 0.220085 0.349250
O O2 0.511419 0.414747 0.394611
O O3 0.679116 0.296316 0.525567
O O4 0.485554 0.132786 0.425330
O O5 0.156623 0.455693 0.620836
O O6 0.231020 0.358427 0.456503
O O7 0.410074 0.290767 0.593892
O O8 0.154450 0.152250 0.585083
O O9 0.795193 0.131140 0.168362
O O10 0.935023 0.350414 0.252888
O O11 0.923507 0.010487 0.296685
O O12 0.067921 0.320031 0.765344
#
# Coordination Sequence:
#
# PCOD9541311 Si02
#       6
#     4   4   4   4   4   4
#     4  11  26  48  70 115 145 200 268 320 391 477
#     4  11  26  47  79 105 157 204 256 330 393 469
#     4  12  29  48  78 113 161 204 270 325 396 477
#     4  12  26  54  72 115 161 204 261 330 394 469
#     4  12  27  47  77 113 150 212 255 325 404 461
#     4  10  24  48  74 109 148 204 260 318 402 463
#
# _framework density 22.204086
#
# number of rings (size 3 to 8) (size 9 to 14) (size 15 to 20)
#    0.000    0.667    6.667    0.000   11.667    2.667 
#    0.000    0.000    0.000    0.000    0.000    0.000 
#    0.000    0.000    0.000    0.000    0.000    0.000 
#
# Total GULP energy -133796.214816 kJ/mol
# GULP energy per Si atom -5574.842284 kJ/mol
# Density = 2.215355 g / cm^3
# Si number density = 22.204086 Si / 1000 Ang^3
#
#
#
# Elastic Constant Matrix: (Units=GPa)
#
#
# Indices 1 2 3 4 5 6 
#
# 1 86.2265 7.8844 51.4036 0.0000 0.0000 3.8511
# 2 7.8844 86.2265 51.4036 0.0000 0.0000 -3.8511
# 3 51.4036 51.4036 126.3715 0.0000 0.0000 0.0000
# 4 0.0000 0.0000 0.0000 -25.2413 0.0000 0.0000
# 5 0.0000 0.0000 0.0000 0.0000 -25.2413 0.0000
# 6 3.8511 -3.8511 0.0000 0.0000 0.0000 41.3666
#
#
#
# Elastic Compliance Matrix: (Units=1/GPa)
#
#
# Indices 1 2 3 4 5 6 
#
# 1 0.016003 0.003120 -0.007779 0.000000 0.000000 -0.001199
# 2 0.003120 0.016003 -0.007779 0.000000 0.000000 0.001199
# 3 -0.007779 -0.007779 0.014241 0.000000 0.000000 0.000000
# 4 0.000000 0.000000 0.000000 -0.039618 0.000000 0.000000
# 5 0.000000 0.000000 0.000000 0.000000 -0.039618 0.000000
# 6 -0.001199 0.001199 0.000000 0.000000 0.000000 0.024397
#
#
# Mechanical properties :
#
#
# Convention : Reuss Voigt Hill
#
# Bulk Modulus (GPa) = 46.78776 57.80085 52.29430
# Shear Modulus (GPa) = 213.60686 10.71898 112.16292
#
# Velocity S-wave (km/s) = 9.81888 2.19954 7.11507
# Velocity P-wave (km/s) = 12.23375 5.70428 9.54472
#
# Compressibility (1/GPa) = 0.02137311
#
# Stress axis : x y z
#
# Youngs Moduli (GPa) = 62.48899 62.48899 70.21799
#
# Poissons Ratio (x) = -0.19499 0.54620
# Poissons Ratio (y) = -0.19499 0.54620
# Poissons Ratio (z) = 0.48608 0.48608
#
# Static dielectric constant tensor:
#      x y z
#    x 1.862300 0.000000 0.000000 
#    y 0.000000 1.862300 0.000000 
#    z 0.000000 0.000000 1.853810 
# 
# From -- ./inp_files/1049.got.cif
#   From: 2010.05.17/outbox.cif.g08.bks.cpg/sg76_cif.got.tgz:1049.got - 2010.06.03 18:43:17.
