data_PCOD9541667
_publ_section_title
;
Structure prediction by ZEFSAII (Michael W. Deem and Ramdas Pophale) SiO2 
 PCOD9541667
Probable space group: P 43
;
_chemical_formula_sum "Si O2"
_cell_formula_units_Z 24
_cell_length_a 9.200915
_cell_length_b 9.200915
_cell_length_c 12.622586
_cell_angle_alpha 90.000000
_cell_angle_beta 90.000000
_cell_angle_gamma 90.000000
_cell_volume 1068.588203
_symmetry_space_group_name_H-M "P 43"
_symmetry_group_IT_number 78
_symmetry_cell_setting 'tetragonal'
loop_
_space_group_symop_operation_xyz
x,y,z
-y,x,3/4+z
-x,-y,1/2+z
y,-x,1/4+z
loop_
_atom_site_type_symbol
_atom_site_label
_atom_site_fract_x
_atom_site_fract_y
_atom_site_fract_z
Si Si1 0.477109 0.666165 0.676920
Si Si2 0.631715 0.123853 0.023236
Si Si3 0.405530 0.719640 0.904788
Si Si4 0.664401 0.955551 0.431467
Si Si5 0.280964 0.795811 0.319573
Si Si6 0.108621 0.576343 0.954890
O O1 0.363179 0.732644 0.593151
O O2 0.463477 0.753825 0.786324
O O3 0.402521 0.512565 0.703693
O O4 0.635191 0.673457 0.619845
O O5 0.601862 0.004362 0.111210
O O6 0.482891 0.130753 0.957553
O O7 0.744909 0.111526 0.927744
O O8 0.255119 0.636888 0.905748
O O9 0.371772 0.876234 0.957134
O O10 0.779059 0.866040 0.501289
O O11 0.676262 0.936241 0.305527
O O12 0.410815 0.862574 0.246774
#
# Coordination Sequence:
#
# PCOD9541667 Si02
#       6
#     4   4   4   4   4   4
#     4  11  21  38  65 104 134 178 231 299 362 415
#     4  10  21  42  64  97 138 182 234 286 360 434
#     4  12  23  38  69 101 137 177 240 296 353 424
#     4  10  24  41  63  98 140 183 230 298 361 427
#     4  10  23  43  67  98 145 185 234 294 379 438
#     4  11  24  40  70 100 134 179 243 299 351 434
#
# _framework density 22.459541999999999
#
# number of rings (size 3 to 8) (size 9 to 14) (size 15 to 20)
#    0.000    1.333    3.333    2.000    9.333    0.000 
#    0.000    0.000    3.667    0.000    0.000    0.000 
#    0.000    0.000    0.000    0.000    0.000    0.000 
#
# Total GULP energy -133616.650142 kJ/mol
# GULP energy per Si atom -5567.360423 kJ/mol
# Density = 2.240842 g / cm^3
# Si number density = 22.459542 Si / 1000 Ang^3
#
#
#
# Elastic Constant Matrix: (Units=GPa)
#
#
# Indices 1 2 3 4 5 6 
#
# 1 59.3512 36.7444 39.2649 0.0000 0.0000 -8.9322
# 2 36.7444 59.3512 39.2649 0.0000 0.0000 8.9322
# 3 39.2649 39.2649 146.0875 0.0000 0.0000 0.0000
# 4 0.0000 0.0000 0.0000 33.4168 0.0000 0.0000
# 5 0.0000 0.0000 0.0000 0.0000 33.4168 0.0000
# 6 -8.9322 8.9322 0.0000 0.0000 0.0000 -0.2306
#
#
#
# Elastic Compliance Matrix: (Units=1/GPa)
#
#
# Indices 1 2 3 4 5 6 
#
# 1 0.007367 0.005968 -0.003584 0.000000 0.000000 -0.054206
# 2 0.005968 0.007367 -0.003584 0.000000 0.000000 0.054206
# 3 -0.003584 -0.003584 0.008772 0.000000 0.000000 0.000000
# 4 0.000000 0.000000 0.000000 0.029925 0.000000 0.000000
# 5 0.000000 0.000000 0.000000 0.000000 0.029925 0.000000
# 6 -0.054206 0.054206 0.000000 0.000000 0.000000 -0.137194
#
#
# Mechanical properties :
#
#
# Convention : Reuss Voigt Hill
#
# Bulk Modulus (GPa) = 47.38050 55.03758 51.20904
# Shear Modulus (GPa) = -112.61222 23.28831 -44.66195
#
# Velocity S-wave (km/s) = -7.08864 3.22359 -4.46416
# Velocity P-wave (km/s) = 6.77176 6.19788 1.92912
#
# Compressibility (1/GPa) = 0.02110573
#
# Stress axis : x y z
#
# Youngs Moduli (GPa) = 135.73159 135.73159 114.00001
#
# Poissons Ratio (x) = -0.81003 0.40860
# Poissons Ratio (y) = -0.81003 0.40860
# Poissons Ratio (z) = 0.48649 0.48649
#
# Static dielectric constant tensor:
#      x y z
#    x 1.954030 0.000000 0.000000 
#    y 0.000000 1.954030 0.000000 
#    z 0.000000 0.000000 1.959770 
# 
# From -- ./inp_files/1109.got.cif
#   From: 2010.05.17/outbox.cif.g08.bks.cpg/sg78_cif.got.tgz:1109.got - 2010.06.03 18:45:56.
