data_PCOD9541523
_publ_section_title
;
Structure prediction by ZEFSAII (Michael W. Deem and Ramdas Pophale) SiO2 
 PCOD9541523
Probable space group: P 42
;
_chemical_formula_sum "Si O2"
_cell_formula_units_Z 24
_cell_length_a 10.505543
_cell_length_b 10.505543
_cell_length_c 8.691385
_cell_angle_alpha 90.000000
_cell_angle_beta 90.000000
_cell_angle_gamma 90.000000
_cell_volume 959.237167
_symmetry_space_group_name_H-M "P 42"
_symmetry_group_IT_number 77
_symmetry_cell_setting 'tetragonal'
loop_
_space_group_symop_operation_xyz
x,y,z
-y,x,1/2+z
-x,-y,z
y,-x,1/2+z
loop_
_atom_site_type_symbol
_atom_site_label
_atom_site_fract_x
_atom_site_fract_y
_atom_site_fract_z
Si Si1 0.063993 0.303982 0.919660
Si Si2 0.700767 0.299036 0.188829
Si Si3 0.225593 0.279119 0.181718
Si Si4 0.359955 0.044780 0.115768
Si Si5 0.858544 0.853873 0.475283
Si Si6 0.648167 0.530748 0.403238
O O1 0.181803 0.309418 0.803581
O O2 0.960764 0.364933 0.803712
O O3 0.006044 0.162609 0.959464
O O4 0.126642 0.355654 0.075729
O O5 0.707543 0.419239 0.299205
O O6 0.818893 0.267665 0.076882
O O7 0.581684 0.305353 0.069527
O O8 0.312358 0.186019 0.079734
O O9 0.143549 0.196927 0.301591
O O10 0.322488 0.354452 0.287672
O O11 0.500000 0.000000 0.058842
O O12 0.239773 0.961208 0.054731
O O13 0.500000 0.500000 0.421846
#
# Coordination Sequence:
#
# PCOD9541523 Si02
#       6
#     4   4   4   4   4   4
#     4  10  23  42  69 102 147 197 257 320 395 482
#     4  10  24  43  70 106 149 202 260 325 404 478
#     4  10  24  41  70 107 146 198 257 327 392 475
#     4  10  23  44  74 101 147 197 254 329 400 477
#     4   9  22  46  67 105 146 199 256 321 396 470
#     4  11  25  42  69 110 153 200 260 328 407 486
#
# _framework density 25.019879
#
# number of rings (size 3 to 8) (size 9 to 14) (size 15 to 20)
#    0.000    2.000    0.000    0.500    9.333    7.333 
#    0.000    5.833    0.000    0.000    0.000    0.000 
#    0.000    0.000    0.000    0.000    0.000    0.000 
#
# Total GULP energy -133650.656770 kJ/mol
# GULP energy per Si atom -5568.777365 kJ/mol
# Density = 2.496293 g / cm^3
# Si number density = 25.019879 Si / 1000 Ang^3
#
#
#
# Elastic Constant Matrix: (Units=GPa)
#
#
# Indices 1 2 3 4 5 6 
#
# 1 94.9563 19.2873 38.5948 0.0000 0.0000 9.0293
# 2 19.2873 94.9563 38.5948 0.0000 0.0000 -9.0293
# 3 38.5948 38.5948 155.0830 0.0000 0.0000 0.0000
# 4 0.0000 0.0000 0.0000 38.9496 0.0000 0.0000
# 5 0.0000 0.0000 0.0000 0.0000 38.9496 0.0000
# 6 9.0293 -9.0293 0.0000 0.0000 0.0000 27.3932
#
#
#
# Elastic Compliance Matrix: (Units=1/GPa)
#
#
# Indices 1 2 3 4 5 6 
#
# 1 0.012433 -0.001911 -0.002619 0.000000 0.000000 -0.004728
# 2 -0.001911 0.012433 -0.002619 0.000000 0.000000 0.004728
# 3 -0.002619 -0.002619 0.007752 0.000000 0.000000 0.000000
# 4 0.000000 0.000000 0.000000 0.025674 0.000000 0.000000
# 5 0.000000 0.000000 0.000000 0.000000 0.025674 0.000000
# 6 -0.004728 0.004728 0.000000 0.000000 0.000000 0.039622
#
#
# Mechanical properties :
#
#
# Convention : Reuss Voigt Hill
#
# Bulk Modulus (GPa) = 54.57949 59.77216 57.17583
# Shear Modulus (GPa) = 34.72412 37.62637 36.17524
#
# Velocity S-wave (km/s) = 3.72944 3.88217 3.80657
# Velocity P-wave (km/s) = 6.35663 6.63602 6.49783
#
# Compressibility (1/GPa) = 0.01832190
#
# Stress axis : x y z
#
# Youngs Moduli (GPa) = 80.42980 80.42980 129.00610
#
# Poissons Ratio (x) = 0.15367 0.33783
# Poissons Ratio (y) = 0.15367 0.33783
# Poissons Ratio (z) = 0.21062 0.21062
#
# Static dielectric constant tensor:
#      x y z
#    x 2.049000 0.000000 0.000000 
#    y 0.000000 2.049000 0.000000 
#    z 0.000000 0.000000 1.962290 
# 
# From -- ./inp_files/448.got.cif
#   From: 2010.05.17/outbox.cif.g08.bks.cpg/sg77_cif.got.tgz:448.got - 2010.06.03 18:44:51.
