data_PCOD9541858
_publ_section_title
;
Structure prediction by ZEFSAII (Michael W. Deem and Ramdas Pophale) SiO2 
 PCOD9541858
Probable space group: I 4
;
_chemical_formula_sum "Si O2"
_cell_formula_units_Z 42
_cell_length_a 13.709983
_cell_length_b 13.709983
_cell_length_c 8.225987
_cell_angle_alpha 90.000000
_cell_angle_beta 90.000000
_cell_angle_gamma 90.000000
_cell_volume 1546.186409
_symmetry_space_group_name_H-M "I 4"
_symmetry_group_IT_number 79
_symmetry_cell_setting 'tetragonal'
loop_
_space_group_symop_operation_xyz
x,y,z
-y,x,z
-x,-y,z
y,-x,z
1/2+x,1/2+y,1/2+z
1/2-y,1/2+x,1/2+z
1/2-x,1/2-y,1/2+z
1/2+y,1/2-x,1/2+z
loop_
_atom_site_type_symbol
_atom_site_label
_atom_site_fract_x
_atom_site_fract_y
_atom_site_fract_z
Si Si1 0.064537 0.401766 0.290260
Si Si2 0.000000 0.000000 0.660926
Si Si3 0.698315 0.428974 0.275394
Si Si4 0.114934 0.767649 0.970500
Si Si5 0.638368 0.593577 0.811830
Si Si6 0.064991 0.701835 0.525920
O O1 0.154268 0.394411 0.420017
O O2 0.984693 0.329601 0.359312
O O3 0.114285 0.379886 0.116704
O O4 0.000000 0.500000 0.279497
O O5 0.099661 0.938762 0.676769
O O6 0.693417 0.322179 0.353415
O O7 0.690587 0.507706 0.421621
O O8 0.777572 0.477926 0.156834
O O9 0.130647 0.806006 0.151375
O O10 0.525508 0.627939 0.816288
O O11 0.705026 0.624512 0.965783
#
# Coordination Sequence:
#
# PCOD9541858 Si02
#       6
#     8   2   8   8   8   8
#     4  11  27  51  76  96 140 201 260 313 369 439
#     4   8  16  28  72  94 148 180 216 262 352 448
#     4   9  19  38  71 108 146 188 229 291 372 438
#     4  10  20  43  72 110 146 189 238 292 374 442
#     4  11  25  43  73 117 161 190 232 301 380 462
#     4  11  27  46  75 108 144 200 254 308 373 442
#
# _framework density 27.163609000000001
#
# number of rings (size 3 to 8) (size 9 to 14) (size 15 to 20)
#    0.000    1.714    1.905    0.571   13.333    0.000 
#    3.429    0.000    0.000    0.000    0.000    0.000 
#    0.000    0.000    0.000    0.000    0.000    0.000 
#
# Total GULP energy -117128.137389 kJ/mol
# GULP energy per Si atom -5577.530352 kJ/mol
# Density = 2.710178 g / cm^3
# Si number density = 27.163609 Si / 1000 Ang^3
#
#
#
# Elastic Constant Matrix: (Units=GPa)
#
#
# Indices 1 2 3 4 5 6 
#
# 1 64.3945 -15.1886 19.0907 0.0000 0.0000 -13.1214
# 2 -15.1886 64.3945 19.0907 0.0000 0.0000 13.1214
# 3 19.0907 19.0907 98.3262 0.0000 0.0000 0.0000
# 4 0.0000 0.0000 0.0000 38.8979 0.0000 0.0000
# 5 0.0000 0.0000 0.0000 0.0000 38.8979 0.0000
# 6 -13.1214 13.1214 0.0000 0.0000 0.0000 32.6074
#
#
#
# Elastic Compliance Matrix: (Units=1/GPa)
#
#
# Indices 1 2 3 4 5 6 
#
# 1 0.019208 0.004720 -0.004646 0.000000 0.000000 0.005830
# 2 0.004720 0.019208 -0.004646 0.000000 0.000000 -0.005830
# 3 -0.004646 -0.004646 0.011974 0.000000 0.000000 0.000000
# 4 0.000000 0.000000 0.000000 0.025708 0.000000 0.000000
# 5 0.000000 0.000000 0.000000 0.000000 0.025708 0.000000
# 6 0.005830 -0.005830 0.000000 0.000000 0.000000 0.035360
#
#
# Mechanical properties :
#
#
# Convention : Reuss Voigt Hill
#
# Bulk Modulus (GPa) = 24.24442 30.34454 27.29448
# Shear Modulus (GPa) = 31.23860 35.68880 33.46370
#
# Velocity S-wave (km/s) = 3.39487 3.62863 3.51370
# Velocity P-wave (km/s) = 4.93067 5.36202 5.15086
#
# Compressibility (1/GPa) = 0.04124661
#
# Stress axis : x y z
#
# Youngs Moduli (GPa) = 52.06223 52.06223 83.51266
#
# Poissons Ratio (x) = -0.24573 0.38798
# Poissons Ratio (y) = -0.24573 0.38798
# Poissons Ratio (z) = 0.24187 0.24187
#
# Static dielectric constant tensor:
#      x y z
#    x 2.136870 0.000000 0.000000 
#    y 0.000000 2.136870 0.000000 
#    z 0.000000 0.000000 2.204730 
# 
# From -- ./inp_files/580.got.cif
#   From: 2010.05.17/outbox.cif.g08.bks.cpg/sg79_cif.got.tgz:580.got - 2010.06.03 18:47:27.
