data_PCOD9541506
_publ_section_title
;
Structure prediction by ZEFSAII (Michael W. Deem and Ramdas Pophale) SiO2 
 PCOD9541506
Probable space group: P 42
;
_chemical_formula_sum "Si O2"
_cell_formula_units_Z 18
_cell_length_a 5.100192
_cell_length_b 5.100192
_cell_length_c 27.301724
_cell_angle_alpha 90.000000
_cell_angle_beta 90.000000
_cell_angle_gamma 90.000000
_cell_volume 710.171310
_symmetry_space_group_name_H-M "P 42"
_symmetry_group_IT_number 77
_symmetry_cell_setting 'tetragonal'
loop_
_space_group_symop_operation_xyz
x,y,z
-y,x,1/2+z
-x,-y,z
y,-x,1/2+z
loop_
_atom_site_type_symbol
_atom_site_label
_atom_site_fract_x
_atom_site_fract_y
_atom_site_fract_z
Si Si1 0.691068 0.249575 0.988960
Si Si2 0.316000 0.748472 0.093492
Si Si3 0.000000 0.000000 0.238960
Si Si4 0.500000 0.000000 0.297750
Si Si5 0.684000 0.251528 0.884428
Si Si6 0.500000 0.000000 0.680170
O O1 0.500000 0.500000 0.988960
O O2 0.836674 0.240208 0.936607
O O3 0.500000 0.000000 0.988960
O O4 0.836674 0.240208 0.041313
O O5 0.500000 0.500000 0.088380
O O6 0.159086 0.684151 0.142138
O O7 0.500000 0.000000 0.099026
O O8 0.263895 0.882700 0.265029
O O9 0.882700 0.736106 0.212891
O O10 0.684152 0.840915 0.335782
O O11 0.500000 0.500000 0.889539
O O12 0.500000 0.000000 0.878894
#
# Coordination Sequence:
#
# PCOD9541506 Si02
#       6
#     4   4   2   2   4   2
#     4   8  16  33  60 101 138 179 223 282 359 446
#     4  10  21  40  69 100 143 183 231 295 368 452
#     4  12  32  48  76 102 144 192 260 328 376 438
#     4  12  28  47  70 104 134 195 250 314 384 440
#     4  10  21  40  69 100 143 183 231 295 368 452
#     4  12  28  47  70 104 134 195 250 314 384 440
#
# _framework density 25.346001000000001
#
# number of rings (size 3 to 8) (size 9 to 14) (size 15 to 20)
#    0.000    1.778    0.000    2.667    9.333    0.889 
#    0.000    0.000    0.000   18.667    0.000    0.000 
#    0.000    0.000    0.000    0.000    0.000    0.000 
#
# Total GULP energy -100363.636957 kJ/mol
# GULP energy per Si atom -5575.757609 kJ/mol
# Density = 2.528831 g / cm^3
# Si number density = 25.346001 Si / 1000 Ang^3
#
#
#
# Elastic Constant Matrix: (Units=GPa)
#
#
# Indices 1 2 3 4 5 6 
#
# 1 145.6511 35.4758 30.6781 0.0000 0.0000 -7.8348
# 2 35.4758 145.6511 30.6781 0.0000 0.0000 7.8348
# 3 30.6781 30.6781 96.0343 0.0000 0.0000 0.0000
# 4 0.0000 0.0000 0.0000 25.2466 0.0000 0.0000
# 5 0.0000 0.0000 0.0000 0.0000 25.2466 0.0000
# 6 -7.8348 7.8348 0.0000 0.0000 0.0000 62.0494
#
#
#
# Elastic Compliance Matrix: (Units=1/GPa)
#
#
# Indices 1 2 3 4 5 6 
#
# 1 0.007717 -0.001526 -0.001978 0.000000 0.000000 0.001167
# 2 -0.001526 0.007717 -0.001978 0.000000 0.000000 -0.001167
# 3 -0.001978 -0.001978 0.011676 0.000000 0.000000 0.000000
# 4 0.000000 0.000000 0.000000 0.039609 0.000000 0.000000
# 5 0.000000 0.000000 0.000000 0.000000 0.039609 0.000000
# 6 0.001167 -0.001167 0.000000 0.000000 0.000000 0.016411
#
#
# Mechanical properties :
#
#
# Convention : Reuss Voigt Hill
#
# Bulk Modulus (GPa) = 61.92875 64.55562 63.24219
# Shear Modulus (GPa) = 35.94944 41.87547 38.91245
#
# Velocity S-wave (km/s) = 3.77018 4.06908 3.92248
# Velocity P-wave (km/s) = 6.59081 6.89939 6.74686
#
# Compressibility (1/GPa) = 0.01614759
#
# Stress axis : x y z
#
# Youngs Moduli (GPa) = 129.58954 129.58954 85.64220
#
# Poissons Ratio (x) = 0.19772 0.16937
# Poissons Ratio (y) = 0.19772 0.16937
# Poissons Ratio (z) = 0.25629 0.25629
#
# Static dielectric constant tensor:
#      x y z
#    x 2.033000 0.000000 0.000000 
#    y 0.000000 2.033000 0.000000 
#    z 0.000000 0.000000 2.256990 
# 
# From -- ./inp_files/1660.got.cif
#   From: 2010.05.17/outbox.cif.g08.bks.cpg/sg77_cif.got.tgz:1660.got - 2010.06.03 18:44:51.
