data_PCOD9541253
_publ_section_title
;
Structure prediction by ZEFSAII (Michael W. Deem and Ramdas Pophale) SiO2 
 PCOD9541253
Probable space group: P 41
;
_chemical_formula_sum "Si O2"
_cell_formula_units_Z 24
_cell_length_a 9.868641
_cell_length_b 9.868641
_cell_length_c 8.997510
_cell_angle_alpha 90.000000
_cell_angle_beta 90.000000
_cell_angle_gamma 90.000000
_cell_volume 876.268175
_symmetry_space_group_name_H-M "P 41"
_symmetry_group_IT_number 76
_symmetry_cell_setting 'tetragonal'
loop_
_space_group_symop_operation_xyz
x,y,z
-y,x,1/4+z
-x,-y,1/2+z
y,-x,3/4+z
loop_
_atom_site_type_symbol
_atom_site_label
_atom_site_fract_x
_atom_site_fract_y
_atom_site_fract_z
Si Si1 0.448106 0.214109 0.012630
Si Si2 0.430563 0.040890 0.383944
Si Si3 0.434799 0.385118 0.622317
Si Si4 0.115540 0.732153 0.417930
Si Si5 0.337614 0.835697 0.779962
Si Si6 0.157565 0.005005 0.248511
O O1 0.549193 0.182085 0.149642
O O2 0.492689 0.102188 0.891179
O O3 0.490740 0.360184 0.953746
O O4 0.287250 0.234709 0.032959
O O5 0.317618 0.046365 0.254004
O O6 0.340267 0.054396 0.526033
O O7 0.552817 0.148606 0.410590
O O8 0.584040 0.399485 0.697673
O O9 0.350876 0.255532 0.682945
O O10 0.154141 0.880732 0.366007
O O11 0.981064 0.737051 0.520076
O O12 0.110235 0.942261 0.088434
#
# Coordination Sequence:
#
# PCOD9541253 Si02
#       6
#     4   4   4   4   4   4
#     4  11  23  43  69 104 140 190 238 299 363 432
#     4  10  23  44  66 104 146 185 246 306 360 432
#     4  12  25  42  74 104 143 188 242 297 364 434
#     4  10  24  43  69  99 145 193 236 296 378 431
#     4  11  25  43  70 102 141 187 249 300 358 431
#     4  10  22  43  72 105 145 197 243 298 371 446
#
# _framework density 27.388878999999999
#
# number of rings (size 3 to 8) (size 9 to 14) (size 15 to 20)
#    0.000    1.333    3.333    1.000    2.333    1.333 
#    0.000    3.333    0.000    0.000    0.000    0.000 
#    0.000    0.000    0.000    0.000    0.000    0.000 
#
# Total GULP energy -133831.482319 kJ/mol
# GULP energy per Si atom -5576.311763 kJ/mol
# Density = 2.732654 g / cm^3
# Si number density = 27.388879 Si / 1000 Ang^3
#
#
#
# Elastic Constant Matrix: (Units=GPa)
#
#
# Indices 1 2 3 4 5 6 
#
# 1 148.0825 79.0621 34.8232 0.0000 0.0000 -4.1694
# 2 79.0621 148.0825 34.8232 0.0000 0.0000 4.1694
# 3 34.8232 34.8232 51.1236 0.0000 0.0000 0.0000
# 4 0.0000 0.0000 0.0000 29.2699 0.0000 0.0000
# 5 0.0000 0.0000 0.0000 0.0000 29.2699 0.0000
# 6 -4.1694 4.1694 0.0000 0.0000 0.0000 57.1956
#
#
#
# Elastic Compliance Matrix: (Units=1/GPa)
#
#
# Indices 1 2 3 4 5 6 
#
# 1 0.010091 -0.004526 -0.003790 0.000000 0.000000 0.001066
# 2 -0.004526 0.010091 -0.003790 0.000000 0.000000 -0.001066
# 3 -0.003790 -0.003790 0.024724 0.000000 0.000000 0.000000
# 4 0.000000 0.000000 0.000000 0.034165 0.000000 0.000000
# 5 0.000000 0.000000 0.000000 0.000000 0.034165 0.000000
# 6 0.001066 -0.001066 0.000000 0.000000 0.000000 0.017639
#
#
# Mechanical properties :
#
#
# Convention : Reuss Voigt Hill
#
# Bulk Modulus (GPa) = 48.32816 71.63397 59.98106
# Shear Modulus (GPa) = 30.86675 36.38572 33.62624
#
# Velocity S-wave (km/s) = 3.36070 3.64879 3.50770
# Velocity P-wave (km/s) = 5.72211 6.63044 6.19295
#
# Compressibility (1/GPa) = 0.02069187
#
# Stress axis : x y z
#
# Youngs Moduli (GPa) = 99.09864 99.09864 40.44615
#
# Poissons Ratio (x) = 0.44855 0.15331
# Poissons Ratio (y) = 0.44855 0.15331
# Poissons Ratio (z) = 0.37563 0.37563
#
# Static dielectric constant tensor:
#      x y z
#    x 2.153310 0.000000 0.000000 
#    y 0.000000 2.153310 0.000000 
#    z 0.000000 0.000000 2.308400 
# 
# From -- ./inp_files/849.got.cif
#   From: 2010.05.17/outbox.cif.g08.bks.cpg/sg76_cif.got.tgz:849.got - 2010.06.03 18:43:17.
