data_PCOD9541703
_publ_section_title
;
Structure prediction by ZEFSAII (Michael W. Deem and Ramdas Pophale) SiO2 
 PCOD9541703
Probable space group: P 43
;
_chemical_formula_sum "Si O2"
_cell_formula_units_Z 24
_cell_length_a 9.443094
_cell_length_b 9.443094
_cell_length_c 10.532689
_cell_angle_alpha 90.000000
_cell_angle_beta 90.000000
_cell_angle_gamma 90.000000
_cell_volume 939.221199
_symmetry_space_group_name_H-M "P 43"
_symmetry_group_IT_number 78
_symmetry_cell_setting 'tetragonal'
loop_
_space_group_symop_operation_xyz
x,y,z
-y,x,3/4+z
-x,-y,1/2+z
y,-x,1/4+z
loop_
_atom_site_type_symbol
_atom_site_label
_atom_site_fract_x
_atom_site_fract_y
_atom_site_fract_z
Si Si1 0.385414 0.505464 0.672460
Si Si2 0.946437 0.356260 0.470675
Si Si3 0.035583 0.375641 0.132649
Si Si4 0.212676 0.246242 0.323188
Si Si5 0.917324 0.891089 0.368622
Si Si6 0.879752 0.566811 0.308216
O O1 0.487017 0.457382 0.559438
O O2 0.343707 0.664292 0.628679
O O3 0.238439 0.419538 0.697314
O O4 0.986544 0.510913 0.521144
O O5 0.914348 0.246114 0.579424
O O6 0.822529 0.424517 0.383985
O O7 0.065169 0.273450 0.393332
O O8 0.174091 0.287003 0.176535
O O9 0.909319 0.266190 0.109685
O O10 0.015297 0.490892 0.246280
O O11 0.915488 0.718637 0.368872
O O12 0.020043 0.937826 0.249856
#
# Coordination Sequence:
#
# PCOD9541703 Si02
#       6
#     4   4   4   4   4   4
#     4  11  24  44  74 108 146 202 267 332 400 483
#     4  11  24  46  75 108 156 215 261 337 402 488
#     4  10  22  45  71 106 154 206 265 335 406 483
#     4  10  23  41  73 108 152 208 264 328 408 484
#     4  12  28  51  81 119 163 213 273 340 415 496
#     4  10  23  47  72 103 153 206 262 326 405 482
#
# _framework density 25.553083000000001
#
# number of rings (size 3 to 8) (size 9 to 14) (size 15 to 20)
#    0.000    1.333    1.667    3.000    7.000    4.000 
#    3.000    0.000    0.000    0.000    0.000    0.000 
#    0.000    0.000    0.000    0.000    0.000    0.000 
#
# Total GULP energy -133616.522315 kJ/mol
# GULP energy per Si atom -5567.355096 kJ/mol
# Density = 2.549492 g / cm^3
# Si number density = 25.553083 Si / 1000 Ang^3
#
#
#
# Elastic Constant Matrix: (Units=GPa)
#
#
# Indices 1 2 3 4 5 6 
#
# 1 111.6520 55.4153 53.0536 0.0000 0.0000 0.7516
# 2 55.4153 111.6520 53.0536 0.0000 0.0000 -0.7516
# 3 53.0536 53.0536 85.8997 0.0000 0.0000 0.0000
# 4 0.0000 0.0000 0.0000 47.1721 0.0000 0.0000
# 5 0.0000 0.0000 0.0000 0.0000 47.1721 0.0000
# 6 0.7516 -0.7516 0.0000 0.0000 0.0000 23.0014
#
#
#
# Elastic Compliance Matrix: (Units=1/GPa)
#
#
# Indices 1 2 3 4 5 6 
#
# 1 0.013823 -0.003974 -0.006083 0.000000 0.000000 -0.000582
# 2 -0.003974 0.013823 -0.006083 0.000000 0.000000 0.000582
# 3 -0.006083 -0.006083 0.019155 0.000000 0.000000 0.000000
# 4 0.000000 0.000000 0.000000 0.021199 0.000000 0.000000
# 5 0.000000 0.000000 0.000000 0.000000 0.021199 0.000000
# 6 -0.000582 0.000582 0.000000 0.000000 0.000000 0.043514
#
#
# Mechanical properties :
#
#
# Convention : Reuss Voigt Hill
#
# Bulk Modulus (GPa) = 68.86305 70.24986 69.55645
# Shear Modulus (GPa) = 29.44041 33.31451 31.37746
#
# Velocity S-wave (km/s) = 3.39798 3.61465 3.50799
# Velocity P-wave (km/s) = 6.51173 6.70614 6.60965
#
# Compressibility (1/GPa) = 0.01452158
#
# Stress axis : x y z
#
# Youngs Moduli (GPa) = 72.34177 72.34177 52.20443
#
# Poissons Ratio (x) = 0.28750 0.31756
# Poissons Ratio (y) = 0.28750 0.31756
# Poissons Ratio (z) = 0.44005 0.44005
#
# Static dielectric constant tensor:
#      x y z
#    x 2.086370 0.000000 0.000000 
#    y 0.000000 2.086370 0.000000 
#    z 0.000000 0.000000 2.890560 
# 
# From -- ./inp_files/857.got.cif
#   From: 2010.05.17/outbox.cif.g08.bks.cpg/sg78_cif.got.tgz:857.got - 2010.06.03 18:45:56.
