data_PCOD9541915
_publ_section_title
;
Structure prediction by ZEFSAII (Michael W. Deem and Ramdas Pophale) SiO2 
 PCOD9541915
Probable space group: I 4
;
_chemical_formula_sum "Si O2"
_cell_formula_units_Z 48
_cell_length_a 14.158937
_cell_length_b 14.158937
_cell_length_c 11.682008
_cell_angle_alpha 90.000000
_cell_angle_beta 90.000000
_cell_angle_gamma 90.000000
_cell_volume 2341.956359
_symmetry_space_group_name_H-M "I 4"
_symmetry_group_IT_number 79
_symmetry_cell_setting 'tetragonal'
loop_
_space_group_symop_operation_xyz
x,y,z
-y,x,z
-x,-y,z
y,-x,z
1/2+x,1/2+y,1/2+z
1/2-y,1/2+x,1/2+z
1/2-x,1/2-y,1/2+z
1/2+y,1/2-x,1/2+z
loop_
_atom_site_type_symbol
_atom_site_label
_atom_site_fract_x
_atom_site_fract_y
_atom_site_fract_z
Si Si1 0.297387 0.726125 0.915450
Si Si2 0.368825 0.204141 0.717915
Si Si3 0.996929 0.846890 0.803698
Si Si4 0.258330 0.445486 0.083824
Si Si5 0.554507 0.805788 0.478927
Si Si6 0.869240 0.406775 0.954148
O O1 0.286153 0.686363 0.787037
O O2 0.312278 0.838728 0.928084
O O3 0.386916 0.687470 0.986040
O O4 0.199517 0.686203 0.971267
O O5 0.292157 0.132338 0.664777
O O6 0.430716 0.231576 0.608248
O O7 0.424796 0.148826 0.818434
O O8 0.994662 0.820019 0.670807
O O9 0.907033 0.910605 0.827559
O O10 0.996409 0.760507 0.888271
O O11 0.179262 0.511067 0.026733
O O12 0.478479 0.890397 0.483651
#
# Coordination Sequence:
#
# PCOD9541915 Si02
#       6
#     8   8   8   8   8   8
#     4   9  22  42  62  95 133 173 227 267 340 391
#     4   9  22  43  58 100 131 169 228 264 340 400
#     4  11  22  38  67  99 126 172 233 280 332 396
#     4  11  20  42  69  91 134 176 221 285 319 408
#     4  11  20  42  67  90 142 171 217 284 325 409
#     4  10  22  42  61 101 128 175 226 269 340 393
#
# _framework density 20.495687
#
# number of rings (size 3 to 8) (size 9 to 14) (size 15 to 20)
#    1.000    0.833    1.667    3.000    0.000    4.000 
#   15.000    3.333    0.000    0.000    0.000    0.000 
#    0.000    0.000    0.000    0.000    0.000    0.000 
#
# Total GULP energy -133637.957048 kJ/mol
# GULP energy per Si atom -5568.248210 kJ/mol
# Density = 2.044904 g / cm^3
# Si number density = 20.495687 Si / 1000 Ang^3
#
#
#
# Elastic Constant Matrix: (Units=GPa)
#
#
# Indices 1 2 3 4 5 6 
#
# 1 44.6161 40.9244 20.1410 0.0000 0.0000 27.8154
# 2 40.9244 44.6161 20.1410 0.0000 0.0000 -27.8154
# 3 20.1410 20.1410 93.5658 0.0000 0.0000 0.0000
# 4 0.0000 0.0000 0.0000 34.3515 0.0000 0.0000
# 5 0.0000 0.0000 0.0000 0.0000 34.3515 0.0000
# 6 27.8154 -27.8154 0.0000 0.0000 0.0000 41.2673
#
#
#
# Elastic Compliance Matrix: (Units=1/GPa)
#
#
# Indices 1 2 3 4 5 6 
#
# 1 -0.008286 0.021295 -0.002800 0.000000 0.000000 0.019939
# 2 0.021295 -0.008286 -0.002800 0.000000 0.000000 -0.019939
# 3 -0.002800 -0.002800 0.011893 0.000000 0.000000 0.000000
# 4 0.000000 0.000000 0.000000 0.029111 0.000000 0.000000
# 5 0.000000 0.000000 0.000000 0.000000 0.029111 0.000000
# 6 0.019939 -0.019939 0.000000 0.000000 0.000000 -0.002646
#
#
# Mechanical properties :
#
#
# Convention : Reuss Voigt Hill
#
# Bulk Modulus (GPa) = 37.43905 38.35676 37.89790
# Shear Modulus (GPa) = 175.99105 28.76683 102.37894
#
# Velocity S-wave (km/s) = 9.27652 3.75047 7.07530
# Velocity P-wave (km/s) = 11.53451 6.12453 9.23457
#
# Compressibility (1/GPa) = 0.02671008
#
# Stress axis : x y z
#
# Youngs Moduli (GPa) = -120.68331 -120.68331 84.08114
#
# Poissons Ratio (x) = 2.56998 0.23546
# Poissons Ratio (y) = 2.56998 0.23546
# Poissons Ratio (z) = -0.33796 -0.33796
#
# Static dielectric constant tensor:
#      x y z
#    x 1.769520 0.000000 0.000000 
#    y 0.000000 1.769520 0.000000 
#    z 0.000000 0.000000 1.749780 
# 
# From -- ./inp_files/1073.got.cif
#   From: 2010.05.17/outbox.cif.g08.bks.cpg/sg79_cif.got.tgz:1073.got - 2010.06.03 18:47:27.
