data_PCOD9541587
_publ_section_title
;
Structure prediction by ZEFSAII (Michael W. Deem and Ramdas Pophale) SiO2 
 PCOD9541587
Probable space group: P 43
;
_chemical_formula_sum "Si O2"
_cell_formula_units_Z 32
_cell_length_a 14.588157
_cell_length_b 14.588157
_cell_length_c 8.679781
_cell_angle_alpha 90.000000
_cell_angle_beta 90.000000
_cell_angle_gamma 90.000000
_cell_volume 1847.181732
_symmetry_space_group_name_H-M "P 43"
_symmetry_group_IT_number 78
_symmetry_cell_setting 'tetragonal'
loop_
_space_group_symop_operation_xyz
x,y,z
-y,x,3/4+z
-x,-y,1/2+z
y,-x,1/4+z
loop_
_atom_site_type_symbol
_atom_site_label
_atom_site_fract_x
_atom_site_fract_y
_atom_site_fract_z
Si Si1 0.051726 0.907763 0.631870
Si Si2 0.905446 0.287596 0.236536
Si Si3 0.026990 0.438490 0.076856
Si Si4 0.039587 0.246871 0.494545
Si Si5 0.543091 0.244610 0.344327
Si Si6 0.393098 0.941260 0.977005
Si Si7 0.341608 0.300201 0.432806
Si Si8 0.177130 0.379135 0.302817
O O1 0.061487 0.797999 0.631771
O O2 0.139742 0.939416 0.733319
O O3 0.959426 0.936262 0.720465
O O4 0.797458 0.301891 0.234666
O O5 0.952484 0.378345 0.169236
O O6 0.944896 0.266124 0.405633
O O7 0.124109 0.412697 0.154208
O O8 0.000212 0.542803 0.111577
O O9 0.027038 0.413004 0.898841
O O10 0.046111 0.290804 0.662645
O O11 0.114178 0.303462 0.391011
O O12 0.577302 0.164993 0.458385
O O13 0.447191 0.287284 0.392221
O O14 0.622840 0.318775 0.311041
O O15 0.665903 0.277603 0.040106
O O16 0.192656 0.460343 0.427645
#
# Coordination Sequence:
#
# PCOD9541587 Si02
#       8
#     4   4   4   4   4   4   4   4
#     4  10  20  34  53  73 111 153 189 220 261 328
#     4  10  18  33  57  80 106 148 185 225 283 333
#     4  11  21  32  58  85 118 136 179 236 288 332
#     4   9  18  34  53  81 108 142 180 232 276 331
#     4   9  19  34  62  78 110 147 188 223 283 337
#     4  11  20  34  57  88 113 140 179 236 289 335
#     4  10  18  35  63  79 106 147 190 227 279 337
#     4   8  18  34  55  82 108 137 184 225 279 329
#
# _framework density 17.323688000000001
#
# number of rings (size 3 to 8) (size 9 to 14) (size 15 to 20)
#    0.750    1.500    2.500    2.250    0.000    1.000 
#    0.000    0.000   13.750    0.000    0.000    0.000 
#    0.000    0.000    0.000    0.000    0.000    0.000 
#
# Total GULP energy -178162.509564 kJ/mol
# GULP energy per Si atom -5567.578424 kJ/mol
# Density = 1.728426 g / cm^3
# Si number density = 17.323688 Si / 1000 Ang^3
#
#
#
# Elastic Constant Matrix: (Units=GPa)
#
#
# Indices 1 2 3 4 5 6 
#
# 1 62.0015 12.4742 -8.7914 0.0000 0.0000 -7.2861
# 2 12.4742 62.0015 -8.7914 0.0000 0.0000 7.2861
# 3 -8.7914 -8.7914 30.9878 0.0000 0.0000 0.0000
# 4 0.0000 0.0000 0.0000 18.7624 0.0000 0.0000
# 5 0.0000 0.0000 0.0000 0.0000 18.7624 0.0000
# 6 -7.2861 7.2861 0.0000 0.0000 0.0000 22.9631
#
#
#
# Elastic Compliance Matrix: (Units=1/GPa)
#
#
# Indices 1 2 3 4 5 6 
#
# 1 0.018331 -0.003939 0.004083 0.000000 0.000000 0.007066
# 2 -0.003939 0.018331 0.004083 0.000000 0.000000 -0.007066
# 3 0.004083 0.004083 0.034587 0.000000 0.000000 0.000000
# 4 0.000000 0.000000 0.000000 0.053298 0.000000 0.000000
# 5 0.000000 0.000000 0.000000 0.000000 0.053298 0.000000
# 6 0.007066 -0.007066 0.000000 0.000000 0.000000 0.048032
#
#
# Mechanical properties :
#
#
# Convention : Reuss Voigt Hill
#
# Bulk Modulus (GPa) = 12.54689 16.08593 14.31641
# Shear Modulus (GPa) = 20.49254 22.77088 21.63171
#
# Velocity S-wave (km/s) = 3.44309 3.62945 3.53750
# Velocity P-wave (km/s) = 4.80259 5.18358 4.99672
#
# Compressibility (1/GPa) = 0.07970102
#
# Stress axis : x y z
#
# Youngs Moduli (GPa) = 54.55380 54.55380 28.91227
#
# Poissons Ratio (x) = 0.21491 -0.11804
# Poissons Ratio (y) = 0.21491 -0.11804
# Poissons Ratio (z) = -0.22273 -0.22273
#
# Static dielectric constant tensor:
#      x y z
#    x 1.608580 0.000000 0.000000 
#    y 0.000000 1.608580 0.000000 
#    z 0.000000 0.000000 1.579860 
# 
# From -- ./inp_files/709.got.cif
#   From: 2010.05.17/outbox.cif.g08.bks.cpg/sg78_cif.got.tgz:709.got - 2010.06.03 18:45:56.
