data_PCOD9541671
_publ_section_title
;
Structure prediction by ZEFSAII (Michael W. Deem and Ramdas Pophale) SiO2 
 PCOD9541671
Probable space group: P 43
;
_chemical_formula_sum "Si O2"
_cell_formula_units_Z 28
_cell_length_a 15.020392
_cell_length_b 15.020392
_cell_length_c 5.215598
_cell_angle_alpha 90.000000
_cell_angle_beta 90.000000
_cell_angle_gamma 90.000000
_cell_volume 1176.702413
_symmetry_space_group_name_H-M "P 43"
_symmetry_group_IT_number 78
_symmetry_cell_setting 'tetragonal'
loop_
_space_group_symop_operation_xyz
x,y,z
-y,x,3/4+z
-x,-y,1/2+z
y,-x,1/4+z
loop_
_atom_site_type_symbol
_atom_site_label
_atom_site_fract_x
_atom_site_fract_y
_atom_site_fract_z
Si Si1 0.727975 0.386943 0.328550
Si Si2 0.580214 0.283593 0.588876
Si Si3 0.823867 0.582528 0.850714
Si Si4 0.878713 0.063357 0.221100
Si Si5 0.745050 0.853234 0.803025
Si Si6 0.110889 0.596435 0.176966
Si Si7 0.692833 0.021305 0.165380
O O1 0.657386 0.354827 0.538774
O O2 0.688874 0.481514 0.233144
O O3 0.763377 0.301897 0.165259
O O4 0.821255 0.419306 0.447113
O O5 0.579187 0.253539 0.885063
O O6 0.605466 0.206517 0.386618
O O7 0.868632 0.484859 0.859848
O O8 0.895346 0.655305 0.761335
O O9 0.858819 0.148045 0.034171
O O10 0.779770 0.047444 0.331006
O O11 0.965898 0.094037 0.371511
O O12 0.692900 0.864917 0.539859
O O13 0.718151 0.938315 0.981463
O O14 0.011497 0.610165 0.085386
#
# Coordination Sequence:
#
# PCOD9541671 Si02
#       7
#     4   4   4   4   4   4   4
#     4  10  23  44  66  99 136 178 226 287 345 423
#     4  11  25  43  71 101 141 182 232 281 351 424
#     4  11  25  43  69 106 137 183 232 291 355 420
#     4  10  23  41  61  91 132 179 239 284 341 411
#     4  10  21  43  63  93 133 176 228 289 354 403
#     4  10  23  39  67  94 138 174 226 290 352 412
#     4  10  24  39  63 100 129 182 231 290 352 407
#
# _framework density 23.795309
#
# number of rings (size 3 to 8) (size 9 to 14) (size 15 to 20)
#    0.000    1.714    1.429    0.857   10.000    0.000 
#    0.000    2.857    0.000    0.000    0.000    0.000 
#    0.000    0.000    0.000    0.000    0.000    0.000 
#
# Total GULP energy -155974.009671 kJ/mol
# GULP energy per Si atom -5570.500345 kJ/mol
# Density = 2.374115 g / cm^3
# Si number density = 23.795309 Si / 1000 Ang^3
#
#
#
# Elastic Constant Matrix: (Units=GPa)
#
#
# Indices 1 2 3 4 5 6 
#
# 1 77.0681 20.1570 -5.2175 0.0000 0.0000 10.1950
# 2 20.1570 77.0681 -5.2175 0.0000 0.0000 -10.1950
# 3 -5.2175 -5.2175 41.7109 0.0000 0.0000 0.0000
# 4 0.0000 0.0000 0.0000 26.5183 0.0000 0.0000
# 5 0.0000 0.0000 0.0000 0.0000 26.5183 0.0000
# 6 10.1950 -10.1950 0.0000 0.0000 0.0000 15.9512
#
#
#
# Elastic Compliance Matrix: (Units=1/GPa)
#
#
# Indices 1 2 3 4 5 6 
#
# 1 0.016608 -0.006182 0.001304 0.000000 0.000000 -0.014566
# 2 -0.006182 0.016608 0.001304 0.000000 0.000000 0.014566
# 3 0.001304 0.001304 0.024301 0.000000 0.000000 0.000000
# 4 0.000000 0.000000 0.000000 0.037710 0.000000 0.000000
# 5 0.000000 0.000000 0.000000 0.000000 0.037710 0.000000
# 6 -0.014566 0.014566 0.000000 0.000000 0.000000 0.081310
#
#
# Mechanical properties :
#
#
# Convention : Reuss Voigt Hill
#
# Bulk Modulus (GPa) = 19.85393 23.92123 21.88758
# Shear Modulus (GPa) = 20.99225 26.20591 23.59908
#
# Velocity S-wave (km/s) = 2.97341 3.32219 3.15263
# Velocity P-wave (km/s) = 4.48887 4.97903 4.74029
#
# Compressibility (1/GPa) = 0.05036786
#
# Stress axis : x y z
#
# Youngs Moduli (GPa) = 60.21340 60.21340 41.15093
#
# Poissons Ratio (x) = 0.37225 -0.05366
# Poissons Ratio (y) = 0.37225 -0.05366
# Poissons Ratio (z) = -0.07852 -0.07852
#
# Static dielectric constant tensor:
#      x y z
#    x 1.974850 0.000000 0.000000 
#    y 0.000000 1.974850 0.000000 
#    z 0.000000 0.000000 1.938560 
# 
# From -- ./inp_files/280.got.cif
#   From: 2010.05.17/outbox.cif.g08.bks.cpg/sg78_cif.got.tgz:280.got - 2010.06.03 18:45:56.
