data_PCOD9541531
_publ_section_title
;
Structure prediction by ZEFSAII (Michael W. Deem and Ramdas Pophale) SiO2 
 PCOD9541531
Probable space group: P 42
;
_chemical_formula_sum "Si O2"
_cell_formula_units_Z 14
_cell_length_a 7.906375
_cell_length_b 7.906375
_cell_length_c 8.620342
_cell_angle_alpha 90.000000
_cell_angle_beta 90.000000
_cell_angle_gamma 90.000000
_cell_volume 538.864179
_symmetry_space_group_name_H-M "P 42"
_symmetry_group_IT_number 77
_symmetry_cell_setting 'tetragonal'
loop_
_space_group_symop_operation_xyz
x,y,z
-y,x,1/2+z
-x,-y,z
y,-x,1/2+z
loop_
_atom_site_type_symbol
_atom_site_label
_atom_site_fract_x
_atom_site_fract_y
_atom_site_fract_z
Si Si1 0.000000 0.500000 0.461370
Si Si2 0.411069 0.812769 0.404170
Si Si3 0.998158 0.185667 0.694792
Si Si4 0.639187 0.281738 0.757569
O O1 0.003486 0.662830 0.572147
O O2 0.170429 0.486694 0.360179
O O3 0.527443 0.684425 0.305864
O O4 0.400426 0.741396 0.576973
O O5 0.500000 0.000000 0.412926
O O6 0.237793 0.854895 0.314198
O O7 0.820318 0.191384 0.783445
O O8 0.000000 0.000000 0.623850
#
# Coordination Sequence:
#
# PCOD9541531 Si02
#       4
#     2   4   4   4
#     4  12  26  48  78 130 164 224 290 348 444 512
#     4  10  23  51  77 124 162 224 290 351 439 514
#     4  11  27  47  83 123 168 223 292 353 431 520
#     4  11  25  48  81 115 176 215 290 362 422 523
#
# _framework density 25.980568999999999
#
# number of rings (size 3 to 8) (size 9 to 14) (size 15 to 20)
#    0.000    1.143    5.714    0.000   12.000    0.000 
#    0.000    4.286    0.000    0.000    0.000    0.000 
#    0.000    0.000    0.000    0.000    0.000    0.000 
#
# Total GULP energy -78486.974146 kJ/mol
# GULP energy per Si atom -5606.212439 kJ/mol
# Density = 2.592144 g / cm^3
# Si number density = 25.980569 Si / 1000 Ang^3
#
#
#
# Elastic Constant Matrix: (Units=GPa)
#
#
# Indices 1 2 3 4 5 6 
#
# 1 176.4880 30.7896 78.2958 0.0000 0.0000 -9.1961
# 2 30.7896 176.4880 78.2958 0.0000 0.0000 9.1961
# 3 78.2958 78.2958 197.8448 0.0000 0.0000 0.0000
# 4 0.0000 0.0000 0.0000 41.7991 0.0000 0.0000
# 5 0.0000 0.0000 0.0000 0.0000 41.7991 0.0000
# 6 -9.1961 9.1961 0.0000 0.0000 0.0000 23.9155
#
#
#
# Elastic Compliance Matrix: (Units=1/GPa)
#
#
# Indices 1 2 3 4 5 6 
#
# 1 0.007048 -0.000166 -0.002723 0.000000 0.000000 0.002774
# 2 -0.000166 0.007048 -0.002723 0.000000 0.000000 -0.002774
# 3 -0.002723 -0.002723 0.007210 0.000000 0.000000 0.000000
# 4 0.000000 0.000000 0.000000 0.023924 0.000000 0.000000
# 5 0.000000 0.000000 0.000000 0.000000 0.023924 0.000000
# 6 0.002774 -0.002774 0.000000 0.000000 0.000000 0.043947
#
#
# Mechanical properties :
#
#
# Convention : Reuss Voigt Hill
#
# Bulk Modulus (GPa) = 99.20606 102.84257 101.02431
# Shear Modulus (GPa) = 39.15845 45.73206 42.44525
#
# Velocity S-wave (km/s) = 3.88651 4.20007 4.04633
# Velocity P-wave (km/s) = 7.64248 7.94929 7.79739
#
# Compressibility (1/GPa) = 0.01008003
#
# Stress axis : x y z
#
# Youngs Moduli (GPa) = 141.88819 141.88819 138.69478
#
# Poissons Ratio (x) = 0.02353 0.37773
# Poissons Ratio (y) = 0.02353 0.37773
# Poissons Ratio (z) = 0.38643 0.38643
#
# Static dielectric constant tensor:
#      x y z
#    x 2.114490 0.000000 0.000000 
#    y 0.000000 2.114490 0.000000 
#    z 0.000000 0.000000 1.975040 
# 
# From -- ./inp_files/244.got.cif
#   From: 2010.05.17/outbox.cif.g08.bks.cpg/sg77_cif.got.tgz:244.got - 2010.06.03 18:44:51.
