data_PCOD9541020
_publ_section_title
;
Structure prediction by ZEFSAII (Michael W. Deem and Ramdas Pophale) SiO2 
 PCOD9541020
Probable space group: P 4
;
_chemical_formula_sum "Si O2"
_cell_formula_units_Z 28
_cell_length_a 8.271141
_cell_length_b 8.271141
_cell_length_c 18.801905
_cell_angle_alpha 90.000000
_cell_angle_beta 90.000000
_cell_angle_gamma 90.000000
_cell_volume 1286.271665
_symmetry_space_group_name_H-M "P 4"
_symmetry_group_IT_number 75
_symmetry_cell_setting 'tetragonal'
loop_
_space_group_symop_operation_xyz
x,y,z
-y,x,z
-x,-y,z
y,-x,z
loop_
_atom_site_type_symbol
_atom_site_label
_atom_site_fract_x
_atom_site_fract_y
_atom_site_fract_z
Si Si1 0.580542 0.760840 0.461270
Si Si2 0.578125 0.760434 0.882813
Si Si3 0.259945 0.082322 0.173639
Si Si4 0.917678 0.259945 0.591987
Si Si5 0.580542 0.760840 0.304357
Si Si6 0.740042 0.914032 0.750592
Si Si7 0.085968 0.740042 0.015035
O O1 0.398628 0.693787 0.465112
O O2 0.626628 0.871185 0.527168
O O3 0.606413 0.835094 0.382813
O O4 0.397106 0.694035 0.882813
O O5 0.621832 0.861371 0.812798
O O6 0.621832 0.861371 0.952828
O O7 0.373372 0.128815 0.238458
O O8 0.329283 0.108457 0.094484
O O9 0.100021 0.194551 0.178307
O O10 0.891543 0.329283 0.671143
O O11 0.100021 0.194551 0.587319
O O12 0.398628 0.693787 0.300515
O O13 0.902464 0.804357 0.756755
O O14 0.902464 0.804357 0.008872
#
# Coordination Sequence:
#
# PCOD9541020 Si02
#       7
#     4   4   4   4   4   4   4
#     4   9  19  35  52  72 102 139 175 210 251 300
#     4  11  24  37  50  76 110 137 166 207 252 298
#     4   9  19  35  54  78 105 131 165 211 258 302
#     4   9  19  35  54  78 105 131 165 211 258 302
#     4   9  19  35  52  72 102 139 175 210 251 300
#     4   9  19  37  58  77 100 133 171 209 252 303
#     4   9  19  37  58  77 100 133 171 209 252 303
#
# _framework density 21.768339999999998
#
# number of rings (size 3 to 8) (size 9 to 14) (size 15 to 20)
#    0.000    2.714    0.000    3.429    0.000    8.000 
#    0.000   12.857    0.000    0.000    0.000    0.000 
#    0.000    0.000    0.000    0.000    0.000    0.000 
#
# Total GULP energy -156651.512834 kJ/mol
# GULP energy per Si atom -5594.696887 kJ/mol
# Density = 2.171879 g / cm^3
# Si number density = 21.768340 Si / 1000 Ang^3
#
#
#
# Elastic Constant Matrix: (Units=GPa)
#
#
# Indices 1 2 3 4 5 6 
#
# 1 60.1352 45.7693 74.5927 0.0000 0.0000 1.0940
# 2 45.7693 60.1352 74.5927 0.0000 0.0000 -1.0940
# 3 74.5927 74.5927 225.1850 0.0000 0.0000 0.0000
# 4 0.0000 0.0000 0.0000 560.4219 0.0000 0.0000
# 5 0.0000 0.0000 0.0000 0.0000 560.4219 0.0000
# 6 1.0940 -1.0940 0.0000 0.0000 0.0000 43.3415
#
#
#
# Elastic Compliance Matrix: (Units=1/GPa)
#
#
# Indices 1 2 3 4 5 6 
#
# 1 0.043791 -0.026087 -0.005864 0.000000 0.000000 -0.001764
# 2 -0.026087 0.043791 -0.005864 0.000000 0.000000 0.001764
# 3 -0.005864 -0.005864 0.008326 0.000000 0.000000 0.000000
# 4 0.000000 0.000000 0.000000 0.001784 0.000000 0.000000
# 5 0.000000 0.000000 0.000000 0.000000 0.001784 0.000000
# 6 -0.001764 0.001764 0.000000 0.000000 0.000000 0.023162
#
#
# Mechanical properties :
#
#
# Convention : Reuss Voigt Hill
#
# Bulk Modulus (GPa) = 49.32064 81.70722 65.51393
# Shear Modulus (GPa) = 24.38700 242.87045 133.62873
#
# Velocity S-wave (km/s) = 3.35071 10.57415 7.84347
# Velocity P-wave (km/s) = 6.13807 13.66382 10.59188
#
# Compressibility (1/GPa) = 0.02027549
#
# Stress axis : x y z
#
# Youngs Moduli (GPa) = 22.83598 22.83598 120.10789
#
# Poissons Ratio (x) = 0.59573 0.70434
# Poissons Ratio (y) = 0.59573 0.70434
# Poissons Ratio (z) = 0.13392 0.13392
#
# Static dielectric constant tensor:
#      x y z
#    x 1.778480 0.000000 0.000000 
#    y 0.000000 1.778480 0.000000 
#    z 0.000000 0.000000 1.771450 
# 
# From -- ./inp_files/740.got.cif
#   From: 2010.05.17/outbox.cif.g08.bks.cpg/sg75_cif.got.tgz:740.got - 2010.06.03 18:42:43.
