data_PCOD9541720
_publ_section_title
;
Structure prediction by ZEFSAII (Michael W. Deem and Ramdas Pophale) SiO2 
 PCOD9541720
Probable space group: P 43
;
_chemical_formula_sum "Si O2"
_cell_formula_units_Z 32
_cell_length_a 8.559596
_cell_length_b 8.559596
_cell_length_c 18.867215
_cell_angle_alpha 90.000000
_cell_angle_beta 90.000000
_cell_angle_gamma 90.000000
_cell_volume 1382.338273
_symmetry_space_group_name_H-M "P 43"
_symmetry_group_IT_number 78
_symmetry_cell_setting 'tetragonal'
loop_
_space_group_symop_operation_xyz
x,y,z
-y,x,3/4+z
-x,-y,1/2+z
y,-x,1/4+z
loop_
_atom_site_type_symbol
_atom_site_label
_atom_site_fract_x
_atom_site_fract_y
_atom_site_fract_z
Si Si1 0.534263 0.063076 0.741230
Si Si2 0.858571 0.587107 0.234140
Si Si3 0.914559 0.724498 0.893493
Si Si4 0.170067 0.738568 0.230285
Si Si5 0.385557 0.307995 0.841517
Si Si6 0.905528 0.242267 0.257082
Si Si7 0.235967 0.436130 0.574420
Si Si8 0.504625 0.343861 0.084096
O O1 0.716395 0.109181 0.730896
O O2 0.460975 0.214577 0.777246
O O3 0.411754 0.024073 0.677698
O O4 0.517113 0.921304 0.796195
O O5 0.751095 0.595090 0.303926
O O6 0.943386 0.418524 0.232801
O O7 0.767422 0.586153 0.159436
O O8 0.983599 0.728385 0.240571
O O9 0.759830 0.621879 0.879754
O O10 0.974811 0.791383 0.819404
O O11 0.876452 0.871971 0.943434
O O12 0.194290 0.678459 0.150604
O O13 0.240899 0.612980 0.286940
O O14 0.527357 0.403960 0.875830
O O15 0.734893 0.242863 0.292303
O O16 0.376579 0.540367 0.544264
#
# Coordination Sequence:
#
# PCOD9541720 Si02
#       8
#     4   4   4   4   4   4   4   4
#     4  10  24  43  65  96 141 183 235 295 355 432
#     4  12  22  42  73 100 140 183 237 293 362 428
#     4  11  23  43  70 107 144 190 243 302 363 436
#     4  11  25  43  67 102 140 179 234 295 362 433
#     4  11  24  41  69 102 133 183 236 294 358 426
#     4  11  23  41  69 102 143 187 239 301 359 436
#     4  11  23  43  66 101 137 183 236 293 351 431
#     4  11  24  38  71 106 132 180 240 297 350 416
#
# _framework density 23.149180000000001
#
# number of rings (size 3 to 8) (size 9 to 14) (size 15 to 20)
#    0.000    1.000    5.000    1.500    7.000    0.000 
#    0.000    3.750    0.000    0.000    0.000    0.000 
#    0.000    0.000    0.000    0.000    0.000    0.000 
#
# Total GULP energy -178583.683813 kJ/mol
# GULP energy per Si atom -5580.740119 kJ/mol
# Density = 2.309649 g / cm^3
# Si number density = 23.149180 Si / 1000 Ang^3
#
#
#
# Elastic Constant Matrix: (Units=GPa)
#
#
# Indices 1 2 3 4 5 6 
#
# 1 48.4262 7.1285 -6.2581 0.0000 0.0000 1.1057
# 2 7.1285 48.4262 -6.2581 0.0000 0.0000 -1.1057
# 3 -6.2581 -6.2581 66.2313 0.0000 0.0000 0.0000
# 4 0.0000 0.0000 0.0000 19.6978 0.0000 0.0000
# 5 0.0000 0.0000 0.0000 0.0000 19.6978 0.0000
# 6 1.1057 -1.1057 0.0000 0.0000 0.0000 32.8090
#
#
#
# Elastic Compliance Matrix: (Units=1/GPa)
#
#
# Indices 1 2 3 4 5 6 
#
# 1 0.021325 -0.002933 0.001738 0.000000 0.000000 -0.000818
# 2 -0.002933 0.021325 0.001738 0.000000 0.000000 0.000818
# 3 0.001738 0.001738 0.015427 0.000000 0.000000 0.000000
# 4 0.000000 0.000000 0.000000 0.050767 0.000000 0.000000
# 5 0.000000 0.000000 0.000000 0.000000 0.050767 0.000000
# 6 -0.000818 0.000818 0.000000 0.000000 0.000000 0.030535
#
#
# Mechanical properties :
#
#
# Convention : Reuss Voigt Hill
#
# Bulk Modulus (GPa) = 16.90276 16.92313 16.91295
# Shear Modulus (GPa) = 23.94846 25.67234 24.81040
#
# Velocity S-wave (km/s) = 3.21990 3.33377 3.27733
# Velocity P-wave (km/s) = 4.59795 4.70585 4.65221
#
# Compressibility (1/GPa) = 0.05916192
#
# Stress axis : x y z
#
# Youngs Moduli (GPa) = 46.89331 46.89331 64.82137
#
# Poissons Ratio (x) = 0.13755 -0.11265
# Poissons Ratio (y) = 0.13755 -0.11265
# Poissons Ratio (z) = -0.08149 -0.08149
#
# Static dielectric constant tensor:
#      x y z
#    x 1.929410 0.000000 0.000000 
#    y 0.000000 1.929410 0.000000 
#    z 0.000000 0.000000 1.892800 
# 
# From -- ./inp_files/1476.got.cif
#   From: 2010.05.17/outbox.cif.g08.bks.cpg/sg78_cif.got.tgz:1476.got - 2010.06.03 18:45:56.
