data_PCOD9541771
_publ_section_title
;
Structure prediction by ZEFSAII (Michael W. Deem and Ramdas Pophale) SiO2 
 PCOD9541771
Probable space group: P 43
;
_chemical_formula_sum "Si O2"
_cell_formula_units_Z 20
_cell_length_a 7.014268
_cell_length_b 7.014268
_cell_length_c 16.238079
_cell_angle_alpha 90.000000
_cell_angle_beta 90.000000
_cell_angle_gamma 90.000000
_cell_volume 798.912765
_symmetry_space_group_name_H-M "P 43"
_symmetry_group_IT_number 78
_symmetry_cell_setting 'tetragonal'
loop_
_space_group_symop_operation_xyz
x,y,z
-y,x,3/4+z
-x,-y,1/2+z
y,-x,1/4+z
loop_
_atom_site_type_symbol
_atom_site_label
_atom_site_fract_x
_atom_site_fract_y
_atom_site_fract_z
Si Si1 0.797151 0.768776 0.202620
Si Si2 0.756125 0.622729 0.529884
Si Si3 0.591431 0.218657 0.967371
Si Si4 0.511623 0.833268 0.811502
Si Si5 0.873437 0.904582 0.029325
O O1 0.586529 0.729257 0.238355
O O2 0.364132 0.985796 0.283807
O O3 0.811029 0.914581 0.124950
O O4 0.909381 0.896209 0.270167
O O5 0.705550 0.622834 0.625989
O O6 0.636702 0.780646 0.481067
O O7 0.574149 0.145765 0.403887
O O8 0.652048 0.368862 0.037713
O O9 0.737551 0.046003 0.981069
O O10 0.316669 0.828142 0.759231
#
# Coordination Sequence:
#
# PCOD9541771 Si02
#       5
#     4   4   4   4   4
#     4   9  21  51  74 105 153 208 255 320 400 457
#     4  11  26  44  68 117 144 198 257 324 383 474
#     4  12  26  43  75 111 150 200 267 312 395 470
#     4   9  24  48  72 100 158 194 255 321 397 456
#     4   9  23  44  79 101 149 214 254 315 393 473
#
# _framework density 25.034023000000001
#
# number of rings (size 3 to 8) (size 9 to 14) (size 15 to 20)
#    1.200    0.800    0.000    1.200    8.400    3.200 
#    0.000    4.000    0.000    0.000    0.000    0.000 
#    0.000    0.000    0.000    0.000    0.000    0.000 
#
# Total GULP energy -111439.052279 kJ/mol
# GULP energy per Si atom -5571.952614 kJ/mol
# Density = 2.497704 g / cm^3
# Si number density = 25.034023 Si / 1000 Ang^3
#
#
#
# Elastic Constant Matrix: (Units=GPa)
#
#
# Indices 1 2 3 4 5 6 
#
# 1 88.4797 54.4975 21.2232 0.0000 0.0000 2.5260
# 2 54.4975 88.4797 21.2232 0.0000 0.0000 -2.5260
# 3 21.2232 21.2232 92.2353 0.0000 0.0000 0.0000
# 4 0.0000 0.0000 0.0000 32.6142 0.0000 0.0000
# 5 0.0000 0.0000 0.0000 0.0000 32.6142 0.0000
# 6 2.5260 -2.5260 0.0000 0.0000 0.0000 42.3832
#
#
#
# Elastic Compliance Matrix: (Units=1/GPa)
#
#
# Indices 1 2 3 4 5 6 
#
# 1 0.018599 -0.011092 -0.001727 0.000000 0.000000 -0.001770
# 2 -0.011092 0.018599 -0.001727 0.000000 0.000000 0.001770
# 3 -0.001727 -0.001727 0.011637 0.000000 0.000000 0.000000
# 4 0.000000 0.000000 0.000000 0.030662 0.000000 0.000000
# 5 0.000000 0.000000 0.000000 0.000000 0.030662 0.000000
# 6 -0.001770 0.001770 0.000000 0.000000 0.000000 0.023805
#
#
# Mechanical properties :
#
#
# Convention : Reuss Voigt Hill
#
# Bulk Modulus (GPa) = 50.65531 51.45362 51.05446
# Shear Modulus (GPa) = 29.47499 33.00568 31.24033
#
# Velocity S-wave (km/s) = 3.43504 3.63496 3.53642
# Velocity P-wave (km/s) = 6.00094 6.18186 6.09207
#
# Compressibility (1/GPa) = 0.01974127
#
# Stress axis : x y z
#
# Youngs Moduli (GPa) = 53.76744 53.76744 85.93469
#
# Poissons Ratio (x) = 0.59637 0.14844
# Poissons Ratio (y) = 0.59637 0.14844
# Poissons Ratio (z) = 0.09287 0.09287
#
# Static dielectric constant tensor:
#      x y z
#    x 2.011070 0.000000 0.000000 
#    y 0.000000 2.011070 0.000000 
#    z 0.000000 0.000000 1.957900 
# 
# From -- ./inp_files/1054.got.cif
#   From: 2010.05.17/outbox.cif.g08.bks.cpg/sg78_cif.got.tgz:1054.got - 2010.06.03 18:45:56.
