data_PCOD9541019
_publ_section_title
;
Structure prediction by ZEFSAII (Michael W. Deem and Ramdas Pophale) SiO2 
 PCOD9541019
Probable space group: P 4
;
_chemical_formula_sum "Si O2"
_cell_formula_units_Z 30
_cell_length_a 8.493372
_cell_length_b 8.493372
_cell_length_c 20.590865
_cell_angle_alpha 90.000000
_cell_angle_beta 90.000000
_cell_angle_gamma 90.000000
_cell_volume 1485.370805
_symmetry_space_group_name_H-M "P 4"
_symmetry_group_IT_number 75
_symmetry_cell_setting 'tetragonal'
loop_
_space_group_symop_operation_xyz
x,y,z
-y,x,z
-x,-y,z
y,-x,z
loop_
_atom_site_type_symbol
_atom_site_label
_atom_site_fract_x
_atom_site_fract_y
_atom_site_fract_z
Si Si1 0.741027 0.935462 0.463510
Si Si2 0.920405 0.253177 0.986469
Si Si3 0.245915 0.578688 0.721573
Si Si4 0.249965 0.087585 0.835869
Si Si5 0.921019 0.256345 0.605806
Si Si6 0.457479 0.239593 0.091355
Si Si7 0.739010 0.961064 0.323877
Si Si8 0.500000 0.000000 0.207813
O O1 0.667172 0.906168 0.533913
O O2 0.890659 0.817828 0.463710
O O3 0.657075 0.926305 0.393758
O O4 0.872961 0.391874 0.034684
O O5 0.098116 0.189574 0.996506
O O6 0.900249 0.299109 0.911085
O O7 0.310082 0.401434 0.719557
O O8 0.150296 0.620341 0.786638
O O9 0.136196 0.626940 0.661328
O O10 0.091840 0.192600 0.825381
O O11 0.098876 0.188740 0.611396
O O12 0.622832 0.327920 0.086938
O O13 0.476713 0.144530 0.158221
O O14 0.639245 0.970248 0.259116
O O15 0.829087 0.126892 0.323349
#
# Coordination Sequence:
#
# PCOD9541019 Si02
#       8
#     4   4   4   4   4   4   4   2
#     4   7  12  27  51  78 105 131 167 221 278 327
#     4   9  19  38  63  88 113 144 187 240 294 348
#     4  11  24  37  48  72 114 157 194 234 281 336
#     4   9  19  37  61  86 109 138 184 240 292 341
#     4   9  17  32  56  81 104 135 179 232 286 339
#     4  11  24  39  55  79 114 152 188 231 283 341
#     4   9  18  34  56  81 109 141 180 228 278 328
#     4  12  22  36  56  82 112 146 186 224 272 338
#
# _framework density 20.196978999999999
#
# number of rings (size 3 to 8) (size 9 to 14) (size 15 to 20)
#    0.000    2.533    0.000    4.800    0.000    4.267 
#    0.000    9.333    0.000    0.000    0.000    1.867 
#    0.000    0.000    0.000    0.000    0.000    0.000 
#
# Total GULP energy -167220.093519 kJ/mol
# GULP energy per Si atom -5574.003117 kJ/mol
# Density = 2.015101 g / cm^3
# Si number density = 20.196979 Si / 1000 Ang^3
#
#
#
# Elastic Constant Matrix: (Units=GPa)
#
#
# Indices 1 2 3 4 5 6 
#
# 1 54.7117 43.9735 69.1933 0.0000 0.0000 0.9736
# 2 43.9735 54.7117 69.1933 0.0000 0.0000 -0.9736
# 3 69.1933 69.1933 173.3691 0.0000 0.0000 0.0000
# 4 0.0000 0.0000 0.0000 55.0725 0.0000 0.0000
# 5 0.0000 0.0000 0.0000 0.0000 55.0725 0.0000
# 6 0.9736 -0.9736 0.0000 0.0000 0.0000 30.2446
#
#
#
# Elastic Compliance Matrix: (Units=1/GPa)
#
#
# Indices 1 2 3 4 5 6 
#
# 1 0.058343 -0.035330 -0.009185 0.000000 0.000000 -0.003015
# 2 -0.035330 0.058343 -0.009185 0.000000 0.000000 0.003015
# 3 -0.009185 -0.009185 0.013099 0.000000 0.000000 0.000000
# 4 0.000000 0.000000 0.000000 0.018158 0.000000 0.000000
# 5 0.000000 0.000000 0.000000 0.000000 0.018158 0.000000
# 6 -0.003015 0.003015 0.000000 0.000000 0.000000 0.033258
#
#
# Mechanical properties :
#
#
# Convention : Reuss Voigt Hill
#
# Bulk Modulus (GPa) = 44.66957 71.94586 58.30771
# Shear Modulus (GPa) = 15.91246 34.77340 25.34293
#
# Velocity S-wave (km/s) = 2.80994 4.15385 3.54614
# Velocity P-wave (km/s) = 5.71775 7.66195 6.76011
#
# Compressibility (1/GPa) = 0.02238660
#
# Stress axis : x y z
#
# Youngs Moduli (GPa) = 17.14009 17.14009 76.33895
#
# Poissons Ratio (x) = 0.60555 0.70115
# Poissons Ratio (y) = 0.60555 0.70115
# Poissons Ratio (z) = 0.15743 0.15743
#
# Static dielectric constant tensor:
#      x y z
#    x 1.628290 0.000000 0.000000 
#    y 0.000000 1.628290 0.000000 
#    z 0.000000 0.000000 1.733420 
# 
# From -- ./inp_files/770.got.cif
#   From: 2010.05.17/outbox.cif.g08.bks.cpg/sg75_cif.got.tgz:770.got - 2010.06.03 18:42:43.
