data_PCOD9541354
_publ_section_title
;
Structure prediction by ZEFSAII (Michael W. Deem and Ramdas Pophale) SiO2 
 PCOD9541354
Probable space group: P 41
;
_chemical_formula_sum "Si O2"
_cell_formula_units_Z 16
_cell_length_a 11.502913
_cell_length_b 11.502913
_cell_length_c 5.055811
_cell_angle_alpha 90.000000
_cell_angle_beta 90.000000
_cell_angle_gamma 90.000000
_cell_volume 668.969782
_symmetry_space_group_name_H-M "P 41"
_symmetry_group_IT_number 76
_symmetry_cell_setting 'tetragonal'
loop_
_space_group_symop_operation_xyz
x,y,z
-y,x,1/4+z
-x,-y,1/2+z
y,-x,3/4+z
loop_
_atom_site_type_symbol
_atom_site_label
_atom_site_fract_x
_atom_site_fract_y
_atom_site_fract_z
Si Si1 0.949548 0.324388 0.747970
Si Si2 0.140748 0.890761 0.051824
Si Si3 0.420173 0.170122 0.975513
Si Si4 0.678917 0.201815 0.135210
O O1 0.891654 0.197718 0.792024
O O2 0.890662 0.369112 0.483824
O O3 0.085735 0.305978 0.708081
O O4 0.923113 0.414174 0.985239
O O5 0.133953 0.026465 0.118417
O O6 0.257588 0.849097 0.901419
O O7 0.542049 0.219040 0.077945
O O8 0.329489 0.265925 0.868761
#
# Coordination Sequence:
#
# PCOD9541354 Si02
#       4
#     4   4   4   4
#     4  11  23  43  69  99 134 179 232 293 360 432
#     4  11  22  39  70 111 151 191 238 305 381 450
#     4  11  26  42  69  98 133 184 232 294 360 425
#     4  11  23  44  66  98 138 182 238 292 355 433
#
# _framework density 23.917373999999999
#
# number of rings (size 3 to 8) (size 9 to 14) (size 15 to 20)
#    0.000    1.000    0.000    7.500    0.000    8.000 
#    0.000    2.500    0.000    0.000    0.000    0.000 
#    0.000    0.000    0.000    0.000    0.000    0.000 
#
# Total GULP energy -89281.865389 kJ/mol
# GULP energy per Si atom -5580.116587 kJ/mol
# Density = 2.386294 g / cm^3
# Si number density = 23.917374 Si / 1000 Ang^3
#
#
#
# Elastic Constant Matrix: (Units=GPa)
#
#
# Indices 1 2 3 4 5 6 
#
# 1 161.5413 83.6917 24.9087 0.0000 0.0000 1.4270
# 2 83.6917 161.5413 24.9087 0.0000 0.0000 -1.4270
# 3 24.9087 24.9087 89.5097 0.0000 0.0000 0.0000
# 4 0.0000 0.0000 0.0000 23.2463 0.0000 0.0000
# 5 0.0000 0.0000 0.0000 0.0000 23.2463 0.0000
# 6 1.4270 -1.4270 0.0000 0.0000 0.0000 43.0014
#
#
#
# Elastic Compliance Matrix: (Units=1/GPa)
#
#
# Indices 1 2 3 4 5 6 
#
# 1 0.008592 -0.004269 -0.001203 0.000000 0.000000 -0.000427
# 2 -0.004269 0.008592 -0.001203 0.000000 0.000000 0.000427
# 3 -0.001203 -0.001203 0.011841 0.000000 0.000000 0.000000
# 4 0.000000 0.000000 0.000000 0.043018 0.000000 0.000000
# 5 0.000000 0.000000 0.000000 0.000000 0.043018 0.000000
# 6 -0.000427 0.000427 0.000000 0.000000 0.000000 0.023283
#
#
# Mechanical properties :
#
#
# Convention : Reuss Voigt Hill
#
# Bulk Modulus (GPa) = 63.79768 75.51228 69.65498
# Shear Modulus (GPa) = 31.86382 36.50433 34.18408
#
# Velocity S-wave (km/s) = 3.65395 3.91099 3.78465
# Velocity P-wave (km/s) = 6.67338 7.21354 6.94871
#
# Compressibility (1/GPa) = 0.01567455
#
# Stress axis : x y z
#
# Youngs Moduli (GPa) = 116.39402 116.39402 84.44966
#
# Poissons Ratio (x) = 0.49694 0.10157
# Poissons Ratio (y) = 0.49694 0.10157
# Poissons Ratio (z) = 0.13999 0.13999
#
# Static dielectric constant tensor:
#      x y z
#    x 2.003230 0.000000 0.000000 
#    y 0.000000 2.003230 0.000000 
#    z 0.000000 0.000000 2.009800 
# 
# From -- ./inp_files/83.got.cif
#   From: 2010.05.17/outbox.cif.g08.bks.cpg/sg76_cif.got.tgz:83.got - 2010.06.03 18:43:17.
