data_PCOD9541687
_publ_section_title
;
Structure prediction by ZEFSAII (Michael W. Deem and Ramdas Pophale) SiO2 
 PCOD9541687
Probable space group: P 43
;
_chemical_formula_sum "Si O2"
_cell_formula_units_Z 32
_cell_length_a 12.013387
_cell_length_b 12.013387
_cell_length_c 9.789739
_cell_angle_alpha 90.000000
_cell_angle_beta 90.000000
_cell_angle_gamma 90.000000
_cell_volume 1412.869496
_symmetry_space_group_name_H-M "P 43"
_symmetry_group_IT_number 78
_symmetry_cell_setting 'tetragonal'
loop_
_space_group_symop_operation_xyz
x,y,z
-y,x,3/4+z
-x,-y,1/2+z
y,-x,1/4+z
loop_
_atom_site_type_symbol
_atom_site_label
_atom_site_fract_x
_atom_site_fract_y
_atom_site_fract_z
Si Si1 0.568022 0.918421 0.576820
Si Si2 0.788631 0.896581 0.254004
Si Si3 0.497740 0.120095 0.453050
Si Si4 0.870546 0.234941 0.178652
Si Si5 0.220252 0.412961 0.971948
Si Si6 0.657928 0.119430 0.240703
Si Si7 0.261538 0.611764 0.146350
Si Si8 0.225171 0.950757 0.204593
O O1 0.454468 0.916205 0.662695
O O2 0.608658 0.795789 0.543631
O O3 0.528812 0.989159 0.444753
O O4 0.679410 0.978631 0.627887
O O5 0.695277 0.808186 0.300191
O O6 0.896671 0.862722 0.346664
O O7 0.735385 0.016305 0.286165
O O8 0.796426 0.894198 0.088372
O O9 0.369572 0.131689 0.413672
O O10 0.516544 0.152581 0.610016
O O11 0.598278 0.178074 0.370023
O O12 0.745136 0.191662 0.154343
O O13 0.966706 0.187869 0.077174
O O14 0.336586 0.381506 0.903183
O O15 0.152914 0.300493 0.007148
O O16 0.248208 0.487775 0.097923
#
# Coordination Sequence:
#
# PCOD9541687 Si02
#       8
#     4   4   4   4   4   4   4   4
#     4  11  21  39  69  96 134 185 241 302 372 457
#     4  11  23  44  70  99 139 190 244 305 382 456
#     4  11  21  42  71  96 134 186 252 303 374 460
#     4  12  23  43  72 103 142 191 249 313 380 458
#     4  10  22  39  66  96 131 187 242 305 381 453
#     4  12  24  41  71 104 140 189 248 305 374 465
#     4  11  21  39  65  96 136 183 241 306 377 454
#     4  10  23  43  68 104 140 187 245 315 378 457
#
# _framework density 22.648942999999999
#
# number of rings (size 3 to 8) (size 9 to 14) (size 15 to 20)
#    0.000    1.000    5.000    3.750    0.000    1.000 
#    2.250    2.500    2.750    0.000    0.000    0.000 
#    0.000    0.000    0.000    0.000    0.000    0.000 
#
# Total GULP energy -178421.167121 kJ/mol
# GULP energy per Si atom -5575.661473 kJ/mol
# Density = 2.259739 g / cm^3
# Si number density = 22.648943 Si / 1000 Ang^3
#
#
#
# Elastic Constant Matrix: (Units=GPa)
#
#
# Indices 1 2 3 4 5 6 
#
# 1 74.0681 46.5758 44.3630 0.0000 0.0000 -2.2599
# 2 46.5758 74.0681 44.3630 0.0000 0.0000 2.2599
# 3 44.3630 44.3630 87.9170 0.0000 0.0000 0.0000
# 4 0.0000 0.0000 0.0000 35.3622 0.0000 0.0000
# 5 0.0000 0.0000 0.0000 0.0000 35.3622 0.0000
# 6 -2.2599 2.2599 0.0000 0.0000 0.0000 23.1299
#
#
#
# Elastic Compliance Matrix: (Units=1/GPa)
#
#
# Indices 1 2 3 4 5 6 
#
# 1 0.025074 -0.011894 -0.006651 0.000000 0.000000 0.003612
# 2 -0.011894 0.025074 -0.006651 0.000000 0.000000 -0.003612
# 3 -0.006651 -0.006651 0.018086 0.000000 0.000000 0.000000
# 4 0.000000 0.000000 0.000000 0.028279 0.000000 0.000000
# 5 0.000000 0.000000 0.000000 0.000000 0.028279 0.000000
# 6 0.003612 -0.003612 0.000000 0.000000 0.000000 0.043940
#
#
# Mechanical properties :
#
#
# Convention : Reuss Voigt Hill
#
# Bulk Modulus (GPa) = 56.04242 56.29521 56.16882
# Shear Modulus (GPa) = 22.21537 25.48763 23.85150
#
# Velocity S-wave (km/s) = 3.13526 3.35824 3.24866
# Velocity P-wave (km/s) = 6.15663 6.32033 6.23902
#
# Compressibility (1/GPa) = 0.01784363
#
# Stress axis : x y z
#
# Youngs Moduli (GPa) = 39.88219 39.88219 55.29074
#
# Poissons Ratio (x) = 0.47435 0.36772
# Poissons Ratio (y) = 0.47435 0.36772
# Poissons Ratio (z) = 0.26524 0.26524
#
# Static dielectric constant tensor:
#      x y z
#    x 1.873610 0.000000 0.000000 
#    y 0.000000 1.873610 0.000000 
#    z 0.000000 0.000000 1.996070 
# 
# From -- ./inp_files/948.got.cif
#   From: 2010.05.17/outbox.cif.g08.bks.cpg/sg78_cif.got.tgz:948.got - 2010.06.03 18:45:56.
