data_PCOD9541230
_publ_section_title
;
Structure prediction by ZEFSAII (Michael W. Deem and Ramdas Pophale) SiO2 
 PCOD9541230
Probable space group: P 41
;
_chemical_formula_sum "Si O2"
_cell_formula_units_Z 32
_cell_length_a 8.862926
_cell_length_b 8.862926
_cell_length_c 20.630647
_cell_angle_alpha 90.000000
_cell_angle_beta 90.000000
_cell_angle_gamma 90.000000
_cell_volume 1620.567387
_symmetry_space_group_name_H-M "P 41"
_symmetry_group_IT_number 76
_symmetry_cell_setting 'tetragonal'
loop_
_space_group_symop_operation_xyz
x,y,z
-y,x,1/4+z
-x,-y,1/2+z
y,-x,3/4+z
loop_
_atom_site_type_symbol
_atom_site_label
_atom_site_fract_x
_atom_site_fract_y
_atom_site_fract_z
Si Si1 0.744781 0.245658 0.545200
Si Si2 0.829200 0.752374 0.323410
Si Si3 0.643924 0.420831 0.162765
Si Si4 0.000000 0.063872 0.613613
Si Si5 0.829200 0.247626 0.403816
Si Si6 0.579169 0.356076 0.314461
Si Si7 0.744781 0.754342 0.182026
Si Si8 0.500000 0.962612 0.113613
O O1 0.901611 0.170261 0.567098
O O2 0.731958 0.236730 0.468095
O O3 0.726383 0.417702 0.568269
O O4 0.614289 0.143238 0.575550
O O5 0.720175 0.741086 0.385775
O O6 0.731958 0.763270 0.259131
O O7 0.926430 0.598850 0.319417
O O8 0.950946 0.884821 0.328202
O O9 0.602111 0.397888 0.238613
O O10 0.500000 0.425552 0.113613
O O11 0.726383 0.582298 0.158957
O O12 0.098389 0.170262 0.660128
O O13 0.884822 0.950946 0.649024
O O14 0.720175 0.258914 0.341450
O O15 0.926431 0.401150 0.407808
O O16 0.614289 0.856762 0.151676
#
# Coordination Sequence:
#
# PCOD9541230 Si02
#       8
#     4   4   4   4   4   4   4   4
#     4  11  23  42  66  96 134 172 231 279 337 397
#     4  11  23  43  65  94 133 179 223 274 339 406
#     4  12  23  42  70 102 128 174 231 283 335 404
#     4  10  26  42  62 100 136 184 218 272 342 406
#     4  11  23  43  65  94 133 179 223 274 339 406
#     4  12  23  42  70 102 128 174 231 283 335 404
#     4  11  23  42  66  96 134 172 231 279 337 397
#     4  10  22  40  64  90 132 176 216 282 330 398
#
# _framework density 19.746169999999999
#
# number of rings (size 3 to 8) (size 9 to 14) (size 15 to 20)
#    0.000    1.000    5.000    0.750    0.000    9.000 
#    0.000    2.500    0.000    0.000    0.000    0.000 
#    0.000    0.000    0.000    0.000    0.000    0.000 
#
# Total GULP energy -178729.139598 kJ/mol
# GULP energy per Si atom -5585.285612 kJ/mol
# Density = 1.970123 g / cm^3
# Si number density = 19.746170 Si / 1000 Ang^3
#
#
#
# Elastic Constant Matrix: (Units=GPa)
#
#
# Indices 1 2 3 4 5 6 
#
# 1 106.6033 39.2266 37.1847 0.0000 0.0000 0.0000
# 2 39.2266 106.6033 37.1847 0.0000 0.0000 0.0000
# 3 37.1847 37.1847 123.7418 0.0000 0.0000 0.0000
# 4 0.0000 0.0000 0.0000 17.4067 0.0000 0.0000
# 5 0.0000 0.0000 0.0000 0.0000 17.4067 0.0000
# 6 0.0000 0.0000 0.0000 0.0000 0.0000 33.7004
#
#
#
# Elastic Compliance Matrix: (Units=1/GPa)
#
#
# Indices 1 2 3 4 5 6 
#
# 1 0.011470 -0.003372 -0.002434 0.000000 0.000000 0.000000
# 2 -0.003372 0.011470 -0.002434 0.000000 0.000000 0.000000
# 3 -0.002434 -0.002434 0.009544 0.000000 0.000000 0.000000
# 4 0.000000 0.000000 0.000000 0.057449 0.000000 0.000000
# 5 0.000000 0.000000 0.000000 0.000000 0.057449 0.000000
# 6 0.000000 0.000000 0.000000 0.000000 0.000000 0.029673
#
#
# Mechanical properties :
#
#
# Convention : Reuss Voigt Hill
#
# Bulk Modulus (GPa) = 62.47519 62.68227 62.57873
# Shear Modulus (GPa) = 25.14215 28.59291 26.86753
#
# Velocity S-wave (km/s) = 3.57216 3.80942 3.69269
# Velocity P-wave (km/s) = 6.98008 7.15275 7.06694
#
# Compressibility (1/GPa) = 0.01600635
#
# Stress axis : x y z
#
# Youngs Moduli (GPa) = 87.18284 87.18284 104.77855
#
# Poissons Ratio (x) = 0.29396 0.25499
# Poissons Ratio (y) = 0.29396 0.25499
# Poissons Ratio (z) = 0.21217 0.21217
#
# Static dielectric constant tensor:
#      x y z
#    x 1.701700 0.000000 0.000000 
#    y 0.000000 1.701700 0.000000 
#    z 0.000000 0.000000 1.682830 
# 
# From -- ./inp_files/1459.got.cif
#   From: 2010.05.17/outbox.cif.g08.bks.cpg/sg76_cif.got.tgz:1459.got - 2010.06.03 18:43:17.
