data_PCOD9541408
_publ_section_title
;
Structure prediction by ZEFSAII (Michael W. Deem and Ramdas Pophale) SiO2 
 PCOD9541408
Probable space group: P 41
;
_chemical_formula_sum "Si O2"
_cell_formula_units_Z 28
_cell_length_a 14.236972
_cell_length_b 14.236972
_cell_length_c 5.315438
_cell_angle_alpha 90.000000
_cell_angle_beta 90.000000
_cell_angle_gamma 90.000000
_cell_volume 1077.393420
_symmetry_space_group_name_H-M "P 41"
_symmetry_group_IT_number 76
_symmetry_cell_setting 'tetragonal'
loop_
_space_group_symop_operation_xyz
x,y,z
-y,x,1/4+z
-x,-y,1/2+z
y,-x,3/4+z
loop_
_atom_site_type_symbol
_atom_site_label
_atom_site_fract_x
_atom_site_fract_y
_atom_site_fract_z
Si Si1 0.831405 0.531050 0.404870
Si Si2 0.051865 0.646556 0.986953
Si Si3 0.367543 0.528125 0.083345
Si Si4 0.865322 0.696686 0.760546
Si Si5 0.109733 0.909065 0.156281
Si Si6 0.731484 0.861274 0.243651
Si Si7 0.657434 0.294409 0.851537
O O1 0.913566 0.455706 0.396271
O O2 0.743608 0.483918 0.551662
O O3 0.871696 0.622885 0.539738
O O4 0.772264 0.570765 0.171776
O O5 0.091445 0.711219 0.760071
O O6 0.940075 0.661866 0.972112
O O7 0.093904 0.670067 0.262123
O O8 0.415776 0.428113 0.127762
O O9 0.376358 0.600538 0.314678
O O10 0.893844 0.803615 0.716456
O O11 0.757604 0.695014 0.851479
O O12 0.125957 0.835820 0.383626
O O13 0.109442 0.012161 0.271320
O O14 0.709734 0.750223 0.271831
#
# Coordination Sequence:
#
# PCOD9541408 Si02
#       7
#     4   4   4   4   4   4   4
#     4  12  29  46  82 110 158 221 270 343 409 492
#     4  12  29  51  83 116 163 214 276 328 409 487
#     4  12  25  47  74 111 151 200 277 334 419 475
#     4  11  28  52  76 114 165 208 276 330 413 494
#     4  11  26  49  84 126 165 219 275 347 423 506
#     4  11  28  51  79 118 163 213 263 337 407 485
#     4  11  27  48  76 109 161 205 269 335 412 485
#
# _framework density 25.988648000000001
#
# number of rings (size 3 to 8) (size 9 to 14) (size 15 to 20)
#    0.000    0.571    4.286    0.857   16.000    0.000 
#    0.000    0.000    0.000    0.000    0.000    0.000 
#    0.000    0.000    0.000    0.000    0.000    0.000 
#
# Total GULP energy -156855.114865 kJ/mol
# GULP energy per Si atom -5601.968388 kJ/mol
# Density = 2.592950 g / cm^3
# Si number density = 25.988648 Si / 1000 Ang^3
#
#
#
# Elastic Constant Matrix: (Units=GPa)
#
#
# Indices 1 2 3 4 5 6 
#
# 1 120.8417 8.9044 29.3551 0.0000 0.0000 6.7496
# 2 8.9044 120.8417 29.3551 0.0000 0.0000 -6.7496
# 3 29.3551 29.3551 72.4715 0.0000 0.0000 0.0000
# 4 0.0000 0.0000 0.0000 26.1454 0.0000 0.0000
# 5 0.0000 0.0000 0.0000 0.0000 26.1454 0.0000
# 6 6.7496 -6.7496 0.0000 0.0000 0.0000 31.3216
#
#
#
# Elastic Compliance Matrix: (Units=1/GPa)
#
#
# Indices 1 2 3 4 5 6 
#
# 1 0.009304 0.000133 -0.003823 0.000000 0.000000 -0.001976
# 2 0.000133 0.009304 -0.003823 0.000000 0.000000 0.001976
# 3 -0.003823 -0.003823 0.016895 0.000000 0.000000 0.000000
# 4 0.000000 0.000000 0.000000 0.038248 0.000000 0.000000
# 5 0.000000 0.000000 0.000000 0.000000 0.038248 0.000000
# 6 -0.001976 0.001976 0.000000 0.000000 0.000000 0.032779
#
#
# Mechanical properties :
#
#
# Convention : Reuss Voigt Hill
#
# Bulk Modulus (GPa) = 48.83016 49.93160 49.38088
# Shear Modulus (GPa) = 30.00667 33.15851 31.58259
#
# Velocity S-wave (km/s) = 3.40164 3.57583 3.48982
# Velocity P-wave (km/s) = 5.85303 6.02522 5.93975
#
# Compressibility (1/GPa) = 0.02047915
#
# Stress axis : x y z
#
# Youngs Moduli (GPa) = 107.47490 107.47490 59.18826
#
# Poissons Ratio (x) = -0.01425 0.22625
# Poissons Ratio (y) = -0.01425 0.22625
# Poissons Ratio (z) = 0.41083 0.41083
#
# Static dielectric constant tensor:
#      x y z
#    x 2.049870 0.000000 0.000000 
#    y 0.000000 2.049870 0.000000 
#    z 0.000000 0.000000 2.095520 
# 
# From -- ./inp_files/241.got.cif
#   From: 2010.05.17/outbox.cif.g08.bks.cpg/sg76_cif.got.tgz:241.got - 2010.06.03 18:43:17.
