data_PCOD9541382
_publ_section_title
;
Structure prediction by ZEFSAII (Michael W. Deem and Ramdas Pophale) SiO2 
 PCOD9541382
Probable space group: P 41
;
_chemical_formula_sum "Si O2"
_cell_formula_units_Z 28
_cell_length_a 14.263653
_cell_length_b 14.263653
_cell_length_c 5.191609
_cell_angle_alpha 90.000000
_cell_angle_beta 90.000000
_cell_angle_gamma 90.000000
_cell_volume 1056.242180
_symmetry_space_group_name_H-M "P 41"
_symmetry_group_IT_number 76
_symmetry_cell_setting 'tetragonal'
loop_
_space_group_symop_operation_xyz
x,y,z
-y,x,1/4+z
-x,-y,1/2+z
y,-x,3/4+z
loop_
_atom_site_type_symbol
_atom_site_label
_atom_site_fract_x
_atom_site_fract_y
_atom_site_fract_z
Si Si1 0.286904 0.612885 0.320750
Si Si2 0.504956 0.368364 0.183841
Si Si3 0.908226 0.375358 0.594578
Si Si4 0.947635 0.747237 0.400372
Si Si5 0.135387 0.948331 0.178240
Si Si6 0.589513 0.063093 0.500256
Si Si7 0.428702 0.780724 0.396580
O O1 0.201368 0.640061 0.127947
O O2 0.338808 0.711119 0.378433
O O3 0.241549 0.529383 0.496091
O O4 0.371432 0.560381 0.178370
O O5 0.592031 0.436171 0.217470
O O6 0.535553 0.260171 0.169006
O O7 0.935644 0.480986 0.679573
O O8 0.957667 0.374967 0.314777
O O9 0.960956 0.298680 0.767752
O O10 0.901245 0.805812 0.164265
O O11 0.896593 0.656168 0.526278
O O12 0.963717 0.808652 0.659671
O O13 0.043165 0.896416 0.074359
O O14 0.599431 0.123542 0.759673
#
# Coordination Sequence:
#
# PCOD9541382 Si02
#       7
#     4   4   4   4   4   4   4
#     4  11  24  43  66 104 140 190 252 314 388 454
#     4  12  22  38  68  98 144 190 248 316 386 458
#     4  11  25  46  75 104 152 209 262 318 385 460
#     4  12  25  49  82 116 150 202 266 317 385 478
#     4  12  27  53  84 120 158 200 252 331 419 482
#     4  11  25  46  75 104 152 209 262 318 385 460
#     4  11  24  43  66 104 140 190 252 314 388 454
#
# _framework density 26.509073000000001
#
# number of rings (size 3 to 8) (size 9 to 14) (size 15 to 20)
#    0.000    0.571    5.714    2.571    2.000    1.143 
#    5.143    0.000    0.000    0.000    0.000    0.000 
#    0.000    0.000    0.000    0.000    0.000    0.000 
#
# Total GULP energy -156124.890435 kJ/mol
# GULP energy per Si atom -5575.888944 kJ/mol
# Density = 2.644874 g / cm^3
# Si number density = 26.509073 Si / 1000 Ang^3
#
#
#
# Elastic Constant Matrix: (Units=GPa)
#
#
# Indices 1 2 3 4 5 6 
#
# 1 90.2009 14.1870 15.0795 0.0000 0.0000 6.0316
# 2 14.1870 90.2009 15.0795 0.0000 0.0000 -6.0316
# 3 15.0795 15.0795 126.8278 0.0000 0.0000 0.0000
# 4 0.0000 0.0000 0.0000 33.3800 0.0000 0.0000
# 5 0.0000 0.0000 0.0000 0.0000 33.3800 0.0000
# 6 6.0316 -6.0316 0.0000 0.0000 0.0000 27.1916
#
#
#
# Elastic Compliance Matrix: (Units=1/GPa)
#
#
# Indices 1 2 3 4 5 6 
#
# 1 0.011778 -0.001858 -0.001180 0.000000 0.000000 -0.003025
# 2 -0.001858 0.011778 -0.001180 0.000000 0.000000 0.003025
# 3 -0.001180 -0.001180 0.008165 0.000000 0.000000 0.000000
# 4 0.000000 0.000000 0.000000 0.029958 0.000000 0.000000
# 5 0.000000 0.000000 0.000000 0.000000 0.029958 0.000000
# 6 -0.003025 0.003025 0.000000 0.000000 0.000000 0.038118
#
#
# Mechanical properties :
#
#
# Convention : Reuss Voigt Hill
#
# Bulk Modulus (GPa) = 42.94058 43.99130 43.46594
# Shear Modulus (GPa) = 34.25808 36.31587 35.28697
#
# Velocity S-wave (km/s) = 3.59878 3.70529 3.65242
# Velocity P-wave (km/s) = 5.78808 5.91070 5.84971
#
# Compressibility (1/GPa) = 0.02328800
#
# Stress axis : x y z
#
# Youngs Moduli (GPa) = 84.90435 84.90435 122.47114
#
# Poissons Ratio (x) = 0.15771 0.14446
# Poissons Ratio (y) = 0.15771 0.14446
# Poissons Ratio (z) = 0.10015 0.10015
#
# Static dielectric constant tensor:
#      x y z
#    x 2.136130 0.000000 0.000000 
#    y 0.000000 2.136130 0.000000 
#    z 0.000000 0.000000 2.191190 
# 
# From -- ./inp_files/227.got.cif
#   From: 2010.05.17/outbox.cif.g08.bks.cpg/sg76_cif.got.tgz:227.got - 2010.06.03 18:43:17.
