data_PCOD9541793
_publ_section_title
;
Structure prediction by ZEFSAII (Michael W. Deem and Ramdas Pophale) SiO2 
 PCOD9541793
Probable space group: P 43
;
_chemical_formula_sum "Si O2"
_cell_formula_units_Z 16
_cell_length_a 5.402727
_cell_length_b 5.402727
_cell_length_c 18.241938
_cell_angle_alpha 90.000000
_cell_angle_beta 90.000000
_cell_angle_gamma 90.000000
_cell_volume 532.472302
_symmetry_space_group_name_H-M "P 43"
_symmetry_group_IT_number 78
_symmetry_cell_setting 'tetragonal'
loop_
_space_group_symop_operation_xyz
x,y,z
-y,x,3/4+z
-x,-y,1/2+z
y,-x,1/4+z
loop_
_atom_site_type_symbol
_atom_site_label
_atom_site_fract_x
_atom_site_fract_y
_atom_site_fract_z
Si Si1 0.848089 0.537083 0.146380
Si Si2 0.348091 0.962918 0.211831
Si Si3 0.151179 0.789478 0.773074
Si Si4 0.348820 0.289479 0.085137
O O1 0.834924 0.476089 0.232269
O O2 0.818565 0.806349 0.110044
O O3 0.608558 0.404208 0.109796
O O4 0.109283 0.428496 0.118732
O O5 0.609286 0.071503 0.239478
O O6 0.334925 0.023911 0.125942
O O7 0.108560 0.095795 0.248414
O O8 0.318565 0.693652 0.248167
#
# Coordination Sequence:
#
# PCOD9541793 Si02
#       4
#     4   4   4   4
#     4   9  18  36  60  86 117 153 194 240 290 345
#     4   9  18  36  60  86 117 153 194 240 290 345
#     4   9  18  36  60  86 117 153 194 240 290 345
#     4   9  18  36  60  86 117 153 194 240 290 345
#
# _framework density 30.048514000000001
#
# number of rings (size 3 to 8) (size 9 to 14) (size 15 to 20)
#    0.000    3.000    0.000    0.000    0.000    0.000 
#    0.000   50.000    0.000    0.000    0.000    0.000 
#    0.000    0.000    0.000    0.000    0.000    0.000 
#
# Total GULP energy -89599.094178 kJ/mol
# GULP energy per Si atom -5599.943386 kJ/mol
# Density = 2.998012 g / cm^3
# Si number density = 30.048514 Si / 1000 Ang^3
#
#
#
# Elastic Constant Matrix: (Units=GPa)
#
#
# Indices 1 2 3 4 5 6 
#
# 1 179.8624 86.6460 55.1182 0.0000 0.0000 -0.0002
# 2 86.6460 179.8624 55.1182 0.0000 0.0000 0.0002
# 3 55.1182 55.1182 151.7583 0.0000 0.0000 0.0000
# 4 0.0000 0.0000 0.0000 53.8708 0.0000 0.0000
# 5 0.0000 0.0000 0.0000 0.0000 53.8708 0.0000
# 6 -0.0002 0.0002 0.0000 0.0000 0.0000 82.8025
#
#
#
# Elastic Compliance Matrix: (Units=1/GPa)
#
#
# Indices 1 2 3 4 5 6 
#
# 1 0.007572 -0.003156 -0.001604 0.000000 0.000000 0.000000
# 2 -0.003156 0.007572 -0.001604 0.000000 0.000000 0.000000
# 3 -0.001604 -0.001604 0.007754 0.000000 0.000000 0.000000
# 4 0.000000 0.000000 0.000000 0.018563 0.000000 0.000000
# 5 0.000000 0.000000 0.000000 0.000000 0.018563 0.000000
# 6 0.000000 0.000000 0.000000 0.000000 0.000000 0.012077
#
#
# Mechanical properties :
#
#
# Convention : Reuss Voigt Hill
#
# Bulk Modulus (GPa) = 98.32244 100.58309 99.45276
# Shear Modulus (GPa) = 56.67798 59.08222 57.88010
#
# Velocity S-wave (km/s) = 4.34777 4.43903 4.39364
# Velocity P-wave (km/s) = 7.61554 7.73431 7.67515
#
# Compressibility (1/GPa) = 0.01017062
#
# Stress axis : x y z
#
# Youngs Moduli (GPa) = 132.07164 132.07164 128.95967
#
# Poissons Ratio (x) = 0.41683 0.20682
# Poissons Ratio (y) = 0.41683 0.20682
# Poissons Ratio (z) = 0.21181 0.21181
#
# Static dielectric constant tensor:
#      x y z
#    x 2.332700 0.000000 0.000000 
#    y 0.000000 2.332700 0.000000 
#    z 0.000000 0.000000 2.391010 
# 
# From -- ./inp_files/1357.got.cif
#   From: 2010.05.17/outbox.cif.g08.bks.cpg/sg78_cif.got.tgz:1357.got - 2010.06.03 18:45:56.
