data_PCOD9541403
_publ_section_title
;
Structure prediction by ZEFSAII (Michael W. Deem and Ramdas Pophale) SiO2 
 PCOD9541403
Probable space group: P 41
;
_chemical_formula_sum "Si O2"
_cell_formula_units_Z 20
_cell_length_a 7.689584
_cell_length_b 7.689584
_cell_length_c 11.867205
_cell_angle_alpha 90.000000
_cell_angle_beta 90.000000
_cell_angle_gamma 90.000000
_cell_volume 701.704296
_symmetry_space_group_name_H-M "P 41"
_symmetry_group_IT_number 76
_symmetry_cell_setting 'tetragonal'
loop_
_space_group_symop_operation_xyz
x,y,z
-y,x,1/4+z
-x,-y,1/2+z
y,-x,3/4+z
loop_
_atom_site_type_symbol
_atom_site_label
_atom_site_fract_x
_atom_site_fract_y
_atom_site_fract_z
Si Si1 0.000057 0.097006 0.551470
Si Si2 0.773028 0.626606 0.777563
Si Si3 0.239324 0.673291 0.416035
Si Si4 0.383797 0.860957 0.770766
Si Si5 0.833186 0.446496 0.306230
O O1 0.831734 0.219013 0.551782
O O2 0.999525 0.020833 0.423330
O O3 0.188050 0.184370 0.569609
O O4 0.668335 0.492406 0.855819
O O5 0.812504 0.577322 0.648366
O O6 0.963176 0.562555 0.824826
O O7 0.389054 0.770663 0.486335
O O8 0.065816 0.645449 0.495940
O O9 0.515235 0.767770 0.683248
O O10 0.215724 0.737941 0.754616
#
# Coordination Sequence:
#
# PCOD9541403 Si02
#       5
#     4   4   4   4   4
#     4  12  25  45  77 111 147 196 247 304 377 449
#     4  11  25  44  73 108 144 191 248 303 369 447
#     4  11  26  47  73 108 147 190 248 310 367 442
#     4  11  25  48  72 105 149 192 244 310 374 443
#     4  11  25  46  75 106 147 197 247 307 375 443
#
# _framework density 28.502034999999999
#
# number of rings (size 3 to 8) (size 9 to 14) (size 15 to 20)
#    0.000    0.800    0.000    7.200    0.000   12.800 
#    0.000    0.000    0.000    2.400    0.000    0.000 
#    0.000    0.000    0.000    0.000    0.000    0.000 
#
# Total GULP energy -111736.324843 kJ/mol
# GULP energy per Si atom -5586.816242 kJ/mol
# Density = 2.843716 g / cm^3
# Si number density = 28.502035 Si / 1000 Ang^3
#
#
#
# Elastic Constant Matrix: (Units=GPa)
#
#
# Indices 1 2 3 4 5 6 
#
# 1 103.2506 -17.5655 22.3749 0.0000 0.0000 -0.3224
# 2 -17.5655 103.2506 22.3749 0.0000 0.0000 0.3224
# 3 22.3749 22.3749 133.3582 0.0000 0.0000 0.0000
# 4 0.0000 0.0000 0.0000 33.7240 0.0000 0.0000
# 5 0.0000 0.0000 0.0000 0.0000 33.7240 0.0000
# 6 -0.3224 0.3224 0.0000 0.0000 0.0000 -29.3669
#
#
#
# Elastic Compliance Matrix: (Units=1/GPa)
#
#
# Indices 1 2 3 4 5 6 
#
# 1 0.010534 0.002257 -0.002146 0.000000 0.000000 -0.000091
# 2 0.002257 0.010534 -0.002146 0.000000 0.000000 0.000091
# 3 -0.002146 -0.002146 0.008219 0.000000 0.000000 0.000000
# 4 0.000000 0.000000 0.000000 0.029652 0.000000 0.000000
# 5 0.000000 0.000000 0.000000 0.000000 0.029652 0.000000
# 6 -0.000091 0.000091 0.000000 0.000000 0.000000 -0.034050
#
#
# Mechanical properties :
#
#
# Convention : Reuss Voigt Hill
#
# Bulk Modulus (GPa) = 39.65561 43.80311 41.72936
# Shear Modulus (GPa) = 74.60770 28.46124 51.53447
#
# Velocity S-wave (km/s) = 5.12183 3.16344 4.25679
# Velocity P-wave (km/s) = 6.99435 5.36143 6.23161
#
# Compressibility (1/GPa) = 0.02521711
#
# Stress axis : x y z
#
# Youngs Moduli (GPa) = 94.93042 94.93042 121.67269
#
# Poissons Ratio (x) = -0.21430 0.26113
# Poissons Ratio (y) = -0.21430 0.26113
# Poissons Ratio (z) = 0.20374 0.20374
#
# Static dielectric constant tensor:
#      x y z
#    x 2.517390 0.000000 0.000000 
#    y 0.000000 2.517390 0.000000 
#    z 0.000000 0.000000 2.279510 
# 
# From -- ./inp_files/802.got.cif
#   From: 2010.05.17/outbox.cif.g08.bks.cpg/sg76_cif.got.tgz:802.got - 2010.06.03 18:43:17.
