data_PCOD9541338
_publ_section_title
;
Structure prediction by ZEFSAII (Michael W. Deem and Ramdas Pophale) SiO2 
 PCOD9541338
Probable space group: P 41
;
_chemical_formula_sum "Si O2"
_cell_formula_units_Z 32
_cell_length_a 11.327645
_cell_length_b 11.327645
_cell_length_c 13.010619
_cell_angle_alpha 90.000000
_cell_angle_beta 90.000000
_cell_angle_gamma 90.000000
_cell_volume 1669.464619
_symmetry_space_group_name_H-M "P 41"
_symmetry_group_IT_number 76
_symmetry_cell_setting 'tetragonal'
loop_
_space_group_symop_operation_xyz
x,y,z
-y,x,1/4+z
-x,-y,1/2+z
y,-x,3/4+z
loop_
_atom_site_type_symbol
_atom_site_label
_atom_site_fract_x
_atom_site_fract_y
_atom_site_fract_z
Si Si1 0.750231 0.079250 0.290320
Si Si2 0.612774 0.827209 0.736216
Si Si3 0.805681 0.982637 0.617993
Si Si4 0.339198 0.815774 0.998607
Si Si5 0.909070 0.158175 0.779052
Si Si6 0.401275 0.850479 0.592334
Si Si7 0.172503 0.820704 0.507776
Si Si8 0.915337 0.421146 0.708691
O O1 0.887074 0.124246 0.298330
O O2 0.688008 0.151297 0.380704
O O3 0.675452 0.102898 0.188695
O O4 0.748589 0.937657 0.301268
O O5 0.708789 0.910152 0.681462
O O6 0.686284 0.711765 0.770678
O O7 0.515607 0.799610 0.649054
O O8 0.565454 0.897874 0.835937
O O9 0.738098 0.085487 0.557211
O O10 0.883757 0.051037 0.702216
O O11 0.478266 0.836491 0.012924
O O12 0.840298 0.156891 0.886097
O O13 0.881731 0.285211 0.729233
O O14 0.047577 0.157118 0.802015
O O15 0.302094 0.772821 0.534657
O O16 0.434245 0.954996 0.511543
#
# Coordination Sequence:
#
# PCOD9541338 Si02
#       8
#     4   4   4   4   4   4   4   4
#     4  11  22  35  56  92 130 156 194 247 322 384
#     4  11  23  40  60  89 122 161 215 261 307 372
#     4  11  22  35  57  94 119 159 198 249 314 381
#     4  11  23  36  62  85 116 165 210 263 299 372
#     4  11  22  35  60  91 131 160 201 251 310 389
#     4  11  22  39  58  87 131 166 201 258 311 384
#     4  11  21  35  57  91 131 166 187 247 321 389
#     4  11  21  41  60  87 120 171 214 252 316 369
#
# _framework density 19.167819999999999
#
# number of rings (size 3 to 8) (size 9 to 14) (size 15 to 20)
#    0.000    1.000    6.250    3.000    5.250    0.000 
#    0.000    0.000    0.000    1.500    0.000    0.000 
#    0.000    0.000    0.000    0.000    0.000    0.000 
#
# Total GULP energy -178340.914538 kJ/mol
# GULP energy per Si atom -5573.153579 kJ/mol
# Density = 1.912419 g / cm^3
# Si number density = 19.167820 Si / 1000 Ang^3
#
#
#
# Elastic Constant Matrix: (Units=GPa)
#
#
# Indices 1 2 3 4 5 6 
#
# 1 66.7699 12.7530 -5.3290 0.0000 0.0000 9.9919
# 2 12.7530 66.7699 -5.3290 0.0000 0.0000 -9.9919
# 3 -5.3290 -5.3290 48.3247 0.0000 0.0000 0.0000
# 4 0.0000 0.0000 0.0000 18.7197 0.0000 0.0000
# 5 0.0000 0.0000 0.0000 0.0000 18.7197 0.0000
# 6 9.9919 -9.9919 0.0000 0.0000 0.0000 6.0675
#
#
#
# Elastic Compliance Matrix: (Units=1/GPa)
#
#
# Indices 1 2 3 4 5 6 
#
# 1 0.030070 -0.017306 0.001408 0.000000 0.000000 -0.078018
# 2 -0.017306 0.030070 0.001408 0.000000 0.000000 0.078018
# 3 0.001408 0.001408 0.021004 0.000000 0.000000 0.000000
# 4 0.000000 0.000000 0.000000 0.053420 0.000000 0.000000
# 5 0.000000 0.000000 0.000000 0.000000 0.053420 0.000000
# 6 -0.078018 0.078018 0.000000 0.000000 0.000000 0.421773
#
#
# Mechanical properties :
#
#
# Convention : Reuss Voigt Hill
#
# Bulk Modulus (GPa) = 19.17137 20.67271 19.92204
# Shear Modulus (GPa) = 7.62050 20.68602 14.15326
#
# Velocity S-wave (km/s) = 1.99607 3.28869 2.72027
# Velocity P-wave (km/s) = 3.91612 5.02286 4.50362
#
# Compressibility (1/GPa) = 0.05216111
#
# Stress axis : x y z
#
# Youngs Moduli (GPa) = 33.25603 33.25603 47.61049
#
# Poissons Ratio (x) = 0.57553 -0.06701
# Poissons Ratio (y) = 0.57553 -0.06701
# Poissons Ratio (z) = -0.04681 -0.04681
#
# Static dielectric constant tensor:
#      x y z
#    x 1.702420 0.000000 0.000000 
#    y 0.000000 1.702420 0.000000 
#    z 0.000000 0.000000 1.774600 
# 
# From -- ./inp_files/953.got.cif
#   From: 2010.05.17/outbox.cif.g08.bks.cpg/sg76_cif.got.tgz:953.got - 2010.06.03 18:43:17.
