data_PCOD9541003
_publ_section_title
;
Structure prediction by ZEFSAII (Michael W. Deem and Ramdas Pophale) SiO2 
 PCOD9541003
Probable space group: P 4
;
_chemical_formula_sum "Si O2"
_cell_formula_units_Z 23
_cell_length_a 8.554432
_cell_length_b 8.554432
_cell_length_c 13.818879
_cell_angle_alpha 90.000000
_cell_angle_beta 90.000000
_cell_angle_gamma 90.000000
_cell_volume 1011.242168
_symmetry_space_group_name_H-M "P 4"
_symmetry_group_IT_number 75
_symmetry_cell_setting 'tetragonal'
loop_
_space_group_symop_operation_xyz
x,y,z
-y,x,z
-x,-y,z
y,-x,z
loop_
_atom_site_type_symbol
_atom_site_label
_atom_site_fract_x
_atom_site_fract_y
_atom_site_fract_z
Si Si1 0.500000 0.000000 0.595750
Si Si2 0.743987 0.928711 0.754825
Si Si3 0.665847 0.076411 0.245651
Si Si4 0.000000 0.000000 0.015927
Si Si5 0.240715 0.909685 0.465167
Si Si6 0.748281 0.419233 0.919174
Si Si7 0.252837 0.191512 0.100445
O O1 0.623068 0.915024 0.666462
O O2 0.397545 0.886480 0.526713
O O3 0.645021 0.882316 0.849156
O O4 0.896095 0.815838 0.752052
O O5 0.734943 0.109061 0.350432
O O6 0.664261 0.221880 0.172439
O O7 0.500000 0.000000 0.263210
O O8 0.754914 0.946522 0.181029
O O9 0.155585 0.887434 0.024933
O O10 0.089105 0.807393 0.487616
O O11 0.689977 0.595169 0.902329
O O12 0.797500 0.399662 0.031002
#
# Coordination Sequence:
#
# PCOD9541003 Si02
#       7
#     2   4   4   1   4   4   4
#     4  12  24  46  70 100 130 170 226 296 370 424
#     4  11  26  47  75 104 133 172 234 298 360 431
#     4  11  20  35  60  97 133 185 237 283 335 410
#     4   8  20  32  56  92 128 182 236 280 324 396
#     4  11  23  40  68 100 136 177 232 290 353 418
#     4  11  25  44  66 100 144 193 234 285 354 427
#     4  10  21  36  59  93 145 187 232 285 344 403
#
# _framework density 22.744302999999999
#
# number of rings (size 3 to 8) (size 9 to 14) (size 15 to 20)
#    0.000    1.217    2.609    3.130    4.870    1.391 
#    1.565    0.000    0.000    4.696    0.000    0.000 
#    0.000    0.000    0.000    0.000    0.000    0.000 
#
# Total GULP energy -128152.471113 kJ/mol
# GULP energy per Si atom -5571.846570 kJ/mol
# Density = 2.269254 g / cm^3
# Si number density = 22.744303 Si / 1000 Ang^3
#
#
#
# Elastic Constant Matrix: (Units=GPa)
#
#
# Indices 1 2 3 4 5 6 
#
# 1 79.1611 24.7912 48.2778 0.0000 0.0000 0.3325
# 2 24.7912 79.1611 48.2778 0.0000 0.0000 -0.3325
# 3 48.2778 48.2778 161.7452 0.0000 0.0000 0.0000
# 4 0.0000 0.0000 0.0000 39.1565 0.0000 0.0000
# 5 0.0000 0.0000 0.0000 0.0000 39.1565 0.0000
# 6 0.3325 -0.3325 0.0000 0.0000 0.0000 22.6767
#
#
#
# Elastic Compliance Matrix: (Units=1/GPa)
#
#
# Indices 1 2 3 4 5 6 
#
# 1 0.015853 -0.002543 -0.003973 0.000000 0.000000 -0.000270
# 2 -0.002543 0.015853 -0.003973 0.000000 0.000000 0.000270
# 3 -0.003973 -0.003973 0.008554 0.000000 0.000000 0.000000
# 4 0.000000 0.000000 0.000000 0.025539 0.000000 0.000000
# 5 0.000000 0.000000 0.000000 0.000000 0.025539 0.000000
# 6 -0.000270 0.000270 0.000000 0.000000 0.000000 0.044106
#
#
# Mechanical properties :
#
#
# Convention : Reuss Voigt Hill
#
# Bulk Modulus (GPa) = 51.85939 62.52899 57.19419
# Shear Modulus (GPa) = 30.70358 33.44598 32.07478
#
# Velocity S-wave (km/s) = 3.67815 3.83890 3.75938
# Velocity P-wave (km/s) = 6.39444 6.87032 6.63665
#
# Compressibility (1/GPa) = 0.01928291
#
# Stress axis : x y z
#
# Youngs Moduli (GPa) = 63.08015 63.08015 116.90258
#
# Poissons Ratio (x) = 0.16041 0.46442
# Poissons Ratio (y) = 0.16041 0.46442
# Poissons Ratio (z) = 0.25060 0.25060
#
# Static dielectric constant tensor:
#      x y z
#    x 1.929180 0.000000 0.000000 
#    y 0.000000 1.929180 0.000000 
#    z 0.000000 0.000000 1.912240 
# 
# From -- ./inp_files/688.got.cif
#   From: 2010.05.17/outbox.cif.g08.bks.cpg/sg75_cif.got.tgz:688.got - 2010.06.03 18:42:43.
