data_PCOD9541934
_publ_section_title
;
Structure prediction by ZEFSAII (Michael W. Deem and Ramdas Pophale) SiO2 
 PCOD9541934
Probable space group: I 4
;
_chemical_formula_sum "Si O2"
_cell_formula_units_Z 58
_cell_length_a 17.814450
_cell_length_b 17.814450
_cell_length_c 8.915724
_cell_angle_alpha 90.000000
_cell_angle_beta 90.000000
_cell_angle_gamma 90.000000
_cell_volume 2829.446281
_symmetry_space_group_name_H-M "I 4"
_symmetry_group_IT_number 79
_symmetry_cell_setting 'tetragonal'
loop_
_space_group_symop_operation_xyz
x,y,z
-y,x,z
-x,-y,z
y,-x,z
1/2+x,1/2+y,1/2+z
1/2-y,1/2+x,1/2+z
1/2-x,1/2-y,1/2+z
1/2+y,1/2-x,1/2+z
loop_
_atom_site_type_symbol
_atom_site_label
_atom_site_fract_x
_atom_site_fract_y
_atom_site_fract_z
Si Si1 0.421831 0.980274 0.813180
Si Si2 0.332644 0.198837 0.085435
Si Si3 0.454000 0.821003 0.741494
Si Si4 0.934927 0.722262 0.010068
Si Si5 0.203376 0.208641 0.877927
Si Si6 0.500000 0.500000 0.262730
Si Si7 0.986099 0.306635 0.583704
Si Si8 0.539335 0.324976 0.307801
O O1 0.452782 0.910274 0.717984
O O2 0.376351 0.032862 0.695991
O O3 0.500000 0.000000 0.894325
O O4 0.355293 0.953524 0.922612
O O5 0.298746 0.120852 0.151896
O O6 0.314409 0.259109 0.213913
O O7 0.422622 0.193293 0.069248
O O8 0.288812 0.215107 0.932700
O O9 0.527850 0.784826 0.671824
O O10 0.451429 0.810464 0.919314
O O11 0.848553 0.743513 0.992035
O O12 0.980184 0.786862 0.921230
O O13 0.179637 0.122001 0.877987
O O14 0.516668 0.408716 0.268019
O O15 0.962052 0.230482 0.665079
#
# Coordination Sequence:
#
# PCOD9541934 Si02
#       8
#     8   8   8   8   8   2   8   8
#     4  10  24  39  63  91 132 179 220 259 319 388
#     4  11  25  43  63  95 129 176 218 260 336 394
#     4  11  24  40  63  93 133 169 216 265 325 387
#     4  11  23  44  61  96 130 168 223 271 317 397
#     4  12  24  43  66  95 130 172 222 267 330 394
#     4  12  20  40  76  94 108 172 216 274 336 392
#     4  10  24  44  60 100 133 169 219 272 323 395
#     4  11  22  42  70  91 126 165 223 277 326 393
#
# _framework density 20.498709999999999
#
# number of rings (size 3 to 8) (size 9 to 14) (size 15 to 20)
#    0.000    1.103    6.897    0.000    9.655    0.000 
#    0.000    0.000    0.000    0.828    0.000    0.000 
#    0.000    0.000    0.000    0.000    0.000    0.000 
#
# Total GULP energy -161618.351666 kJ/mol
# GULP energy per Si atom -5573.046609 kJ/mol
# Density = 2.045205 g / cm^3
# Si number density = 20.498710 Si / 1000 Ang^3
#
#
#
# Elastic Constant Matrix: (Units=GPa)
#
#
# Indices 1 2 3 4 5 6 
#
# 1 97.9373 21.2802 7.3151 0.0000 0.0000 10.6357
# 2 21.2802 97.9373 7.3151 0.0000 0.0000 -10.6357
# 3 7.3151 7.3151 52.4330 0.0000 0.0000 0.0000
# 4 0.0000 0.0000 0.0000 20.7534 0.0000 0.0000
# 5 0.0000 0.0000 0.0000 0.0000 20.7534 0.0000
# 6 10.6357 -10.6357 0.0000 0.0000 0.0000 21.9061
#
#
#
# Elastic Compliance Matrix: (Units=1/GPa)
#
#
# Indices 1 2 3 4 5 6 
#
# 1 0.011805 -0.003271 -0.001191 0.000000 0.000000 -0.007320
# 2 -0.003271 0.011805 -0.001191 0.000000 0.000000 0.007320
# 3 -0.001191 -0.001191 0.019404 0.000000 0.000000 0.000000
# 4 0.000000 0.000000 0.000000 0.048185 0.000000 0.000000
# 5 0.000000 0.000000 0.000000 0.000000 0.048185 0.000000
# 6 -0.007320 0.007320 0.000000 0.000000 0.000000 0.052757
#
#
# Mechanical properties :
#
#
# Convention : Reuss Voigt Hill
#
# Bulk Modulus (GPa) = 31.53583 35.56981 33.55282
# Shear Modulus (GPa) = 23.36278 26.84242 25.10260
#
# Velocity S-wave (km/s) = 3.37964 3.62258 3.50322
# Velocity P-wave (km/s) = 5.53597 5.90655 5.72426
#
# Compressibility (1/GPa) = 0.03170997
#
# Stress axis : x y z
#
# Youngs Moduli (GPa) = 84.70853 84.70853 51.53533
#
# Poissons Ratio (x) = 0.27709 0.06136
# Poissons Ratio (y) = 0.27709 0.06136
# Poissons Ratio (z) = 0.10086 0.10086
#
# Static dielectric constant tensor:
#      x y z
#    x 1.769800 0.000000 0.000000 
#    y 0.000000 1.769800 0.000000 
#    z 0.000000 0.000000 1.740340 
# 
# From -- ./inp_files/725.got.cif
#   From: 2010.05.17/outbox.cif.g08.bks.cpg/sg79_cif.got.tgz:725.got - 2010.06.03 18:47:27.
