data_PCOD9541723
_publ_section_title
;
Structure prediction by ZEFSAII (Michael W. Deem and Ramdas Pophale) SiO2 
 PCOD9541723
Probable space group: P 43
;
_chemical_formula_sum "Si O2"
_cell_formula_units_Z 8
_cell_length_a 9.502166
_cell_length_b 9.502166
_cell_length_c 2.807976
_cell_angle_alpha 90.000000
_cell_angle_beta 90.000000
_cell_angle_gamma 90.000000
_cell_volume 253.535407
_symmetry_space_group_name_H-M "P 43"
_symmetry_group_IT_number 78
_symmetry_cell_setting 'tetragonal'
loop_
_space_group_symop_operation_xyz
x,y,z
-y,x,3/4+z
-x,-y,1/2+z
y,-x,1/4+z
loop_
_atom_site_type_symbol
_atom_site_label
_atom_site_fract_x
_atom_site_fract_y
_atom_site_fract_z
Si Si1 0.050378 0.730157 0.880400
Si Si2 0.449622 0.769843 0.880400
O O1 0.077169 0.808106 0.380727
O O2 0.153468 0.596096 0.777488
O O3 0.903904 0.653468 0.027490
O O4 0.422832 0.691895 0.380728
#
# Coordination Sequence:
#
# PCOD9541723 Si02
#       2
#     4   4
#     4  10  24  44  72 104 144 188 240 296 360 428
#     4  10  24  44  72 104 144 188 240 296 360 428
#
# _framework density 31.553775999999999
#
# number of rings (size 3 to 8) (size 9 to 14) (size 15 to 20)
#    0.000    2.000    0.000    0.000    0.000   32.000 
#    0.000    0.000    0.000    0.000    0.000    0.000 
#    0.000    0.000    0.000    0.000    0.000    0.000 
#
# Total GULP energy -44596.190841 kJ/mol
# GULP energy per Si atom -5574.523855 kJ/mol
# Density = 3.148196 g / cm^3
# Si number density = 31.553776 Si / 1000 Ang^3
#
#
#
# Elastic Constant Matrix: (Units=GPa)
#
#
# Indices 1 2 3 4 5 6 
#
# 1 75.4579 85.5518 31.9869 0.0000 0.0000 4.4782
# 2 85.5518 75.4579 31.9869 0.0000 0.0000 -4.4782
# 3 31.9869 31.9869 547.5606 0.0000 0.0000 0.0000
# 4 0.0000 0.0000 0.0000 22.5057 0.0000 0.0000
# 5 0.0000 0.0000 0.0000 0.0000 22.5057 0.0000
# 6 4.4782 -4.4782 0.0000 0.0000 0.0000 42.4463
#
#
#
# Elastic Compliance Matrix: (Units=1/GPa)
#
#
# Indices 1 2 3 4 5 6 
#
# 1 -0.042115 0.048474 -0.000371 0.000000 0.000000 0.009557
# 2 0.048474 -0.042115 -0.000371 0.000000 0.000000 -0.009557
# 3 -0.000371 -0.000371 0.001870 0.000000 0.000000 0.000000
# 4 0.000000 0.000000 0.000000 0.044433 0.000000 0.000000
# 5 0.000000 0.000000 0.000000 0.000000 0.044433 0.000000
# 6 0.009557 -0.009557 0.000000 0.000000 0.000000 0.021543
#
#
# Mechanical properties :
#
#
# Convention : Reuss Voigt Hill
#
# Bulk Modulus (GPa) = 76.33177 110.83640 93.58408
# Shear Modulus (GPa) = -79.30551 54.08824 -12.60863
#
# Velocity S-wave (km/s) = -5.01877 4.14473 -2.00115
# Velocity P-wave (km/s) = 3.05622 7.62283 4.93797
#
# Compressibility (1/GPa) = 0.01310070
#
# Stress axis : x y z
#
# Youngs Moduli (GPa) = -23.74423 -23.74423 534.85131
#
# Poissons Ratio (x) = 1.15098 0.19866
# Poissons Ratio (y) = 1.15098 0.19866
# Poissons Ratio (z) = -0.00882 -0.00882
#
# Static dielectric constant tensor:
#      x y z
#    x 2.482350 0.000000 0.000000 
#    y 0.000000 2.482350 0.000000 
#    z 0.000000 0.000000 2.815530 
# 
# From -- ./inp_files/31.got.cif
#   From: 2010.05.17/outbox.cif.g08.bks.cpg/sg78_cif.got.tgz:31.got - 2010.06.03 18:45:56.
