data_PCOD9541158
_publ_section_title
;
Structure prediction by ZEFSAII (Michael W. Deem and Ramdas Pophale) SiO2 
 PCOD9541158
Probable space group: P 41
;
_chemical_formula_sum "Si O2"
_cell_formula_units_Z 16
_cell_length_a 7.472497
_cell_length_b 7.472497
_cell_length_c 10.417627
_cell_angle_alpha 90.000000
_cell_angle_beta 90.000000
_cell_angle_gamma 90.000000
_cell_volume 581.701659
_symmetry_space_group_name_H-M "P 41"
_symmetry_group_IT_number 76
_symmetry_cell_setting 'tetragonal'
loop_
_space_group_symop_operation_xyz
x,y,z
-y,x,1/4+z
-x,-y,1/2+z
y,-x,3/4+z
loop_
_atom_site_type_symbol
_atom_site_label
_atom_site_fract_x
_atom_site_fract_y
_atom_site_fract_z
Si Si1 0.672757 0.500002 0.643100
Si Si2 0.694220 0.157817 0.743504
Si Si3 0.266935 0.733066 0.518102
Si Si4 0.842187 0.305779 0.292699
O O1 0.564236 0.564238 0.768100
O O2 0.668192 0.787529 0.931717
O O3 0.787530 0.668195 0.604485
O O4 0.480155 0.216775 0.745160
O O5 0.769511 0.161727 0.887094
O O6 0.713885 0.000001 0.643102
O O7 0.480156 0.783227 0.541043
O O8 0.161727 0.769512 0.649109
#
# Coordination Sequence:
#
# PCOD9541158 Si02
#       4
#     4   4   4   4
#     4  12  20  38  68 108 156 200 276 342 400 514
#     4  11  21  39  75 110 158 214 267 349 419 488
#     4  10  20  44  60 110 166 198 280 336 396 520
#     4  11  21  39  75 110 158 214 267 349 419 488
#
# _framework density 27.505507000000001
#
# number of rings (size 3 to 8) (size 9 to 14) (size 15 to 20)
#    0.000    1.000    7.500    0.000    0.000    4.000 
#    0.000    0.000    0.000    3.000    0.000    0.000 
#    0.000    0.000    0.000    0.000    0.000    0.000 
#
# Total GULP energy -89374.880575 kJ/mol
# GULP energy per Si atom -5585.930036 kJ/mol
# Density = 2.744290 g / cm^3
# Si number density = 27.505507 Si / 1000 Ang^3
#
#
#
# Elastic Constant Matrix: (Units=GPa)
#
#
# Indices 1 2 3 4 5 6 
#
# 1 158.9129 4.1281 86.7035 0.0000 0.0000 0.0005
# 2 4.1281 158.9129 86.7035 0.0000 0.0000 -0.0005
# 3 86.7035 86.7035 349.4870 0.0000 0.0000 0.0000
# 4 0.0000 0.0000 0.0000 35.1218 0.0000 0.0000
# 5 0.0000 0.0000 0.0000 0.0000 35.1218 0.0000
# 6 0.0005 -0.0005 0.0000 0.0000 0.0000 0.2505
#
#
#
# Elastic Compliance Matrix: (Units=1/GPa)
#
#
# Indices 1 2 3 4 5 6 
#
# 1 0.007396 0.000936 -0.002067 0.000000 0.000000 -0.000013
# 2 0.000936 0.007396 -0.002067 0.000000 0.000000 0.000013
# 3 -0.002067 -0.002067 0.003887 0.000000 0.000000 0.000000
# 4 0.000000 0.000000 0.000000 0.028472 0.000000 0.000000
# 5 0.000000 0.000000 0.000000 0.000000 0.028472 0.000000
# 6 -0.000013 0.000013 0.000000 0.000000 0.000000 3.992672
#
#
# Mechanical properties :
#
#
# Convention : Reuss Voigt Hill
#
# Bulk Modulus (GPa) = 81.41623 113.59813 97.50718
# Shear Modulus (GPa) = 1.22585 46.75067 23.98826
#
# Velocity S-wave (km/s) = 0.66831 4.12719 2.95638
# Velocity P-wave (km/s) = 5.50089 8.00634 6.86881
#
# Compressibility (1/GPa) = 0.01228256
#
# Stress axis : x y z
#
# Youngs Moduli (GPa) = 135.20393 135.20393 257.27101
#
# Poissons Ratio (x) = -0.12650 0.53179
# Poissons Ratio (y) = -0.12650 0.53179
# Poissons Ratio (z) = 0.27947 0.27947
#
# Static dielectric constant tensor:
#      x y z
#    x 2.235630 0.000000 0.000000 
#    y 0.000000 2.235630 0.000000 
#    z 0.000000 0.000000 2.769500 
# 
# From -- ./inp_files/413.got.cif
#   From: 2010.05.17/outbox.cif.g08.bks.cpg/sg76_cif.got.tgz:413.got - 2010.06.03 18:43:17.
