data_PCOD9541839
_publ_section_title
;
Structure prediction by ZEFSAII (Michael W. Deem and Ramdas Pophale) SiO2 
 PCOD9541839
Probable space group: I 4
;
_chemical_formula_sum "Si O2"
_cell_formula_units_Z 60
_cell_length_a 17.456592
_cell_length_b 17.456592
_cell_length_c 9.256689
_cell_angle_alpha 90.000000
_cell_angle_beta 90.000000
_cell_angle_gamma 90.000000
_cell_volume 2820.814946
_symmetry_space_group_name_H-M "I 4"
_symmetry_group_IT_number 79
_symmetry_cell_setting 'tetragonal'
loop_
_space_group_symop_operation_xyz
x,y,z
-y,x,z
-x,-y,z
y,-x,z
1/2+x,1/2+y,1/2+z
1/2-y,1/2+x,1/2+z
1/2-x,1/2-y,1/2+z
1/2+y,1/2-x,1/2+z
loop_
_atom_site_type_symbol
_atom_site_label
_atom_site_fract_x
_atom_site_fract_y
_atom_site_fract_z
Si Si1 0.618965 0.546978 0.368030
Si Si2 0.500000 0.000000 0.886932
Si Si3 0.312315 0.202439 0.784163
Si Si4 0.433388 0.730698 0.116062
Si Si5 0.609116 0.000975 0.637401
Si Si6 0.416684 0.171590 0.551088
Si Si7 0.224250 0.414551 0.520597
Si Si8 0.856889 0.275877 0.343438
O O1 0.541885 0.596082 0.390849
O O2 0.654750 0.549295 0.205535
O O3 0.687147 0.580322 0.468147
O O4 0.433721 0.970131 0.779809
O O5 0.470176 0.068186 0.991075
O O6 0.259917 0.148210 0.681362
O O7 0.384787 0.222124 0.683845
O O8 0.271766 0.279515 0.829279
O O9 0.319471 0.147763 0.922701
O O10 0.495440 0.799147 0.142880
O O11 0.417380 0.731727 0.946121
O O12 0.583395 0.911906 0.624917
O O13 0.499392 0.195298 0.499753
O O14 0.354645 0.166098 0.423676
O O15 0.213214 0.391348 0.685653
#
# Coordination Sequence:
#
# PCOD9541839 Si02
#       8
#     8   4   8   8   8   8   8   8
#     4  10  24  46  71  97 130 170 220 279 345 408
#     4  10  20  36  58  78 128 166 216 260 312 366
#     4   9  20  41  64  92 134 173 224 271 335 400
#     4   9  21  42  61  92 131 166 220 261 340 401
#     4   9  21  36  56  85 123 168 213 255 315 383
#     4  10  24  38  60  93 136 163 223 271 332 399
#     4  11  23  40  73 100 130 178 227 275 340 393
#     4  10  21  42  66  99 134 170 233 278 327 401
#
# _framework density 21.270447999999998
#
# number of rings (size 3 to 8) (size 9 to 14) (size 15 to 20)
#    0.000    2.533    0.000    1.600   14.933    0.000 
#    2.400    2.667    0.000    1.600    0.000    0.000 
#    0.000    0.000    0.000    0.000    0.000    0.000 
#
# Total GULP energy -167463.004681 kJ/mol
# GULP energy per Si atom -5582.100156 kJ/mol
# Density = 2.122204 g / cm^3
# Si number density = 21.270448 Si / 1000 Ang^3
#
#
#
# Elastic Constant Matrix: (Units=GPa)
#
#
# Indices 1 2 3 4 5 6 
#
# 1 71.0239 31.2247 35.5771 0.0000 0.0000 5.1418
# 2 31.2247 71.0239 35.5771 0.0000 0.0000 -5.1418
# 3 35.5771 35.5771 169.4929 0.0000 0.0000 0.0000
# 4 0.0000 0.0000 0.0000 18.3009 0.0000 0.0000
# 5 0.0000 0.0000 0.0000 0.0000 18.3009 0.0000
# 6 5.1418 -5.1418 0.0000 0.0000 0.0000 30.0682
#
#
#
# Elastic Compliance Matrix: (Units=1/GPa)
#
#
# Indices 1 2 3 4 5 6 
#
# 1 0.018870 -0.007417 -0.002404 0.000000 0.000000 -0.004495
# 2 -0.007417 0.018870 -0.002404 0.000000 0.000000 0.004495
# 3 -0.002404 -0.002404 0.006909 0.000000 0.000000 0.000000
# 4 0.000000 0.000000 0.000000 0.054642 0.000000 0.000000
# 5 0.000000 0.000000 0.000000 0.000000 0.054642 0.000000
# 6 -0.004495 0.004495 0.000000 0.000000 0.000000 0.034795
#
#
# Mechanical properties :
#
#
# Convention : Reuss Voigt Hill
#
# Bulk Modulus (GPa) = 49.50706 57.36650 53.43678
# Shear Modulus (GPa) = 22.73623 27.27810 25.00716
#
# Velocity S-wave (km/s) = 3.27297 3.58500 3.43253
# Velocity P-wave (km/s) = 6.13259 6.64567 6.39428
#
# Compressibility (1/GPa) = 0.02019914
#
# Stress axis : x y z
#
# Youngs Moduli (GPa) = 52.99315 52.99315 144.73501
#
# Poissons Ratio (x) = 0.39307 0.34795
# Poissons Ratio (y) = 0.39307 0.34795
# Poissons Ratio (z) = 0.12740 0.12740
#
# Static dielectric constant tensor:
#      x y z
#    x 1.815890 0.000000 0.000000 
#    y 0.000000 1.815890 0.000000 
#    z 0.000000 0.000000 1.855880 
# 
# From -- ./inp_files/749.got.cif
#   From: 2010.05.17/outbox.cif.g08.bks.cpg/sg79_cif.got.tgz:749.got - 2010.06.03 18:47:27.
