data_PCOD9541579
_publ_section_title
;
Structure prediction by ZEFSAII (Michael W. Deem and Ramdas Pophale) SiO2 
 PCOD9541579
Probable space group: P 42
;
_chemical_formula_sum "Si O2"
_cell_formula_units_Z 16
_cell_length_a 8.426982
_cell_length_b 8.426982
_cell_length_c 7.814601
_cell_angle_alpha 90.000000
_cell_angle_beta 90.000000
_cell_angle_gamma 90.000000
_cell_volume 554.946276
_symmetry_space_group_name_H-M "P 42"
_symmetry_group_IT_number 77
_symmetry_cell_setting 'tetragonal'
loop_
_space_group_symop_operation_xyz
x,y,z
-y,x,1/2+z
-x,-y,z
y,-x,1/2+z
loop_
_atom_site_type_symbol
_atom_site_label
_atom_site_fract_x
_atom_site_fract_y
_atom_site_fract_z
Si Si1 0.049633 0.173003 0.693730
Si Si2 0.757063 0.574924 0.040610
Si Si3 0.742938 0.074924 0.839476
Si Si4 0.450367 0.673004 0.186356
O O1 0.077791 0.295578 0.540345
O O2 0.894600 0.192632 0.809651
O O3 0.194779 0.101988 0.800768
O O4 0.000000 0.000000 0.602916
O O5 0.875980 0.624020 0.190043
O O6 0.605400 0.692631 0.070435
O O7 0.694780 0.398012 0.079319
O O8 0.795578 0.577790 0.839741
O O9 0.500000 0.500000 0.777170
#
# Coordination Sequence:
#
# PCOD9541579 Si02
#       4
#     4   4   4   4
#     4   8  14  29  44  72  88 107 163 177 205 294
#     4   9  15  28  51  66  90 124 142 188 233 248
#     4   9  15  28  51  66  90 124 142 188 233 248
#     4   8  14  29  44  72  88 107 163 177 205 294
#
# _framework density 28.831617000000001
#
# number of rings (size 3 to 8) (size 9 to 14) (size 15 to 20)
#    3.000    0.000    5.000    0.000    0.000    0.000 
#    0.000   10.000    0.000    9.000    0.000    0.000 
#    0.000    0.000    0.000    0.000    0.000    0.000 
#
# Total GULP energy -89143.798300 kJ/mol
# GULP energy per Si atom -5571.487394 kJ/mol
# Density = 2.876599 g / cm^3
# Si number density = 28.831617 Si / 1000 Ang^3
#
#
#
# Elastic Constant Matrix: (Units=GPa)
#
#
# Indices 1 2 3 4 5 6 
#
# 1 74.5787 23.0844 27.3118 0.0000 0.0000 0.0003
# 2 23.0844 74.5787 27.3118 0.0000 0.0000 -0.0003
# 3 27.3118 27.3118 251.4571 0.0000 0.0000 0.0000
# 4 0.0000 0.0000 0.0000 43.6990 0.0000 0.0000
# 5 0.0000 0.0000 0.0000 0.0000 43.6990 0.0000
# 6 0.0003 -0.0003 0.0000 0.0000 0.0000 30.8419
#
#
#
# Elastic Compliance Matrix: (Units=1/GPa)
#
#
# Indices 1 2 3 4 5 6 
#
# 1 0.015161 -0.004259 -0.001184 0.000000 0.000000 0.000000
# 2 -0.004259 0.015161 -0.001184 0.000000 0.000000 0.000000
# 3 -0.001184 -0.001184 0.004234 0.000000 0.000000 0.000000
# 4 0.000000 0.000000 0.000000 0.022884 0.000000 0.000000
# 5 0.000000 0.000000 0.000000 0.000000 0.022884 0.000000
# 6 0.000000 0.000000 0.000000 0.000000 0.000000 0.032423
#
#
# Mechanical properties :
#
#
# Convention : Reuss Voigt Hill
#
# Bulk Modulus (GPa) = 46.94649 61.78120 54.36384
# Shear Modulus (GPa) = 37.56550 45.17509 41.37029
#
# Velocity S-wave (km/s) = 3.61352 3.96265 3.79211
# Velocity P-wave (km/s) = 5.80762 6.51242 6.17009
#
# Compressibility (1/GPa) = 0.02130085
#
# Stress axis : x y z
#
# Youngs Moduli (GPa) = 65.96055 65.96055 236.18142
#
# Poissons Ratio (x) = 0.28093 0.27965
# Poissons Ratio (y) = 0.28093 0.27965
# Poissons Ratio (z) = 0.07810 0.07810
#
# Static dielectric constant tensor:
#      x y z
#    x 2.513380 0.000000 0.000000 
#    y 0.000000 2.513380 0.000000 
#    z 0.000000 0.000000 2.209070 
# 
# From -- ./inp_files/333.got.cif
#   From: 2010.05.17/outbox.cif.g08.bks.cpg/sg77_cif.got.tgz:333.got - 2010.06.03 18:44:51.
