data_PCOD9541698
_publ_section_title
;
Structure prediction by ZEFSAII (Michael W. Deem and Ramdas Pophale) SiO2 
 PCOD9541698
Probable space group: P 43
;
_chemical_formula_sum "Si O2"
_cell_formula_units_Z 24
_cell_length_a 11.217633
_cell_length_b 11.217633
_cell_length_c 8.124717
_cell_angle_alpha 90.000000
_cell_angle_beta 90.000000
_cell_angle_gamma 90.000000
_cell_volume 1022.376121
_symmetry_space_group_name_H-M "P 43"
_symmetry_group_IT_number 78
_symmetry_cell_setting 'tetragonal'
loop_
_space_group_symop_operation_xyz
x,y,z
-y,x,3/4+z
-x,-y,1/2+z
y,-x,1/4+z
loop_
_atom_site_type_symbol
_atom_site_label
_atom_site_fract_x
_atom_site_fract_y
_atom_site_fract_z
Si Si1 0.443174 0.298040 0.639990
Si Si2 0.355289 0.286456 0.982190
Si Si3 0.764019 0.512276 0.049175
Si Si4 0.156942 0.158196 0.836473
Si Si5 0.916265 0.118096 0.020104
Si Si6 0.900025 0.730326 0.005425
O O1 0.408489 0.234331 0.811040
O O2 0.573981 0.348107 0.687858
O O3 0.352169 0.402617 0.581895
O O4 0.454277 0.216021 0.478245
O O5 0.227876 0.221248 0.984045
O O6 0.425653 0.265835 0.148821
O O7 0.878220 0.590163 0.995781
O O8 0.167814 0.236095 0.673260
O O9 0.213424 0.030666 0.787903
O O10 0.017772 0.162025 0.892064
O O11 0.791150 0.159654 0.095401
O O12 0.991072 0.110685 0.188883
#
# Coordination Sequence:
#
# PCOD9541698 Si02
#       6
#     4   4   4   4   4   4
#     4  10  22  42  74  94 132 176 234 292 322 414
#     4  11  25  44  70 101 134 180 232 285 348 408
#     4  11  25  44  70 101 134 180 232 285 348 408
#     4  12  23  46  68  99 142 175 230 296 342 417
#     4  12  20  36  72 102 126 178 234 276 340 412
#     4  12  23  46  68  99 142 175 230 296 342 417
#
# _framework density 23.474730000000001
#
# number of rings (size 3 to 8) (size 9 to 14) (size 15 to 20)
#    0.000    0.667    8.333    1.000    9.333    2.667 
#    3.000    0.000    0.000    0.000    0.000    0.000 
#    0.000    0.000    0.000    0.000    0.000    0.000 
#
# Total GULP energy -133806.688496 kJ/mol
# GULP energy per Si atom -5575.278687 kJ/mol
# Density = 2.342130 g / cm^3
# Si number density = 23.474730 Si / 1000 Ang^3
#
#
#
# Elastic Constant Matrix: (Units=GPa)
#
#
# Indices 1 2 3 4 5 6 
#
# 1 13.7412 24.4244 5.4277 0.0000 0.0000 -1.3714
# 2 24.4244 13.7412 5.4277 0.0000 0.0000 1.3714
# 3 5.4277 5.4277 151.1330 0.0000 0.0000 0.0000
# 4 0.0000 0.0000 0.0000 27.0319 0.0000 0.0000
# 5 0.0000 0.0000 0.0000 0.0000 27.0319 0.0000
# 6 -1.3714 1.3714 0.0000 0.0000 0.0000 16.2816
#
#
#
# Elastic Compliance Matrix: (Units=1/GPa)
#
#
# Indices 1 2 3 4 5 6 
#
# 1 -0.032576 0.059048 -0.000951 0.000000 0.000000 -0.007717
# 2 0.059048 -0.032576 -0.000951 0.000000 0.000000 0.007717
# 3 -0.000951 -0.000951 0.006685 0.000000 0.000000 0.000000
# 4 0.000000 0.000000 0.000000 0.036993 0.000000 0.000000
# 5 0.000000 0.000000 0.000000 0.000000 0.036993 0.000000
# 6 -0.007717 0.007717 0.000000 0.000000 0.000000 0.060119
#
#
# Mechanical properties :
#
#
# Convention : Reuss Voigt Hill
#
# Bulk Modulus (GPa) = 17.91270 27.68608 22.79939
# Shear Modulus (GPa) = -249.44381 23.62479 -112.90951
#
# Velocity S-wave (km/s) = -10.31946 3.17581 -6.94282
# Velocity P-wave (km/s) = 11.59056 5.02666 7.38491
#
# Compressibility (1/GPa) = 0.05582632
#
# Stress axis : x y z
#
# Youngs Moduli (GPa) = -30.69773 -30.69773 149.58923
#
# Poissons Ratio (x) = 1.81263 0.14221
# Poissons Ratio (y) = 1.81263 0.14221
# Poissons Ratio (z) = -0.02918 -0.02918
#
# Static dielectric constant tensor:
#      x y z
#    x 1.964030 0.000000 0.000000 
#    y 0.000000 1.964030 0.000000 
#    z 0.000000 0.000000 1.913410 
# 
# From -- ./inp_files/546.got.cif
#   From: 2010.05.17/outbox.cif.g08.bks.cpg/sg78_cif.got.tgz:546.got - 2010.06.03 18:45:56.
