data_PCOD9541385
_publ_section_title
;
Structure prediction by ZEFSAII (Michael W. Deem and Ramdas Pophale) SiO2 
 PCOD9541385
Probable space group: P 41
;
_chemical_formula_sum "Si O2"
_cell_formula_units_Z 28
_cell_length_a 12.414058
_cell_length_b 12.414058
_cell_length_c 7.262212
_cell_angle_alpha 90.000000
_cell_angle_beta 90.000000
_cell_angle_gamma 90.000000
_cell_volume 1119.171038
_symmetry_space_group_name_H-M "P 41"
_symmetry_group_IT_number 76
_symmetry_cell_setting 'tetragonal'
loop_
_space_group_symop_operation_xyz
x,y,z
-y,x,1/4+z
-x,-y,1/2+z
y,-x,3/4+z
loop_
_atom_site_type_symbol
_atom_site_label
_atom_site_fract_x
_atom_site_fract_y
_atom_site_fract_z
Si Si1 0.110218 0.078600 0.865330
Si Si2 0.787339 0.319425 0.162292
Si Si3 0.173707 0.742882 0.050419
Si Si4 0.490239 0.155574 0.407757
Si Si5 0.064250 0.238707 0.560272
Si Si6 0.913768 0.526805 0.064138
Si Si7 0.436760 0.637372 0.675419
O O1 0.046820 0.147361 0.711380
O O2 0.102552 0.954933 0.802497
O O3 0.227588 0.131566 0.843785
O O4 0.757852 0.282138 0.369869
O O5 0.848125 0.433103 0.163293
O O6 0.672347 0.332076 0.064037
O O7 0.172390 0.638377 0.180254
O O8 0.207176 0.846231 0.163897
O O9 0.052171 0.746676 0.970655
O O10 0.537886 0.136063 0.609943
O O11 0.529377 0.258776 0.295534
O O12 0.505123 0.040168 0.305905
O O13 0.091417 0.354206 0.650340
O O14 0.535792 0.599134 0.550351
#
# Coordination Sequence:
#
# PCOD9541385 Si02
#       7
#     4   4   4   4   4   4   4
#     4  12  30  49  77 114 160 202 255 318 396 477
#     4  12  29  47  77 109 154 208 262 321 396 465
#     4  11  24  46  73 109 147 203 252 320 385 465
#     4  11  25  49  75 112 148 201 262 322 393 464
#     4  11  24  44  74 107 154 193 256 314 385 465
#     4  11  26  45  79 107 151 202 260 324 385 465
#     4  12  30  52  79 114 160 205 269 331 404 471
#
# _framework density 25.018516999999999
#
# number of rings (size 3 to 8) (size 9 to 14) (size 15 to 20)
#    0.000    0.571    2.857    3.429   12.000    0.000 
#    0.000    0.000    0.000    0.000    0.000    0.000 
#    0.000    0.000    0.000    0.000    0.000    0.000 
#
# Total GULP energy -156831.917593 kJ/mol
# GULP energy per Si atom -5601.139914 kJ/mol
# Density = 2.496157 g / cm^3
# Si number density = 25.018517 Si / 1000 Ang^3
#
#
#
# Elastic Constant Matrix: (Units=GPa)
#
#
# Indices 1 2 3 4 5 6 
#
# 1 176.6176 49.2390 16.7353 0.0000 0.0000 -7.3530
# 2 49.2390 176.6176 16.7353 0.0000 0.0000 7.3530
# 3 16.7353 16.7353 47.4838 0.0000 0.0000 0.0000
# 4 0.0000 0.0000 0.0000 40.2067 0.0000 0.0000
# 5 0.0000 0.0000 0.0000 0.0000 40.2067 0.0000
# 6 -7.3530 7.3530 0.0000 0.0000 0.0000 30.4884
#
#
#
# Elastic Compliance Matrix: (Units=1/GPa)
#
#
# Indices 1 2 3 4 5 6 
#
# 1 0.006374 -0.001702 -0.001646 0.000000 0.000000 0.001948
# 2 -0.001702 0.006374 -0.001646 0.000000 0.000000 -0.001948
# 3 -0.001646 -0.001646 0.022220 0.000000 0.000000 0.000000
# 4 0.000000 0.000000 0.000000 0.024871 0.000000 0.000000
# 5 0.000000 0.000000 0.000000 0.000000 0.024871 0.000000
# 6 0.001948 -0.001948 0.000000 0.000000 0.000000 0.033739
#
#
# Mechanical properties :
#
#
# Convention : Reuss Voigt Hill
#
# Bulk Modulus (GPa) = 40.03572 62.90425 51.46999
# Shear Modulus (GPa) = 36.55913 43.38101 39.97007
#
# Velocity S-wave (km/s) = 3.82682 4.16860 4.00136
# Velocity P-wave (km/s) = 5.96349 6.95466 6.47806
#
# Compressibility (1/GPa) = 0.02497770
#
# Stress axis : x y z
#
# Youngs Moduli (GPa) = 156.89912 156.89912 45.00372
#
# Poissons Ratio (x) = 0.26703 0.07410
# Poissons Ratio (y) = 0.26703 0.07410
# Poissons Ratio (z) = 0.25833 0.25833
#
# Static dielectric constant tensor:
#      x y z
#    x 1.968570 0.000000 0.000000 
#    y 0.000000 1.968570 0.000000 
#    z 0.000000 0.000000 2.013920 
# 
# From -- ./inp_files/587.got.cif
#   From: 2010.05.17/outbox.cif.g08.bks.cpg/sg76_cif.got.tgz:587.got - 2010.06.03 18:43:17.
