data_PCOD9541722
_publ_section_title
;
Structure prediction by ZEFSAII (Michael W. Deem and Ramdas Pophale) SiO2 
 PCOD9541722
Probable space group: P 43
;
_chemical_formula_sum "Si O2"
_cell_formula_units_Z 28
_cell_length_a 14.607688
_cell_length_b 14.607688
_cell_length_c 4.928226
_cell_angle_alpha 90.000000
_cell_angle_beta 90.000000
_cell_angle_gamma 90.000000
_cell_volume 1051.607281
_symmetry_space_group_name_H-M "P 43"
_symmetry_group_IT_number 78
_symmetry_cell_setting 'tetragonal'
loop_
_space_group_symop_operation_xyz
x,y,z
-y,x,3/4+z
-x,-y,1/2+z
y,-x,1/4+z
loop_
_atom_site_type_symbol
_atom_site_label
_atom_site_fract_x
_atom_site_fract_y
_atom_site_fract_z
Si Si1 0.270396 0.308343 0.191240
Si Si2 0.121937 0.072318 0.340944
Si Si3 0.446519 0.631018 0.031487
Si Si4 0.870648 0.230246 0.589356
Si Si5 0.116098 0.427230 0.070492
Si Si6 0.564388 0.781270 0.922793
Si Si7 0.048771 0.598168 0.274032
O O1 0.327151 0.377411 0.999864
O O2 0.242300 0.224768 0.994991
O O3 0.176835 0.361853 0.254394
O O4 0.338178 0.272838 0.427736
O O5 0.180181 0.066734 0.065743
O O6 0.024193 0.108746 0.241401
O O7 0.174054 0.133858 0.562598
O O8 0.401283 0.540646 0.917098
O O9 0.487966 0.706796 0.821546
O O10 0.916638 0.329636 0.549694
O O11 0.041569 0.490402 0.213976
O O12 0.178702 0.505163 0.923881
O O13 0.051466 0.370832 0.869290
O O14 0.592096 0.865536 0.731934
#
# Coordination Sequence:
#
# PCOD9541722 Si02
#       7
#     4   4   4   4   4   4   4
#     4  10  26  43  70 104 152 192 256 316 387 456
#     4  12  27  52  85 115 156 199 254 321 398 474
#     4  11  24  41  70 101 139 192 256 313 385 456
#     4  11  28  48  78 118 158 203 257 322 389 475
#     4  11  24  46  72 105 146 200 257 311 396 461
#     4  10  24  44  67 103 143 190 247 321 382 455
#     4  11  25  44  72 106 152 198 255 318 385 471
#
# _framework density 26.625910000000001
#
# number of rings (size 3 to 8) (size 9 to 14) (size 15 to 20)
#    0.000    1.143    1.429    2.571   18.000    0.000 
#    2.571    0.000    0.000    0.000    0.000    0.000 
#    0.000    0.000    0.000    0.000    0.000    0.000 
#
# Total GULP energy -156606.699334 kJ/mol
# GULP energy per Si atom -5593.096405 kJ/mol
# Density = 2.656531 g / cm^3
# Si number density = 26.625910 Si / 1000 Ang^3
#
#
#
# Elastic Constant Matrix: (Units=GPa)
#
#
# Indices 1 2 3 4 5 6 
#
# 1 84.2918 69.3388 23.0558 0.0000 0.0000 -7.8769
# 2 69.3388 84.2918 23.0558 0.0000 0.0000 7.8769
# 3 23.0558 23.0558 86.3830 0.0000 0.0000 0.0000
# 4 0.0000 0.0000 0.0000 43.3238 0.0000 0.0000
# 5 0.0000 0.0000 0.0000 0.0000 43.3238 0.0000
# 6 -7.8769 7.8769 0.0000 0.0000 0.0000 38.3086
#
#
#
# Elastic Compliance Matrix: (Units=1/GPa)
#
#
# Indices 1 2 3 4 5 6 
#
# 1 0.046223 -0.039147 -0.001889 0.000000 0.000000 0.017554
# 2 -0.039147 0.046223 -0.001889 0.000000 0.000000 -0.017554
# 3 -0.001889 -0.001889 0.012584 0.000000 0.000000 0.000000
# 4 0.000000 0.000000 0.000000 0.023082 0.000000 0.000000
# 5 0.000000 0.000000 0.000000 0.000000 0.023082 0.000000
# 6 0.017554 -0.017554 0.000000 0.000000 0.000000 0.033322
#
#
# Mechanical properties :
#
#
# Convention : Reuss Voigt Hill
#
# Bulk Modulus (GPa) = 52.13201 53.98526 53.05863
# Shear Modulus (GPa) = 18.06619 34.29232 26.17925
#
# Velocity S-wave (km/s) = 2.60767 3.59267 3.13904
# Velocity P-wave (km/s) = 5.35616 6.12610 5.75403
#
# Compressibility (1/GPa) = 0.01918207
#
# Stress axis : x y z
#
# Youngs Moduli (GPa) = 21.63417 21.63417 79.46291
#
# Poissons Ratio (x) = 0.84692 0.15007
# Poissons Ratio (y) = 0.84692 0.15007
# Poissons Ratio (z) = 0.04086 0.04086
#
# Static dielectric constant tensor:
#      x y z
#    x 2.120160 0.000000 0.000000 
#    y 0.000000 2.120160 0.000000 
#    z 0.000000 0.000000 2.195030 
# 
# From -- ./inp_files/235.got.cif
#   From: 2010.05.17/outbox.cif.g08.bks.cpg/sg78_cif.got.tgz:235.got - 2010.06.03 18:45:56.
