data_PCOD9541152
_publ_section_title
;
Structure prediction by ZEFSAII (Michael W. Deem and Ramdas Pophale) SiO2 
 PCOD9541152
Probable space group: P 41
;
_chemical_formula_sum "Si O2"
_cell_formula_units_Z 32
_cell_length_a 7.444044
_cell_length_b 7.444044
_cell_length_c 22.683689
_cell_angle_alpha 90.000000
_cell_angle_beta 90.000000
_cell_angle_gamma 90.000000
_cell_volume 1256.989203
_symmetry_space_group_name_H-M "P 41"
_symmetry_group_IT_number 76
_symmetry_cell_setting 'tetragonal'
loop_
_space_group_symop_operation_xyz
x,y,z
-y,x,1/4+z
-x,-y,1/2+z
y,-x,3/4+z
loop_
_atom_site_type_symbol
_atom_site_label
_atom_site_fract_x
_atom_site_fract_y
_atom_site_fract_z
Si Si1 0.892334 0.782727 0.071280
Si Si2 0.981358 0.441981 0.268989
Si Si3 0.239830 0.390661 0.456008
Si Si4 0.653489 0.712991 0.828129
Si Si5 0.415917 0.625134 0.548145
Si Si6 0.026115 0.697973 0.425953
Si Si7 0.165262 0.939796 0.798862
Si Si8 0.641858 0.869301 0.393442
O O1 0.773110 0.825504 0.129703
O O2 0.071929 0.658230 0.068091
O O3 0.983623 0.974817 0.065781
O O4 0.786909 0.743424 0.010626
O O5 0.843250 0.581221 0.299678
O O6 0.950113 0.463965 0.198824
O O7 0.179817 0.391618 0.293679
O O8 0.872005 0.260894 0.281537
O O9 0.320068 0.306861 0.397946
O O10 0.360458 0.548923 0.484099
O O11 0.056185 0.484815 0.433017
O O12 0.476465 0.602164 0.811296
O O13 0.269168 0.554827 0.596315
O O14 0.049247 0.767706 0.492552
O O15 0.823965 0.763156 0.412311
O O16 0.288893 0.965092 0.854963
#
# Coordination Sequence:
#
# PCOD9541152 Si02
#       8
#     4   4   4   4   4   4   4   4
#     4  10  23  41  71  97 133 182 234 290 352 420
#     4  10  24  45  70  99 140 182 234 290 357 416
#     4  12  24  43  66  99 141 178 232 287 354 425
#     4  11  26  47  67 106 140 183 237 292 355 429
#     4  12  25  44  66 104 144 182 229 291 359 428
#     4  10  20  40  71  96 134 175 233 289 346 422
#     4   9  19  42  69  98 127 181 236 285 346 419
#     4  10  21  42  70  99 131 183 231 288 353 423
#
# _framework density 25.457657999999999
#
# number of rings (size 3 to 8) (size 9 to 14) (size 15 to 20)
#    0.000    1.500    1.250    3.000    3.500    4.000 
#   11.250    0.000    0.000    0.000    0.000    0.000 
#    0.000    0.000    0.000    0.000    0.000    0.000 
#
# Total GULP energy -178797.743335 kJ/mol
# GULP energy per Si atom -5587.429479 kJ/mol
# Density = 2.539972 g / cm^3
# Si number density = 25.457658 Si / 1000 Ang^3
#
#
#
# Elastic Constant Matrix: (Units=GPa)
#
#
# Indices 1 2 3 4 5 6 
#
# 1 83.2156 -14.8029 7.5061 0.0000 0.0000 -9.8284
# 2 -14.8029 83.2156 7.5061 0.0000 0.0000 9.8284
# 3 7.5061 7.5061 131.5901 0.0000 0.0000 0.0000
# 4 0.0000 0.0000 0.0000 37.2669 0.0000 0.0000
# 5 0.0000 0.0000 0.0000 0.0000 37.2669 0.0000
# 6 -9.8284 9.8284 0.0000 0.0000 0.0000 35.9028
#
#
#
# Elastic Compliance Matrix: (Units=1/GPa)
#
#
# Indices 1 2 3 4 5 6 
#
# 1 0.012799 0.002004 -0.000844 0.000000 0.000000 0.002955
# 2 0.002004 0.012799 -0.000844 0.000000 0.000000 -0.002955
# 3 -0.000844 -0.000844 0.007696 0.000000 0.000000 0.000000
# 4 0.000000 0.000000 0.000000 0.026833 0.000000 0.000000
# 5 0.000000 0.000000 0.000000 0.000000 0.026833 0.000000
# 6 0.002955 -0.002955 0.000000 0.000000 0.000000 0.029471
#
#
# Mechanical properties :
#
#
# Convention : Reuss Voigt Hill
#
# Bulk Modulus (GPa) = 29.47838 33.15998 31.31918
# Shear Modulus (GPa) = 39.33659 41.94146 40.63902
#
# Velocity S-wave (km/s) = 3.93514 4.06334 3.99975
# Velocity P-wave (km/s) = 5.67905 5.92184 5.80171
#
# Compressibility (1/GPa) = 0.03392317
#
# Stress axis : x y z
#
# Youngs Moduli (GPa) = 78.13350 78.13350 129.94297
#
# Poissons Ratio (x) = -0.15657 0.10972
# Poissons Ratio (y) = -0.15657 0.10972
# Poissons Ratio (z) = 0.06597 0.06597
#
# Static dielectric constant tensor:
#      x y z
#    x 2.055600 0.000000 0.000000 
#    y 0.000000 2.055600 0.000000 
#    z 0.000000 0.000000 2.016770 
# 
# From -- ./inp_files/1427.got.cif
#   From: 2010.05.17/outbox.cif.g08.bks.cpg/sg76_cif.got.tgz:1427.got - 2010.06.03 18:43:17.
