data_PCOD9541289
_publ_section_title
;
Structure prediction by ZEFSAII (Michael W. Deem and Ramdas Pophale) SiO2 
 PCOD9541289
Probable space group: P 41
;
_chemical_formula_sum "Si O2"
_cell_formula_units_Z 20
_cell_length_a 5.250279
_cell_length_b 5.250279
_cell_length_c 26.471472
_cell_angle_alpha 90.000000
_cell_angle_beta 90.000000
_cell_angle_gamma 90.000000
_cell_volume 729.697497
_symmetry_space_group_name_H-M "P 41"
_symmetry_group_IT_number 76
_symmetry_cell_setting 'tetragonal'
loop_
_space_group_symop_operation_xyz
x,y,z
-y,x,1/4+z
-x,-y,1/2+z
y,-x,3/4+z
loop_
_atom_site_type_symbol
_atom_site_label
_atom_site_fract_x
_atom_site_fract_y
_atom_site_fract_z
Si Si1 0.880404 0.915696 0.387920
Si Si2 0.416980 0.836687 0.113430
Si Si3 0.119605 0.915700 0.500727
Si Si4 0.813828 0.500005 0.694323
Si Si5 0.836694 0.416984 0.525216
O O1 0.590003 0.990041 0.400414
O O2 0.985628 0.665033 0.361125
O O3 0.000006 0.902197 0.444324
O O4 0.981646 0.173273 0.363386
O O5 0.371563 0.628431 0.069323
O O6 0.376877 0.697214 0.167469
O O7 0.410006 0.990045 0.488234
O O8 0.014380 0.665037 0.527522
O O9 0.018361 0.173276 0.525261
O O10 0.623121 0.697224 0.721177
#
# Coordination Sequence:
#
# PCOD9541289 Si02
#       5
#     4   4   4   4   4
#     4  10  23  46  69 105 140 191 249 305 377 457
#     4  11  26  43  72 110 147 193 256 317 389 469
#     4  10  23  46  69 105 140 191 249 305 377 457
#     4  10  24  48  78 100 154 202 252 322 392 464
#     4  11  26  43  72 110 147 193 256 317 389 469
#
# _framework density 27.408615000000001
#
# number of rings (size 3 to 8) (size 9 to 14) (size 15 to 20)
#    0.000    1.600    0.000    3.600    5.600   14.400 
#    0.000    0.000    0.000    0.000    0.000    0.000 
#    0.000    0.000    0.000    0.000    0.000    0.000 
#
# Total GULP energy -111856.096961 kJ/mol
# GULP energy per Si atom -5592.804848 kJ/mol
# Density = 2.734623 g / cm^3
# Si number density = 27.408615 Si / 1000 Ang^3
#
#
#
# Elastic Constant Matrix: (Units=GPa)
#
#
# Indices 1 2 3 4 5 6 
#
# 1 174.1347 69.6273 17.3402 0.0000 0.0000 -0.0002
# 2 69.6273 174.1347 17.3402 0.0000 0.0000 0.0002
# 3 17.3402 17.3402 64.9592 0.0000 0.0000 0.0000
# 4 0.0000 0.0000 0.0000 38.6889 0.0000 0.0000
# 5 0.0000 0.0000 0.0000 0.0000 38.6889 0.0000
# 6 -0.0002 0.0002 0.0000 0.0000 0.0000 40.0965
#
#
#
# Elastic Compliance Matrix: (Units=1/GPa)
#
#
# Indices 1 2 3 4 5 6 
#
# 1 0.006917 -0.002652 -0.001138 0.000000 0.000000 0.000000
# 2 -0.002652 0.006917 -0.001138 0.000000 0.000000 0.000000
# 3 -0.001138 -0.001138 0.016002 0.000000 0.000000 0.000000
# 4 0.000000 0.000000 0.000000 0.025847 0.000000 0.000000
# 5 0.000000 0.000000 0.000000 0.000000 0.025847 0.000000
# 6 0.000000 0.000000 0.000000 0.000000 0.000000 0.024940
#
#
# Mechanical properties :
#
#
# Convention : Reuss Voigt Hill
#
# Bulk Modulus (GPa) = 50.05662 69.09376 59.57519
# Shear Modulus (GPa) = 40.65502 44.08958 42.37230
#
# Velocity S-wave (km/s) = 3.85553 4.01509 3.93612
# Velocity P-wave (km/s) = 6.17438 6.83799 6.51464
#
# Compressibility (1/GPa) = 0.01997738
#
# Stress axis : x y z
#
# Youngs Moduli (GPa) = 144.58166 144.58166 62.49215
#
# Poissons Ratio (x) = 0.38346 0.07114
# Poissons Ratio (y) = 0.38346 0.07114
# Poissons Ratio (z) = 0.16458 0.16458
#
# Static dielectric constant tensor:
#      x y z
#    x 2.167550 0.000000 0.000000 
#    y 0.000000 2.167550 0.000000 
#    z 0.000000 0.000000 2.263990 
# 
# From -- ./inp_files/1628.got.cif
#   From: 2010.05.17/outbox.cif.g08.bks.cpg/sg76_cif.got.tgz:1628.got - 2010.06.03 18:43:17.
