data_PCOD9541564
_publ_section_title
;
Structure prediction by ZEFSAII (Michael W. Deem and Ramdas Pophale) SiO2 
 PCOD9541564
Probable space group: P 42
;
_chemical_formula_sum "Si O2"
_cell_formula_units_Z 20
_cell_length_a 7.931236
_cell_length_b 7.931236
_cell_length_c 12.122599
_cell_angle_alpha 90.000000
_cell_angle_beta 90.000000
_cell_angle_gamma 90.000000
_cell_volume 762.566083
_symmetry_space_group_name_H-M "P 42"
_symmetry_group_IT_number 77
_symmetry_cell_setting 'tetragonal'
loop_
_space_group_symop_operation_xyz
x,y,z
-y,x,1/2+z
-x,-y,z
y,-x,1/2+z
loop_
_atom_site_type_symbol
_atom_site_label
_atom_site_fract_x
_atom_site_fract_y
_atom_site_fract_z
Si Si1 0.518945 0.684586 0.997810
Si Si2 0.157435 0.774513 0.030818
Si Si3 0.315747 0.993931 0.747898
Si Si4 0.291800 0.079690 0.159199
Si Si5 0.855809 0.737175 0.866860
O O1 0.500000 0.500000 0.050166
O O2 0.673018 0.671514 0.909445
O O3 0.327408 0.729106 0.964361
O O4 0.569486 0.826015 0.086294
O O5 0.124852 0.671730 0.144641
O O6 0.183511 0.963233 0.076115
O O7 0.993977 0.731210 0.961021
O O8 0.231740 0.823883 0.705183
O O9 0.500000 0.000000 0.799334
O O10 0.184790 0.071928 0.832795
O O11 0.333860 0.950821 0.258751
#
# Coordination Sequence:
#
# PCOD9541564 Si02
#       5
#     4   4   4   4   4
#     4  12  28  52  79 118 167 221 276 348 423 499
#     4  11  25  50  81 113 161 218 273 343 419 494
#     4  11  25  46  79 120 159 209 271 348 412 495
#     4  11  26  50  80 117 163 209 281 350 405 496
#     4  11  27  48  82 121 158 216 288 333 416 507
#
# _framework density 26.227238
#
# number of rings (size 3 to 8) (size 9 to 14) (size 15 to 20)
#    0.000    0.800    2.000    4.200    8.400    0.000 
#   14.400    0.000    0.000    0.000    0.000    0.000 
#    0.000    0.000    0.000    0.000    0.000    0.000 
#
# Total GULP energy -111966.684990 kJ/mol
# GULP energy per Si atom -5598.334250 kJ/mol
# Density = 2.616754 g / cm^3
# Si number density = 26.227238 Si / 1000 Ang^3
#
#
#
# Elastic Constant Matrix: (Units=GPa)
#
#
# Indices 1 2 3 4 5 6 
#
# 1 147.6234 10.1163 20.1996 0.0000 0.0000 -9.6047
# 2 10.1163 147.6234 20.1996 0.0000 0.0000 9.6047
# 3 20.1996 20.1996 115.6276 0.0000 0.0000 0.0000
# 4 0.0000 0.0000 0.0000 22.2283 0.0000 0.0000
# 5 0.0000 0.0000 0.0000 0.0000 22.2283 0.0000
# 6 -9.6047 9.6047 0.0000 0.0000 0.0000 32.3397
#
#
#
# Elastic Compliance Matrix: (Units=1/GPa)
#
#
# Indices 1 2 3 4 5 6 
#
# 1 0.007112 -0.000475 -0.001159 0.000000 0.000000 0.002253
# 2 -0.000475 0.007112 -0.001159 0.000000 0.000000 -0.002253
# 3 -0.001159 -0.001159 0.009054 0.000000 0.000000 0.000000
# 4 0.000000 0.000000 0.000000 0.044988 0.000000 0.000000
# 5 0.000000 0.000000 0.000000 0.000000 0.044988 0.000000
# 6 0.002253 -0.002253 0.000000 0.000000 0.000000 0.032260
#
#
# Mechanical properties :
#
#
# Convention : Reuss Voigt Hill
#
# Bulk Modulus (GPa) = 56.53216 56.87838 56.70527
# Shear Modulus (GPa) = 31.84772 39.38320 35.61546
#
# Velocity S-wave (km/s) = 3.48846 3.87927 3.68904
# Velocity P-wave (km/s) = 6.15039 6.46520 6.30976
#
# Compressibility (1/GPa) = 0.01768905
#
# Stress axis : x y z
#
# Youngs Moduli (GPa) = 140.61121 140.61121 110.45420
#
# Poissons Ratio (x) = 0.06684 0.12806
# Poissons Ratio (y) = 0.06684 0.12806
# Poissons Ratio (z) = 0.16302 0.16302
#
# Static dielectric constant tensor:
#      x y z
#    x 2.100680 0.000000 0.000000 
#    y 0.000000 2.100680 0.000000 
#    z 0.000000 0.000000 2.067380 
# 
# From -- ./inp_files/780.got.cif
#   From: 2010.05.17/outbox.cif.g08.bks.cpg/sg77_cif.got.tgz:780.got - 2010.06.03 18:44:51.
