data_PCOD9541881
_publ_section_title
;
Structure prediction by ZEFSAII (Michael W. Deem and Ramdas Pophale) SiO2 
 PCOD9541881
Probable space group: I 4
;
_chemical_formula_sum "Si O2"
_cell_formula_units_Z 56
_cell_length_a 22.958931
_cell_length_b 22.958931
_cell_length_c 4.774757
_cell_angle_alpha 90.000000
_cell_angle_beta 90.000000
_cell_angle_gamma 90.000000
_cell_volume 2516.834160
_symmetry_space_group_name_H-M "I 4"
_symmetry_group_IT_number 79
_symmetry_cell_setting 'tetragonal'
loop_
_space_group_symop_operation_xyz
x,y,z
-y,x,z
-x,-y,z
y,-x,z
1/2+x,1/2+y,1/2+z
1/2-y,1/2+x,1/2+z
1/2-x,1/2-y,1/2+z
1/2+y,1/2-x,1/2+z
loop_
_atom_site_type_symbol
_atom_site_label
_atom_site_fract_x
_atom_site_fract_y
_atom_site_fract_z
Si Si1 0.319202 0.291143 0.398550
Si Si2 0.066212 0.899251 0.461357
Si Si3 0.891083 0.037826 0.897112
Si Si4 0.712689 0.517448 0.737367
Si Si5 0.258455 0.606079 0.854608
Si Si6 0.670619 0.167638 0.985970
Si Si7 0.615376 0.217716 0.463914
O O1 0.367941 0.305246 0.634429
O O2 0.290943 0.228716 0.499798
O O3 0.273559 0.342631 0.416327
O O4 0.353422 0.268069 0.124214
O O5 0.073800 0.936677 0.172343
O O6 0.059414 0.831192 0.404374
O O7 0.011685 0.914752 0.672681
O O8 0.881342 0.088914 0.672945
O O9 0.833241 0.009755 0.017953
O O10 0.734894 0.462091 0.909801
O O11 0.761031 0.554888 0.585731
O O12 0.200101 0.614680 0.659599
O O13 0.615748 0.188857 0.162926
O O14 0.647118 0.172620 0.673499
#
# Coordination Sequence:
#
# PCOD9541881 Si02
#       7
#     8   8   8   8   8   8   8
#     4  10  21  40  66  91 125 172 206 271 333 407
#     4  12  26  45  66  79 120 166 231 279 332 374
#     4  12  26  47  60  86 117 169 225 283 331 367
#     4  12  30  44  65  95 132 168 226 274 332 404
#     4  10  24  40  66  85 132 173 205 260 340 408
#     4  10  21  42  62  94 127 161 209 271 343 400
#     4  12  24  38  68  98 124 160 224 279 320 397
#
# _framework density 22.250174999999999
#
# number of rings (size 3 to 8) (size 9 to 14) (size 15 to 20)
#    0.857    0.000    4.286    1.714    6.000    1.429 
#    5.143    0.000    0.000    0.000    0.000    0.000 
#    0.000    3.429    0.000    0.000    0.000    0.000 
#
# Total GULP energy -155969.904295 kJ/mol
# GULP energy per Si atom -5570.353725 kJ/mol
# Density = 2.219953 g / cm^3
# Si number density = 22.250175 Si / 1000 Ang^3
#
#
#
# Elastic Constant Matrix: (Units=GPa)
#
#
# Indices 1 2 3 4 5 6 
#
# 1 51.9362 24.3649 19.3511 0.0000 0.0000 -3.3348
# 2 24.3649 51.9362 19.3511 0.0000 0.0000 3.3348
# 3 19.3511 19.3511 136.7068 0.0000 0.0000 0.0000
# 4 0.0000 0.0000 0.0000 28.5945 0.0000 0.0000
# 5 0.0000 0.0000 0.0000 0.0000 28.5945 0.0000
# 6 -3.3348 3.3348 0.0000 0.0000 0.0000 28.9839
#
#
#
# Elastic Compliance Matrix: (Units=1/GPa)
#
#
# Indices 1 2 3 4 5 6 
#
# 1 0.025714 -0.011594 -0.001999 0.000000 0.000000 0.004293
# 2 -0.011594 0.025714 -0.001999 0.000000 0.000000 -0.004293
# 3 -0.001999 -0.001999 0.007881 0.000000 0.000000 0.000000
# 4 0.000000 0.000000 0.000000 0.034972 0.000000 0.000000
# 5 0.000000 0.000000 0.000000 0.000000 0.034972 0.000000
# 6 0.004293 -0.004293 0.000000 0.000000 0.000000 0.035490
#
#
# Mechanical properties :
#
#
# Convention : Reuss Voigt Hill
#
# Bulk Modulus (GPa) = 35.55487 40.74596 38.15042
# Shear Modulus (GPa) = 24.35464 29.06873 26.71169
#
# Velocity S-wave (km/s) = 3.31204 3.61841 3.46860
# Velocity P-wave (km/s) = 5.53538 5.98411 5.76411
#
# Compressibility (1/GPa) = 0.02812554
#
# Stress axis : x y z
#
# Youngs Moduli (GPa) = 38.88954 38.88954 126.89135
#
# Poissons Ratio (x) = 0.45089 0.25361
# Poissons Ratio (y) = 0.45089 0.25361
# Poissons Ratio (z) = 0.07773 0.07773
#
# Static dielectric constant tensor:
#      x y z
#    x 1.967850 0.000000 0.000000 
#    y 0.000000 1.967850 0.000000 
#    z 0.000000 0.000000 1.957900 
# 
# From -- ./inp_files/272.got.cif
#   From: 2010.05.17/outbox.cif.g08.bks.cpg/sg79_cif.got.tgz:272.got - 2010.06.03 18:47:27.
