data_PCOD9541421
_publ_section_title
;
Structure prediction by ZEFSAII (Michael W. Deem and Ramdas Pophale) SiO2 
 PCOD9541421
Probable space group: P 41
;
_chemical_formula_sum "Si O2"
_cell_formula_units_Z 24
_cell_length_a 12.004537
_cell_length_b 12.004537
_cell_length_c 8.427053
_cell_angle_alpha 90.000000
_cell_angle_beta 90.000000
_cell_angle_gamma 90.000000
_cell_volume 1214.413410
_symmetry_space_group_name_H-M "P 41"
_symmetry_group_IT_number 76
_symmetry_cell_setting 'tetragonal'
loop_
_space_group_symop_operation_xyz
x,y,z
-y,x,1/4+z
-x,-y,1/2+z
y,-x,3/4+z
loop_
_atom_site_type_symbol
_atom_site_label
_atom_site_fract_x
_atom_site_fract_y
_atom_site_fract_z
Si Si1 0.623347 0.752556 0.021720
Si Si2 0.422496 0.680954 0.804174
Si Si3 0.910448 0.479678 0.013874
Si Si4 0.985666 0.327046 0.308772
Si Si5 0.217725 0.784074 0.991738
Si Si6 0.453660 0.699330 0.468363
O O1 0.580992 0.863667 0.107063
O O2 0.645449 0.659061 0.154248
O O3 0.533475 0.694029 0.905766
O O4 0.727814 0.785255 0.914613
O O5 0.436100 0.749603 0.642761
O O6 0.385462 0.557371 0.745866
O O7 0.325573 0.731344 0.908240
O O8 0.981345 0.582976 0.945915
O O9 0.961598 0.397446 0.146928
O O10 0.797888 0.521930 0.098051
O O11 0.883637 0.255930 0.380718
O O12 0.086645 0.243928 0.267317
#
# Coordination Sequence:
#
# PCOD9541421 Si02
#       6
#     4   4   4   4   4   4
#     4  12  23  43  65 107 142 188 229 290 355 438
#     4  12  24  38  64 101 150 180 220 284 351 438
#     4  12  25  44  71  99 143 184 242 285 359 436
#     4  12  26  48  72 104 139 197 244 306 361 426
#     4  12  26  47  70  99 142 181 248 294 356 419
#     4  12  24  36  64 104 142 186 225 271 358 433
#
# _framework density 19.762629
#
# number of rings (size 3 to 8) (size 9 to 14) (size 15 to 20)
#    0.000    0.000    8.333    1.000    4.667    0.000 
#    0.000    1.667    0.000    0.000    0.000    0.000 
#    0.000    0.000    0.000    0.000    0.000    0.000 
#
# Total GULP energy -134094.114146 kJ/mol
# GULP energy per Si atom -5587.254756 kJ/mol
# Density = 1.971765 g / cm^3
# Si number density = 19.762629 Si / 1000 Ang^3
#
#
#
# Elastic Constant Matrix: (Units=GPa)
#
#
# Indices 1 2 3 4 5 6 
#
# 1 63.8963 29.7712 7.7525 0.0000 0.0000 2.6172
# 2 29.7712 63.8963 7.7525 0.0000 0.0000 -2.6172
# 3 7.7525 7.7525 90.2715 0.0000 0.0000 0.0000
# 4 0.0000 0.0000 0.0000 14.6150 0.0000 0.0000
# 5 0.0000 0.0000 0.0000 0.0000 14.6150 0.0000
# 6 2.6172 -2.6172 0.0000 0.0000 0.0000 21.2448
#
#
#
# Elastic Compliance Matrix: (Units=1/GPa)
#
#
# Indices 1 2 3 4 5 6 
#
# 1 0.020349 -0.009519 -0.000930 0.000000 0.000000 -0.003680
# 2 -0.009519 0.020349 -0.000930 0.000000 0.000000 0.003680
# 3 -0.000930 -0.000930 0.011237 0.000000 0.000000 0.000000
# 4 0.000000 0.000000 0.000000 0.068423 0.000000 0.000000
# 5 0.000000 0.000000 0.000000 0.000000 0.068423 0.000000
# 6 -0.003680 0.003680 0.000000 0.000000 0.000000 0.047977
#
#
# Mechanical properties :
#
#
# Convention : Reuss Voigt Hill
#
# Bulk Modulus (GPa) = 34.27338 34.29072 34.28205
# Shear Modulus (GPa) = 18.57063 21.61417 20.09240
#
# Velocity S-wave (km/s) = 3.06875 3.31068 3.19201
# Velocity P-wave (km/s) = 5.47142 5.65713 5.56505
#
# Compressibility (1/GPa) = 0.02917716
#
# Stress axis : x y z
#
# Youngs Moduli (GPa) = 49.14205 49.14205 88.98817
#
# Poissons Ratio (x) = 0.46779 0.08277
# Poissons Ratio (y) = 0.46779 0.08277
# Poissons Ratio (z) = 0.04571 0.04571
#
# Static dielectric constant tensor:
#      x y z
#    x 1.708000 0.000000 0.000000 
#    y 0.000000 1.708000 0.000000 
#    z 0.000000 0.000000 1.763750 
# 
# From -- ./inp_files/545.got.cif
#   From: 2010.05.17/outbox.cif.g08.bks.cpg/sg76_cif.got.tgz:545.got - 2010.06.03 18:43:17.
