data_PCOD9541514
_publ_section_title
;
Structure prediction by ZEFSAII (Michael W. Deem and Ramdas Pophale) SiO2 
 PCOD9541514
Probable space group: P 42
;
_chemical_formula_sum "Si O2"
_cell_formula_units_Z 20
_cell_length_a 8.633946
_cell_length_b 8.633946
_cell_length_c 11.624725
_cell_angle_alpha 90.000000
_cell_angle_beta 90.000000
_cell_angle_gamma 90.000000
_cell_volume 866.565399
_symmetry_space_group_name_H-M "P 42"
_symmetry_group_IT_number 77
_symmetry_cell_setting 'tetragonal'
loop_
_space_group_symop_operation_xyz
x,y,z
-y,x,1/2+z
-x,-y,z
y,-x,1/2+z
loop_
_atom_site_type_symbol
_atom_site_label
_atom_site_fract_x
_atom_site_fract_y
_atom_site_fract_z
Si Si1 0.180861 0.683265 0.378750
Si Si2 0.189798 0.810201 0.134597
Si Si3 0.066692 0.675077 0.761830
Si Si4 0.316735 0.819139 0.890444
Si Si5 0.324923 0.933307 0.507364
O O1 0.240760 0.726428 0.251206
O O2 0.179193 0.500000 0.384597
O O3 0.288173 0.755466 0.479787
O O4 0.000000 0.737359 0.384597
O O5 0.012266 0.769407 0.109083
O O6 0.230593 0.987733 0.160111
O O7 0.273572 0.759240 0.017988
O O8 0.244533 0.711827 0.789407
O O9 0.000000 0.500000 0.749776
O O10 1.000000 0.734720 0.884597
O O11 0.500000 0.000000 0.519418
#
# Coordination Sequence:
#
# PCOD9541514 Si02
#       5
#     4   4   4   4   4
#     4  10  23  42  65 102 139 171 232 287 339 419
#     4  10  22  41  67  96 134 186 221 281 354 392
#     4   9  20  40  64  93 129 176 228 275 336 414
#     4  10  23  42  65 102 139 171 232 287 339 419
#     4   9  20  40  64  93 129 176 228 275 336 414
#
# _framework density 23.079619000000001
#
# number of rings (size 3 to 8) (size 9 to 14) (size 15 to 20)
#    0.000    2.400    0.000    0.000    5.600   10.400 
#    0.000   18.000    0.000    0.000    0.000    0.000 
#    0.000    0.000    0.000    0.000    0.000    0.000 
#
# Total GULP energy -111481.665895 kJ/mol
# GULP energy per Si atom -5574.083295 kJ/mol
# Density = 2.302709 g / cm^3
# Si number density = 23.079619 Si / 1000 Ang^3
#
#
#
# Elastic Constant Matrix: (Units=GPa)
#
#
# Indices 1 2 3 4 5 6 
#
# 1 108.7492 77.5284 37.0386 0.0000 0.0000 0.0000
# 2 77.5284 108.7492 37.0386 0.0000 0.0000 0.0000
# 3 37.0386 37.0386 109.9417 0.0000 0.0000 0.0000
# 4 0.0000 0.0000 0.0000 25.8714 0.0000 0.0000
# 5 0.0000 0.0000 0.0000 0.0000 25.8714 0.0000
# 6 0.0000 0.0000 0.0000 0.0000 0.0000 28.2351
#
#
#
# Elastic Compliance Matrix: (Units=1/GPa)
#
#
# Indices 1 2 3 4 5 6 
#
# 1 0.019114 -0.012916 -0.002088 0.000000 0.000000 0.000000
# 2 -0.012916 0.019114 -0.002088 0.000000 0.000000 0.000000
# 3 -0.002088 -0.002088 0.010503 0.000000 0.000000 0.000000
# 4 0.000000 0.000000 0.000000 0.038653 0.000000 0.000000
# 5 0.000000 0.000000 0.000000 0.000000 0.038653 0.000000
# 6 0.000000 0.000000 0.000000 0.000000 0.000000 0.035417
#
#
# Mechanical properties :
#
#
# Convention : Reuss Voigt Hill
#
# Bulk Modulus (GPa) = 68.74228 70.07237 69.40733
# Shear Modulus (GPa) = 24.93923 27.71788 26.32856
#
# Velocity S-wave (km/s) = 3.29077 3.46926 3.38119
# Velocity P-wave (km/s) = 6.65496 6.81724 6.73659
#
# Compressibility (1/GPa) = 0.01454709
#
# Stress axis : x y z
#
# Youngs Moduli (GPa) = 52.31667 52.31667 95.21249
#
# Poissons Ratio (x) = 0.67570 0.19884
# Poissons Ratio (y) = 0.67570 0.19884
# Poissons Ratio (z) = 0.10925 0.10925
#
# Static dielectric constant tensor:
#      x y z
#    x 2.016220 0.000000 0.000000 
#    y 0.000000 2.016220 0.000000 
#    z 0.000000 0.000000 1.867700 
# 
# From -- ./inp_files/784.got.cif
#   From: 2010.05.17/outbox.cif.g08.bks.cpg/sg77_cif.got.tgz:784.got - 2010.06.03 18:44:51.
