data_PCOD9541792
_publ_section_title
;
Structure prediction by ZEFSAII (Michael W. Deem and Ramdas Pophale) SiO2 
 PCOD9541792
Probable space group: P 43
;
_chemical_formula_sum "Si O2"
_cell_formula_units_Z 32
_cell_length_a 7.037478
_cell_length_b 7.037478
_cell_length_c 22.239490
_cell_angle_alpha 90.000000
_cell_angle_beta 90.000000
_cell_angle_gamma 90.000000
_cell_volume 1101.435130
_symmetry_space_group_name_H-M "P 43"
_symmetry_group_IT_number 78
_symmetry_cell_setting 'tetragonal'
loop_
_space_group_symop_operation_xyz
x,y,z
-y,x,3/4+z
-x,-y,1/2+z
y,-x,1/4+z
loop_
_atom_site_type_symbol
_atom_site_label
_atom_site_fract_x
_atom_site_fract_y
_atom_site_fract_z
Si Si1 0.918373 0.873071 0.023380
Si Si2 0.848345 0.651655 0.308852
Si Si3 0.928461 0.428461 0.058852
Si Si4 0.536089 0.092234 0.432638
Si Si5 0.020392 0.841567 0.901182
Si Si6 0.407766 0.963911 0.185066
Si Si7 0.658433 0.479608 0.716522
Si Si8 0.626929 0.581627 0.594324
O O1 0.146244 0.877945 0.029369
O O2 0.882466 0.650092 0.039796
O O3 0.850104 0.003439 0.079143
O O4 0.891433 0.934970 0.953773
O O5 0.987093 0.668825 0.367001
O O6 0.646244 0.622055 0.338334
O O7 0.831175 0.512907 0.250703
O O8 0.834666 0.419192 0.124994
O O9 0.150092 0.382466 0.077907
O O10 0.919193 0.334666 0.992709
O O11 0.507280 0.873373 0.446431
O O12 0.757902 0.101001 0.411029
O O13 0.007280 0.626627 0.921272
O O14 0.398998 0.742098 0.206674
O O15 0.565030 0.608568 0.663931
O O16 0.649895 0.503439 0.788560
#
# Coordination Sequence:
#
# PCOD9541792 Si02
#       8
#     4   4   4   4   4   4   4   4
#     4   8  14  24  40  61  83 105 136 174 212 246
#     4   9  16  26  42  64  86 107 138 175 214 256
#     4   7  12  22  36  58  78  99 130 169 204 232
#     4   9  15  24  41  62  84 107 139 179 210 244
#     4   9  15  25  42  63  85 109 141 180 213 246
#     4   9  15  24  41  62  84 107 139 179 210 244
#     4   9  15  25  42  63  85 109 141 180 213 246
#     4   8  14  24  40  61  83 105 136 174 212 246
#
# _framework density 29.053004000000001
#
# number of rings (size 3 to 8) (size 9 to 14) (size 15 to 20)
#    0.000    3.500    0.000    4.500    0.000    0.000 
#    0.000    0.000    0.000   21.000    0.000    0.000 
#    0.000    0.000    0.000    0.000    0.000    0.000 
#
# Total GULP energy -178430.262272 kJ/mol
# GULP energy per Si atom -5575.945696 kJ/mol
# Density = 2.898688 g / cm^3
# Si number density = 29.053004 Si / 1000 Ang^3
#
#
#
# Elastic Constant Matrix: (Units=GPa)
#
#
# Indices 1 2 3 4 5 6 
#
# 1 21.8570 67.0647 37.8146 0.0000 0.0000 0.0015
# 2 67.0647 21.8570 37.8146 0.0000 0.0000 -0.0015
# 3 37.8146 37.8146 315.1497 0.0000 0.0000 0.0000
# 4 0.0000 0.0000 0.0000 47.9300 0.0000 0.0000
# 5 0.0000 0.0000 0.0000 0.0000 47.9300 0.0000
# 6 0.0015 -0.0015 0.0000 0.0000 0.0000 -19.0211
#
#
#
# Elastic Compliance Matrix: (Units=1/GPa)
#
#
# Indices 1 2 3 4 5 6 
#
# 1 -0.004798 0.017322 -0.001503 0.000000 0.000000 -0.000002
# 2 0.017322 -0.004798 -0.001503 0.000000 0.000000 0.000002
# 3 -0.001503 -0.001503 0.003534 0.000000 0.000000 0.000000
# 4 0.000000 0.000000 0.000000 0.020864 0.000000 0.000000
# 5 0.000000 0.000000 0.000000 0.000000 0.020864 0.000000
# 6 -0.000002 0.000002 0.000000 0.000000 0.000000 -0.052573
#
#
# Mechanical properties :
#
#
# Convention : Reuss Voigt Hill
#
# Bulk Modulus (GPa) = 44.30533 71.58352 57.94443
# Shear Modulus (GPa) = -131.51733 29.77911 -50.86911
#
# Velocity S-wave (km/s) = -6.73545 3.20502 -4.18892
# Velocity P-wave (km/s) = 6.72350 6.19586 1.84619
#
# Compressibility (1/GPa) = 0.02257065
#
# Stress axis : x y z
#
# Youngs Moduli (GPa) = -208.41628 -208.41628 282.98778
#
# Poissons Ratio (x) = 3.61019 0.42526
# Poissons Ratio (y) = 3.61019 0.42526
# Poissons Ratio (z) = -0.31320 -0.31320
#
# Static dielectric constant tensor:
#      x y z
#    x 2.318270 0.000000 0.000000 
#    y 0.000000 2.318270 0.000000 
#    z 0.000000 0.000000 2.789670 
# 
# From -- ./inp_files/1609.got.cif
#   From: 2010.05.17/outbox.cif.g08.bks.cpg/sg78_cif.got.tgz:1609.got - 2010.06.03 18:45:56.
