data_PCOD9541981
_publ_section_title
;
Structure prediction by ZEFSAII (Michael W. Deem and Ramdas Pophale) SiO2 
 PCOD9541981
Probable space group: I 4
;
_chemical_formula_sum "Si O2"
_cell_formula_units_Z 38
_cell_length_a 8.510468
_cell_length_b 8.510468
_cell_length_c 23.923824
_cell_angle_alpha 90.000000
_cell_angle_beta 90.000000
_cell_angle_gamma 90.000000
_cell_volume 1732.756294
_symmetry_space_group_name_H-M "I 4"
_symmetry_group_IT_number 79
_symmetry_cell_setting 'tetragonal'
loop_
_space_group_symop_operation_xyz
x,y,z
-y,x,z
-x,-y,z
y,-x,z
1/2+x,1/2+y,1/2+z
1/2-y,1/2+x,1/2+z
1/2-x,1/2-y,1/2+z
1/2+y,1/2-x,1/2+z
loop_
_atom_site_type_symbol
_atom_site_label
_atom_site_fract_x
_atom_site_fract_y
_atom_site_fract_z
Si Si1 0.000000 0.500000 0.116640
Si Si2 0.249588 0.580683 0.202272
Si Si3 0.729191 0.613851 0.797922
Si Si4 0.500000 0.500000 0.381086
Si Si5 0.751260 0.092174 0.032492
Si Si6 0.096210 0.340550 0.905218
O O1 0.885915 0.398758 0.156471
O O2 0.894974 0.613683 0.077743
O O3 0.310151 0.402649 0.196637
O O4 0.180278 0.625194 0.262660
O O5 0.568224 0.702784 0.783237
O O6 0.759676 0.637398 0.863284
O O7 0.493115 0.692116 0.385353
O O8 0.909845 0.193433 0.037686
O O9 0.688304 0.128126 0.970546
O O10 0.000000 0.500000 0.900083
#
# Coordination Sequence:
#
# PCOD9541981 Si02
#       6
#     4   8   8   2   8   8
#     4  12  24  44  68  98 136 178 232 306 356 424
#     4  11  26  45  70 100 133 181 237 291 363 439
#     4  11  27  46  69 103 141 179 232 298 364 436
#     4  12  24  44  72 104 152 188 244 296 368 450
#     4  11  23  42  68  99 134 182 234 285 356 437
#     4  12  24  41  70 108 142 188 240 292 360 448
#
# _framework density 21.930377
#
# number of rings (size 3 to 8) (size 9 to 14) (size 15 to 20)
#    0.000    0.632    3.158    3.789    7.368    0.000 
#    0.000    2.105    0.000    2.526    0.000    0.000 
#    0.000    0.000    0.000    0.000    0.000    0.000 
#
# Total GULP energy -106012.898910 kJ/mol
# GULP energy per Si atom -5579.626258 kJ/mol
# Density = 2.188046 g / cm^3
# Si number density = 21.930377 Si / 1000 Ang^3
#
#
#
# Elastic Constant Matrix: (Units=GPa)
#
#
# Indices 1 2 3 4 5 6 
#
# 1 83.9114 7.3442 31.8873 0.0000 0.0000 4.8981
# 2 7.3442 83.9114 31.8873 0.0000 0.0000 -4.8981
# 3 31.8873 31.8873 120.8717 0.0000 0.0000 0.0000
# 4 0.0000 0.0000 0.0000 21.3509 0.0000 0.0000
# 5 0.0000 0.0000 0.0000 0.0000 21.3509 0.0000
# 6 4.8981 -4.8981 0.0000 0.0000 0.0000 25.2424
#
#
#
# Elastic Compliance Matrix: (Units=1/GPa)
#
#
# Indices 1 2 3 4 5 6 
#
# 1 0.013414 0.000021 -0.003544 0.000000 0.000000 -0.002599
# 2 0.000021 0.013414 -0.003544 0.000000 0.000000 0.002599
# 3 -0.003544 -0.003544 0.010143 0.000000 0.000000 0.000000
# 4 0.000000 0.000000 0.000000 0.046837 0.000000 0.000000
# 5 0.000000 0.000000 0.000000 0.000000 0.046837 0.000000
# 6 -0.002599 0.002599 0.000000 0.000000 0.000000 0.040625
#
#
# Mechanical properties :
#
#
# Convention : Reuss Voigt Hill
#
# Bulk Modulus (GPa) = 43.78985 47.88133 45.83559
# Shear Modulus (GPa) = 25.90455 28.09386 26.99920
#
# Velocity S-wave (km/s) = 3.44061 3.58306 3.51256
# Velocity P-wave (km/s) = 5.98287 6.24487 6.11528
#
# Compressibility (1/GPa) = 0.02283634
#
# Stress axis : x y z
#
# Youngs Moduli (GPa) = 74.54852 74.54851 98.58696
#
# Poissons Ratio (x) = -0.00158 0.34943
# Poissons Ratio (y) = -0.00158 0.34943
# Poissons Ratio (z) = 0.26423 0.26423
#
# Static dielectric constant tensor:
#      x y z
#    x 1.796380 0.000000 0.000000 
#    y 0.000000 1.796380 0.000000 
#    z 0.000000 0.000000 1.812150 
# 
# From -- ./inp_files/1925.got.cif
#   From: 2010.05.17/outbox.cif.g08.bks.cpg/sg79_cif.got.tgz:1925.got - 2010.06.03 18:47:27.
