data_PCOD9541756
_publ_section_title
;
Structure prediction by ZEFSAII (Michael W. Deem and Ramdas Pophale) SiO2 
 PCOD9541756
Probable space group: P 43
;
_chemical_formula_sum "Si O2"
_cell_formula_units_Z 20
_cell_length_a 5.287830
_cell_length_b 5.287830
_cell_length_c 25.155909
_cell_angle_alpha 90.000000
_cell_angle_beta 90.000000
_cell_angle_gamma 90.000000
_cell_volume 703.388047
_symmetry_space_group_name_H-M "P 43"
_symmetry_group_IT_number 78
_symmetry_cell_setting 'tetragonal'
loop_
_space_group_symop_operation_xyz
x,y,z
-y,x,3/4+z
-x,-y,1/2+z
y,-x,1/4+z
loop_
_atom_site_type_symbol
_atom_site_label
_atom_site_fract_x
_atom_site_fract_y
_atom_site_fract_z
Si Si1 0.639925 0.005545 0.913670
Si Si2 0.476267 0.058000 0.564645
Si Si3 0.503235 0.622854 0.210783
Si Si4 0.981842 0.122241 0.492689
Si Si5 0.377331 0.441389 0.085438
O O1 0.485001 0.245480 0.937135
O O2 0.920087 0.017830 0.939315
O O3 0.608587 0.086556 0.851984
O O4 0.514115 0.749576 0.935207
O O5 0.219319 0.093235 0.532135
O O6 0.472410 0.808210 0.600059
O O7 0.732799 0.042682 0.527308
O O8 0.524821 0.288466 0.604285
O O9 0.470773 0.554578 0.273419
O O10 0.598421 0.910961 0.220782
#
# Coordination Sequence:
#
# PCOD9541756 Si02
#       5
#     4   4   4   4   4
#     4  12  27  46  78 111 153 202 260 317 391 467
#     4  11  26  44  79  98 156 191 256 309 389 450
#     4  11  25  50  73 109 153 199 251 327 378 461
#     4  11  23  50  73 109 145 203 245 315 384 452
#     4  11  25  50  71 113 143 207 248 318 388 468
#
# _framework density 28.433805
#
# number of rings (size 3 to 8) (size 9 to 14) (size 15 to 20)
#    0.000    0.800    6.000    0.000    2.800   14.400 
#    0.000    0.000    0.000    0.000    0.000    0.000 
#    0.000    0.000    0.000    0.000    0.000    0.000 
#
# Total GULP energy -111693.578213 kJ/mol
# GULP energy per Si atom -5584.678911 kJ/mol
# Density = 2.836909 g / cm^3
# Si number density = 28.433805 Si / 1000 Ang^3
#
#
#
# Elastic Constant Matrix: (Units=GPa)
#
#
# Indices 1 2 3 4 5 6 
#
# 1 200.1586 53.1134 40.2211 0.0000 0.0000 -1.3292
# 2 53.1134 200.1586 40.2211 0.0000 0.0000 1.3292
# 3 40.2211 40.2211 86.2444 0.0000 0.0000 0.0000
# 4 0.0000 0.0000 0.0000 52.4398 0.0000 0.0000
# 5 0.0000 0.0000 0.0000 0.0000 52.4398 0.0000
# 6 -1.3292 1.3292 0.0000 0.0000 0.0000 46.6588
#
#
#
# Elastic Compliance Matrix: (Units=1/GPa)
#
#
# Indices 1 2 3 4 5 6 
#
# 1 0.005719 -0.001085 -0.002162 0.000000 0.000000 0.000194
# 2 -0.001085 0.005719 -0.002162 0.000000 0.000000 -0.000194
# 3 -0.002162 -0.002162 0.013611 0.000000 0.000000 0.000000
# 4 0.000000 0.000000 0.000000 0.019069 0.000000 0.000000
# 5 0.000000 0.000000 0.000000 0.000000 0.019069 0.000000
# 6 0.000194 -0.000194 0.000000 0.000000 0.000000 0.021443
#
#
# Mechanical properties :
#
#
# Convention : Reuss Voigt Hill
#
# Bulk Modulus (GPa) = 70.25096 83.74142 76.99619
# Shear Modulus (GPa) = 49.90396 53.84142 51.87269
#
# Velocity S-wave (km/s) = 4.19393 4.35624 4.27585
# Velocity P-wave (km/s) = 6.94352 7.40390 7.17740
#
# Compressibility (1/GPa) = 0.01423468
#
# Stress axis : x y z
#
# Youngs Moduli (GPa) = 174.84073 174.84073 73.46975
#
# Poissons Ratio (x) = 0.18964 0.15881
# Poissons Ratio (y) = 0.18964 0.15881
# Poissons Ratio (z) = 0.37792 0.37792
#
# Static dielectric constant tensor:
#      x y z
#    x 2.287160 0.000000 0.000000 
#    y 0.000000 2.287160 0.000000 
#    z 0.000000 0.000000 2.507970 
# 
# From -- ./inp_files/1715.got.cif
#   From: 2010.05.17/outbox.cif.g08.bks.cpg/sg78_cif.got.tgz:1715.got - 2010.06.03 18:45:56.
