data_PCOD9541833
_publ_section_title
;
Structure prediction by ZEFSAII (Michael W. Deem and Ramdas Pophale) SiO2 
 PCOD9541833
Probable space group: I 4
;
_chemical_formula_sum "Si O2"
_cell_formula_units_Z 42
_cell_length_a 15.951885
_cell_length_b 15.951885
_cell_length_c 7.174101
_cell_angle_alpha 90.000000
_cell_angle_beta 90.000000
_cell_angle_gamma 90.000000
_cell_volume 1825.540645
_symmetry_space_group_name_H-M "I 4"
_symmetry_group_IT_number 79
_symmetry_cell_setting 'tetragonal'
loop_
_space_group_symop_operation_xyz
x,y,z
-y,x,z
-x,-y,z
y,-x,z
1/2+x,1/2+y,1/2+z
1/2-y,1/2+x,1/2+z
1/2-x,1/2-y,1/2+z
1/2+y,1/2-x,1/2+z
loop_
_atom_site_type_symbol
_atom_site_label
_atom_site_fract_x
_atom_site_fract_y
_atom_site_fract_z
Si Si1 0.577378 0.813966 0.440150
Si Si2 0.500000 0.500000 0.635849
Si Si3 0.166162 0.698637 0.905575
Si Si4 0.740418 0.661534 0.982391
Si Si5 0.047405 0.802988 0.163942
Si Si6 0.088583 0.457026 0.237345
O O1 0.673677 0.798281 0.398375
O O2 0.530970 0.747810 0.573958
O O3 0.523328 0.836140 0.259678
O O4 0.582180 0.901507 0.553457
O O5 0.533374 0.401213 0.638371
O O6 0.262572 0.676935 0.943273
O O7 0.153728 0.739604 0.700330
O O8 0.109101 0.615315 0.897904
O O9 0.126252 0.763704 0.050537
O O10 0.716597 0.576496 0.876142
O O11 0.000000 0.500000 0.262313
#
# Coordination Sequence:
#
# PCOD9541833 Si02
#       6
#     8   2   8   8   8   8
#     4  10  22  39  66  98 136 178 223 282 353 412
#     4  12  28  48  74  92 140 194 240 300 358 412
#     4  10  22  40  68 102 131 184 228 280 345 415
#     4  11  21  42  69 102 137 178 236 282 340 428
#     4  11  24  45  68 100 137 182 236 292 347 421
#     4  10  20  35  58  96 136 169 214 267 341 410
#
# _framework density 23.006882000000001
#
# number of rings (size 3 to 8) (size 9 to 14) (size 15 to 20)
#    0.000    1.524    1.905    2.857    2.667    3.048 
#    0.000   12.381    0.000    0.000    0.000    0.000 
#    0.000    0.000    0.000    0.000    0.000    0.000 
#
# Total GULP energy -116984.212390 kJ/mol
# GULP energy per Si atom -5570.676780 kJ/mol
# Density = 2.295452 g / cm^3
# Si number density = 23.006882 Si / 1000 Ang^3
#
#
#
# Elastic Constant Matrix: (Units=GPa)
#
#
# Indices 1 2 3 4 5 6 
#
# 1 86.0517 13.6724 19.7349 0.0000 0.0000 2.8290
# 2 13.6724 86.0517 19.7349 0.0000 0.0000 -2.8290
# 3 19.7349 19.7349 92.5598 0.0000 0.0000 0.0000
# 4 0.0000 0.0000 0.0000 20.9159 0.0000 0.0000
# 5 0.0000 0.0000 0.0000 0.0000 20.9159 0.0000
# 6 2.8290 -2.8290 0.0000 0.0000 0.0000 38.5723
#
#
#
# Elastic Compliance Matrix: (Units=1/GPa)
#
#
# Indices 1 2 3 4 5 6 
#
# 1 0.012424 -0.001472 -0.002335 0.000000 0.000000 -0.001019
# 2 -0.001472 0.012424 -0.002335 0.000000 0.000000 0.001019
# 3 -0.002335 -0.002335 0.011800 0.000000 0.000000 0.000000
# 4 0.000000 0.000000 0.000000 0.047811 0.000000 0.000000
# 5 0.000000 0.000000 0.000000 0.000000 0.047811 0.000000
# 6 -0.001019 0.001019 0.000000 0.000000 0.000000 0.026075
#
#
# Mechanical properties :
#
#
# Convention : Reuss Voigt Hill
#
# Bulk Modulus (GPa) = 41.04584 41.21638 41.13111
# Shear Modulus (GPa) = 27.97228 30.18221 29.07725
#
# Velocity S-wave (km/s) = 3.49065 3.62591 3.55892
# Velocity P-wave (km/s) = 5.84171 5.95679 5.89953
#
# Compressibility (1/GPa) = 0.02436300
#
# Stress axis : x y z
#
# Youngs Moduli (GPa) = 80.49054 80.49054 84.74893
#
# Poissons Ratio (x) = 0.11848 0.19789
# Poissons Ratio (y) = 0.11848 0.19789
# Poissons Ratio (z) = 0.18795 0.18795
#
# Static dielectric constant tensor:
#      x y z
#    x 1.920260 0.000000 0.000000 
#    y 0.000000 1.920260 0.000000 
#    z 0.000000 0.000000 1.907560 
# 
# From -- ./inp_files/583.got.cif
#   From: 2010.05.17/outbox.cif.g08.bks.cpg/sg79_cif.got.tgz:583.got - 2010.06.03 18:47:27.
