data_PCOD9541808
_publ_section_title
;
Structure prediction by ZEFSAII (Michael W. Deem and Ramdas Pophale) SiO2 
 PCOD9541808
Probable space group: I 4
;
_chemical_formula_sum "Si O2"
_cell_formula_units_Z 64
_cell_length_a 21.574099
_cell_length_b 21.574099
_cell_length_c 8.438576
_cell_angle_alpha 90.000000
_cell_angle_beta 90.000000
_cell_angle_gamma 90.000000
_cell_volume 3927.665561
_symmetry_space_group_name_H-M "I 4"
_symmetry_group_IT_number 79
_symmetry_cell_setting 'tetragonal'
loop_
_space_group_symop_operation_xyz
x,y,z
-y,x,z
-x,-y,z
y,-x,z
1/2+x,1/2+y,1/2+z
1/2-y,1/2+x,1/2+z
1/2-x,1/2-y,1/2+z
1/2+y,1/2-x,1/2+z
loop_
_atom_site_type_symbol
_atom_site_label
_atom_site_fract_x
_atom_site_fract_y
_atom_site_fract_z
Si Si1 0.188880 0.357368 0.077390
Si Si2 0.564486 0.188883 0.374265
Si Si3 0.114337 0.536908 0.195349
Si Si4 0.680724 0.147476 0.575095
Si Si5 0.733924 0.654682 0.777981
Si Si6 0.014925 0.742658 0.177821
Si Si7 0.966309 0.378281 0.380983
Si Si8 0.754982 0.122724 0.259734
O O1 0.215650 0.396591 0.226119
O O2 0.147917 0.301408 0.148235
O O3 0.242612 0.336193 0.958067
O O4 0.147560 0.405340 0.973810
O O5 0.519056 0.138910 0.299850
O O6 0.615409 0.157105 0.485232
O O7 0.526311 0.233586 0.490451
O O8 0.167854 0.589696 0.189597
O O9 0.054012 0.565573 0.272496
O O10 0.105625 0.514331 0.016745
O O11 0.686202 0.211583 0.671252
O O12 0.730139 0.130833 0.440525
O O13 0.730856 0.580652 0.742675
O O14 0.669894 0.688255 0.742324
O O15 0.010327 0.676029 0.266231
O O16 0.948317 0.771664 0.218610
#
# Coordination Sequence:
#
# PCOD9541808 Si02
#       8
#     8   8   8   8   8   8   8   8
#     4   9  18  32  52  75 102 136 171 221 267 302
#     4   9  19  31  51  70 101 139 176 209 251 306
#     4  11  18  34  50  68  96 143 178 214 251 295
#     4  10  19  34  51  73 102 134 172 217 259 306
#     4  10  20  35  51  79 109 131 172 223 263 316
#     4  10  19  33  53  74 100 137 168 214 269 319
#     4  10  19  33  52  67 101 137 181 216 256 305
#     4  11  20  32  56  78 102 138 171 217 273 320
#
# _framework density 16.294665999999999
#
# number of rings (size 3 to 8) (size 9 to 14) (size 15 to 20)
#    0.000    2.000    5.000    1.500    0.000    0.000 
#    0.000    1.875    0.000    0.375    0.000    0.000 
#    0.000    0.000    8.500    0.000    0.000    0.000 
#
# Total GULP energy -178360.878241 kJ/mol
# GULP energy per Si atom -5573.777445 kJ/mol
# Density = 1.625758 g / cm^3
# Si number density = 16.294666 Si / 1000 Ang^3
#
#
#
# Elastic Constant Matrix: (Units=GPa)
#
#
# Indices 1 2 3 4 5 6 
#
# 1 55.2314 29.4729 21.5515 0.0000 0.0000 -8.0128
# 2 29.4729 55.2314 21.5515 0.0000 0.0000 8.0128
# 3 21.5515 21.5515 79.3549 0.0000 0.0000 0.0000
# 4 0.0000 0.0000 0.0000 14.2926 0.0000 0.0000
# 5 0.0000 0.0000 0.0000 0.0000 14.2926 0.0000
# 6 -8.0128 8.0128 0.0000 0.0000 0.0000 17.7122
#
#
#
# Elastic Compliance Matrix: (Units=1/GPa)
#
#
# Indices 1 2 3 4 5 6 
#
# 1 0.033864 -0.020165 -0.003720 0.000000 0.000000 0.024442
# 2 -0.020165 0.033864 -0.003720 0.000000 0.000000 -0.024442
# 3 -0.003720 -0.003720 0.014622 0.000000 0.000000 0.000000
# 4 0.000000 0.000000 0.000000 0.069966 0.000000 0.000000
# 5 0.000000 0.000000 0.000000 0.000000 0.069966 0.000000
# 6 0.024442 -0.024442 0.000000 0.000000 0.000000 0.078573
#
#
# Mechanical properties :
#
#
# Convention : Reuss Voigt Hill
#
# Bulk Modulus (GPa) = 36.84776 37.21883 37.03330
# Shear Modulus (GPa) = 13.69437 17.07560 15.38498
#
# Velocity S-wave (km/s) = 2.90215 3.24068 3.07607
# Velocity P-wave (km/s) = 5.82172 6.07399 5.94919
#
# Compressibility (1/GPa) = 0.02713869
#
# Stress axis : x y z
#
# Youngs Moduli (GPa) = 29.52996 29.52996 68.38807
#
# Poissons Ratio (x) = 0.59547 0.25443
# Poissons Ratio (y) = 0.59547 0.25443
# Poissons Ratio (z) = 0.10986 0.10986
#
# Static dielectric constant tensor:
#      x y z
#    x 1.557300 0.000000 0.000000 
#    y 0.000000 1.557300 0.000000 
#    z 0.000000 0.000000 1.589210 
# 
# From -- ./inp_files/800.got.cif
#   From: 2010.05.17/outbox.cif.g08.bks.cpg/sg79_cif.got.tgz:800.got - 2010.06.03 18:47:27.
