data_PCOD9541963
_publ_section_title
;
Structure prediction by ZEFSAII (Michael W. Deem and Ramdas Pophale) SiO2 
 PCOD9541963
Probable space group: I 4
;
_chemical_formula_sum "Si O2"
_cell_formula_units_Z 48
_cell_length_a 9.257998
_cell_length_b 9.257998
_cell_length_c 28.727499
_cell_angle_alpha 90.000000
_cell_angle_beta 90.000000
_cell_angle_gamma 90.000000
_cell_volume 2462.249078
_symmetry_space_group_name_H-M "I 4"
_symmetry_group_IT_number 79
_symmetry_cell_setting 'tetragonal'
loop_
_space_group_symop_operation_xyz
x,y,z
-y,x,z
-x,-y,z
y,-x,z
1/2+x,1/2+y,1/2+z
1/2-y,1/2+x,1/2+z
1/2-x,1/2-y,1/2+z
1/2+y,1/2-x,1/2+z
loop_
_atom_site_type_symbol
_atom_site_label
_atom_site_fract_x
_atom_site_fract_y
_atom_site_fract_z
Si Si1 0.889907 0.219989 0.248310
Si Si2 0.224047 0.902024 0.673358
Si Si3 0.382172 0.287313 0.326227
Si Si4 0.169650 0.639149 0.430414
Si Si5 0.143581 0.635406 0.971921
Si Si6 0.929513 0.767595 0.566484
O O1 0.838957 0.322605 0.205922
O O2 0.829817 0.307122 0.293007
O O3 0.061678 0.187522 0.247593
O O4 0.276256 0.900573 0.619728
O O5 0.070950 0.817410 0.681257
O O6 0.554382 0.310202 0.318516
O O7 0.361135 0.233610 0.379066
O O8 0.217867 0.776089 0.459094
O O9 0.223218 0.498127 0.458046
O O10 0.998283 0.641719 0.436325
O O11 0.152521 0.595251 0.025838
O O12 0.092033 0.827103 0.560999
#
# Coordination Sequence:
#
# PCOD9541963 Si02
#       6
#     8   8   8   8   8   8
#     4  11  26  44  62  92 130 162 202 256 316 373
#     4   9  19  39  67  96 123 160 210 257 309 368
#     4  11  24  43  67  91 121 163 209 256 311 372
#     4  11  24  38  61  90 126 166 209 254 305 365
#     4  11  22  39  59  91 128 167 209 252 305 361
#     4   9  17  35  63  92 124 164 209 257 303 359
#
# _framework density 19.494371000000001
#
# number of rings (size 3 to 8) (size 9 to 14) (size 15 to 20)
#    0.000    1.667    3.333    2.000    2.333    4.667 
#    3.000    0.000    0.000    0.000    0.000    0.000 
#    0.000    0.000    0.000    0.000    0.000    0.000 
#
# Total GULP energy -133791.484711 kJ/mol
# GULP energy per Si atom -5574.645196 kJ/mol
# Density = 1.945000 g / cm^3
# Si number density = 19.494371 Si / 1000 Ang^3
#
#
#
# Elastic Constant Matrix: (Units=GPa)
#
#
# Indices 1 2 3 4 5 6 
#
# 1 52.6774 15.3595 28.4767 0.0000 0.0000 -2.8361
# 2 15.3595 52.6774 28.4767 0.0000 0.0000 2.8361
# 3 28.4767 28.4767 120.2944 0.0000 0.0000 0.0000
# 4 0.0000 0.0000 0.0000 -60.5327 0.0000 0.0000
# 5 0.0000 0.0000 0.0000 0.0000 -60.5327 0.0000
# 6 -2.8361 2.8361 0.0000 0.0000 0.0000 31.6131
#
#
#
# Elastic Compliance Matrix: (Units=1/GPa)
#
#
# Indices 1 2 3 4 5 6 
#
# 1 0.022749 -0.004419 -0.004339 0.000000 0.000000 0.002437
# 2 -0.004419 0.022749 -0.004339 0.000000 0.000000 -0.002437
# 3 -0.004339 -0.004339 0.010367 0.000000 0.000000 0.000000
# 4 0.000000 0.000000 0.000000 -0.016520 0.000000 0.000000
# 5 0.000000 0.000000 0.000000 0.000000 -0.016520 0.000000
# 6 0.002437 -0.002437 0.000000 0.000000 0.000000 0.032070
#
#
# Mechanical properties :
#
#
# Convention : Reuss Voigt Hill
#
# Bulk Modulus (GPa) = 33.70300 41.14164 37.42232
# Shear Modulus (GPa) = 54.95784 -7.66804 23.64490
#
# Velocity S-wave (km/s) = 5.31534 -1.98545 3.48646
# Velocity P-wave (km/s) = 7.41597 3.98675 5.95360
#
# Compressibility (1/GPa) = 0.02967095
#
# Stress axis : x y z
#
# Youngs Moduli (GPa) = 43.95845 43.95846 96.45670
#
# Poissons Ratio (x) = 0.19423 0.41855
# Poissons Ratio (y) = 0.19423 0.41855
# Poissons Ratio (z) = 0.19075 0.19075
#
# Static dielectric constant tensor:
#      x y z
#    x 2.092520 0.000000 0.000000 
#    y 0.000000 2.092520 0.000000 
#    z 0.000000 0.000000 1.682490 
# 
# From -- ./inp_files/2132.got.cif
#   From: 2010.05.17/outbox.cif.g08.bks.cpg/sg79_cif.got.tgz:2132.got - 2010.06.03 18:47:27.
