data_PCOD9541173
_publ_section_title
;
Structure prediction by ZEFSAII (Michael W. Deem and Ramdas Pophale) SiO2 
 PCOD9541173
Probable space group: P 41
;
_chemical_formula_sum "Si O2"
_cell_formula_units_Z 28
_cell_length_a 10.951256
_cell_length_b 10.951256
_cell_length_c 9.920361
_cell_angle_alpha 90.000000
_cell_angle_beta 90.000000
_cell_angle_gamma 90.000000
_cell_volume 1189.748974
_symmetry_space_group_name_H-M "P 41"
_symmetry_group_IT_number 76
_symmetry_cell_setting 'tetragonal'
loop_
_space_group_symop_operation_xyz
x,y,z
-y,x,1/4+z
-x,-y,1/2+z
y,-x,3/4+z
loop_
_atom_site_type_symbol
_atom_site_label
_atom_site_fract_x
_atom_site_fract_y
_atom_site_fract_z
Si Si1 0.801177 0.404368 0.487750
Si Si2 0.558036 0.983013 0.976805
Si Si3 0.658678 0.255759 0.683700
Si Si4 0.328289 0.811459 0.616748
Si Si5 0.705445 0.999659 0.554234
Si Si6 0.910647 0.058589 0.168364
Si Si7 0.211044 0.617774 0.435363
O O1 0.899729 0.396360 0.607883
O O2 0.685803 0.334313 0.548085
O O3 0.780123 0.546185 0.446286
O O4 0.870100 0.326799 0.373655
O O5 0.412803 0.983963 0.960689
O O6 0.587548 0.922733 0.123430
O O7 0.618153 0.114559 0.987594
O O8 0.701500 0.117195 0.652601
O O9 0.515809 0.262409 0.710274
O O10 0.727169 0.315479 0.808552
O O11 0.229086 0.900102 0.685910
O O12 0.244607 0.700565 0.562844
O O13 0.833210 0.992545 0.480136
O O14 0.944875 0.941780 0.259234
#
# Coordination Sequence:
#
# PCOD9541173 Si02
#       7
#     4   4   4   4   4   4   4
#     4  10  21  38  66  91 124 173 217 269 325 389
#     4   9  20  40  62  88 122 167 213 263 324 391
#     4  10  22  40  59  91 127 169 221 269 331 392
#     4  11  23  40  65  96 127 167 219 265 323 397
#     4  10  21  39  63  87 120 166 220 267 318 392
#     4  12  27  43  65  98 135 170 215 278 337 392
#     4  10  22  38  62  89 127 168 211 275 328 385
#
# _framework density 23.534379000000001
#
# number of rings (size 3 to 8) (size 9 to 14) (size 15 to 20)
#    0.000    1.714    0.000    3.429    0.000   12.571 
#    0.000    0.000    0.000    0.000    0.000    0.000 
#    0.000    0.000    0.000    0.000    0.000    0.000 
#
# Total GULP energy -156429.257430 kJ/mol
# GULP energy per Si atom -5586.759194 kJ/mol
# Density = 2.348081 g / cm^3
# Si number density = 23.534379 Si / 1000 Ang^3
#
#
#
# Elastic Constant Matrix: (Units=GPa)
#
#
# Indices 1 2 3 4 5 6 
#
# 1 79.8792 10.5826 9.5275 0.0000 0.0000 5.1234
# 2 10.5826 79.8792 9.5275 0.0000 0.0000 -5.1234
# 3 9.5275 9.5275 63.9940 0.0000 0.0000 0.0000
# 4 0.0000 0.0000 0.0000 27.3488 0.0000 0.0000
# 5 0.0000 0.0000 0.0000 0.0000 27.3488 0.0000
# 6 5.1234 -5.1234 0.0000 0.0000 0.0000 43.2788
#
#
#
# Elastic Compliance Matrix: (Units=1/GPa)
#
#
# Indices 1 2 3 4 5 6 
#
# 1 0.013050 -0.001638 -0.001699 0.000000 0.000000 -0.001739
# 2 -0.001638 0.013050 -0.001699 0.000000 0.000000 0.001739
# 3 -0.001699 -0.001699 0.016132 0.000000 0.000000 0.000000
# 4 0.000000 0.000000 0.000000 0.036565 0.000000 0.000000
# 5 0.000000 0.000000 0.000000 0.000000 0.036565 0.000000
# 6 -0.001739 0.001739 0.000000 0.000000 0.000000 0.023518
#
#
# Mechanical properties :
#
#
# Convention : Reuss Voigt Hill
#
# Bulk Modulus (GPa) = 31.09387 31.44749 31.27068
# Shear Modulus (GPa) = 31.31430 32.53629 31.92529
#
# Velocity S-wave (km/s) = 3.65166 3.72223 3.68712
# Velocity P-wave (km/s) = 5.56959 5.64489 5.60736
#
# Compressibility (1/GPa) = 0.03216068
#
# Stress axis : x y z
#
# Youngs Moduli (GPa) = 76.62797 76.62797 61.98711
#
# Poissons Ratio (x) = 0.12550 0.10532
# Poissons Ratio (y) = 0.12550 0.10532
# Poissons Ratio (z) = 0.13020 0.13020
#
# Static dielectric constant tensor:
#      x y z
#    x 1.903830 0.000000 0.000000 
#    y 0.000000 1.903830 0.000000 
#    z 0.000000 0.000000 1.948150 
# 
# From -- ./inp_files/598.got.cif
#   From: 2010.05.17/outbox.cif.g08.bks.cpg/sg76_cif.got.tgz:598.got - 2010.06.03 18:43:17.
