data_PCOD9541259
_publ_section_title
;
Structure prediction by ZEFSAII (Michael W. Deem and Ramdas Pophale) SiO2 
 PCOD9541259
Probable space group: P 41
;
_chemical_formula_sum "Si O2"
_cell_formula_units_Z 32
_cell_length_a 11.913409
_cell_length_b 11.913409
_cell_length_c 9.307797
_cell_angle_alpha 90.000000
_cell_angle_beta 90.000000
_cell_angle_gamma 90.000000
_cell_volume 1321.049243
_symmetry_space_group_name_H-M "P 41"
_symmetry_group_IT_number 76
_symmetry_cell_setting 'tetragonal'
loop_
_space_group_symop_operation_xyz
x,y,z
-y,x,1/4+z
-x,-y,1/2+z
y,-x,3/4+z
loop_
_atom_site_type_symbol
_atom_site_label
_atom_site_fract_x
_atom_site_fract_y
_atom_site_fract_z
Si Si1 0.739134 0.390246 0.988990
Si Si2 0.998813 0.420683 0.581311
Si Si3 0.775541 0.536315 0.247322
Si Si4 0.972952 0.736308 0.828818
Si Si5 0.900060 0.050999 0.198971
Si Si6 0.265502 0.369920 0.327855
Si Si7 0.975459 0.335911 0.013414
Si Si8 0.484453 0.236428 0.333244
O O1 0.627764 0.320159 0.963759
O O2 0.746705 0.510756 0.909194
O O3 0.747344 0.426161 0.155544
O O4 0.848448 0.313227 0.964466
O O5 0.106277 0.417045 0.683988
O O6 0.983612 0.315421 0.476712
O O7 0.010645 0.532665 0.482091
O O8 0.880124 0.442762 0.652742
O O9 0.776026 0.506311 0.414512
O O10 0.838567 0.715790 0.845949
O O11 0.031636 0.854127 0.789837
O O12 0.008772 0.666969 0.686690
O O13 0.939537 0.063818 0.035720
O O14 0.764646 0.054646 0.209803
O O15 0.385352 0.321364 0.366907
O O16 0.268413 0.401389 0.160465
#
# Coordination Sequence:
#
# PCOD9541259 Si02
#       8
#     4   4   4   4   4   4   4   4
#     4  11  24  47  75 106 151 191 247 315 364 445
#     4  11  23  43  72 104 138 199 247 296 359 445
#     4  11  25  46  73 111 146 199 250 309 373 445
#     4  11  23  46  70 102 146 188 240 303 370 428
#     4  10  25  47  73 106 146 192 240 309 373 443
#     4  12  26  47  72 111 147 195 243 310 375 447
#     4  10  22  45  68 102 144 183 239 300 370 433
#     4  12  28  43  73 108 148 199 244 302 384 448
#
# _framework density 24.223168000000001
#
# number of rings (size 3 to 8) (size 9 to 14) (size 15 to 20)
#    0.000    1.000    3.750    3.000    3.500    6.000 
#    0.000    1.250    0.000    0.000    0.000    0.000 
#    0.000    0.000    0.000    0.000    0.000    0.000 
#
# Total GULP energy -178855.211521 kJ/mol
# GULP energy per Si atom -5589.225360 kJ/mol
# Density = 2.416803 g / cm^3
# Si number density = 24.223168 Si / 1000 Ang^3
#
#
#
# Elastic Constant Matrix: (Units=GPa)
#
#
# Indices 1 2 3 4 5 6 
#
# 1 72.4143 52.4372 10.6531 0.0000 0.0000 4.3810
# 2 52.4372 72.4143 10.6531 0.0000 0.0000 -4.3810
# 3 10.6531 10.6531 75.2845 0.0000 0.0000 0.0000
# 4 0.0000 0.0000 0.0000 31.2538 0.0000 0.0000
# 5 0.0000 0.0000 0.0000 0.0000 31.2538 0.0000
# 6 4.3810 -4.3810 0.0000 0.0000 0.0000 43.6454
#
#
#
# Elastic Compliance Matrix: (Units=1/GPa)
#
#
# Indices 1 2 3 4 5 6 
#
# 1 0.030285 -0.022077 -0.001161 0.000000 0.000000 -0.005256
# 2 -0.022077 0.030285 -0.001161 0.000000 0.000000 0.005256
# 3 -0.001161 -0.001161 0.013612 0.000000 0.000000 0.000000
# 4 0.000000 0.000000 0.000000 0.031996 0.000000 0.000000
# 5 0.000000 0.000000 0.000000 0.000000 0.031996 0.000000
# 6 -0.005256 0.005256 0.000000 0.000000 0.000000 0.023967
#
#
# Mechanical properties :
#
#
# Convention : Reuss Voigt Hill
#
# Bulk Modulus (GPa) = 39.39899 40.84443 40.12171
# Shear Modulus (GPa) = 22.78915 30.98855 26.88885
#
# Velocity S-wave (km/s) = 3.07057 3.58060 3.33535
# Velocity P-wave (km/s) = 5.37322 5.83032 5.60643
#
# Compressibility (1/GPa) = 0.02538136
#
# Stress axis : x y z
#
# Youngs Moduli (GPa) = 33.01941 33.01941 73.46647
#
# Poissons Ratio (x) = 0.72899 0.08533
# Poissons Ratio (y) = 0.72899 0.08533
# Poissons Ratio (z) = 0.03835 0.03835
#
# Static dielectric constant tensor:
#      x y z
#    x 1.959820 0.000000 0.000000 
#    y 0.000000 1.959820 0.000000 
#    z 0.000000 0.000000 1.970900 
# 
# From -- ./inp_files/947.got.cif
#   From: 2010.05.17/outbox.cif.g08.bks.cpg/sg76_cif.got.tgz:947.got - 2010.06.03 18:43:17.
