data_PCOD9541827
_publ_section_title
;
Structure prediction by ZEFSAII (Michael W. Deem and Ramdas Pophale) SiO2 
 PCOD9541827
Probable space group: I 4
;
_chemical_formula_sum "Si O2"
_cell_formula_units_Z 58
_cell_length_a 11.570107
_cell_length_b 11.570107
_cell_length_c 19.725929
_cell_angle_alpha 90.000000
_cell_angle_beta 90.000000
_cell_angle_gamma 90.000000
_cell_volume 2640.658354
_symmetry_space_group_name_H-M "I 4"
_symmetry_group_IT_number 79
_symmetry_cell_setting 'tetragonal'
loop_
_space_group_symop_operation_xyz
x,y,z
-y,x,z
-x,-y,z
y,-x,z
1/2+x,1/2+y,1/2+z
1/2-y,1/2+x,1/2+z
1/2-x,1/2-y,1/2+z
1/2+y,1/2-x,1/2+z
loop_
_atom_site_type_symbol
_atom_site_label
_atom_site_fract_x
_atom_site_fract_y
_atom_site_fract_z
Si Si1 0.594268 0.339852 0.629420
Si Si2 0.362879 0.025357 0.879279
Si Si3 0.000000 0.000000 0.780378
Si Si4 0.278283 0.677072 0.145235
Si Si5 0.657102 0.601726 0.792974
Si Si6 0.756925 0.285587 0.402094
Si Si7 0.150121 0.107863 0.507891
Si Si8 0.041034 0.736661 0.739328
O O1 0.652582 0.461100 0.608949
O O2 0.669990 0.232707 0.606877
O O3 0.598215 0.332703 0.711679
O O4 0.293787 0.141648 0.902015
O O5 0.500000 0.000000 0.898761
O O6 0.272798 0.923522 0.900639
O O7 0.358055 0.032536 0.797219
O O8 0.863404 0.959152 0.774306
O O9 0.341092 0.766499 0.196104
O O10 0.238596 0.566456 0.187671
O O11 0.374192 0.651857 0.088599
O O12 0.532768 0.654250 0.812639
O O13 0.749942 0.673016 0.834084
O O14 0.825459 0.247251 0.468576
O O15 0.025030 0.155038 0.487575
#
# Coordination Sequence:
#
# PCOD9541827 Si02
#       8
#     8   8   2   8   8   8   8   8
#     4   9  19  35  55  82 117 159 204 256 325 392
#     4  12  26  44  70 104 144 178 226 296 349 423
#     4   8  16  32  56  88 128 176 200 260 324 410
#     4  11  20  36  60  92 127 167 217 279 329 403
#     4   9  16  31  59  92 124 162 217 278 331 396
#     4  12  25  43  65  95 134 185 222 274 348 410
#     4  11  23  42  68  93 125 173 231 285 337 401
#     4  10  20  34  62  96 134 166 214 278 351 397
#
# _framework density 21.964217999999999
#
# number of rings (size 3 to 8) (size 9 to 14) (size 15 to 20)
#    0.000    1.517    1.379    6.621    0.000    4.690 
#    2.483    0.000    0.000    0.000    0.000    0.000 
#    0.000    0.000    0.000    0.000    0.000    0.000 
#
# Total GULP energy -161559.740034 kJ/mol
# GULP energy per Si atom -5571.025518 kJ/mol
# Density = 2.191423 g / cm^3
# Si number density = 21.964218 Si / 1000 Ang^3
#
#
#
# Elastic Constant Matrix: (Units=GPa)
#
#
# Indices 1 2 3 4 5 6 
#
# 1 82.9031 -23.8134 -5.1794 0.0000 0.0000 -23.2398
# 2 -23.8134 82.9031 -5.1794 0.0000 0.0000 23.2398
# 3 -5.1794 -5.1794 31.5455 0.0000 0.0000 0.0000
# 4 0.0000 0.0000 0.0000 18.5676 0.0000 0.0000
# 5 0.0000 0.0000 0.0000 0.0000 18.5676 0.0000
# 6 -23.2398 23.2398 0.0000 0.0000 0.0000 38.7019
#
#
#
# Elastic Compliance Matrix: (Units=1/GPa)
#
#
# Indices 1 2 3 4 5 6 
#
# 1 0.015057 0.002368 0.002861 0.000000 0.000000 0.007620
# 2 0.002368 0.015057 0.002861 0.000000 0.000000 -0.007620
# 3 0.002861 0.002861 0.032640 0.000000 0.000000 0.000000
# 4 0.000000 0.000000 0.000000 0.053857 0.000000 0.000000
# 5 0.000000 0.000000 0.000000 0.000000 0.053857 0.000000
# 6 0.007620 -0.007620 0.000000 0.000000 0.000000 0.034990
#
#
# Mechanical properties :
#
#
# Convention : Reuss Voigt Hill
#
# Bulk Modulus (GPa) = 12.66887 14.33413 13.50150
# Shear Modulus (GPa) = 23.19222 30.60236 26.89729
#
# Velocity S-wave (km/s) = 3.25300 3.73672 3.50322
# Velocity P-wave (km/s) = 4.45980 5.01575 4.74592
#
# Compressibility (1/GPa) = 0.07893366
#
# Stress axis : x y z
#
# Youngs Moduli (GPa) = 66.41358 66.41358 30.63750
#
# Poissons Ratio (x) = -0.15725 -0.08765
# Poissons Ratio (y) = -0.15725 -0.08765
# Poissons Ratio (z) = -0.19001 -0.19001
#
# Static dielectric constant tensor:
#      x y z
#    x 1.822550 0.000000 0.000000 
#    y 0.000000 1.822550 0.000000 
#    z 0.000000 0.000000 1.841370 
# 
# From -- ./inp_files/1879.got.cif
#   From: 2010.05.17/outbox.cif.g08.bks.cpg/sg79_cif.got.tgz:1879.got - 2010.06.03 18:47:27.
