data_PCOD9541479
_publ_section_title
;
Structure prediction by ZEFSAII (Michael W. Deem and Ramdas Pophale) SiO2 
 PCOD9541479
Probable space group: P 42
;
_chemical_formula_sum "Si O2"
_cell_formula_units_Z 18
_cell_length_a 5.272101
_cell_length_b 5.272101
_cell_length_c 25.326438
_cell_angle_alpha 90.000000
_cell_angle_beta 90.000000
_cell_angle_gamma 90.000000
_cell_volume 703.949584
_symmetry_space_group_name_H-M "P 42"
_symmetry_group_IT_number 77
_symmetry_cell_setting 'tetragonal'
loop_
_space_group_symop_operation_xyz
x,y,z
-y,x,1/2+z
-x,-y,z
y,-x,1/2+z
loop_
_atom_site_type_symbol
_atom_site_label
_atom_site_fract_x
_atom_site_fract_y
_atom_site_fract_z
Si Si1 0.755903 0.352445 0.717440
Si Si2 0.824162 0.749564 0.447610
Si Si3 0.822550 0.748029 0.563211
Si Si4 0.500000 0.000000 0.646425
Si Si5 0.825697 0.750972 0.334720
O O1 0.500000 0.500000 0.706020
O O2 0.718923 0.093630 0.685849
O O3 0.764447 0.325844 0.780624
O O4 0.000000 0.500000 0.698966
O O5 0.694778 0.744190 0.504715
O O6 0.681864 0.747916 0.391233
O O7 0.000000 0.500000 0.446745
O O8 0.000000 0.000000 0.447600
O O9 0.000000 0.500000 0.568972
O O10 0.611396 0.788053 0.607380
O O11 0.000000 0.000000 0.565823
O O12 0.000000 0.500000 0.331703
O O13 0.000000 0.000000 0.334807
#
# Coordination Sequence:
#
# PCOD9541479 Si02
#       5
#     4   4   4   2   4
#     4  12  29  47  72 107 146 197 257 313 390 461
#     4   8  16  35  67 101 137 188 238 308 381 458
#     4  10  24  45  73 105 147 197 254 315 390 458
#     4  12  30  46  72 102 152 194 262 318 382 468
#     4  10  19  40  71 101 144 189 241 309 387 457
#
# _framework density 25.570011000000001
#
# number of rings (size 3 to 8) (size 9 to 14) (size 15 to 20)
#    0.000    1.778    1.111    1.333    6.222    0.000 
#    2.000    0.000    0.000    0.000    0.000    0.000 
#    0.000    0.000    0.000    0.000    0.000    0.000 
#
# Total GULP energy -100807.968544 kJ/mol
# GULP energy per Si atom -5600.442697 kJ/mol
# Density = 2.551181 g / cm^3
# Si number density = 25.570011 Si / 1000 Ang^3
#
#
#
# Elastic Constant Matrix: (Units=GPa)
#
#
# Indices 1 2 3 4 5 6 
#
# 1 137.1018 45.8789 34.2990 0.0000 0.0000 2.6353
# 2 45.8789 137.1018 34.2990 0.0000 0.0000 -2.6353
# 3 34.2990 34.2990 243.1427 0.0000 0.0000 0.0000
# 4 0.0000 0.0000 0.0000 4.6591 0.0000 0.0000
# 5 0.0000 0.0000 0.0000 0.0000 4.6591 0.0000
# 6 2.6353 -2.6353 0.0000 0.0000 0.0000 53.7384
#
#
#
# Elastic Compliance Matrix: (Units=1/GPa)
#
#
# Indices 1 2 3 4 5 6 
#
# 1 0.008382 -0.002612 -0.000814 0.000000 0.000000 -0.000539
# 2 -0.002612 0.008382 -0.000814 0.000000 0.000000 0.000539
# 3 -0.000814 -0.000814 0.004342 0.000000 0.000000 0.000000
# 4 0.000000 0.000000 0.000000 0.214632 0.000000 0.000000
# 5 0.000000 0.000000 0.000000 0.000000 0.214632 0.000000
# 6 -0.000539 0.000539 0.000000 0.000000 0.000000 0.018662
#
#
# Mechanical properties :
#
#
# Convention : Reuss Voigt Hill
#
# Bulk Modulus (GPa) = 79.19558 82.92227 81.05892
# Shear Modulus (GPa) = 10.37950 39.46929 24.92439
#
# Velocity S-wave (km/s) = 2.01694 3.93310 3.12549
# Velocity P-wave (km/s) = 6.03849 7.28873 6.69287
#
# Compressibility (1/GPa) = 0.01262697
#
# Stress axis : x y z
#
# Youngs Moduli (GPa) = 119.30672 119.30672 230.28426
#
# Poissons Ratio (x) = 0.31158 0.18745
# Poissons Ratio (y) = 0.31158 0.18745
# Poissons Ratio (z) = 0.09711 0.09711
#
# Static dielectric constant tensor:
#      x y z
#    x 2.057320 0.000000 0.000000 
#    y 0.000000 2.057320 0.000000 
#    z 0.000000 0.000000 2.041070 
# 
# From -- ./inp_files/1638.got.cif
#   From: 2010.05.17/outbox.cif.g08.bks.cpg/sg77_cif.got.tgz:1638.got - 2010.06.03 18:44:51.
