data_PCOD9541118
_publ_section_title
;
Structure prediction by ZEFSAII (Michael W. Deem and Ramdas Pophale) SiO2 
 PCOD9541118
Probable space group: P 41
;
_chemical_formula_sum "Si O2"
_cell_formula_units_Z 28
_cell_length_a 7.611542
_cell_length_b 7.611542
_cell_length_c 18.702895
_cell_angle_alpha 90.000000
_cell_angle_beta 90.000000
_cell_angle_gamma 90.000000
_cell_volume 1083.562913
_symmetry_space_group_name_H-M "P 41"
_symmetry_group_IT_number 76
_symmetry_cell_setting 'tetragonal'
loop_
_space_group_symop_operation_xyz
x,y,z
-y,x,1/4+z
-x,-y,1/2+z
y,-x,3/4+z
loop_
_atom_site_type_symbol
_atom_site_label
_atom_site_fract_x
_atom_site_fract_y
_atom_site_fract_z
Si Si1 0.453844 0.022810 0.038170
Si Si2 0.733691 0.769908 0.642404
Si Si3 0.232678 0.630161 0.401839
Si Si4 0.109506 0.824894 0.027675
Si Si5 0.089821 0.574386 0.145164
Si Si6 0.052697 0.112725 0.855407
Si Si7 0.570912 0.764751 0.317050
O O1 0.514787 0.881525 0.096387
O O2 0.266016 0.957143 0.008799
O O3 0.400627 0.199223 0.078366
O O4 0.576235 0.017216 0.969017
O O5 0.682225 0.869214 0.715458
O O6 0.754615 0.563665 0.655170
O O7 0.920136 0.867406 0.623919
O O8 0.419656 0.663769 0.362100
O O9 0.265562 0.563284 0.482095
O O10 0.091592 0.794685 0.406428
O O11 0.145645 0.750295 0.106766
O O12 0.929747 0.930063 0.036185
O O13 0.963001 0.489459 0.085693
O O14 0.224142 0.232917 0.842548
#
# Coordination Sequence:
#
# PCOD9541118 Si02
#       7
#     4   4   4   4   4   4   4
#     4  10  24  38  66 100 141 187 244 300 379 449
#     4   9  20  41  66 107 139 185 247 304 369 450
#     4  12  26  46  73 107 152 199 249 317 387 459
#     4  10  19  40  72  98 136 193 241 304 374 445
#     4  10  21  41  70 102 142 185 254 312 367 463
#     4  10  22  42  78 104 142 190 251 306 383 444
#     4  11  26  46  73 114 150 195 258 315 383 466
#
# _framework density 25.840678
#
# number of rings (size 3 to 8) (size 9 to 14) (size 15 to 20)
#    0.000    1.714    1.429    1.714    4.000    4.571 
#    2.571    1.429    0.000    0.000    0.000    0.000 
#    0.000    0.000    0.000    0.000    0.000    0.000 
#
# Total GULP energy -156237.782694 kJ/mol
# GULP energy per Si atom -5579.920811 kJ/mol
# Density = 2.578186 g / cm^3
# Si number density = 25.840678 Si / 1000 Ang^3
#
#
#
# Elastic Constant Matrix: (Units=GPa)
#
#
# Indices 1 2 3 4 5 6 
#
# 1 87.1322 18.7265 31.6629 0.0000 0.0000 11.3156
# 2 18.7265 87.1322 31.6629 0.0000 0.0000 -11.3156
# 3 31.6629 31.6629 163.6665 0.0000 0.0000 0.0000
# 4 0.0000 0.0000 0.0000 36.2508 0.0000 0.0000
# 5 0.0000 0.0000 0.0000 0.0000 36.2508 0.0000
# 6 11.3156 -11.3156 0.0000 0.0000 0.0000 30.1161
#
#
#
# Elastic Compliance Matrix: (Units=1/GPa)
#
#
# Indices 1 2 3 4 5 6 
#
# 1 0.013688 -0.003005 -0.002067 0.000000 0.000000 -0.006272
# 2 -0.003005 0.013688 -0.002067 0.000000 0.000000 0.006272
# 3 -0.002067 -0.002067 0.006910 0.000000 0.000000 0.000000
# 4 0.000000 0.000000 0.000000 0.027586 0.000000 0.000000
# 5 0.000000 0.000000 0.000000 0.000000 0.027586 0.000000
# 6 -0.006272 0.006272 0.000000 0.000000 0.000000 0.037918
#
#
# Mechanical properties :
#
#
# Convention : Reuss Voigt Hill
#
# Bulk Modulus (GPa) = 49.97861 55.78173 52.88017
# Shear Modulus (GPa) = 33.71017 37.58209 35.64613
#
# Velocity S-wave (km/s) = 3.61576 3.81777 3.71813
# Velocity P-wave (km/s) = 6.06751 6.40839 6.24028
#
# Compressibility (1/GPa) = 0.02000856
#
# Stress axis : x y z
#
# Youngs Moduli (GPa) = 73.05487 73.05487 144.72537
#
# Poissons Ratio (x) = 0.21956 0.29911
# Poissons Ratio (y) = 0.21956 0.29911
# Poissons Ratio (z) = 0.15098 0.15098
#
# Static dielectric constant tensor:
#      x y z
#    x 2.121780 0.000000 0.000000 
#    y 0.000000 2.121780 0.000000 
#    z 0.000000 0.000000 2.075790 
# 
# From -- ./inp_files/1314.got.cif
#   From: 2010.05.17/outbox.cif.g08.bks.cpg/sg76_cif.got.tgz:1314.got - 2010.06.03 18:43:17.
