data_PCOD9541320
_publ_section_title
;
Structure prediction by ZEFSAII (Michael W. Deem and Ramdas Pophale) SiO2 
 PCOD9541320
Probable space group: P 41
;
_chemical_formula_sum "Si O2"
_cell_formula_units_Z 20
_cell_length_a 8.078257
_cell_length_b 8.078257
_cell_length_c 12.343572
_cell_angle_alpha 90.000000
_cell_angle_beta 90.000000
_cell_angle_gamma 90.000000
_cell_volume 805.519737
_symmetry_space_group_name_H-M "P 41"
_symmetry_group_IT_number 76
_symmetry_cell_setting 'tetragonal'
loop_
_space_group_symop_operation_xyz
x,y,z
-y,x,1/4+z
-x,-y,1/2+z
y,-x,3/4+z
loop_
_atom_site_type_symbol
_atom_site_label
_atom_site_fract_x
_atom_site_fract_y
_atom_site_fract_z
Si Si1 0.166089 0.622641 0.970830
Si Si2 0.844544 0.848967 0.280848
Si Si3 0.234709 0.820907 0.301970
Si Si4 0.509633 0.574974 0.993154
Si Si5 0.773237 0.765026 0.504868
O O1 0.348330 0.695721 0.995857
O O2 0.158377 0.649601 0.841603
O O3 0.192682 0.432223 0.005614
O O4 0.005464 0.704041 0.023554
O O5 0.779843 0.749481 0.178615
O O6 0.731495 0.809254 0.382566
O O7 0.037828 0.805133 0.286798
O O8 0.844500 0.046502 0.270894
O O9 0.332021 0.682738 0.238103
O O10 0.495367 0.495173 0.868208
#
# Coordination Sequence:
#
# PCOD9541320 Si02
#       5
#     4   4   4   4   4
#     4  12  26  48  76 112 157 216 257 342 412 485
#     4  10  25  50  72 117 148 208 277 338 411 500
#     4  11  26  49  81 110 162 210 272 337 419 491
#     4  12  29  50  77 120 163 210 276 336 412 501
#     4  11  26  47  76 111 160 202 270 337 410 493
#
# _framework density 24.828690999999999
#
# number of rings (size 3 to 8) (size 9 to 14) (size 15 to 20)
#    0.000    0.800    2.000    3.600    8.400    3.200 
#    0.000    0.000    0.000    0.000    0.000    0.000 
#    0.000    0.000    0.000    0.000    0.000    0.000 
#
# Total GULP energy -111574.372226 kJ/mol
# GULP energy per Si atom -5578.718611 kJ/mol
# Density = 2.477218 g / cm^3
# Si number density = 24.828691 Si / 1000 Ang^3
#
#
#
# Elastic Constant Matrix: (Units=GPa)
#
#
# Indices 1 2 3 4 5 6 
#
# 1 64.0074 -3.8164 19.3371 0.0000 0.0000 -2.6557
# 2 -3.8164 64.0074 19.3371 0.0000 0.0000 2.6557
# 3 19.3371 19.3371 179.5878 0.0000 0.0000 0.0000
# 4 0.0000 0.0000 0.0000 28.1463 0.0000 0.0000
# 5 0.0000 0.0000 0.0000 0.0000 28.1463 0.0000
# 6 -2.6557 2.6557 0.0000 0.0000 0.0000 25.2374
#
#
#
# Elastic Compliance Matrix: (Units=1/GPa)
#
#
# Indices 1 2 3 4 5 6 
#
# 1 0.016358 0.001491 -0.001922 0.000000 0.000000 0.001564
# 2 0.001491 0.016358 -0.001922 0.000000 0.000000 -0.001564
# 3 -0.001922 -0.001922 0.005982 0.000000 0.000000 0.000000
# 4 0.000000 0.000000 0.000000 0.035529 0.000000 0.000000
# 5 0.000000 0.000000 0.000000 0.000000 0.035529 0.000000
# 6 0.001564 -0.001564 0.000000 0.000000 0.000000 0.039953
#
#
# Mechanical properties :
#
#
# Convention : Reuss Voigt Hill
#
# Bulk Modulus (GPa) = 29.41869 41.92424 35.67146
# Shear Modulus (GPa) = 30.16706 34.48899 32.32803
#
# Velocity S-wave (km/s) = 3.48948 3.73108 3.61230
# Velocity P-wave (km/s) = 5.30185 5.95679 5.63884
#
# Compressibility (1/GPa) = 0.03399200
#
# Stress axis : x y z
#
# Youngs Moduli (GPa) = 61.13366 61.13366 167.16331
#
# Poissons Ratio (x) = -0.09115 0.32126
# Poissons Ratio (y) = -0.09115 0.32126
# Poissons Ratio (z) = 0.11749 0.11749
#
# Static dielectric constant tensor:
#      x y z
#    x 1.967010 0.000000 0.000000 
#    y 0.000000 1.967010 0.000000 
#    z 0.000000 0.000000 2.126770 
# 
# From -- ./inp_files/817.got.cif
#   From: 2010.05.17/outbox.cif.g08.bks.cpg/sg76_cif.got.tgz:817.got - 2010.06.03 18:43:17.
