data_PCOD9541845
_publ_section_title
;
Structure prediction by ZEFSAII (Michael W. Deem and Ramdas Pophale) SiO2 
 PCOD9541845
Probable space group: I 4
;
_chemical_formula_sum "Si O2"
_cell_formula_units_Z 58
_cell_length_a 12.193910
_cell_length_b 12.193910
_cell_length_c 22.235953
_cell_angle_alpha 90.000000
_cell_angle_beta 90.000000
_cell_angle_gamma 90.000000
_cell_volume 3306.295896
_symmetry_space_group_name_H-M "I 4"
_symmetry_group_IT_number 79
_symmetry_cell_setting 'tetragonal'
loop_
_space_group_symop_operation_xyz
x,y,z
-y,x,z
-x,-y,z
y,-x,z
1/2+x,1/2+y,1/2+z
1/2-y,1/2+x,1/2+z
1/2-x,1/2-y,1/2+z
1/2+y,1/2-x,1/2+z
loop_
_atom_site_type_symbol
_atom_site_label
_atom_site_fract_x
_atom_site_fract_y
_atom_site_fract_z
Si Si1 0.274740 0.892324 0.588460
Si Si2 0.500000 0.500000 0.872089
Si Si3 0.619760 0.230854 0.023668
Si Si4 0.018713 0.742491 0.389156
Si Si5 0.404295 0.340858 0.213495
Si Si6 0.369632 0.013195 0.023742
Si Si7 0.702280 0.896701 0.899218
Si Si8 0.270356 0.866224 0.840201
O O1 0.206468 0.823274 0.539575
O O2 0.225560 0.871750 0.653809
O O3 0.402950 0.866147 0.579180
O O4 0.258410 0.018505 0.569632
O O5 0.484265 0.365682 0.874636
O O6 0.669643 0.110197 0.032980
O O7 0.570322 0.239805 0.956713
O O8 0.113723 0.694930 0.346628
O O9 0.911835 0.665579 0.386144
O O10 0.536399 0.355313 0.213227
O O11 0.367503 0.278411 0.273381
O O12 0.500000 0.000000 0.007539
O O13 0.306470 0.067503 0.968513
O O14 0.801258 0.815604 0.882627
O O15 0.714385 0.009130 0.862217
#
# Coordination Sequence:
#
# PCOD9541845 Si02
#       8
#     8   2   8   8   8   8   8   8
#     4  11  21  37  63  90 117 159 199 253 319 365
#     4  12  24  36  64  92 128 160 208 260 316 390
#     4  11  21  36  60  91 125 155 200 256 318 379
#     4  12  22  41  60  97 133 161 207 262 327 380
#     4  11  23  42  59  87 128 163 209 261 306 371
#     4  10  20  37  57  87 127 158 195 252 313 376
#     4  12  22  39  62  92 130 170 203 263 319 376
#     4  12  24  39  65  88 127 173 215 253 315 381
#
# _framework density 17.542290000000001
#
# number of rings (size 3 to 8) (size 9 to 14) (size 15 to 20)
#    0.000    0.690    8.276    2.069    0.000    0.552 
#    0.000    5.517    0.000    0.414    0.000    0.000 
#    0.000    0.000    0.000    0.000    0.000    0.000 
#
# Total GULP energy -161720.663770 kJ/mol
# GULP energy per Si atom -5576.574613 kJ/mol
# Density = 1.750236 g / cm^3
# Si number density = 17.542290 Si / 1000 Ang^3
#
#
#
# Elastic Constant Matrix: (Units=GPa)
#
#
# Indices 1 2 3 4 5 6 
#
# 1 102.6591 37.8900 32.4189 0.0000 0.0000 -2.3058
# 2 37.8900 102.6591 32.4189 0.0000 0.0000 2.3058
# 3 32.4189 32.4189 75.4439 0.0000 0.0000 0.0000
# 4 0.0000 0.0000 0.0000 22.6378 0.0000 0.0000
# 5 0.0000 0.0000 0.0000 0.0000 22.6378 0.0000
# 6 -2.3058 2.3058 0.0000 0.0000 0.0000 33.3100
#
#
#
# Elastic Compliance Matrix: (Units=1/GPa)
#
#
# Indices 1 2 3 4 5 6 
#
# 1 0.012195 -0.003321 -0.003813 0.000000 0.000000 0.001074
# 2 -0.003321 0.012195 -0.003813 0.000000 0.000000 -0.001074
# 3 -0.003813 -0.003813 0.016532 0.000000 0.000000 0.000000
# 4 0.000000 0.000000 0.000000 0.044174 0.000000 0.000000
# 5 0.000000 0.000000 0.000000 0.000000 0.044174 0.000000
# 6 0.001074 -0.001074 0.000000 0.000000 0.000000 0.030170
#
#
# Mechanical properties :
#
#
# Convention : Reuss Voigt Hill
#
# Bulk Modulus (GPa) = 52.55644 54.02417 53.29031
# Shear Modulus (GPa) = 26.64154 27.58608 27.11381
#
# Velocity S-wave (km/s) = 3.90128 3.96984 3.93571
# Velocity P-wave (km/s) = 7.09353 7.20251 7.14823
#
# Compressibility (1/GPa) = 0.01902716
#
# Stress axis : x y z
#
# Youngs Moduli (GPa) = 82.00072 82.00072 60.48847
#
# Poissons Ratio (x) = 0.27232 0.23066
# Poissons Ratio (y) = 0.27232 0.23066
# Poissons Ratio (z) = 0.31269 0.31269
#
# Static dielectric constant tensor:
#      x y z
#    x 1.601000 0.000000 0.000000 
#    y 0.000000 1.601000 0.000000 
#    z 0.000000 0.000000 1.583070 
# 
# From -- ./inp_files/1871.got.cif
#   From: 2010.05.17/outbox.cif.g08.bks.cpg/sg79_cif.got.tgz:1871.got - 2010.06.03 18:47:27.
