data_PCOD9541608
_publ_section_title
;
Structure prediction by ZEFSAII (Michael W. Deem and Ramdas Pophale) SiO2 
 PCOD9541608
Probable space group: P 43
;
_chemical_formula_sum "Si O2"
_cell_formula_units_Z 28
_cell_length_a 8.905847
_cell_length_b 8.905847
_cell_length_c 16.124875
_cell_angle_alpha 90.000000
_cell_angle_beta 90.000000
_cell_angle_gamma 90.000000
_cell_volume 1278.930122
_symmetry_space_group_name_H-M "P 43"
_symmetry_group_IT_number 78
_symmetry_cell_setting 'tetragonal'
loop_
_space_group_symop_operation_xyz
x,y,z
-y,x,3/4+z
-x,-y,1/2+z
y,-x,1/4+z
loop_
_atom_site_type_symbol
_atom_site_label
_atom_site_fract_x
_atom_site_fract_y
_atom_site_fract_z
Si Si1 0.809430 0.417356 0.118690
Si Si2 0.767740 0.752972 0.171287
Si Si3 0.572748 0.316433 0.689107
Si Si4 0.025091 0.656479 0.785857
Si Si5 0.740032 0.828942 0.715555
Si Si6 0.627216 0.464088 0.855619
Si Si7 0.950865 0.687251 0.330739
O O1 0.804133 0.598569 0.121134
O O2 0.862489 0.367072 0.208934
O O3 0.641955 0.352962 0.106135
O O4 0.905234 0.345861 0.043722
O O5 0.598840 0.732836 0.207880
O O6 0.748246 0.892135 0.108894
O O7 0.888405 0.758847 0.245789
O O8 0.654731 0.380438 0.769536
O O9 0.555963 0.451984 0.624960
O O10 0.660686 0.187698 0.642560
O O11 0.990364 0.484279 0.813909
O O12 0.884577 0.744987 0.749918
O O13 0.616146 0.715611 0.678694
O O14 0.777171 0.931997 0.636603
#
# Coordination Sequence:
#
# PCOD9541608 Si02
#       7
#     4   4   4   4   4   4   4
#     4  10  21  39  67 100 127 171 218 286 330 386
#     4   9  19  41  69  96 128 171 221 272 336 396
#     4  10  19  36  66 101 129 162 218 282 332 386
#     4  10  23  42  65  97 140 174 224 274 333 393
#     4  12  24  38  63  96 137 176 218 268 328 405
#     4  11  20  36  66 100 127 164 222 278 333 385
#     4  10  22  40  66 100 134 174 225 270 334 399
#
# _framework density 21.893301000000001
#
# number of rings (size 3 to 8) (size 9 to 14) (size 15 to 20)
#    0.000    1.714    2.857    1.714    6.000    0.000 
#    0.000    1.429    3.143    0.000    0.000    0.000 
#    0.000    0.000    0.000    0.000    0.000    0.000 
#
# Total GULP energy -156407.377605 kJ/mol
# GULP energy per Si atom -5585.977772 kJ/mol
# Density = 2.184347 g / cm^3
# Si number density = 21.893301 Si / 1000 Ang^3
#
#
#
# Elastic Constant Matrix: (Units=GPa)
#
#
# Indices 1 2 3 4 5 6 
#
# 1 56.3214 34.9450 50.4139 0.0000 0.0000 -3.8247
# 2 34.9450 56.3214 50.4139 0.0000 0.0000 3.8247
# 3 50.4139 50.4139 136.8068 0.0000 0.0000 0.0000
# 4 0.0000 0.0000 0.0000 36.9880 0.0000 0.0000
# 5 0.0000 0.0000 0.0000 0.0000 36.9880 0.0000
# 6 -3.8247 3.8247 0.0000 0.0000 0.0000 15.2058
#
#
#
# Elastic Compliance Matrix: (Units=1/GPa)
#
#
# Indices 1 2 3 4 5 6 
#
# 1 0.034944 -0.016464 -0.006810 0.000000 0.000000 0.012931
# 2 -0.016464 0.034944 -0.006810 0.000000 0.000000 -0.012931
# 3 -0.006810 -0.006810 0.012329 0.000000 0.000000 0.000000
# 4 0.000000 0.000000 0.000000 0.027036 0.000000 0.000000
# 5 0.000000 0.000000 0.000000 0.000000 0.027036 0.000000
# 6 0.012931 -0.012931 0.000000 0.000000 0.000000 0.072269
#
#
# Mechanical properties :
#
#
# Convention : Reuss Voigt Hill
#
# Bulk Modulus (GPa) = 45.35314 57.88837 51.62075
# Shear Modulus (GPa) = 18.11098 25.41481 21.76290
#
# Velocity S-wave (km/s) = 2.87930 3.41082 3.15627
# Velocity P-wave (km/s) = 5.64042 6.48152 6.07554
#
# Compressibility (1/GPa) = 0.02204919
#
# Stress axis : x y z
#
# Youngs Moduli (GPa) = 28.61711 28.61711 81.11132
#
# Poissons Ratio (x) = 0.47114 0.55238
# Poissons Ratio (y) = 0.47114 0.55238
# Poissons Ratio (z) = 0.19489 0.19489
#
# Static dielectric constant tensor:
#      x y z
#    x 1.809100 0.000000 0.000000 
#    y 0.000000 1.809100 0.000000 
#    z 0.000000 0.000000 1.829850 
# 
# From -- ./inp_files/1281.got.cif
#   From: 2010.05.17/outbox.cif.g08.bks.cpg/sg78_cif.got.tgz:1281.got - 2010.06.03 18:45:56.
