data_PCOD9541548
_publ_section_title
;
Structure prediction by ZEFSAII (Michael W. Deem and Ramdas Pophale) SiO2 
 PCOD9541548
Probable space group: P 42
;
_chemical_formula_sum "Si O2"
_cell_formula_units_Z 14
_cell_length_a 5.308079
_cell_length_b 5.308079
_cell_length_c 19.786880
_cell_angle_alpha 90.000000
_cell_angle_beta 90.000000
_cell_angle_gamma 90.000000
_cell_volume 557.509248
_symmetry_space_group_name_H-M "P 42"
_symmetry_group_IT_number 77
_symmetry_cell_setting 'tetragonal'
loop_
_space_group_symop_operation_xyz
x,y,z
-y,x,1/2+z
-x,-y,z
y,-x,1/2+z
loop_
_atom_site_type_symbol
_atom_site_label
_atom_site_fract_x
_atom_site_fract_y
_atom_site_fract_z
Si Si1 0.163323 0.743040 0.492660
Si Si2 0.500000 0.500000 0.092579
Si Si3 0.833535 0.747794 0.842579
Si Si4 0.256960 0.163323 0.692498
O O1 0.397348 0.718035 0.543034
O O2 0.247114 0.699400 0.414802
O O3 0.000000 0.500000 0.509988
O O4 0.000000 0.000000 0.498035
O O5 0.602652 0.281965 0.142123
O O6 0.699400 0.752886 0.770356
O O7 0.000000 0.500000 0.842579
O O8 0.000000 0.000000 0.842579
O O9 0.500000 0.000000 0.675170
O O10 0.000000 0.000000 0.687123
#
# Coordination Sequence:
#
# PCOD9541548 Si02
#       4
#     4   2   4   4
#     4  11  29  52  80 116 161 211 271 332 406 480
#     4  12  32  46  84 116 176 210 272 328 420 498
#     4  10  25  51  83 115 154 208 274 337 395 474
#     4  11  29  52  80 116 161 211 271 332 406 480
#
# _framework density 25.111695000000001
#
# number of rings (size 3 to 8) (size 9 to 14) (size 15 to 20)
#    0.000    1.143    0.000    0.857   24.000    1.143 
#    0.000    0.000    0.000    0.000    0.000    0.000 
#    0.000    0.000    0.000    0.000    0.000    0.000 
#
# Total GULP energy -78412.015482 kJ/mol
# GULP energy per Si atom -5600.858249 kJ/mol
# Density = 2.505454 g / cm^3
# Si number density = 25.111695 Si / 1000 Ang^3
#
#
#
# Elastic Constant Matrix: (Units=GPa)
#
#
# Indices 1 2 3 4 5 6 
#
# 1 129.8272 41.8424 47.2172 0.0000 0.0000 6.2198
# 2 41.8424 129.8272 47.2172 0.0000 0.0000 -6.2198
# 3 47.2172 47.2172 254.0841 0.0000 0.0000 0.0000
# 4 0.0000 0.0000 0.0000 71.6975 0.0000 0.0000
# 5 0.0000 0.0000 0.0000 0.0000 71.6975 0.0000
# 6 6.2198 -6.2198 0.0000 0.0000 0.0000 45.3626
#
#
#
# Elastic Compliance Matrix: (Units=1/GPa)
#
#
# Indices 1 2 3 4 5 6 
#
# 1 0.009039 -0.002551 -0.001206 0.000000 0.000000 -0.001589
# 2 -0.002551 0.009039 -0.001206 0.000000 0.000000 0.001589
# 3 -0.001206 -0.001206 0.004384 0.000000 0.000000 0.000000
# 4 0.000000 0.000000 0.000000 0.013947 0.000000 0.000000
# 5 0.000000 0.000000 0.000000 0.000000 0.013947 0.000000
# 6 -0.001589 0.001589 0.000000 0.000000 0.000000 0.022480
#
#
# Mechanical properties :
#
#
# Convention : Reuss Voigt Hill
#
# Bulk Modulus (GPa) = 79.75977 87.36577 83.56277
# Shear Modulus (GPa) = 57.50958 62.91565 60.21262
#
# Velocity S-wave (km/s) = 4.79074 5.01086 4.90204
# Velocity P-wave (km/s) = 7.90143 8.26708 8.08632
#
# Compressibility (1/GPa) = 0.01253765
#
# Stress axis : x y z
#
# Youngs Moduli (GPa) = 110.62735 110.62735 228.11021
#
# Poissons Ratio (x) = 0.28220 0.27505
# Poissons Ratio (y) = 0.28220 0.27505
# Poissons Ratio (z) = 0.13339 0.13339
#
# Static dielectric constant tensor:
#      x y z
#    x 2.235910 0.000000 0.000000 
#    y 0.000000 2.235910 0.000000 
#    z 0.000000 0.000000 2.028940 
# 
# From -- ./inp_files/1433.got.cif
#   From: 2010.05.17/outbox.cif.g08.bks.cpg/sg77_cif.got.tgz:1433.got - 2010.06.03 18:44:51.
