data_PCOD9541275
_publ_section_title
;
Structure prediction by ZEFSAII (Michael W. Deem and Ramdas Pophale) SiO2 
 PCOD9541275
Probable space group: P 41
;
_chemical_formula_sum "Si O2"
_cell_formula_units_Z 28
_cell_length_a 12.812172
_cell_length_b 12.812172
_cell_length_c 7.409007
_cell_angle_alpha 90.000000
_cell_angle_beta 90.000000
_cell_angle_gamma 90.000000
_cell_volume 1216.201475
_symmetry_space_group_name_H-M "P 41"
_symmetry_group_IT_number 76
_symmetry_cell_setting 'tetragonal'
loop_
_space_group_symop_operation_xyz
x,y,z
-y,x,1/4+z
-x,-y,1/2+z
y,-x,3/4+z
loop_
_atom_site_type_symbol
_atom_site_label
_atom_site_fract_x
_atom_site_fract_y
_atom_site_fract_z
Si Si1 0.259941 0.667280 0.830040
Si Si2 0.040236 0.129995 0.176579
Si Si3 0.992549 0.405270 0.645770
Si Si4 0.637093 0.984382 0.488727
Si Si5 0.632868 0.521242 0.166846
Si Si6 0.232149 0.175828 0.423674
Si Si7 0.801807 0.677125 0.241183
O O1 0.141359 0.638585 0.769307
O O2 0.330072 0.563939 0.815870
O O3 0.300314 0.745365 0.677775
O O4 0.256035 0.724079 0.022105
O O5 0.134672 0.120458 0.323409
O O6 0.934636 0.079453 0.255199
O O7 0.019247 0.253333 0.153537
O O8 0.024844 0.368519 0.444979
O O9 0.896497 0.333340 0.702919
O O10 0.979644 0.529436 0.648401
O O11 0.087469 0.373813 0.771907
O O12 0.542235 0.592882 0.246666
O O13 0.731602 0.593559 0.133639
O O14 0.195514 0.222736 0.612215
#
# Coordination Sequence:
#
# PCOD9541275 Si02
#       7
#     4   4   4   4   4   4   4
#     4  10  23  45  65 100 141 177 233 295 351 423
#     4  12  25  49  72 106 151 188 241 309 364 447
#     4  11  24  45  71 102 140 185 239 296 356 431
#     4  11  24  45  67 102 144 183 243 298 356 438
#     4  10  23  41  64  99 136 178 235 292 353 425
#     4  11  24  47  70 105 142 182 238 292 360 432
#     4  11  23  44  71  98 140 181 235 290 354 434
#
# _framework density 23.022504000000001
#
# number of rings (size 3 to 8) (size 9 to 14) (size 15 to 20)
#    0.000    1.143    5.714    0.000    4.000    3.429 
#    2.571    0.000    0.000    0.000    0.000    0.000 
#    0.000    0.000    0.000    0.000    0.000    0.000 
#
# Total GULP energy -156674.710536 kJ/mol
# GULP energy per Si atom -5595.525376 kJ/mol
# Density = 2.297010 g / cm^3
# Si number density = 23.022504 Si / 1000 Ang^3
#
#
#
# Elastic Constant Matrix: (Units=GPa)
#
#
# Indices 1 2 3 4 5 6 
#
# 1 96.7920 33.9696 25.7304 0.0000 0.0000 -3.5113
# 2 33.9696 96.7920 25.7304 0.0000 0.0000 3.5113
# 3 25.7304 25.7304 39.5260 0.0000 0.0000 0.0000
# 4 0.0000 0.0000 0.0000 23.4389 0.0000 0.0000
# 5 0.0000 0.0000 0.0000 0.0000 23.4389 0.0000
# 6 -3.5113 3.5113 0.0000 0.0000 0.0000 33.5666
#
#
#
# Elastic Compliance Matrix: (Units=1/GPa)
#
#
# Indices 1 2 3 4 5 6 
#
# 1 0.013194 -0.002912 -0.006693 0.000000 0.000000 0.001685
# 2 -0.002912 0.013194 -0.006693 0.000000 0.000000 -0.001685
# 3 -0.006693 -0.006693 0.034014 0.000000 0.000000 0.000000
# 4 0.000000 0.000000 0.000000 0.042664 0.000000 0.000000
# 5 0.000000 0.000000 0.000000 0.000000 0.042664 0.000000
# 6 0.001685 -0.001685 0.000000 0.000000 0.000000 0.030144
#
#
# Mechanical properties :
#
#
# Convention : Reuss Voigt Hill
#
# Bulk Modulus (GPa) = 35.96505 44.88562 40.42533
# Shear Modulus (GPa) = 22.96334 25.93422 24.44878
#
# Velocity S-wave (km/s) = 3.16164 3.35994 3.26229
# Velocity P-wave (km/s) = 5.38364 5.88141 5.63802
#
# Compressibility (1/GPa) = 0.02780477
#
# Stress axis : x y z
#
# Youngs Moduli (GPa) = 75.79282 75.79282 29.39997
#
# Poissons Ratio (x) = 0.22074 0.19677
# Poissons Ratio (y) = 0.22074 0.19677
# Poissons Ratio (z) = 0.50728 0.50728
#
# Static dielectric constant tensor:
#      x y z
#    x 1.871470 0.000000 0.000000 
#    y 0.000000 1.871470 0.000000 
#    z 0.000000 0.000000 1.863120 
# 
# From -- ./inp_files/593.got.cif
#   From: 2010.05.17/outbox.cif.g08.bks.cpg/sg76_cif.got.tgz:593.got - 2010.06.03 18:43:17.
