data_PCOD9541226
_publ_section_title
;
Structure prediction by ZEFSAII (Michael W. Deem and Ramdas Pophale) SiO2 
 PCOD9541226
Probable space group: P 41
;
_chemical_formula_sum "Si O2"
_cell_formula_units_Z 28
_cell_length_a 14.977315
_cell_length_b 14.977315
_cell_length_c 5.666307
_cell_angle_alpha 90.000000
_cell_angle_beta 90.000000
_cell_angle_gamma 90.000000
_cell_volume 1271.065786
_symmetry_space_group_name_H-M "P 41"
_symmetry_group_IT_number 76
_symmetry_cell_setting 'tetragonal'
loop_
_space_group_symop_operation_xyz
x,y,z
-y,x,1/4+z
-x,-y,1/2+z
y,-x,3/4+z
loop_
_atom_site_type_symbol
_atom_site_label
_atom_site_fract_x
_atom_site_fract_y
_atom_site_fract_z
Si Si1 0.178604 0.728223 0.064410
Si Si2 0.698742 0.117948 0.455569
Si Si3 0.285284 0.554558 0.178454
Si Si4 0.568451 0.400337 0.975458
Si Si5 0.874807 0.509532 0.982448
Si Si6 0.778527 0.602908 0.353619
Si Si7 0.312454 0.076811 0.809035
O O1 0.248560 0.645750 0.069850
O O2 0.118208 0.717801 0.304862
O O3 0.229280 0.823496 0.096865
O O4 0.129357 0.711891 0.806956
O O5 0.598673 0.108378 0.573352
O O6 0.686061 0.184010 0.235464
O O7 0.725507 0.021481 0.363245
O O8 0.386751 0.551748 0.251817
O O9 0.219720 0.532684 0.399472
O O10 0.267351 0.470061 0.017055
O O11 0.600745 0.462958 0.187905
O O12 0.620941 0.306521 0.945198
O O13 0.860357 0.553517 0.234453
O O14 0.933112 0.420775 0.016304
#
# Coordination Sequence:
#
# PCOD9541226 Si02
#       7
#     4   4   4   4   4   4   4
#     4  11  26  47  73 103 146 185 228 297 369 444
#     4  11  28  42  76 106 138 189 240 294 368 446
#     4  10  22  40  56  92 131 190 233 286 347 401
#     4  12  24  36  55  86 136 194 252 287 328 395
#     4  10  22  42  65  97 141 186 231 297 350 411
#     4  11  23  39  63  92 133 185 243 293 348 407
#     4  11  27  48  74 110 149 183 235 300 368 430
#
# _framework density 22.028756999999999
#
# number of rings (size 3 to 8) (size 9 to 14) (size 15 to 20)
#    0.000    1.143    2.857    1.714   14.000    0.000 
#    0.000    0.000    0.000    1.714    0.000    0.000 
#    0.000    0.000    0.000    0.000    0.000    0.000 
#
# Total GULP energy -155914.553065 kJ/mol
# GULP energy per Si atom -5568.376895 kJ/mol
# Density = 2.197862 g / cm^3
# Si number density = 22.028757 Si / 1000 Ang^3
#
#
#
# Elastic Constant Matrix: (Units=GPa)
#
#
# Indices 1 2 3 4 5 6 
#
# 1 84.6754 35.6328 29.6103 0.0000 0.0000 -5.7268
# 2 35.6328 84.6754 29.6103 0.0000 0.0000 5.7268
# 3 29.6103 29.6103 82.4360 0.0000 0.0000 0.0000
# 4 0.0000 0.0000 0.0000 20.2629 0.0000 0.0000
# 5 0.0000 0.0000 0.0000 0.0000 20.2629 0.0000
# 6 -5.7268 5.7268 0.0000 0.0000 0.0000 14.8595
#
#
#
# Elastic Compliance Matrix: (Units=1/GPa)
#
#
# Indices 1 2 3 4 5 6 
#
# 1 0.016252 -0.006155 -0.003627 0.000000 0.000000 0.008636
# 2 -0.006155 0.016252 -0.003627 0.000000 0.000000 -0.008636
# 3 -0.003627 -0.003627 0.014736 0.000000 0.000000 0.000000
# 4 0.000000 0.000000 0.000000 0.049351 0.000000 0.000000
# 5 0.000000 0.000000 0.000000 0.000000 0.049351 0.000000
# 6 0.008636 -0.008636 0.000000 0.000000 0.000000 0.073953
#
#
# Mechanical properties :
#
#
# Convention : Reuss Voigt Hill
#
# Bulk Modulus (GPa) = 48.96387 49.05484 49.00936
# Shear Modulus (GPa) = 19.72218 21.53929 20.63073
#
# Velocity S-wave (km/s) = 2.99539 3.13034 3.06361
# Velocity P-wave (km/s) = 5.85138 5.94830 5.90004
#
# Compressibility (1/GPa) = 0.02042322
#
# Stress axis : x y z
#
# Youngs Moduli (GPa) = 61.53000 61.53000 67.86065
#
# Poissons Ratio (x) = 0.37872 0.24612
# Poissons Ratio (y) = 0.37872 0.24612
# Poissons Ratio (z) = 0.22316 0.22316
#
# Static dielectric constant tensor:
#      x y z
#    x 1.977880 0.000000 0.000000 
#    y 0.000000 1.977880 0.000000 
#    z 0.000000 0.000000 2.062460 
# 
# From -- ./inp_files/258.got.cif
#   From: 2010.05.17/outbox.cif.g08.bks.cpg/sg76_cif.got.tgz:258.got - 2010.06.03 18:43:17.
