data_PCOD9541954
_publ_section_title
;
Structure prediction by ZEFSAII (Michael W. Deem and Ramdas Pophale) SiO2 
 PCOD9541954
Probable space group: I 4
;
_chemical_formula_sum "Si O2"
_cell_formula_units_Z 40
_cell_length_a 10.659135
_cell_length_b 10.659135
_cell_length_c 18.109826
_cell_angle_alpha 90.000000
_cell_angle_beta 90.000000
_cell_angle_gamma 90.000000
_cell_volume 2057.586979
_symmetry_space_group_name_H-M "I 4"
_symmetry_group_IT_number 79
_symmetry_cell_setting 'tetragonal'
loop_
_space_group_symop_operation_xyz
x,y,z
-y,x,z
-x,-y,z
y,-x,z
1/2+x,1/2+y,1/2+z
1/2-y,1/2+x,1/2+z
1/2-x,1/2-y,1/2+z
1/2+y,1/2-x,1/2+z
loop_
_atom_site_type_symbol
_atom_site_label
_atom_site_fract_x
_atom_site_fract_y
_atom_site_fract_z
Si Si1 0.063896 0.196780 0.455590
Si Si2 0.097166 0.809969 0.224352
Si Si3 0.372168 0.049752 0.352325
Si Si4 0.200548 0.730165 0.070052
Si Si5 0.855212 0.457144 0.506335
O O1 0.101656 0.240751 0.537428
O O2 0.923208 0.149337 0.444431
O O3 0.068098 0.304130 0.393986
O O4 0.113258 0.722539 0.295651
O O5 0.151051 0.738407 0.153011
O O6 0.947160 0.838245 0.223643
O O7 0.414615 0.135353 0.421386
O O8 0.500000 0.000000 0.315348
O O9 0.297974 0.841448 0.052459
O O10 0.073880 0.736218 0.021068
O O11 0.000000 0.500000 0.525608
#
# Coordination Sequence:
#
# PCOD9541954 Si02
#       5
#     8   8   8   8   8
#     4  11  21  37  69 100 127 174 227 282 334 402
#     4  11  25  42  64  96 134 178 226 282 344 408
#     4  11  22  41  62  95 131 170 222 282 341 396
#     4  12  21  42  67  96 138 173 227 282 342 405
#     4  11  23  40  69  99 133 175 231 277 336 410
#
# _framework density 19.440249000000001
#
# number of rings (size 3 to 8) (size 9 to 14) (size 15 to 20)
#    0.000    0.800    8.000    1.200    0.000    2.800 
#    3.600    0.000    0.000    0.000    0.000    0.000 
#    0.000    0.000    0.000    0.000    0.000    0.000 
#
# Total GULP energy -111372.314177 kJ/mol
# GULP energy per Si atom -5568.615709 kJ/mol
# Density = 1.939600 g / cm^3
# Si number density = 19.440249 Si / 1000 Ang^3
#
#
#
# Elastic Constant Matrix: (Units=GPa)
#
#
# Indices 1 2 3 4 5 6 
#
# 1 97.9134 38.1078 50.1516 0.0000 0.0000 12.0399
# 2 38.1078 97.9134 50.1516 0.0000 0.0000 -12.0399
# 3 50.1516 50.1516 143.4883 0.0000 0.0000 0.0000
# 4 0.0000 0.0000 0.0000 32.7183 0.0000 0.0000
# 5 0.0000 0.0000 0.0000 0.0000 32.7183 0.0000
# 6 12.0399 -12.0399 0.0000 0.0000 0.0000 38.7023
#
#
#
# Elastic Compliance Matrix: (Units=1/GPa)
#
#
# Indices 1 2 3 4 5 6 
#
# 1 0.014510 -0.004605 -0.003462 0.000000 0.000000 -0.005947
# 2 -0.004605 0.014510 -0.003462 0.000000 0.000000 0.005947
# 3 -0.003462 -0.003462 0.009389 0.000000 0.000000 0.000000
# 4 0.000000 0.000000 0.000000 0.030564 0.000000 0.000000
# 5 0.000000 0.000000 0.000000 0.000000 0.030564 0.000000
# 6 -0.005947 0.005947 0.000000 0.000000 0.000000 0.029538
#
#
# Mechanical properties :
#
#
# Convention : Reuss Voigt Hill
#
# Bulk Modulus (GPa) = 65.14229 68.45968 66.80098
# Shear Modulus (GPa) = 31.79657 34.22138 33.00897
#
# Velocity S-wave (km/s) = 4.04865 4.20019 4.12511
# Velocity P-wave (km/s) = 7.44561 7.66903 7.55815
#
# Compressibility (1/GPa) = 0.01535101
#
# Stress axis : x y z
#
# Youngs Moduli (GPa) = 68.91866 68.91866 106.50600
#
# Poissons Ratio (x) = 0.31739 0.36870
# Poissons Ratio (y) = 0.31739 0.36870
# Poissons Ratio (z) = 0.23858 0.23858
#
# Static dielectric constant tensor:
#      x y z
#    x 1.747890 0.000000 0.000000 
#    y 0.000000 1.747890 0.000000 
#    z 0.000000 0.000000 1.679970 
# 
# From -- ./inp_files/1326.got.cif
#   From: 2010.05.17/outbox.cif.g08.bks.cpg/sg79_cif.got.tgz:1326.got - 2010.06.03 18:47:27.
