data_PCOD9541352
_publ_section_title
;
Structure prediction by ZEFSAII (Michael W. Deem and Ramdas Pophale) SiO2 
 PCOD9541352
Probable space group: P 41
;
_chemical_formula_sum "Si O2"
_cell_formula_units_Z 20
_cell_length_a 7.516903
_cell_length_b 7.516903
_cell_length_c 13.890830
_cell_angle_alpha 90.000000
_cell_angle_beta 90.000000
_cell_angle_gamma 90.000000
_cell_volume 784.885107
_symmetry_space_group_name_H-M "P 41"
_symmetry_group_IT_number 76
_symmetry_cell_setting 'tetragonal'
loop_
_space_group_symop_operation_xyz
x,y,z
-y,x,1/4+z
-x,-y,1/2+z
y,-x,3/4+z
loop_
_atom_site_type_symbol
_atom_site_label
_atom_site_fract_x
_atom_site_fract_y
_atom_site_fract_z
Si Si1 0.788648 0.788648 0.739680
Si Si2 0.301336 0.794038 0.390474
Si Si3 0.795643 0.184040 0.285752
Si Si4 0.795643 0.815960 0.943608
Si Si5 0.698663 0.794038 0.338887
O O1 0.735698 0.714879 0.634512
O O2 0.714878 0.735699 0.844848
O O3 0.000682 0.760478 0.761518
O O4 0.760478 0.000682 0.717842
O O5 0.214992 0.702719 0.296577
O O6 0.500000 0.844921 0.364680
O O7 0.312119 0.687880 0.489680
O O8 0.201615 0.976291 0.417440
O O9 0.702719 0.214993 0.182783
O O10 0.798384 0.976291 0.311920
#
# Coordination Sequence:
#
# PCOD9541352 Si02
#       5
#     4   4   4   4   4
#     4   8  14  30  62  86 112 140 188 266 292 328
#     4  11  22  39  61  87 123 161 198 249 304 362
#     4   9  17  35  59  88 115 147 198 247 303 340
#     4   9  17  35  59  88 115 147 198 247 303 340
#     4  11  22  39  61  87 123 161 198 249 304 362
#
# _framework density 25.481437
#
# number of rings (size 3 to 8) (size 9 to 14) (size 15 to 20)
#    0.000    2.400    2.000    1.200    0.000    0.000 
#   28.800    2.000    0.000    0.000    0.000    0.000 
#    0.000    0.000    0.000    0.000    0.000    0.000 
#
# Total GULP energy -111433.757493 kJ/mol
# GULP energy per Si atom -5571.687875 kJ/mol
# Density = 2.542344 g / cm^3
# Si number density = 25.481437 Si / 1000 Ang^3
#
#
#
# Elastic Constant Matrix: (Units=GPa)
#
#
# Indices 1 2 3 4 5 6 
#
# 1 32.4414 8.6118 35.7644 0.0000 0.0000 0.0005
# 2 8.6118 32.4414 35.7644 0.0000 0.0000 -0.0005
# 3 35.7644 35.7644 367.3438 0.0000 0.0000 0.0000
# 4 0.0000 0.0000 0.0000 7.8179 0.0000 0.0000
# 5 0.0000 0.0000 0.0000 0.0000 7.8179 0.0000
# 6 0.0005 -0.0005 0.0000 0.0000 0.0000 -9.5295
#
#
#
# Elastic Compliance Matrix: (Units=1/GPa)
#
#
# Indices 1 2 3 4 5 6 
#
# 1 0.035650 -0.006315 -0.002856 0.000000 0.000000 0.000002
# 2 -0.006315 0.035650 -0.002856 0.000000 0.000000 -0.000002
# 3 -0.002856 -0.002856 0.003278 0.000000 0.000000 0.000000
# 4 0.000000 0.000000 0.000000 0.127911 0.000000 0.000000
# 5 0.000000 0.000000 0.000000 0.000000 0.127911 0.000000
# 6 0.000002 -0.000002 0.000000 0.000000 0.000000 -0.104937
#
#
# Mechanical properties :
#
#
# Convention : Reuss Voigt Hill
#
# Bulk Modulus (GPa) = 19.79258 65.83419 42.81338
# Shear Modulus (GPa) = 18.77178 24.69368 21.73273
#
# Velocity S-wave (km/s) = 2.71714 3.11639 2.92359
# Velocity P-wave (km/s) = 4.19858 6.23229 5.31364
#
# Compressibility (1/GPa) = 0.05052398
#
# Stress axis : x y z
#
# Youngs Moduli (GPa) = 28.05072 28.05072 305.02982
#
# Poissons Ratio (x) = 0.17714 0.87117
# Poissons Ratio (y) = 0.17714 0.87117
# Poissons Ratio (z) = 0.08011 0.08011
#
# Static dielectric constant tensor:
#      x y z
#    x 2.014280 0.000000 0.000000 
#    y 0.000000 2.014280 0.000000 
#    z 0.000000 0.000000 2.424990 
# 
# From -- ./inp_files/782.got.cif
#   From: 2010.05.17/outbox.cif.g08.bks.cpg/sg76_cif.got.tgz:782.got - 2010.06.03 18:43:17.
