data_PCOD9541276
_publ_section_title
;
Structure prediction by ZEFSAII (Michael W. Deem and Ramdas Pophale) SiO2 
 PCOD9541276
Probable space group: P 41
;
_chemical_formula_sum "Si O2"
_cell_formula_units_Z 28
_cell_length_a 8.706371
_cell_length_b 8.706371
_cell_length_c 18.878816
_cell_angle_alpha 90.000000
_cell_angle_beta 90.000000
_cell_angle_gamma 90.000000
_cell_volume 1431.031168
_symmetry_space_group_name_H-M "P 41"
_symmetry_group_IT_number 76
_symmetry_cell_setting 'tetragonal'
loop_
_space_group_symop_operation_xyz
x,y,z
-y,x,1/4+z
-x,-y,1/2+z
y,-x,3/4+z
loop_
_atom_site_type_symbol
_atom_site_label
_atom_site_fract_x
_atom_site_fract_y
_atom_site_fract_z
Si Si1 0.145832 0.859477 0.435970
Si Si2 0.032878 0.006046 0.821475
Si Si3 0.553873 0.680059 0.233046
Si Si4 0.780298 0.214897 0.522446
Si Si5 0.529599 0.572285 0.840757
Si Si6 0.610558 0.064729 0.813276
Si Si7 0.338050 0.878554 0.871734
O O1 0.111430 0.973972 0.501220
O O2 0.210698 0.700762 0.468239
O O3 0.269286 0.900788 0.375511
O O4 0.992230 0.881102 0.388358
O O5 0.196180 0.923372 0.822583
O O6 0.913430 0.863550 0.820772
O O7 0.507100 0.591986 0.161743
O O8 0.563286 0.548609 0.292865
O O9 0.421943 0.791613 0.263422
O O10 0.642181 0.317400 0.553279
O O11 0.725930 0.134459 0.451046
O O12 0.922817 0.333151 0.514883
O O13 0.420797 0.717093 0.856562
O O14 0.461285 0.010000 0.855944
#
# Coordination Sequence:
#
# PCOD9541276 Si02
#       7
#     4   4   4   4   4   4   4
#     4  11  24  43  68  98 131 179 215 277 331 405
#     4  11  23  43  68  98 134 169 226 271 337 390
#     4  12  23  45  63  97 134 174 217 273 334 403
#     4  10  23  41  66  96 125 172 218 271 323 394
#     4  11  25  43  70  93 134 173 223 270 338 393
#     4  10  24  40  68  95 133 170 222 269 330 399
#     4  11  22  43  65  97 131 167 215 279 323 388
#
# _framework density 19.566312
#
# number of rings (size 3 to 8) (size 9 to 14) (size 15 to 20)
#    0.000    1.143    5.714    0.000    2.000    5.714 
#    5.143    0.000    0.000    0.000    0.000    0.000 
#    0.000    0.000    0.000    0.000    0.000    0.000 
#
# Total GULP energy -155972.247294 kJ/mol
# GULP energy per Si atom -5570.437403 kJ/mol
# Density = 1.952178 g / cm^3
# Si number density = 19.566312 Si / 1000 Ang^3
#
#
#
# Elastic Constant Matrix: (Units=GPa)
#
#
# Indices 1 2 3 4 5 6 
#
# 1 45.8268 17.1517 15.0062 0.0000 0.0000 -3.2930
# 2 17.1517 45.8268 15.0062 0.0000 0.0000 3.2930
# 3 15.0062 15.0062 91.5754 0.0000 0.0000 0.0000
# 4 0.0000 0.0000 0.0000 30.0000 0.0000 0.0000
# 5 0.0000 0.0000 0.0000 0.0000 30.0000 0.0000
# 6 -3.2930 3.2930 0.0000 0.0000 0.0000 21.5189
#
#
#
# Elastic Compliance Matrix: (Units=1/GPa)
#
#
# Indices 1 2 3 4 5 6 
#
# 1 0.026684 -0.009460 -0.002822 0.000000 0.000000 0.005531
# 2 -0.009460 0.026684 -0.002822 0.000000 0.000000 -0.005531
# 3 -0.002822 -0.002822 0.011845 0.000000 0.000000 0.000000
# 4 0.000000 0.000000 0.000000 0.033333 0.000000 0.000000
# 5 0.000000 0.000000 0.000000 0.000000 0.033333 0.000000
# 6 0.005531 -0.005531 0.000000 0.000000 0.000000 0.048164
#
#
# Mechanical properties :
#
#
# Convention : Reuss Voigt Hill
#
# Bulk Modulus (GPa) = 28.56949 30.83969 29.70459
# Shear Modulus (GPa) = 22.53066 25.37476 23.95271
#
# Velocity S-wave (km/s) = 3.39706 3.60510 3.50263
# Velocity P-wave (km/s) = 5.47903 5.75542 5.61892
#
# Compressibility (1/GPa) = 0.03500238
#
# Stress axis : x y z
#
# Youngs Moduli (GPa) = 37.47617 37.47617 84.42420
#
# Poissons Ratio (x) = 0.35453 0.23827
# Poissons Ratio (y) = 0.35453 0.23827
# Poissons Ratio (z) = 0.10577 0.10577
#
# Static dielectric constant tensor:
#      x y z
#    x 1.719060 0.000000 0.000000 
#    y 0.000000 1.719060 0.000000 
#    z 0.000000 0.000000 1.697850 
# 
# From -- ./inp_files/1239.got.cif
#   From: 2010.05.17/outbox.cif.g08.bks.cpg/sg76_cif.got.tgz:1239.got - 2010.06.03 18:43:17.
