data_PCOD9541618
_publ_section_title
;
Structure prediction by ZEFSAII (Michael W. Deem and Ramdas Pophale) SiO2 
 PCOD9541618
Probable space group: P 43
;
_chemical_formula_sum "Si O2"
_cell_formula_units_Z 28
_cell_length_a 7.858366
_cell_length_b 7.858366
_cell_length_c 18.900382
_cell_angle_alpha 90.000000
_cell_angle_beta 90.000000
_cell_angle_gamma 90.000000
_cell_volume 1167.172606
_symmetry_space_group_name_H-M "P 43"
_symmetry_group_IT_number 78
_symmetry_cell_setting 'tetragonal'
loop_
_space_group_symop_operation_xyz
x,y,z
-y,x,3/4+z
-x,-y,1/2+z
y,-x,1/4+z
loop_
_atom_site_type_symbol
_atom_site_label
_atom_site_fract_x
_atom_site_fract_y
_atom_site_fract_z
Si Si1 0.022077 0.731958 0.835910
Si Si2 0.057597 0.422530 0.734401
Si Si3 0.670976 0.386038 0.422976
Si Si4 0.548199 0.643936 0.791193
Si Si5 0.444844 0.001463 0.326592
Si Si6 0.869448 0.739707 0.985545
Si Si7 0.291960 0.290424 0.999308
O O1 0.199368 0.727370 0.878641
O O2 0.075563 0.856727 0.772053
O O3 0.009392 0.549568 0.797743
O O4 0.898575 0.755357 0.902171
O O5 0.033775 0.514328 0.658299
O O6 0.908416 0.282206 0.733737
O O7 0.255402 0.367652 0.737229
O O8 0.515674 0.409741 0.368791
O O9 0.752475 0.568834 0.439794
O O10 0.378703 0.701474 0.747978
O O11 0.652877 0.488379 0.760881
O O12 0.643232 0.825878 0.796395
O O13 0.339886 0.832224 0.313164
O O14 0.620697 0.998439 0.280067
#
# Coordination Sequence:
#
# PCOD9541618 Si02
#       7
#     4   4   4   4   4   4   4
#     4  11  21  42  68  99 144 197 244 305 376 448
#     4  11  25  37  67 109 130 180 252 284 363 449
#     4  10  19  41  66  97 133 193 228 288 357 439
#     4   8  19  36  63  93 137 175 230 285 349 427
#     4   9  21  43  62 101 145 170 241 301 350 445
#     4   9  20  42  68  97 137 191 244 298 364 450
#     4  12  21  39  72 102 138 182 227 297 367 420
#
# _framework density 23.989595000000001
#
# number of rings (size 3 to 8) (size 9 to 14) (size 15 to 20)
#    0.857    1.143    2.857    2.571    0.000    4.571 
#    0.000    2.857    0.000    0.000    0.000    0.000 
#    0.000    0.000    0.000    0.000    0.000    0.000 
#
# Total GULP energy -155949.593455 kJ/mol
# GULP energy per Si atom -5569.628338 kJ/mol
# Density = 2.393499 g / cm^3
# Si number density = 23.989595 Si / 1000 Ang^3
#
#
#
# Elastic Constant Matrix: (Units=GPa)
#
#
# Indices 1 2 3 4 5 6 
#
# 1 62.7369 -3.6185 18.4233 0.0000 0.0000 16.8148
# 2 -3.6185 62.7369 18.4233 0.0000 0.0000 -16.8148
# 3 18.4233 18.4233 113.0534 0.0000 0.0000 0.0000
# 4 0.0000 0.0000 0.0000 27.8726 0.0000 0.0000
# 5 0.0000 0.0000 0.0000 0.0000 27.8726 0.0000
# 6 16.8148 -16.8148 0.0000 0.0000 0.0000 17.5185
#
#
#
# Elastic Compliance Matrix: (Units=1/GPa)
#
#
# Indices 1 2 3 4 5 6 
#
# 1 0.024087 -0.005259 -0.003068 0.000000 0.000000 -0.028167
# 2 -0.005259 0.024087 -0.003068 0.000000 0.000000 0.028167
# 3 -0.003068 -0.003068 0.009845 0.000000 0.000000 0.000000
# 4 0.000000 0.000000 0.000000 0.035877 0.000000 0.000000
# 5 0.000000 0.000000 0.000000 0.000000 0.035877 0.000000
# 6 -0.028167 0.028167 0.000000 0.000000 0.000000 0.111154
#
#
# Mechanical properties :
#
#
# Convention : Reuss Voigt Hill
#
# Bulk Modulus (GPa) = 28.38673 33.88704 31.13689
# Shear Modulus (GPa) = 18.15142 28.33936 23.24539
#
# Velocity S-wave (km/s) = 2.75369 3.44076 3.11622
# Velocity P-wave (km/s) = 4.68711 5.47188 5.09463
#
# Compressibility (1/GPa) = 0.03522772
#
# Stress axis : x y z
#
# Youngs Moduli (GPa) = 41.51690 41.51690 101.57079
#
# Poissons Ratio (x) = 0.21834 0.31163
# Poissons Ratio (y) = 0.21834 0.31163
# Poissons Ratio (z) = 0.12738 0.12738
#
# Static dielectric constant tensor:
#      x y z
#    x 2.074380 0.000000 0.000000 
#    y 0.000000 2.074380 0.000000 
#    z 0.000000 0.000000 1.955870 
# 
# From -- ./inp_files/1434.got.cif
#   From: 2010.05.17/outbox.cif.g08.bks.cpg/sg78_cif.got.tgz:1434.got - 2010.06.03 18:45:56.
