data_PCOD9541393
_publ_section_title
;
Structure prediction by ZEFSAII (Michael W. Deem and Ramdas Pophale) SiO2 
 PCOD9541393
Probable space group: P 41
;
_chemical_formula_sum "Si O2"
_cell_formula_units_Z 28
_cell_length_a 12.301208
_cell_length_b 12.301208
_cell_length_c 7.461222
_cell_angle_alpha 90.000000
_cell_angle_beta 90.000000
_cell_angle_gamma 90.000000
_cell_volume 1129.030011
_symmetry_space_group_name_H-M "P 41"
_symmetry_group_IT_number 76
_symmetry_cell_setting 'tetragonal'
loop_
_space_group_symop_operation_xyz
x,y,z
-y,x,1/4+z
-x,-y,1/2+z
y,-x,3/4+z
loop_
_atom_site_type_symbol
_atom_site_label
_atom_site_fract_x
_atom_site_fract_y
_atom_site_fract_z
Si Si1 0.393843 0.398818 0.372320
Si Si2 0.583736 0.267270 0.975990
Si Si3 0.952073 0.136157 0.775895
Si Si4 0.005095 0.397691 0.297828
Si Si5 0.242333 0.797371 0.018064
Si Si6 0.777269 0.352954 0.214501
Si Si7 0.634188 0.014834 0.956917
O O1 0.516607 0.386766 0.453895
O O2 0.329715 0.446047 0.544694
O O3 0.314927 0.294015 0.344879
O O4 0.465138 0.258032 0.069006
O O5 0.624557 0.145133 0.941808
O O6 0.681782 0.325514 0.077001
O O7 0.851641 0.149564 0.636993
O O8 0.057625 0.085175 0.682331
O O9 0.982081 0.259953 0.815619
O O10 0.112525 0.334516 0.246117
O O11 0.974261 0.361770 0.500604
O O12 0.901682 0.380939 0.168743
O O13 0.028291 0.525091 0.295052
O O14 0.207485 0.757848 0.824151
#
# Coordination Sequence:
#
# PCOD9541393 Si02
#       7
#     4   4   4   4   4   4   4
#     4  12  28  44  71 108 157 201 253 309 380 456
#     4  11  24  47  68 108 147 196 246 309 377 453
#     4  12  26  51  77 107 153 194 258 321 385 456
#     4  11  25  48  73 107 145 191 251 308 368 459
#     4  12  26  46  76 106 148 199 250 315 383 442
#     4  11  26  44  73 103 150 189 253 307 370 461
#     4  11  25  48  72 109 146 194 251 309 385 447
#
# _framework density 24.800051
#
# number of rings (size 3 to 8) (size 9 to 14) (size 15 to 20)
#    0.000    0.571    5.714    0.000   10.000    2.286 
#    5.143    0.000    0.000    0.000    0.000    0.000 
#    0.000    0.000    0.000    0.000    0.000    0.000 
#
# Total GULP energy -156564.349942 kJ/mol
# GULP energy per Si atom -5591.583927 kJ/mol
# Density = 2.474361 g / cm^3
# Si number density = 24.800051 Si / 1000 Ang^3
#
#
#
# Elastic Constant Matrix: (Units=GPa)
#
#
# Indices 1 2 3 4 5 6 
#
# 1 102.4269 70.0635 27.6183 0.0000 0.0000 18.2675
# 2 70.0635 102.4269 27.6183 0.0000 0.0000 -18.2675
# 3 27.6183 27.6183 41.9064 0.0000 0.0000 0.0000
# 4 0.0000 0.0000 0.0000 30.1811 0.0000 0.0000
# 5 0.0000 0.0000 0.0000 0.0000 30.1811 0.0000
# 6 18.2675 -18.2675 0.0000 0.0000 0.0000 21.5143
#
#
#
# Elastic Compliance Matrix: (Units=1/GPa)
#
#
# Indices 1 2 3 4 5 6 
#
# 1 0.376234 -0.368886 -0.004843 0.000000 0.000000 -0.632670
# 2 -0.368886 0.376234 -0.004843 0.000000 0.000000 0.632670
# 3 -0.004843 -0.004843 0.030246 0.000000 0.000000 0.000000
# 4 0.000000 0.000000 0.000000 0.033133 0.000000 0.000000
# 5 0.000000 0.000000 0.000000 0.000000 0.033133 0.000000
# 6 -0.632670 0.632670 0.000000 0.000000 0.000000 1.120862
#
#
# Mechanical properties :
#
#
# Convention : Reuss Voigt Hill
#
# Bulk Modulus (GPa) = 39.10659 55.26226 47.18442
# Shear Modulus (GPa) = 1.82781 24.47262 13.15022
#
# Velocity S-wave (km/s) = 0.85943 3.14474 2.30521
# Velocity P-wave (km/s) = 4.09729 5.95964 5.11396
#
# Compressibility (1/GPa) = 0.02557114
#
# Stress axis : x y z
#
# Youngs Moduli (GPa) = 2.65792 2.65792 33.06225
#
# Poissons Ratio (x) = 0.98047 0.16011
# Poissons Ratio (y) = 0.98047 0.16011
# Poissons Ratio (z) = 0.01287 0.01287
#
# Static dielectric constant tensor:
#      x y z
#    x 1.982800 0.000000 0.000000 
#    y 0.000000 1.982800 0.000000 
#    z 0.000000 0.000000 2.054840 
# 
# From -- ./inp_files/596.got.cif
#   From: 2010.05.17/outbox.cif.g08.bks.cpg/sg76_cif.got.tgz:596.got - 2010.06.03 18:43:17.
