data_PCOD9541097
_publ_section_title
;
Structure prediction by ZEFSAII (Michael W. Deem and Ramdas Pophale) SiO2 
 PCOD9541097
Probable space group: P 41
;
_chemical_formula_sum "Si O2"
_cell_formula_units_Z 24
_cell_length_a 16.086245
_cell_length_b 16.086245
_cell_length_c 5.409895
_cell_angle_alpha 90.000000
_cell_angle_beta 90.000000
_cell_angle_gamma 90.000000
_cell_volume 1399.903804
_symmetry_space_group_name_H-M "P 41"
_symmetry_group_IT_number 76
_symmetry_cell_setting 'tetragonal'
loop_
_space_group_symop_operation_xyz
x,y,z
-y,x,1/4+z
-x,-y,1/2+z
y,-x,3/4+z
loop_
_atom_site_type_symbol
_atom_site_label
_atom_site_fract_x
_atom_site_fract_y
_atom_site_fract_z
Si Si1 0.154047 0.157156 0.209950
Si Si2 0.588172 0.061428 0.801075
Si Si3 0.911422 0.091207 0.965839
Si Si4 0.330728 0.923429 0.803553
Si Si5 0.870270 0.347174 0.549980
Si Si6 0.896229 0.398169 0.053185
O O1 0.108158 0.146823 0.477279
O O2 0.117846 0.241712 0.092632
O O3 0.250083 0.148259 0.284237
O O4 0.143506 0.095655 0.971028
O O5 0.616066 0.100908 0.543720
O O6 0.488753 0.061741 0.810251
O O7 0.625514 0.968069 0.798504
O O8 0.626833 0.101743 0.046016
O O9 0.999802 0.099789 0.830014
O O10 0.332981 0.025486 0.799739
O O11 0.841126 0.386387 0.294664
O O12 0.842715 0.383984 0.809440
#
# Coordination Sequence:
#
# PCOD9541097 Si02
#       6
#     4   4   4   4   4   4
#     4  12  25  36  56  72 102 136 174 220 297 312
#     4  10  19  34  56  76  94 124 172 222 262 306
#     4  12  27  42  50  64  88 138 196 240 259 298
#     4  10  20  32  49  76  99 123 160 214 271 320
#     4  10  20  32  49  76  99 123 160 214 271 320
#     4  10  19  34  56  76  94 124 172 222 262 306
#
# _framework density 17.144034999999999
#
# number of rings (size 3 to 8) (size 9 to 14) (size 15 to 20)
#    0.000    1.333    0.000    9.000   14.000    0.000 
#    0.000    0.000    0.000    0.000    0.000    0.000 
#    0.000    0.000    0.000    0.000    0.000  120.000 
#
# Total GULP energy -133643.207685 kJ/mol
# GULP energy per Si atom -5568.466987 kJ/mol
# Density = 1.710501 g / cm^3
# Si number density = 17.144035 Si / 1000 Ang^3
#
#
#
# Elastic Constant Matrix: (Units=GPa)
#
#
# Indices 1 2 3 4 5 6 
#
# 1 84.6300 -40.9422 5.8176 0.0000 0.0000 -19.0843
# 2 -40.9422 84.6300 5.8176 0.0000 0.0000 19.0843
# 3 5.8176 5.8176 177.6450 0.0000 0.0000 0.0000
# 4 0.0000 0.0000 0.0000 25.8472 0.0000 0.0000
# 5 0.0000 0.0000 0.0000 0.0000 25.8472 0.0000
# 6 -19.0843 19.0843 0.0000 0.0000 0.0000 13.8471
#
#
#
# Elastic Compliance Matrix: (Units=1/GPa)
#
#
# Indices 1 2 3 4 5 6 
#
# 1 0.018398 0.004693 -0.000756 0.000000 0.000000 0.018888
# 2 0.004693 0.018398 -0.000756 0.000000 0.000000 -0.018888
# 3 -0.000756 -0.000756 0.005679 0.000000 0.000000 0.000000
# 4 0.000000 0.000000 0.000000 0.038689 0.000000 0.000000
# 5 0.000000 0.000000 0.000000 0.000000 0.038689 0.000000
# 6 0.018888 -0.018888 0.000000 0.000000 0.000000 0.124281
#
#
# Mechanical properties :
#
#
# Convention : Reuss Voigt Hill
#
# Bulk Modulus (GPa) = 20.47663 32.03231 26.25447
# Shear Modulus (GPa) = 19.68111 38.18910 28.93510
#
# Velocity S-wave (km/s) = 3.39187 4.72481 4.11270
# Velocity P-wave (km/s) = 5.22585 6.96347 6.15627
#
# Compressibility (1/GPa) = 0.04883617
#
# Stress axis : x y z
#
# Youngs Moduli (GPa) = 54.35395 54.35395 176.09560
#
# Poissons Ratio (x) = -0.25509 0.13316
# Poissons Ratio (y) = -0.25509 0.13316
# Poissons Ratio (z) = 0.04110 0.04110
#
# Static dielectric constant tensor:
#      x y z
#    x 1.602970 0.000000 0.000000 
#    y 0.000000 1.602970 0.000000 
#    z 0.000000 0.000000 1.748530 
# 
# From -- ./inp_files/187.got.cif
#   From: 2010.05.17/outbox.cif.g08.bks.cpg/sg76_cif.got.tgz:187.got - 2010.06.03 18:43:17.
