data_PCOD9541223
_publ_section_title
;
Structure prediction by ZEFSAII (Michael W. Deem and Ramdas Pophale) SiO2 
 PCOD9541223
Probable space group: P 41
;
_chemical_formula_sum "Si O2"
_cell_formula_units_Z 28
_cell_length_a 13.260244
_cell_length_b 13.260244
_cell_length_c 8.073006
_cell_angle_alpha 90.000000
_cell_angle_beta 90.000000
_cell_angle_gamma 90.000000
_cell_volume 1419.509510
_symmetry_space_group_name_H-M "P 41"
_symmetry_group_IT_number 76
_symmetry_cell_setting 'tetragonal'
loop_
_space_group_symop_operation_xyz
x,y,z
-y,x,1/4+z
-x,-y,1/2+z
y,-x,3/4+z
loop_
_atom_site_type_symbol
_atom_site_label
_atom_site_fract_x
_atom_site_fract_y
_atom_site_fract_z
Si Si1 0.367199 0.506953 0.330750
Si Si2 0.997853 0.282738 0.586322
Si Si3 0.328605 0.747984 0.940015
Si Si4 0.146156 0.363833 0.868086
Si Si5 0.807436 0.195025 0.714961
Si Si6 0.396268 0.142325 0.089623
Si Si7 0.775681 0.333201 0.002751
O O1 0.426852 0.441646 0.467492
O O2 0.307677 0.434582 0.203959
O O3 0.287139 0.573916 0.430977
O O4 0.902038 0.209723 0.600201
O O5 0.953979 0.363008 0.451395
O O6 0.051453 0.331464 0.751211
O O7 0.084804 0.208442 0.528029
O O8 0.333488 0.841966 0.812721
O O9 0.242342 0.665085 0.898885
O O10 0.297070 0.781740 0.122807
O O11 0.155776 0.484109 0.854821
O O12 0.247201 0.306071 0.804475
O O13 0.830054 0.278220 0.852706
O O14 0.364997 0.146669 0.896021
#
# Coordination Sequence:
#
# PCOD9541223 Si02
#       7
#     4   4   4   4   4   4   4
#     4  12  24  34  58  96 132 188 226 260 310 390
#     4  10  24  42  66  90 120 160 210 278 334 402
#     4  10  22  39  61  88 136 169 208 274 319 386
#     4  10  22  40  62  91 127 172 216 262 322 397
#     4  10  22  46  62  90 120 160 208 276 340 390
#     4  10  22  40  62  91 127 172 216 262 322 397
#     4  10  22  39  61  88 136 169 208 274 319 386
#
# _framework density 19.725121999999999
#
# number of rings (size 3 to 8) (size 9 to 14) (size 15 to 20)
#    0.000    1.714    1.429    1.714   10.000    3.429 
#    0.000    5.714    0.000    0.000    0.000    0.000 
#    0.000    0.000    0.000    0.000    0.000    0.000 
#
# Total GULP energy -155903.655853 kJ/mol
# GULP energy per Si atom -5567.987709 kJ/mol
# Density = 1.968023 g / cm^3
# Si number density = 19.725122 Si / 1000 Ang^3
#
#
#
# Elastic Constant Matrix: (Units=GPa)
#
#
# Indices 1 2 3 4 5 6 
#
# 1 41.6181 68.5630 17.6040 0.0000 0.0000 24.5770
# 2 68.5630 41.6181 17.6040 0.0000 0.0000 -24.5770
# 3 17.6040 17.6040 55.3545 0.0000 0.0000 0.0000
# 4 0.0000 0.0000 0.0000 17.9167 0.0000 0.0000
# 5 0.0000 0.0000 0.0000 0.0000 17.9167 0.0000
# 6 24.5770 -24.5770 0.0000 0.0000 0.0000 -22.4162
#
#
#
# Elastic Compliance Matrix: (Units=1/GPa)
#
#
# Indices 1 2 3 4 5 6 
#
# 1 0.023606 -0.013503 -0.003213 0.000000 0.000000 0.040687
# 2 -0.013503 0.023606 -0.003213 0.000000 0.000000 -0.040687
# 3 -0.003213 -0.003213 0.020109 0.000000 0.000000 0.000000
# 4 0.000000 0.000000 0.000000 0.055814 0.000000 0.000000
# 5 0.000000 0.000000 0.000000 0.000000 0.055814 0.000000
# 6 0.040687 -0.040687 0.000000 0.000000 0.000000 0.044607
#
#
# Mechanical properties :
#
#
# Convention : Reuss Voigt Hill
#
# Bulk Modulus (GPa) = 36.41303 38.45920 37.43612
# Shear Modulus (GPa) = 18.34403 5.00475 11.67439
#
# Velocity S-wave (km/s) = 3.05287 1.59460 2.43544
# Velocity P-wave (km/s) = 5.56120 4.78855 5.18928
#
# Compressibility (1/GPa) = 0.02746269
#
# Stress axis : x y z
#
# Youngs Moduli (GPa) = 42.36198 42.36198 49.72917
#
# Poissons Ratio (x) = 0.57203 0.15977
# Poissons Ratio (y) = 0.57203 0.15977
# Poissons Ratio (z) = 0.13610 0.13610
#
# Static dielectric constant tensor:
#      x y z
#    x 1.693260 0.000000 0.000000 
#    y 0.000000 1.693260 0.000000 
#    z 0.000000 0.000000 1.903240 
# 
# From -- ./inp_files/617.got.cif
#   From: 2010.05.17/outbox.cif.g08.bks.cpg/sg76_cif.got.tgz:617.got - 2010.06.03 18:43:17.
