data_PCOD9541849
_publ_section_title
;
Structure prediction by ZEFSAII (Michael W. Deem and Ramdas Pophale) SiO2 
 PCOD9541849
Probable space group: I 4
;
_chemical_formula_sum "Si O2"
_cell_formula_units_Z 48
_cell_length_a 16.016520
_cell_length_b 16.016520
_cell_length_c 9.963906
_cell_angle_alpha 90.000000
_cell_angle_beta 90.000000
_cell_angle_gamma 90.000000
_cell_volume 2556.029975
_symmetry_space_group_name_H-M "I 4"
_symmetry_group_IT_number 79
_symmetry_cell_setting 'tetragonal'
loop_
_space_group_symop_operation_xyz
x,y,z
-y,x,z
-x,-y,z
y,-x,z
1/2+x,1/2+y,1/2+z
1/2-y,1/2+x,1/2+z
1/2-x,1/2-y,1/2+z
1/2+y,1/2-x,1/2+z
loop_
_atom_site_type_symbol
_atom_site_label
_atom_site_fract_x
_atom_site_fract_y
_atom_site_fract_z
Si Si1 0.003011 0.264793 0.279440
Si Si2 0.747790 0.339492 0.108105
Si Si3 0.315670 0.778901 0.866709
Si Si4 0.891238 0.449297 0.013343
Si Si5 0.048427 0.130007 0.471373
Si Si6 0.872817 0.437202 0.534697
O O1 0.025938 0.336517 0.386122
O O2 0.052146 0.183539 0.333833
O O3 0.034649 0.302627 0.140362
O O4 0.903738 0.249825 0.299968
O O5 0.748888 0.290998 0.247840
O O6 0.718727 0.281156 0.984258
O O7 0.839659 0.379155 0.092128
O O8 0.688274 0.419874 0.091786
O O9 0.336111 0.867820 0.936220
O O10 0.902742 0.537572 0.091779
O O11 0.977845 0.407709 0.969568
O O12 0.952877 0.102641 0.479337
#
# Coordination Sequence:
#
# PCOD9541849 Si02
#       6
#     8   8   8   8   8   8
#     4  10  20  38  61  92 124 161 218 265 324 383
#     4  11  23  42  59  94 130 164 217 264 326 389
#     4  11  24  39  61  95 129 166 215 267 332 387
#     4   9  21  35  60  88 125 167 206 260 321 389
#     4  10  21  40  64  87 117 168 222 264 310 383
#     4  10  21  37  62  92 126 170 207 267 324 390
#
# _framework density 18.779123999999999
#
# number of rings (size 3 to 8) (size 9 to 14) (size 15 to 20)
#    0.000    1.833    3.333    0.000    7.000    1.333 
#    3.000    0.000    0.000    0.000    0.000    2.333 
#    0.000    0.000    0.000    0.000    0.000    0.000 
#
# Total GULP energy -133659.471132 kJ/mol
# GULP energy per Si atom -5569.144630 kJ/mol
# Density = 1.873638 g / cm^3
# Si number density = 18.779124 Si / 1000 Ang^3
#
#
#
# Elastic Constant Matrix: (Units=GPa)
#
#
# Indices 1 2 3 4 5 6 
#
# 1 87.0517 40.0778 31.8913 0.0000 0.0000 -2.2850
# 2 40.0778 87.0517 31.8913 0.0000 0.0000 2.2850
# 3 31.8913 31.8913 75.0128 0.0000 0.0000 0.0000
# 4 0.0000 0.0000 0.0000 22.0205 0.0000 0.0000
# 5 0.0000 0.0000 0.0000 0.0000 22.0205 0.0000
# 6 -2.2850 2.2850 0.0000 0.0000 0.0000 35.5431
#
#
#
# Elastic Compliance Matrix: (Units=1/GPa)
#
#
# Indices 1 2 3 4 5 6 
#
# 1 0.015711 -0.005712 -0.004251 0.000000 0.000000 0.001377
# 2 -0.005712 0.015711 -0.004251 0.000000 0.000000 -0.001377
# 3 -0.004251 -0.004251 0.016946 0.000000 0.000000 0.000000
# 4 0.000000 0.000000 0.000000 0.045412 0.000000 0.000000
# 5 0.000000 0.000000 0.000000 0.000000 0.045412 0.000000
# 6 0.001377 -0.001377 0.000000 0.000000 0.000000 0.028312
#
#
# Mechanical properties :
#
#
# Convention : Reuss Voigt Hill
#
# Bulk Modulus (GPa) = 50.15195 50.75964 50.45579
# Shear Modulus (GPa) = 24.68199 25.60054 25.14126
#
# Velocity S-wave (km/s) = 3.62930 3.69622 3.66291
# Velocity P-wave (km/s) = 6.65783 6.73087 6.69445
#
# Compressibility (1/GPa) = 0.01993941
#
# Stress axis : x y z
#
# Youngs Moduli (GPa) = 63.65149 63.65149 59.01251
#
# Poissons Ratio (x) = 0.36357 0.25086
# Poissons Ratio (y) = 0.36357 0.25086
# Poissons Ratio (z) = 0.27058 0.27058
#
# Static dielectric constant tensor:
#      x y z
#    x 1.700610 0.000000 0.000000 
#    y 0.000000 1.700610 0.000000 
#    z 0.000000 0.000000 1.643840 
# 
# From -- ./inp_files/659.got.cif
#   From: 2010.05.17/outbox.cif.g08.bks.cpg/sg79_cif.got.tgz:659.got - 2010.06.03 18:47:27.
