data_PCOD9541580
_publ_section_title
;
Structure prediction by ZEFSAII (Michael W. Deem and Ramdas Pophale) SiO2 
 PCOD9541580
Probable space group: P 42
;
_chemical_formula_sum "Si O2"
_cell_formula_units_Z 24
_cell_length_a 9.000000
_cell_length_b 9.000000
_cell_length_c 15.000000
_cell_angle_alpha 90.000000
_cell_angle_beta 90.000000
_cell_angle_gamma 90.000000
_cell_volume 1215.000000
_symmetry_space_group_name_H-M "P 42"
_symmetry_group_IT_number 77
_symmetry_cell_setting 'tetragonal'
loop_
_space_group_symop_operation_xyz
x,y,z
-y,x,1/2+z
-x,-y,z
y,-x,1/2+z
loop_
_atom_site_type_symbol
_atom_site_label
_atom_site_fract_x
_atom_site_fract_y
_atom_site_fract_z
Si Si1 0.489073 0.848237 0.729930
Si Si2 0.264857 0.338826 0.633587
Si Si3 0.751554 0.376842 0.763773
Si Si4 0.779735 0.418627 0.971465
Si Si5 0.963004 0.166634 0.652760
Si Si6 0.093420 0.309686 0.049446
O O1 0.637836 0.778552 0.690616
O O2 0.402691 0.711433 0.771099
O O3 0.384257 0.900548 0.647488
O O4 0.500000 0.000000 0.785740
O O5 0.259712 0.490104 0.691371
O O6 0.340753 0.343225 0.535219
O O7 0.104456 0.263725 0.626623
O O8 0.782783 0.417381 0.865401
O O9 0.873731 0.262697 0.725421
O O10 0.788082 0.591844 0.997201
O O11 0.933875 0.340948 0.005545
O O12 0.858297 0.137131 0.567028
O O13 0.000000 0.000000 0.686107
#
# Coordination Sequence:
#
# PCOD9541580 Si02
#       6
#     4   4   4   4   4   4
#     4  10  18  42  66  87 123 179 216 262 345 422
#     4  11  21  40  65  92 136 169 221 292 343 399
#     4  11  25  38  66 102 130 173 230 285 352 419
#     4  10  20  41  66  90 133 176 226 273 338 437
#     4  11  21  40  62  96 127 177 223 279 354 405
#     4   9  18  37  67  87 120 176 221 257 338 417
#
# _framework density 19.753086
#
# number of rings (size 3 to 8) (size 9 to 14) (size 15 to 20)
#    0.000    1.667    5.000    2.000    4.667    0.000 
#    3.000   13.333    0.000    0.000    0.000    0.000 
#    0.000    0.000    0.000    0.000    0.000    0.000 
#
# Total GULP energy -133684.541967 kJ/mol
# GULP energy per Si atom -5570.189249 kJ/mol
# Density = 1.970813 g / cm^3
# Si number density = 19.753086 Si / 1000 Ang^3
#
#
#
# Elastic Constant Matrix: (Units=GPa)
#
#
# Indices 1 2 3 4 5 6 
#
# 1 112.1025 38.2743 30.1618 0.0000 0.0000 3.3911
# 2 38.2743 112.1025 30.1618 0.0000 0.0000 -3.3911
# 3 30.1618 30.1618 83.2631 0.0000 0.0000 0.0000
# 4 0.0000 0.0000 0.0000 13.8418 0.0000 0.0000
# 5 0.0000 0.0000 0.0000 0.0000 13.8418 0.0000
# 6 3.3911 -3.3911 0.0000 0.0000 0.0000 23.7194
#
#
#
# Elastic Compliance Matrix: (Units=1/GPa)
#
#
# Indices 1 2 3 4 5 6 
#
# 1 0.010753 -0.002972 -0.002818 0.000000 0.000000 -0.001962
# 2 -0.002972 0.010753 -0.002818 0.000000 0.000000 0.001962
# 3 -0.002818 -0.002818 0.014052 0.000000 0.000000 0.000000
# 4 0.000000 0.000000 0.000000 0.072245 0.000000 0.000000
# 5 0.000000 0.000000 0.000000 0.000000 0.072245 0.000000
# 6 -0.001962 0.001962 0.000000 0.000000 0.000000 0.042721
#
#
# Mechanical properties :
#
#
# Convention : Reuss Voigt Hill
#
# Bulk Modulus (GPa) = 54.52765 56.07375 55.30070
# Shear Modulus (GPa) = 20.31696 24.20531 22.26113
#
# Velocity S-wave (km/s) = 3.21057 3.50436 3.36068
# Velocity P-wave (km/s) = 6.43493 6.69500 6.56625
#
# Compressibility (1/GPa) = 0.01833932
#
# Stress axis : x y z
#
# Youngs Moduli (GPa) = 92.99814 92.99814 71.16375
#
# Poissons Ratio (x) = 0.27642 0.20057
# Poissons Ratio (y) = 0.27642 0.20057
# Poissons Ratio (z) = 0.26211 0.26211
#
# Static dielectric constant tensor:
#      x y z
#    x 1.801190 0.000000 0.000000 
#    y 0.000000 1.801190 0.000000 
#    z 0.000000 0.000000 1.709690 
# 
# From -- ./inp_files/1100.got.cif
#   From: 2010.05.17/outbox.ucp.g08.bks.cvg/sg77_cif.got.tgz:1100.got - 2010.06.11 16:42:04.
