data_PCOD9541343
_publ_section_title
;
Structure prediction by ZEFSAII (Michael W. Deem and Ramdas Pophale) SiO2 
 PCOD9541343
Probable space group: P 41
;
_chemical_formula_sum "Si O2"
_cell_formula_units_Z 24
_cell_length_a 11.647857
_cell_length_b 11.647857
_cell_length_c 8.833975
_cell_angle_alpha 90.000000
_cell_angle_beta 90.000000
_cell_angle_gamma 90.000000
_cell_volume 1198.528115
_symmetry_space_group_name_H-M "P 41"
_symmetry_group_IT_number 76
_symmetry_cell_setting 'tetragonal'
loop_
_space_group_symop_operation_xyz
x,y,z
-y,x,1/4+z
-x,-y,1/2+z
y,-x,3/4+z
loop_
_atom_site_type_symbol
_atom_site_label
_atom_site_fract_x
_atom_site_fract_y
_atom_site_fract_z
Si Si1 0.808857 0.633991 0.077640
Si Si2 0.944988 0.689168 0.379668
Si Si3 0.349737 0.009335 0.117976
Si Si4 0.112877 0.482306 0.114604
Si Si5 0.107031 0.073240 0.020769
Si Si6 0.206307 0.593250 0.388564
O O1 0.891994 0.653693 0.220344
O O2 0.693723 0.700986 0.124273
O O3 0.784987 0.503023 0.020758
O O4 0.884523 0.684927 0.937407
O O5 0.868304 0.625645 0.506599
O O6 0.934370 0.823033 0.414550
O O7 0.077683 0.648819 0.396435
O O8 0.417746 0.072927 0.251401
O O9 0.241612 0.076093 0.055036
O O10 0.435864 0.983815 0.980693
O O11 0.209593 0.526043 0.227893
O O12 0.041597 0.080515 0.178847
#
# Coordination Sequence:
#
# PCOD9541343 Si02
#       6
#     4   4   4   4   4   4
#     4  11  25  43  73  94 141 178 234 285 353 405
#     4  12  22  44  67  99 136 185 226 280 343 433
#     4  11  23  42  64  97 131 181 221 283 332 419
#     4  11  21  41  69  90 128 172 238 270 329 410
#     4  12  29  40  62 105 151 184 226 278 361 429
#     4  11  24  44  69 101 127 186 229 288 348 410
#
# _framework density 20.024562
#
# number of rings (size 3 to 8) (size 9 to 14) (size 15 to 20)
#    0.000    0.667    6.667    1.000    7.000    0.000 
#    0.000    1.667    0.000    0.000    0.000    0.000 
#    0.000    0.000    0.000    0.000    0.000    0.000 
#
# Total GULP energy -133931.537927 kJ/mol
# GULP energy per Si atom -5580.480747 kJ/mol
# Density = 1.997899 g / cm^3
# Si number density = 20.024562 Si / 1000 Ang^3
#
#
#
# Elastic Constant Matrix: (Units=GPa)
#
#
# Indices 1 2 3 4 5 6 
#
# 1 64.8329 68.2325 16.5063 0.0000 0.0000 -4.3050
# 2 68.2325 64.8329 16.5063 0.0000 0.0000 4.3050
# 3 16.5063 16.5063 91.7807 0.0000 0.0000 0.0000
# 4 0.0000 0.0000 0.0000 19.0262 0.0000 0.0000
# 5 0.0000 0.0000 0.0000 0.0000 19.0262 0.0000
# 6 -4.3050 4.3050 0.0000 0.0000 0.0000 33.4324
#
#
#
# Elastic Compliance Matrix: (Units=1/GPa)
#
#
# Indices 1 2 3 4 5 6 
#
# 1 -0.106972 0.114838 -0.001415 0.000000 0.000000 -0.028562
# 2 0.114838 -0.106972 -0.001415 0.000000 0.000000 0.028562
# 3 -0.001415 -0.001415 0.011404 0.000000 0.000000 0.000000
# 4 0.000000 0.000000 0.000000 0.052559 0.000000 0.000000
# 5 0.000000 0.000000 0.000000 0.000000 0.052559 0.000000
# 6 -0.028562 0.028562 0.000000 0.000000 0.000000 0.022555
#
#
# Mechanical properties :
#
#
# Convention : Reuss Voigt Hill
#
# Bulk Modulus (GPa) = 46.55961 47.10405 46.83183
# Shear Modulus (GPa) = -17.13937 22.31039 2.58551
#
# Velocity S-wave (km/s) = -2.92878 3.34151 1.13753
# Velocity P-wave (km/s) = 3.44452 6.20176 5.01630
#
# Compressibility (1/GPa) = 0.02147784
#
# Stress axis : x y z
#
# Youngs Moduli (GPa) = -9.34820 -9.34820 87.68564
#
# Poissons Ratio (x) = 1.07353 0.12405
# Poissons Ratio (y) = 1.07353 0.12405
# Poissons Ratio (z) = -0.01322 -0.01322
#
# Static dielectric constant tensor:
#      x y z
#    x 1.715650 0.000000 0.000000 
#    y 0.000000 1.715650 0.000000 
#    z 0.000000 0.000000 1.726440 
# 
# From -- ./inp_files/542.got.cif
#   From: 2010.05.17/outbox.cif.g08.bks.cpg/sg76_cif.got.tgz:542.got - 2010.06.03 18:43:17.
