data_PCOD9541160
_publ_section_title
;
Structure prediction by ZEFSAII (Michael W. Deem and Ramdas Pophale) SiO2 
 PCOD9541160
Probable space group: P 41
;
_chemical_formula_sum "Si O2"
_cell_formula_units_Z 28
_cell_length_a 8.191812
_cell_length_b 8.191812
_cell_length_c 16.154213
_cell_angle_alpha 90.000000
_cell_angle_beta 90.000000
_cell_angle_gamma 90.000000
_cell_volume 1084.041126
_symmetry_space_group_name_H-M "P 41"
_symmetry_group_IT_number 76
_symmetry_cell_setting 'tetragonal'
loop_
_space_group_symop_operation_xyz
x,y,z
-y,x,1/4+z
-x,-y,1/2+z
y,-x,3/4+z
loop_
_atom_site_type_symbol
_atom_site_label
_atom_site_fract_x
_atom_site_fract_y
_atom_site_fract_z
Si Si1 0.554428 0.478794 0.106200
Si Si2 0.452072 0.112661 0.752877
Si Si3 0.210610 0.537654 0.755198
Si Si4 0.077172 0.362276 0.157503
Si Si5 0.611624 0.193577 0.578534
Si Si6 0.004009 0.086970 0.378357
Si Si7 0.813022 0.073547 0.015473
O O1 0.718466 0.506161 0.049126
O O2 0.634450 0.483872 0.195963
O O3 0.423099 0.619697 0.097235
O O4 0.468702 0.304866 0.091510
O O5 0.530911 0.103984 0.660763
O O6 0.256508 0.127546 0.743978
O O7 0.464178 0.970308 0.824117
O O8 0.096079 0.378523 0.760484
O O9 0.098843 0.664303 0.705759
O O10 0.178483 0.442940 0.231960
O O11 0.144877 0.182971 0.134766
O O12 0.791150 0.114081 0.575051
O O13 0.976629 0.901227 0.349160
O O14 0.113771 0.066190 0.458401
#
# Coordination Sequence:
#
# PCOD9541160 Si02
#       7
#     4   4   4   4   4   4   4
#     4  10  20  45  68 104 133 178 252 302 360 427
#     4   9  22  45  73 101 143 195 253 292 367 455
#     4  10  22  44  73  98 134 188 245 300 355 445
#     4  10  24  47  68 104 152 195 245 301 376 441
#     4  12  23  45  73 110 149 192 245 320 368 432
#     4  11  24  44  65 102 151 188 240 297 375 454
#     4  10  21  42  70  95 136 192 236 294 363 450
#
# _framework density 25.829281000000002
#
# number of rings (size 3 to 8) (size 9 to 14) (size 15 to 20)
#    0.000    1.714    4.286    0.857    2.000    3.429 
#    5.143    0.000    0.000    0.000    0.000    0.000 
#    0.000    0.000    0.000    0.000    0.000    0.000 
#
# Total GULP energy -155996.619447 kJ/mol
# GULP energy per Si atom -5571.307837 kJ/mol
# Density = 2.577049 g / cm^3
# Si number density = 25.829281 Si / 1000 Ang^3
#
#
#
# Elastic Constant Matrix: (Units=GPa)
#
#
# Indices 1 2 3 4 5 6 
#
# 1 66.2055 48.2107 4.3165 0.0000 0.0000 4.3401
# 2 48.2107 66.2055 4.3165 0.0000 0.0000 -4.3401
# 3 4.3165 4.3165 76.2951 0.0000 0.0000 0.0000
# 4 0.0000 0.0000 0.0000 40.9254 0.0000 0.0000
# 5 0.0000 0.0000 0.0000 0.0000 40.9254 0.0000
# 6 4.3401 -4.3401 0.0000 0.0000 0.0000 34.8091
#
#
#
# Elastic Compliance Matrix: (Units=1/GPa)
#
#
# Indices 1 2 3 4 5 6 
#
# 1 0.033953 -0.025175 -0.000497 0.000000 0.000000 -0.007372
# 2 -0.025175 0.033953 -0.000497 0.000000 0.000000 0.007372
# 3 -0.000497 -0.000497 0.013163 0.000000 0.000000 0.000000
# 4 0.000000 0.000000 0.000000 0.024435 0.000000 0.000000
# 5 0.000000 0.000000 0.000000 0.000000 0.024435 0.000000
# 6 -0.007372 0.007372 0.000000 0.000000 0.000000 0.030567
#
#
# Mechanical properties :
#
#
# Convention : Reuss Voigt Hill
#
# Bulk Modulus (GPa) = 34.80466 35.82150 35.31308
# Shear Modulus (GPa) = 22.48015 33.45614 27.96814
#
# Velocity S-wave (km/s) = 2.95335 3.60290 3.29417
# Velocity P-wave (km/s) = 5.01336 5.58628 5.30756
#
# Compressibility (1/GPa) = 0.02873178
#
# Stress axis : x y z
#
# Youngs Moduli (GPa) = 29.45276 29.45276 75.96945
#
# Poissons Ratio (x) = 0.74148 0.03773
# Poissons Ratio (y) = 0.74148 0.03773
# Poissons Ratio (z) = 0.01463 0.01463
#
# Static dielectric constant tensor:
#      x y z
#    x 2.046780 0.000000 0.000000 
#    y 0.000000 2.046780 0.000000 
#    z 0.000000 0.000000 2.176750 
# 
# From -- ./inp_files/1275.got.cif
#   From: 2010.05.17/outbox.cif.g08.bks.cpg/sg76_cif.got.tgz:1275.got - 2010.06.03 18:43:17.
