data_PCOD9541222
_publ_section_title
;
Structure prediction by ZEFSAII (Michael W. Deem and Ramdas Pophale) SiO2 
 PCOD9541222
Probable space group: P 41
;
_chemical_formula_sum "Si O2"
_cell_formula_units_Z 28
_cell_length_a 15.623726
_cell_length_b 15.623726
_cell_length_c 5.639590
_cell_angle_alpha 90.000000
_cell_angle_beta 90.000000
_cell_angle_gamma 90.000000
_cell_volume 1376.628510
_symmetry_space_group_name_H-M "P 41"
_symmetry_group_IT_number 76
_symmetry_cell_setting 'tetragonal'
loop_
_space_group_symop_operation_xyz
x,y,z
-y,x,1/4+z
-x,-y,1/2+z
y,-x,3/4+z
loop_
_atom_site_type_symbol
_atom_site_label
_atom_site_fract_x
_atom_site_fract_y
_atom_site_fract_z
Si Si1 0.677440 0.611738 0.736570
Si Si2 0.251862 0.756415 0.311203
Si Si3 0.360544 0.113193 0.308251
Si Si4 0.513436 0.618511 0.315666
Si Si5 0.084518 0.356021 0.606892
Si Si6 0.235850 0.618330 0.683611
Si Si7 0.858771 0.555693 0.609461
O O1 0.624408 0.689326 0.627818
O O2 0.757912 0.577831 0.589622
O O3 0.721035 0.658392 0.961407
O O4 0.613305 0.541342 0.825933
O O5 0.176492 0.715275 0.148448
O O6 0.270838 0.855903 0.350223
O O7 0.238539 0.708294 0.554778
O O8 0.454818 0.129517 0.415511
O O9 0.336532 0.016088 0.350996
O O10 0.385009 0.142300 0.040814
O O11 0.448165 0.590862 0.523494
O O12 0.541656 0.718993 0.295525
O O13 0.103769 0.400265 0.349277
O O14 0.103642 0.409752 0.853553
#
# Coordination Sequence:
#
# PCOD9541222 Si02
#       7
#     4   4   4   4   4   4   4
#     4  10  22  39  55  83 120 175 226 272 323 385
#     4  10  22  44  63  88 127 170 210 268 339 391
#     4  11  26  39  68  99 127 172 225 271 336 402
#     4  12  24  36  54  83 129 185 244 284 323 380
#     4  11  25  46  67 101 134 174 218 278 331 400
#     4  11  23  39  60  87 124 174 222 278 327 392
#     4  11  24  41  67  95 135 174 219 275 331 382
#
# _framework density 20.339547
#
# number of rings (size 3 to 8) (size 9 to 14) (size 15 to 20)
#    0.000    1.143    2.857    2.571   12.000    0.000 
#    0.000    0.000    0.000    0.000    3.714    0.000 
#    0.000    0.000    0.000    0.000    0.000    0.000 
#
# Total GULP energy -155916.103876 kJ/mol
# GULP energy per Si atom -5568.432281 kJ/mol
# Density = 2.029325 g / cm^3
# Si number density = 20.339547 Si / 1000 Ang^3
#
#
#
# Elastic Constant Matrix: (Units=GPa)
#
#
# Indices 1 2 3 4 5 6 
#
# 1 75.9381 38.5834 24.4673 0.0000 0.0000 -7.3890
# 2 38.5834 75.9381 24.4673 0.0000 0.0000 7.3890
# 3 24.4673 24.4673 78.8807 0.0000 0.0000 0.0000
# 4 0.0000 0.0000 0.0000 23.0868 0.0000 0.0000
# 5 0.0000 0.0000 0.0000 0.0000 23.0868 0.0000
# 6 -7.3890 7.3890 0.0000 0.0000 0.0000 16.4281
#
#
#
# Elastic Compliance Matrix: (Units=1/GPa)
#
#
# Indices 1 2 3 4 5 6 
#
# 1 0.021316 -0.011249 -0.003122 0.000000 0.000000 0.014647
# 2 -0.011249 0.021316 -0.003122 0.000000 0.000000 -0.014647
# 3 -0.003122 -0.003122 0.014614 0.000000 0.000000 0.000000
# 4 0.000000 0.000000 0.000000 0.043315 0.000000 0.000000
# 5 0.000000 0.000000 0.000000 0.000000 0.043315 0.000000
# 6 0.014647 -0.014647 0.000000 0.000000 0.000000 0.074047
#
#
# Mechanical properties :
#
#
# Convention : Reuss Voigt Hill
#
# Bulk Modulus (GPa) = 44.92906 45.08813 45.00859
# Shear Modulus (GPa) = 19.20642 22.06959 20.63801
#
# Velocity S-wave (km/s) = 3.07626 3.29760 3.18885
# Velocity P-wave (km/s) = 5.89536 6.05926 5.97788
#
# Compressibility (1/GPa) = 0.02225731
#
# Stress axis : x y z
#
# Youngs Moduli (GPa) = 46.91404 46.91404 68.42587
#
# Poissons Ratio (x) = 0.52776 0.21365
# Poissons Ratio (y) = 0.52776 0.21365
# Poissons Ratio (z) = 0.14648 0.14648
#
# Static dielectric constant tensor:
#      x y z
#    x 1.844930 0.000000 0.000000 
#    y 0.000000 1.844930 0.000000 
#    z 0.000000 0.000000 1.959000 
# 
# From -- ./inp_files/257.got.cif
#   From: 2010.05.17/outbox.cif.g08.bks.cpg/sg76_cif.got.tgz:257.got - 2010.06.03 18:43:17.
