data_PCOD9541663
_publ_section_title
;
Structure prediction by ZEFSAII (Michael W. Deem and Ramdas Pophale) SiO2 
 PCOD9541663
Probable space group: P 43
;
_chemical_formula_sum "Si O2"
_cell_formula_units_Z 20
_cell_length_a 7.904143
_cell_length_b 7.904143
_cell_length_c 14.647456
_cell_angle_alpha 90.000000
_cell_angle_beta 90.000000
_cell_angle_gamma 90.000000
_cell_volume 915.106794
_symmetry_space_group_name_H-M "P 43"
_symmetry_group_IT_number 78
_symmetry_cell_setting 'tetragonal'
loop_
_space_group_symop_operation_xyz
x,y,z
-y,x,3/4+z
-x,-y,1/2+z
y,-x,1/4+z
loop_
_atom_site_type_symbol
_atom_site_label
_atom_site_fract_x
_atom_site_fract_y
_atom_site_fract_z
Si Si1 0.716840 0.803563 0.191180
Si Si2 0.994507 0.644038 0.709035
Si Si3 0.297014 0.099016 0.258398
Si Si4 0.384968 0.883626 0.094561
Si Si5 0.827898 0.678206 0.007660
O O1 0.529353 0.787977 0.151832
O O2 0.751139 0.718428 0.286475
O O3 0.837728 0.724069 0.114638
O O4 0.735287 0.002669 0.206728
O O5 0.984742 0.666133 0.599120
O O6 0.987991 0.474899 0.771433
O O7 0.194639 0.687147 0.721226
O O8 0.863400 0.775403 0.755952
O O9 0.478100 0.195212 0.245819
O O10 0.277245 0.983413 0.168985
#
# Coordination Sequence:
#
# PCOD9541663 Si02
#       5
#     4   4   4   4   4
#     4  10  21  41  63  91 135 173 221 276 338 396
#     4  11  23  44  70  99 131 186 220 274 353 391
#     4  11  23  41  68 104 133 172 235 277 330 417
#     4  10  23  41  68  98 133 176 220 279 341 402
#     4  10  22  41  67  96 132 177 222 280 336 398
#
# _framework density 21.855374000000001
#
# number of rings (size 3 to 8) (size 9 to 14) (size 15 to 20)
#    0.000    1.600    2.000    3.600    5.600    0.000 
#    0.000    8.000    4.400    0.000    0.000    0.000 
#    0.000    0.000    0.000    0.000    0.000    0.000 
#
# Total GULP energy -111459.410997 kJ/mol
# GULP energy per Si atom -5572.970550 kJ/mol
# Density = 2.180563 g / cm^3
# Si number density = 21.855374 Si / 1000 Ang^3
#
#
#
# Elastic Constant Matrix: (Units=GPa)
#
#
# Indices 1 2 3 4 5 6 
#
# 1 23.2848 15.4370 4.3396 0.0000 0.0000 10.2119
# 2 15.4370 23.2848 4.3396 0.0000 0.0000 -10.2119
# 3 4.3396 4.3396 104.4083 0.0000 0.0000 0.0000
# 4 0.0000 0.0000 0.0000 38.5468 0.0000 0.0000
# 5 0.0000 0.0000 0.0000 0.0000 38.5468 0.0000
# 6 10.2119 -10.2119 0.0000 0.0000 0.0000 0.8289
#
#
#
# Elastic Compliance Matrix: (Units=1/GPa)
#
#
# Indices 1 2 3 4 5 6 
#
# 1 0.010983 0.015085 -0.001083 0.000000 0.000000 0.050539
# 2 0.015085 0.010983 -0.001083 0.000000 0.000000 -0.050539
# 3 -0.001083 -0.001083 0.009668 0.000000 0.000000 0.000000
# 4 0.000000 0.000000 0.000000 0.025942 0.000000 0.000000
# 5 0.000000 0.000000 0.000000 0.000000 0.025942 0.000000
# 6 0.050539 -0.050539 0.000000 0.000000 0.000000 -0.038839
#
#
# Mechanical properties :
#
#
# Convention : Reuss Voigt Hill
#
# Bulk Modulus (GPa) = 17.40035 22.13449 19.76742
# Shear Modulus (GPa) = 131.58090 24.04196 77.81143
#
# Velocity S-wave (km/s) = 7.76762 3.32030 5.97329
# Velocity P-wave (km/s) = 9.40356 4.98486 7.52581
#
# Compressibility (1/GPa) = 0.05747010
#
# Stress axis : x y z
#
# Youngs Moduli (GPa) = 91.05071 91.05071 103.43560
#
# Poissons Ratio (x) = -1.37352 0.11207
# Poissons Ratio (y) = -1.37352 0.11207
# Poissons Ratio (z) = 0.09865 0.09865
#
# Static dielectric constant tensor:
#      x y z
#    x 1.825220 0.000000 0.000000 
#    y 0.000000 1.825220 0.000000 
#    z 0.000000 0.000000 1.972910 
# 
# From -- ./inp_files/1019.got.cif
#   From: 2010.05.17/outbox.cif.g08.bks.cpg/sg78_cif.got.tgz:1019.got - 2010.06.03 18:45:56.
