data_PCOD9541677
_publ_section_title
;
Structure prediction by ZEFSAII (Michael W. Deem and Ramdas Pophale) SiO2 
 PCOD9541677
Probable space group: P 43
;
_chemical_formula_sum "Si O2"
_cell_formula_units_Z 28
_cell_length_a 7.993381
_cell_length_b 7.993381
_cell_length_c 16.140750
_cell_angle_alpha 90.000000
_cell_angle_beta 90.000000
_cell_angle_gamma 90.000000
_cell_volume 1031.299337
_symmetry_space_group_name_H-M "P 43"
_symmetry_group_IT_number 78
_symmetry_cell_setting 'tetragonal'
loop_
_space_group_symop_operation_xyz
x,y,z
-y,x,3/4+z
-x,-y,1/2+z
y,-x,1/4+z
loop_
_atom_site_type_symbol
_atom_site_label
_atom_site_fract_x
_atom_site_fract_y
_atom_site_fract_z
Si Si1 0.262382 0.502823 0.180200
Si Si2 0.149775 0.804518 0.891305
Si Si3 0.416174 0.845080 0.681637
Si Si4 0.692720 0.795818 0.796125
Si Si5 0.020662 0.387180 0.795307
Si Si6 0.014782 0.002361 0.025756
Si Si7 0.374465 0.393770 0.757159
O O1 0.230948 0.321405 0.222600
O O2 0.096316 0.595929 0.213754
O O3 0.450660 0.537815 0.218379
O O4 0.285127 0.548207 0.083753
O O5 0.019944 0.673637 0.927651
O O6 0.115335 0.854674 0.797350
O O7 0.315203 0.731891 0.930854
O O8 0.060805 0.971677 0.929677
O O9 0.502372 0.816106 0.768728
O O10 0.300444 0.713184 0.633219
O O11 0.561789 0.888101 0.615455
O O12 0.807898 0.960357 0.795262
O O13 0.203649 0.478414 0.797895
O O14 0.059361 0.193742 0.808554
#
# Coordination Sequence:
#
# PCOD9541677 Si02
#       7
#     4   4   4   4   4   4   4
#     4  11  24  47  67 106 140 191 236 301 361 441
#     4  10  23  40  66 105 139 175 240 298 353 438
#     4  10  21  44  64 101 138 185 237 287 366 432
#     4  10  22  42  68  95 140 183 233 292 361 431
#     4  10  23  40  76  99 140 193 238 289 369 428
#     4  10  22  41  69 103 137 181 243 295 350 440
#     4  11  25  42  72 103 144 184 239 296 366 432
#
# _framework density 27.150216
#
# number of rings (size 3 to 8) (size 9 to 14) (size 15 to 20)
#    0.000    1.714    0.000    3.429   12.000    0.000 
#   15.429    0.000    3.143    0.000    0.000    0.000 
#    0.000    0.000    0.000    0.000    0.000    0.000 
#
# Total GULP energy -155875.701352 kJ/mol
# GULP energy per Si atom -5566.989334 kJ/mol
# Density = 2.708842 g / cm^3
# Si number density = 27.150216 Si / 1000 Ang^3
#
#
#
# Elastic Constant Matrix: (Units=GPa)
#
#
# Indices 1 2 3 4 5 6 
#
# 1 85.4938 11.7647 5.0826 0.0000 0.0000 -0.4328
# 2 11.7647 85.4938 5.0826 0.0000 0.0000 0.4328
# 3 5.0826 5.0826 68.8611 0.0000 0.0000 0.0000
# 4 0.0000 0.0000 0.0000 31.9933 0.0000 0.0000
# 5 0.0000 0.0000 0.0000 0.0000 31.9933 0.0000
# 6 -0.4328 0.4328 0.0000 0.0000 0.0000 37.8435
#
#
#
# Elastic Compliance Matrix: (Units=1/GPa)
#
#
# Indices 1 2 3 4 5 6 
#
# 1 0.011963 -0.001602 -0.000765 0.000000 0.000000 0.000155
# 2 -0.001602 0.011963 -0.000765 0.000000 0.000000 -0.000155
# 3 -0.000765 -0.000765 0.014635 0.000000 0.000000 0.000000
# 4 0.000000 0.000000 0.000000 0.031257 0.000000 0.000000
# 5 0.000000 0.000000 0.000000 0.000000 0.031257 0.000000
# 6 0.000155 -0.000155 0.000000 0.000000 0.000000 0.026428
#
#
# Mechanical properties :
#
#
# Convention : Reuss Voigt Hill
#
# Bulk Modulus (GPa) = 30.96043 31.52318 31.24181
# Shear Modulus (GPa) = 34.59446 34.89393 34.74420
#
# Velocity S-wave (km/s) = 3.57345 3.58888 3.58117
# Velocity P-wave (km/s) = 5.33425 5.36743 5.35086
#
# Compressibility (1/GPa) = 0.03229929
#
# Stress axis : x y z
#
# Youngs Moduli (GPa) = 83.58831 83.58831 68.32991
#
# Poissons Ratio (x) = 0.13387 0.05226
# Poissons Ratio (y) = 0.13387 0.05226
# Poissons Ratio (z) = 0.06393 0.06393
#
# Static dielectric constant tensor:
#      x y z
#    x 2.177310 0.000000 0.000000 
#    y 0.000000 2.177310 0.000000 
#    z 0.000000 0.000000 2.347270 
# 
# From -- ./inp_files/1254.got.cif
#   From: 2010.05.17/outbox.cif.g08.bks.cpg/sg78_cif.got.tgz:1254.got - 2010.06.03 18:45:56.
