data_PCOD9541254
_publ_section_title
;
Structure prediction by ZEFSAII (Michael W. Deem and Ramdas Pophale) SiO2 
 PCOD9541254
Probable space group: P 41
;
_chemical_formula_sum "Si O2"
_cell_formula_units_Z 28
_cell_length_a 12.869007
_cell_length_b 12.869007
_cell_length_c 7.658617
_cell_angle_alpha 90.000000
_cell_angle_beta 90.000000
_cell_angle_gamma 90.000000
_cell_volume 1268.353833
_symmetry_space_group_name_H-M "P 41"
_symmetry_group_IT_number 76
_symmetry_cell_setting 'tetragonal'
loop_
_space_group_symop_operation_xyz
x,y,z
-y,x,1/4+z
-x,-y,1/2+z
y,-x,3/4+z
loop_
_atom_site_type_symbol
_atom_site_label
_atom_site_fract_x
_atom_site_fract_y
_atom_site_fract_z
Si Si1 0.987121 0.141533 0.421650
Si Si2 0.831626 0.626692 0.341479
Si Si3 0.290121 0.316641 0.277985
Si Si4 0.768847 0.479579 0.661155
Si Si5 0.094654 0.345109 0.487500
Si Si6 0.716070 0.830258 0.457107
Si Si7 0.946263 0.437036 0.939639
O O1 0.913905 0.202566 0.283506
O O2 0.068908 0.075226 0.306936
O O3 0.039880 0.236765 0.528178
O O4 0.789651 0.539662 0.475976
O O5 0.829301 0.607932 0.134924
O O6 0.777386 0.738223 0.359650
O O7 0.953969 0.629848 0.388476
O O8 0.309353 0.436367 0.241418
O O9 0.366958 0.280583 0.424270
O O10 0.167730 0.315686 0.322766
O O11 0.319144 0.235895 0.126051
O O12 0.870271 0.462881 0.779136
O O13 0.017243 0.442656 0.471222
O O14 0.626657 0.886030 0.342135
#
# Coordination Sequence:
#
# PCOD9541254 Si02
#       7
#     4   4   4   4   4   4   4
#     4  12  28  46  68  98 144 192 239 297 363 437
#     4  11  24  40  67  99 133 180 234 288 355 431
#     4  10  22  44  65  94 132 175 226 293 346 426
#     4  10  23  42  65  97 132 174 227 292 355 420
#     4  11  25  42  67 102 133 184 236 288 357 429
#     4  11  24  43  67  96 141 174 233 294 352 434
#     4  11  24  39  71 100 133 183 231 292 356 429
#
# _framework density 22.075858
#
# number of rings (size 3 to 8) (size 9 to 14) (size 15 to 20)
#    0.000    1.143    1.429    3.429   12.000    1.143 
#    0.000    7.143    0.000    0.000    0.000    0.000 
#    0.000    0.000    0.000    0.000    0.000    0.000 
#
# Total GULP energy -155939.865436 kJ/mol
# GULP energy per Si atom -5569.280908 kJ/mol
# Density = 2.202561 g / cm^3
# Si number density = 22.075858 Si / 1000 Ang^3
#
#
#
# Elastic Constant Matrix: (Units=GPa)
#
#
# Indices 1 2 3 4 5 6 
#
# 1 94.9149 56.8133 21.4565 0.0000 0.0000 -6.3738
# 2 56.8133 94.9149 21.4565 0.0000 0.0000 6.3738
# 3 21.4565 21.4565 59.7859 0.0000 0.0000 0.0000
# 4 0.0000 0.0000 0.0000 34.4022 0.0000 0.0000
# 5 0.0000 0.0000 0.0000 0.0000 34.4022 0.0000
# 6 -6.3738 6.3738 0.0000 0.0000 0.0000 13.3184
#
#
#
# Elastic Compliance Matrix: (Units=1/GPa)
#
#
# Indices 1 2 3 4 5 6 
#
# 1 0.019292 -0.011957 -0.002633 0.000000 0.000000 0.014955
# 2 -0.011957 0.019292 -0.002633 0.000000 0.000000 -0.014955
# 3 -0.002633 -0.002633 0.018616 0.000000 0.000000 0.000000
# 4 0.000000 0.000000 0.000000 0.029068 0.000000 0.000000
# 5 0.000000 0.000000 0.000000 0.000000 0.029068 0.000000
# 6 0.014955 -0.014955 0.000000 0.000000 0.000000 0.089398
#
#
# Mechanical properties :
#
#
# Convention : Reuss Voigt Hill
#
# Bulk Modulus (GPa) = 43.94387 49.89648 46.92017
# Shear Modulus (GPa) = 20.26233 26.41719 23.33976
#
# Velocity S-wave (km/s) = 3.03289 3.46302 3.25507
# Velocity P-wave (km/s) = 5.67571 6.21622 5.95210
#
# Compressibility (1/GPa) = 0.02275630
#
# Stress axis : x y z
#
# Youngs Moduli (GPa) = 51.83455 51.83455 53.71737
#
# Poissons Ratio (x) = 0.61978 0.14141
# Poissons Ratio (y) = 0.61978 0.14141
# Poissons Ratio (z) = 0.13646 0.13646
#
# Static dielectric constant tensor:
#      x y z
#    x 1.824410 0.000000 0.000000 
#    y 0.000000 1.824410 0.000000 
#    z 0.000000 0.000000 1.959460 
# 
# From -- ./inp_files/637.got.cif
#   From: 2010.05.17/outbox.cif.g08.bks.cpg/sg76_cif.got.tgz:637.got - 2010.06.03 18:43:17.
