data_PCOD9541490
_publ_section_title
;
Structure prediction by ZEFSAII (Michael W. Deem and Ramdas Pophale) SiO2 
 PCOD9541490
Probable space group: P 42
;
_chemical_formula_sum "Si O2"
_cell_formula_units_Z 24
_cell_length_a 10.360864
_cell_length_b 10.360864
_cell_length_c 9.386357
_cell_angle_alpha 90.000000
_cell_angle_beta 90.000000
_cell_angle_gamma 90.000000
_cell_volume 1007.601985
_symmetry_space_group_name_H-M "P 42"
_symmetry_group_IT_number 77
_symmetry_cell_setting 'tetragonal'
loop_
_space_group_symop_operation_xyz
x,y,z
-y,x,1/2+z
-x,-y,z
y,-x,1/2+z
loop_
_atom_site_type_symbol
_atom_site_label
_atom_site_fract_x
_atom_site_fract_y
_atom_site_fract_z
Si Si1 0.605957 0.152449 0.004240
Si Si2 0.002838 0.817341 0.830867
Si Si3 0.496810 0.721144 0.723835
Si Si4 0.698968 0.485446 0.730838
Si Si5 0.026367 0.811478 0.485915
Si Si6 0.636162 0.823645 0.488957
O O1 0.524013 0.174063 0.144855
O O2 0.662604 0.013131 0.966729
O O3 0.736366 0.238954 0.028051
O O4 0.534630 0.222823 0.876890
O O5 0.016172 0.830830 0.658804
O O6 0.101376 0.921958 0.899723
O O7 0.057087 0.683978 0.895133
O O8 0.864591 0.846449 0.905560
O O9 0.600268 0.604647 0.726875
O O10 0.368239 0.645146 0.671379
O O11 0.552723 0.836756 0.629622
O O12 0.733514 0.451691 0.890650
#
# Coordination Sequence:
#
# PCOD9541490 Si02
#       6
#     4   4   4   4   4   4
#     4   9  18  32  54  86 118 151 192 238 293 355
#     4  10  20  38  62  84 110 152 206 258 310 363
#     4   9  16  30  56  86 119 158 191 229 284 354
#     4   9  16  30  53  86 124 156 189 231 286 350
#     4  10  20  38  62  84 110 152 206 258 310 363
#     4   9  18  32  54  86 118 151 192 238 293 355
#
# _framework density 23.818928
#
# number of rings (size 3 to 8) (size 9 to 14) (size 15 to 20)
#    0.000    2.667    0.000    3.000    0.000    4.000 
#    0.000   14.167    0.000    8.000    0.000    0.000 
#    0.000    0.000    0.000    0.000    0.000    0.000 
#
# Total GULP energy -133777.886531 kJ/mol
# GULP energy per Si atom -5574.078605 kJ/mol
# Density = 2.376472 g / cm^3
# Si number density = 23.818928 Si / 1000 Ang^3
#
#
#
# Elastic Constant Matrix: (Units=GPa)
#
#
# Indices 1 2 3 4 5 6 
#
# 1 29.1722 15.8757 14.0136 0.0000 0.0000 -2.0161
# 2 15.8757 29.1722 14.0136 0.0000 0.0000 2.0161
# 3 14.0136 14.0136 103.3633 0.0000 0.0000 0.0000
# 4 0.0000 0.0000 0.0000 11.8421 0.0000 0.0000
# 5 0.0000 0.0000 0.0000 0.0000 11.8421 0.0000
# 6 -2.0161 2.0161 0.0000 0.0000 0.0000 12.6082
#
#
#
# Elastic Compliance Matrix: (Units=1/GPa)
#
#
# Indices 1 2 3 4 5 6 
#
# 1 0.051642 -0.027399 -0.003287 0.000000 0.000000 0.012639
# 2 -0.027399 0.051642 -0.003287 0.000000 0.000000 -0.012639
# 3 -0.003287 -0.003287 0.010566 0.000000 0.000000 0.000000
# 4 0.000000 0.000000 0.000000 0.084445 0.000000 0.000000
# 5 0.000000 0.000000 0.000000 0.000000 0.084445 0.000000
# 6 0.012639 -0.012639 0.000000 0.000000 0.000000 0.083355
#
#
# Mechanical properties :
#
#
# Convention : Reuss Voigt Hill
#
# Bulk Modulus (GPa) = 21.78386 27.72374 24.75380
# Shear Modulus (GPa) = 11.12740 15.11212 13.11976
#
# Velocity S-wave (km/s) = 2.16375 2.52158 2.34949
# Velocity P-wave (km/s) = 3.92529 4.48803 4.21606
#
# Compressibility (1/GPa) = 0.04590555
#
# Stress axis : x y z
#
# Youngs Moduli (GPa) = 19.36400 19.36400 94.64448
#
# Poissons Ratio (x) = 0.53055 0.31108
# Poissons Ratio (y) = 0.53055 0.31108
# Poissons Ratio (z) = 0.06365 0.06365
#
# Static dielectric constant tensor:
#      x y z
#    x 2.003970 0.000000 0.000000 
#    y 0.000000 2.003970 0.000000 
#    z 0.000000 0.000000 1.854390 
# 
# From -- ./inp_files/449.got.cif
#   From: 2010.05.17/outbox.cif.g08.bks.cpg/sg77_cif.got.tgz:449.got - 2010.06.03 18:44:51.
