data_PCOD9541468
_publ_section_title
;
Structure prediction by ZEFSAII (Michael W. Deem and Ramdas Pophale) SiO2 
 PCOD9541468
Probable space group: P 42
;
_chemical_formula_sum "Si O2"
_cell_formula_units_Z 24
_cell_length_a 8.508701
_cell_length_b 8.508701
_cell_length_c 16.084718
_cell_angle_alpha 90.000000
_cell_angle_beta 90.000000
_cell_angle_gamma 90.000000
_cell_volume 1164.501296
_symmetry_space_group_name_H-M "P 42"
_symmetry_group_IT_number 77
_symmetry_cell_setting 'tetragonal'
loop_
_space_group_symop_operation_xyz
x,y,z
-y,x,1/2+z
-x,-y,z
y,-x,1/2+z
loop_
_atom_site_type_symbol
_atom_site_label
_atom_site_fract_x
_atom_site_fract_y
_atom_site_fract_z
Si Si1 0.722089 0.288675 0.046700
Si Si2 0.903771 0.743381 0.222169
Si Si3 0.737033 0.594558 0.373170
Si Si4 0.000000 0.500000 0.085001
Si Si5 0.709347 0.559031 0.803246
Si Si6 0.500000 0.500000 0.151377
Si Si7 0.231712 0.921957 0.205147
O O1 0.891780 0.374876 0.035103
O O2 0.629383 0.430378 0.091120
O O3 0.732508 0.149089 0.114343
O O4 0.623059 0.224278 0.968850
O O5 0.862915 0.657132 0.307866
O O6 0.905493 0.614754 0.148921
O O7 0.073131 0.826487 0.227776
O O8 0.791893 0.892399 0.205058
O O9 0.584791 0.709097 0.365266
O O10 0.678257 0.422596 0.341871
O O11 0.639441 0.479921 0.718500
O O12 0.864472 0.644717 0.773934
#
# Coordination Sequence:
#
# PCOD9541468 Si02
#       7
#     4   4   4   2   4   2   4
#     4  10  19  33  52  79 107 139 181 233 275 323
#     4  10  19  36  57  77 104 148 186 220 271 338
#     4  10  19  32  54  80 106 138 181 228 274 320
#     4  10  20  36  58  76 104 148 186 216 276 342
#     4   9  18  33  55  78 104 144 179 219 269 332
#     4   8  14  30  52  70  98 136 174 208 264 326
#     4   9  20  36  55  77 108 144 185 223 271 333
#
# _framework density 20.609680999999998
#
# number of rings (size 3 to 8) (size 9 to 14) (size 15 to 20)
#    0.000    2.667    0.000    5.000    0.000    2.000 
#    0.000    8.333    0.000   14.000    0.000    0.000 
#    0.000    0.000    0.000    0.000    0.000    0.000 
#
# Total GULP energy -133623.717617 kJ/mol
# GULP energy per Si atom -5567.654901 kJ/mol
# Density = 2.056277 g / cm^3
# Si number density = 20.609681 Si / 1000 Ang^3
#
#
#
# Elastic Constant Matrix: (Units=GPa)
#
#
# Indices 1 2 3 4 5 6 
#
# 1 53.8623 25.3682 24.4943 0.0000 0.0000 7.8284
# 2 25.3682 53.8623 24.4943 0.0000 0.0000 -7.8284
# 3 24.4943 24.4943 89.5414 0.0000 0.0000 0.0000
# 4 0.0000 0.0000 0.0000 0.3000 0.0000 0.0000
# 5 0.0000 0.0000 0.0000 0.0000 0.3000 0.0000
# 6 7.8284 -7.8284 0.0000 0.0000 0.0000 33.5804
#
#
#
# Elastic Compliance Matrix: (Units=1/GPa)
#
#
# Indices 1 2 3 4 5 6 
#
# 1 0.027721 -0.012530 -0.004155 0.000000 0.000000 -0.009383
# 2 -0.012530 0.027721 -0.004155 0.000000 0.000000 0.009383
# 3 -0.004155 -0.004155 0.013442 0.000000 0.000000 0.000000
# 4 0.000000 0.000000 0.000000 3.333826 0.000000 0.000000
# 5 0.000000 0.000000 0.000000 0.000000 3.333826 0.000000
# 6 -0.009383 0.009383 0.000000 0.000000 0.000000 0.034154
#
#
# Mechanical properties :
#
#
# Convention : Reuss Voigt Hill
#
# Bulk Modulus (GPa) = 36.76320 38.44218 37.60269
# Shear Modulus (GPa) = 0.73298 15.03001 7.88150
#
# Velocity S-wave (km/s) = 0.59701 2.70343 1.95767
# Velocity P-wave (km/s) = 4.28390 5.33270 4.83681
#
# Compressibility (1/GPa) = 0.02720111
#
# Stress axis : x y z
#
# Youngs Moduli (GPa) = 36.07392 36.07392 74.39638
#
# Poissons Ratio (x) = 0.45201 0.30915
# Poissons Ratio (y) = 0.45201 0.30915
# Poissons Ratio (z) = 0.14990 0.14990
#
# Static dielectric constant tensor:
#      x y z
#    x 1.795490 0.000000 0.000000 
#    y 0.000000 1.795490 0.000000 
#    z 0.000000 0.000000 1.734260 
# 
# From -- ./inp_files/1334.got.cif
#   From: 2010.05.17/outbox.cif.g08.bks.cpg/sg77_cif.got.tgz:1334.got - 2010.06.03 18:44:51.
