data_PCOD9541837
_publ_section_title
;
Structure prediction by ZEFSAII (Michael W. Deem and Ramdas Pophale) SiO2 
 PCOD9541837
Probable space group: I 4
;
_chemical_formula_sum "Si O2"
_cell_formula_units_Z 56
_cell_length_a 10.327238
_cell_length_b 10.327238
_cell_length_c 27.179838
_cell_angle_alpha 90.000000
_cell_angle_beta 90.000000
_cell_angle_gamma 90.000000
_cell_volume 2898.779862
_symmetry_space_group_name_H-M "I 4"
_symmetry_group_IT_number 79
_symmetry_cell_setting 'tetragonal'
loop_
_space_group_symop_operation_xyz
x,y,z
-y,x,z
-x,-y,z
y,-x,z
1/2+x,1/2+y,1/2+z
1/2-y,1/2+x,1/2+z
1/2-x,1/2-y,1/2+z
1/2+y,1/2-x,1/2+z
loop_
_atom_site_type_symbol
_atom_site_label
_atom_site_fract_x
_atom_site_fract_y
_atom_site_fract_z
Si Si1 0.283884 0.689197 0.262700
Si Si2 0.651828 0.964329 0.823523
Si Si3 0.813822 0.909755 0.660628
Si Si4 0.848172 0.535671 0.533915
Si Si5 0.970074 0.218093 0.928719
Si Si6 0.189197 0.216116 0.094738
Si Si7 0.409755 0.686178 0.696810
O O1 0.248098 0.571055 0.298408
O O2 0.329968 0.807319 0.297142
O O3 0.393356 0.688744 0.219544
O O4 0.158024 0.703548 0.227740
O O5 0.500000 0.000000 0.817652
O O6 0.694053 0.959116 0.880251
O O7 0.703548 0.841976 0.629698
O O8 0.943335 0.832512 0.646662
O O9 0.805947 0.540884 0.477187
O O10 0.807319 0.670032 0.560296
O O11 0.751902 0.428945 0.559030
O O12 0.000000 0.500000 0.539786
O O13 0.106752 0.140499 0.928719
O O14 0.188744 0.106644 0.137894
O O15 0.332512 0.556665 0.710776
#
# Coordination Sequence:
#
# PCOD9541837 Si02
#       7
#     8   8   8   8   8   8   8
#     4  11  22  37  57  92 122 163 212 249 307 377
#     4  12  24  41  64  91 127 165 205 268 318 372
#     4  10  20  36  56  82 123 169 206 252 298 364
#     4  12  24  41  64  91 127 165 205 268 318 372
#     4  11  23  42  70  96 121 157 206 262 330 387
#     4  11  22  37  57  92 122 163 212 249 307 377
#     4  10  20  36  56  82 123 169 206 252 298 364
#
# _framework density 19.318472
#
# number of rings (size 3 to 8) (size 9 to 14) (size 15 to 20)
#    0.000    1.000    5.714    2.143    0.000    0.571 
#    0.000    0.000    0.000    0.000    0.000    2.000 
#    0.000    0.000    0.000    0.000    0.000    0.000 
#
# Total GULP energy -155974.668747 kJ/mol
# GULP energy per Si atom -5570.523884 kJ/mol
# Density = 1.927450 g / cm^3
# Si number density = 19.318472 Si / 1000 Ang^3
#
#
#
# Elastic Constant Matrix: (Units=GPa)
#
#
# Indices 1 2 3 4 5 6 
#
# 1 -15.9828 57.9236 27.6236 0.0000 0.0000 -24.8282
# 2 57.9236 -15.9828 27.6236 0.0000 0.0000 24.8282
# 3 27.6236 27.6236 141.8418 0.0000 0.0000 0.0000
# 4 0.0000 0.0000 0.0000 25.2306 0.0000 0.0000
# 5 0.0000 0.0000 0.0000 0.0000 25.2306 0.0000
# 6 -24.8282 24.8282 0.0000 0.0000 0.0000 24.4705
#
#
#
# Elastic Compliance Matrix: (Units=1/GPa)
#
#
# Indices 1 2 3 4 5 6 
#
# 1 0.012012 0.020058 -0.006246 0.000000 0.000000 -0.008163
# 2 0.020058 0.012012 -0.006246 0.000000 0.000000 0.008163
# 3 -0.006246 -0.006246 0.009483 0.000000 0.000000 0.000000
# 4 0.000000 0.000000 0.000000 0.039634 0.000000 0.000000
# 5 0.000000 0.000000 0.000000 0.000000 0.039634 0.000000
# 6 -0.008163 0.008163 0.000000 0.000000 0.000000 0.024300
#
#
# Mechanical properties :
#
#
# Convention : Reuss Voigt Hill
#
# Bulk Modulus (GPa) = 20.55891 37.35755 28.95823
# Shear Modulus (GPa) = 36.19086 14.76670 25.47878
#
# Velocity S-wave (km/s) = 4.33295 2.76775 3.63558
# Velocity P-wave (km/s) = 5.97477 5.44000 5.71364
#
# Compressibility (1/GPa) = 0.04864072
#
# Stress axis : x y z
#
# Youngs Moduli (GPa) = 83.24825 83.24825 105.45414
#
# Poissons Ratio (x) = -1.66980 0.65863
# Poissons Ratio (y) = -1.66980 0.65863
# Poissons Ratio (z) = 0.51994 0.51994
#
# Static dielectric constant tensor:
#      x y z
#    x 1.688070 0.000000 0.000000 
#    y 0.000000 1.688070 0.000000 
#    z 0.000000 0.000000 1.666790 
# 
# From -- ./inp_files/1830.got.cif
#   From: 2010.05.17/outbox.cif.g08.bks.cpg/sg79_cif.got.tgz:1830.got - 2010.06.03 18:47:27.
