data_PCOD9541807
_publ_section_title
;
Structure prediction by ZEFSAII (Michael W. Deem and Ramdas Pophale) SiO2 
 PCOD9541807
Probable space group: I 4
;
_chemical_formula_sum "Si O2"
_cell_formula_units_Z 60
_cell_length_a 12.021209
_cell_length_b 12.021209
_cell_length_c 25.138431
_cell_angle_alpha 90.000000
_cell_angle_beta 90.000000
_cell_angle_gamma 90.000000
_cell_volume 3632.741235
_symmetry_space_group_name_H-M "I 4"
_symmetry_group_IT_number 79
_symmetry_cell_setting 'tetragonal'
loop_
_space_group_symop_operation_xyz
x,y,z
-y,x,z
-x,-y,z
y,-x,z
1/2+x,1/2+y,1/2+z
1/2-y,1/2+x,1/2+z
1/2-x,1/2-y,1/2+z
1/2+y,1/2-x,1/2+z
loop_
_atom_site_type_symbol
_atom_site_label
_atom_site_fract_x
_atom_site_fract_y
_atom_site_fract_z
Si Si1 0.670049 0.451533 0.302800
Si Si2 0.994479 0.272567 0.910946
Si Si3 0.653177 0.611689 0.571579
Si Si4 0.500000 0.000000 0.344705
Si Si5 0.890743 0.153815 0.395026
Si Si6 0.766687 0.214953 0.968748
Si Si7 0.688663 0.881313 0.293663
Si Si8 0.663550 0.590319 0.690748
O O1 0.632788 0.573671 0.285839
O O2 0.684698 0.466030 0.366365
O O3 0.785829 0.402521 0.285036
O O4 0.994350 0.391508 0.881754
O O5 0.873216 0.246656 0.932752
O O6 0.088134 0.267785 0.956017
O O7 0.523009 0.648228 0.565430
O O8 0.719510 0.683799 0.528234
O O9 0.699751 0.625372 0.631427
O O10 0.387491 0.012980 0.309992
O O11 0.835094 0.210169 0.447004
O O12 0.856575 0.229508 0.343907
O O13 0.025551 0.149668 0.393214
O O14 0.759850 0.884450 0.240564
O O15 0.541858 0.644321 0.694468
#
# Coordination Sequence:
#
# PCOD9541807 Si02
#       8
#     8   8   8   4   8   8   8   8
#     4  10  19  31  46  74 109 139 176 214 272 338
#     4  11  20  31  50  79 114 145 178 217 281 341
#     4   9  18  33  54  83 111 136 178 233 290 343
#     4  10  22  36  46  82 120 148 180 228 284 340
#     4  11  23  37  52  76 110 152 193 220 266 346
#     4  12  20  32  55  82 111 147 173 231 287 344
#     4  11  20  35  55  77 109 152 184 236 279 334
#     4   9  19  35  56  79 105 141 188 236 279 335
#
# _framework density 16.516452999999998
#
# number of rings (size 3 to 8) (size 9 to 14) (size 15 to 20)
#    0.000    1.600    5.333    2.400    0.000    4.533 
#    0.000    0.000    0.000    5.600    0.000    1.867 
#    0.000    0.000    0.000    0.000    0.000    0.000 
#
# Total GULP energy -167027.202540 kJ/mol
# GULP energy per Si atom -5567.573418 kJ/mol
# Density = 1.647886 g / cm^3
# Si number density = 16.516453 Si / 1000 Ang^3
#
#
#
# Elastic Constant Matrix: (Units=GPa)
#
#
# Indices 1 2 3 4 5 6 
#
# 1 60.0262 29.5862 30.8858 0.0000 0.0000 -14.1252
# 2 29.5862 60.0262 30.8858 0.0000 0.0000 14.1252
# 3 30.8858 30.8858 112.0527 0.0000 0.0000 0.0000
# 4 0.0000 0.0000 0.0000 23.5667 0.0000 0.0000
# 5 0.0000 0.0000 0.0000 0.0000 23.5667 0.0000
# 6 -14.1252 14.1252 0.0000 0.0000 0.0000 28.0354
#
#
#
# Elastic Compliance Matrix: (Units=1/GPa)
#
#
# Indices 1 2 3 4 5 6 
#
# 1 0.037740 -0.023963 -0.003797 0.000000 0.000000 0.031088
# 2 -0.023963 0.037740 -0.003797 0.000000 0.000000 -0.031088
# 3 -0.003797 -0.003797 0.011018 0.000000 0.000000 0.000000
# 4 0.000000 0.000000 0.000000 0.042433 0.000000 0.000000
# 5 0.000000 0.000000 0.000000 0.000000 0.042433 0.000000
# 6 0.031088 -0.031088 0.000000 0.000000 0.000000 0.066996
#
#
# Mechanical properties :
#
#
# Convention : Reuss Voigt Hill
#
# Bulk Modulus (GPa) = 42.76830 46.09120 44.42975
# Shear Modulus (GPa) = 16.16712 24.41691 20.29202
#
# Velocity S-wave (km/s) = 3.13205 3.84909 3.50893
# Velocity P-wave (km/s) = 6.24742 6.90802 6.58601
#
# Compressibility (1/GPa) = 0.02338180
#
# Stress axis : x y z
#
# Youngs Moduli (GPa) = 26.49697 26.49697 90.76246
#
# Poissons Ratio (x) = 0.63496 0.34466
# Poissons Ratio (y) = 0.63496 0.34466
# Poissons Ratio (z) = 0.10062 0.10062
#
# Static dielectric constant tensor:
#      x y z
#    x 1.570970 0.000000 0.000000 
#    y 0.000000 1.570970 0.000000 
#    z 0.000000 0.000000 1.568880 
# 
# From -- ./inp_files/1877.got.cif
#   From: 2010.05.17/outbox.cif.g08.bks.cpg/sg79_cif.got.tgz:1877.got - 2010.06.03 18:47:27.
