data_PCOD9541361
_publ_section_title
;
Structure prediction by ZEFSAII (Michael W. Deem and Ramdas Pophale) SiO2 
 PCOD9541361
Probable space group: P 41
;
_chemical_formula_sum "Si O2"
_cell_formula_units_Z 28
_cell_length_a 11.811083
_cell_length_b 11.811083
_cell_length_c 9.061884
_cell_angle_alpha 90.000000
_cell_angle_beta 90.000000
_cell_angle_gamma 90.000000
_cell_volume 1264.148057
_symmetry_space_group_name_H-M "P 41"
_symmetry_group_IT_number 76
_symmetry_cell_setting 'tetragonal'
loop_
_space_group_symop_operation_xyz
x,y,z
-y,x,1/4+z
-x,-y,1/2+z
y,-x,3/4+z
loop_
_atom_site_type_symbol
_atom_site_label
_atom_site_fract_x
_atom_site_fract_y
_atom_site_fract_z
Si Si1 0.512320 0.065350 0.526350
Si Si2 0.866164 0.687661 0.987652
Si Si3 0.373311 0.461137 0.917429
Si Si4 0.263032 0.969601 0.844751
Si Si5 0.137557 0.356654 0.819554
Si Si6 0.768817 0.361153 0.586679
Si Si7 0.095512 0.774854 0.856640
O O1 0.559254 0.104936 0.685029
O O2 0.621915 0.075444 0.421302
O O3 0.419721 0.144124 0.449592
O O4 0.469594 0.937382 0.541612
O O5 0.852216 0.699007 0.160712
O O6 0.750282 0.720330 0.910970
O O7 0.971342 0.761751 0.928033
O O8 0.404647 0.522815 0.760697
O O9 0.261267 0.383138 0.887811
O O10 0.328110 0.554985 0.032826
O O11 0.285790 0.946955 0.674660
O O12 0.155206 0.893264 0.883726
O O13 0.244909 0.086337 0.930632
O O14 0.832281 0.319585 0.439729
#
# Coordination Sequence:
#
# PCOD9541361 Si02
#       7
#     4   4   4   4   4   4   4
#     4  11  22  43  72 108 139 190 244 300 368 441
#     4  11  25  42  77 103 142 192 244 301 372 437
#     4  12  28  46  71 103 151 197 245 312 387 443
#     4  11  24  44  74 106 142 194 238 304 374 437
#     4  12  25  45  71 110 141 191 257 305 362 456
#     4  12  22  45  76 103 146 189 247 310 371 446
#     4  11  22  47  73 101 143 189 239 304 374 434
#
# _framework density 22.149305999999999
#
# number of rings (size 3 to 8) (size 9 to 14) (size 15 to 20)
#    0.000    0.571    5.714    4.286    2.000    2.286 
#    0.000    2.857    0.000    0.000    0.000    0.000 
#    0.000    0.000    0.000    0.000    0.000    0.000 
#
# Total GULP energy -156383.029159 kJ/mol
# GULP energy per Si atom -5585.108184 kJ/mol
# Density = 2.209889 g / cm^3
# Si number density = 22.149306 Si / 1000 Ang^3
#
#
#
# Elastic Constant Matrix: (Units=GPa)
#
#
# Indices 1 2 3 4 5 6 
#
# 1 46.5023 26.2168 22.8511 0.0000 0.0000 -0.2450
# 2 26.2168 46.5023 22.8511 0.0000 0.0000 0.2450
# 3 22.8511 22.8511 120.3134 0.0000 0.0000 0.0000
# 4 0.0000 0.0000 0.0000 40.1360 0.0000 0.0000
# 5 0.0000 0.0000 0.0000 0.0000 40.1360 0.0000
# 6 -0.2450 0.2450 0.0000 0.0000 0.0000 27.4837
#
#
#
# Elastic Compliance Matrix: (Units=1/GPa)
#
#
# Indices 1 2 3 4 5 6 
#
# 1 0.032461 -0.016846 -0.002966 0.000000 0.000000 0.000439
# 2 -0.016846 0.032461 -0.002966 0.000000 0.000000 -0.000439
# 3 -0.002966 -0.002966 0.009438 0.000000 0.000000 0.000000
# 4 0.000000 0.000000 0.000000 0.024915 0.000000 0.000000
# 5 0.000000 0.000000 0.000000 0.000000 0.024915 0.000000
# 6 0.000439 -0.000439 0.000000 0.000000 0.000000 0.036393
#
#
# Mechanical properties :
#
#
# Convention : Reuss Voigt Hill
#
# Bulk Modulus (GPa) = 34.71518 39.68402 37.19960
# Shear Modulus (GPa) = 23.17597 30.97774 27.07685
#
# Velocity S-wave (km/s) = 3.23825 3.74383 3.50018
# Velocity P-wave (km/s) = 5.44875 6.05341 5.75902
#
# Compressibility (1/GPa) = 0.02880584
#
# Stress axis : x y z
#
# Youngs Moduli (GPa) = 30.80606 30.80606 105.95202
#
# Poissons Ratio (x) = 0.51895 0.31424
# Poissons Ratio (y) = 0.51895 0.31424
# Poissons Ratio (z) = 0.09137 0.09137
#
# Static dielectric constant tensor:
#      x y z
#    x 1.827290 0.000000 0.000000 
#    y 0.000000 1.827290 0.000000 
#    z 0.000000 0.000000 1.868640 
# 
# From -- ./inp_files/606.got.cif
#   From: 2010.05.17/outbox.cif.g08.bks.cpg/sg76_cif.got.tgz:606.got - 2010.06.03 18:43:17.
