data_PCOD9541035
_publ_section_title
;
Structure prediction by ZEFSAII (Michael W. Deem and Ramdas Pophale) SiO2 
 PCOD9541035
Probable space group: P 4
;
_chemical_formula_sum "Si O2"
_cell_formula_units_Z 26
_cell_length_a 8.244805
_cell_length_b 8.244805
_cell_length_c 17.284210
_cell_angle_alpha 90.000000
_cell_angle_beta 90.000000
_cell_angle_gamma 90.000000
_cell_volume 1174.925450
_symmetry_space_group_name_H-M "P 4"
_symmetry_group_IT_number 75
_symmetry_cell_setting 'tetragonal'
loop_
_space_group_symop_operation_xyz
x,y,z
-y,x,z
-x,-y,z
y,-x,z
loop_
_atom_site_type_symbol
_atom_site_label
_atom_site_fract_x
_atom_site_fract_y
_atom_site_fract_z
Si Si1 0.869111 0.228665 0.840300
Si Si2 0.419951 0.244596 0.703891
Si Si3 0.077894 0.738881 0.565751
Si Si4 0.308942 0.697943 0.993632
Si Si5 0.629532 0.256526 0.163436
Si Si6 0.000000 0.500000 0.270314
Si Si7 0.914421 0.261160 0.393779
O O1 0.808592 0.380838 0.791209
O O2 0.814517 0.238019 0.929519
O O3 0.056994 0.210849 0.818535
O O4 0.600198 0.304677 0.693047
O O5 0.369172 0.118814 0.638786
O O6 0.106382 0.667544 0.480162
O O7 0.896844 0.807208 0.569414
O O8 0.282548 0.503692 0.985131
O O9 0.296318 0.779686 0.078375
O O10 0.706783 0.435564 0.171839
O O11 0.630989 0.101472 0.219491
O O12 0.112434 0.605924 0.327955
O O13 0.100516 0.196366 0.387292
#
# Coordination Sequence:
#
# PCOD9541035 Si02
#       7
#     4   4   4   4   4   2   4
#     4  11  24  39  57  85 117 147 185 231 279 338
#     4  11  24  39  57  85 117 147 185 231 279 338
#     4   9  19  37  59  81 110 149 191 235 286 343
#     4   9  19  37  59  81 110 149 191 235 286 343
#     4   9  20  37  55  81 116 151 192 244 296 349
#     4  12  20  32  60  88 112 154 204 248 300 360
#     4   9  20  37  55  81 116 151 192 244 296 349
#
# _framework density 22.129061
#
# number of rings (size 3 to 8) (size 9 to 14) (size 15 to 20)
#    0.000    2.154    0.000    4.615    0.000   11.692 
#    0.000    0.000    0.000    3.692    0.000    0.000 
#    0.000    0.000    0.000    0.000    0.000    0.000 
#
# Total GULP energy -144896.773145 kJ/mol
# GULP energy per Si atom -5572.952813 kJ/mol
# Density = 2.207869 g / cm^3
# Si number density = 22.129061 Si / 1000 Ang^3
#
#
#
# Elastic Constant Matrix: (Units=GPa)
#
#
# Indices 1 2 3 4 5 6 
#
# 1 25.0823 27.3241 27.7082 0.0000 0.0000 -6.1006
# 2 27.3241 25.0823 27.7082 0.0000 0.0000 6.1006
# 3 27.7082 27.7082 135.8653 0.0000 0.0000 0.0000
# 4 0.0000 0.0000 0.0000 22.2410 0.0000 0.0000
# 5 0.0000 0.0000 0.0000 0.0000 22.2410 0.0000
# 6 -6.1006 6.1006 0.0000 0.0000 0.0000 22.2052
#
#
#
# Elastic Compliance Matrix: (Units=1/GPa)
#
#
# Indices 1 2 3 4 5 6 
#
# 1 -0.077219 0.101547 -0.004961 0.000000 0.000000 -0.049114
# 2 0.101547 -0.077219 -0.004961 0.000000 0.000000 0.049114
# 3 -0.004961 -0.004961 0.009384 0.000000 0.000000 0.000000
# 4 0.000000 0.000000 0.000000 0.044962 0.000000 0.000000
# 5 0.000000 0.000000 0.000000 0.000000 0.044962 0.000000
# 6 -0.049114 0.049114 0.000000 0.000000 0.000000 0.018047
#
#
# Mechanical properties :
#
#
# Convention : Reuss Voigt Hill
#
# Bulk Modulus (GPa) = 26.18197 39.05674 32.61936
# Shear Modulus (GPa) = -24.08464 20.22339 -1.93062
#
# Velocity S-wave (km/s) = -3.30263 3.02633 -0.93506
# Velocity P-wave (km/s) = 1.63889 5.46804 3.68873
#
# Compressibility (1/GPa) = 0.03819423
#
# Stress axis : x y z
#
# Youngs Moduli (GPa) = -12.95011 -12.95011 106.56573
#
# Poissons Ratio (x) = 1.31505 0.52872
# Poissons Ratio (y) = 1.31505 0.52872
# Poissons Ratio (z) = -0.06425 -0.06425
#
# Static dielectric constant tensor:
#      x y z
#    x 1.839610 0.000000 0.000000 
#    y 0.000000 1.839610 0.000000 
#    z 0.000000 0.000000 1.853170 
# 
# From -- ./inp_files/720.got.cif
#   From: 2010.05.17/outbox.cif.g08.bks.cpg/sg75_cif.got.tgz:720.got - 2010.06.03 18:42:43.
