data_PCOD9541300
_publ_section_title
;
Structure prediction by ZEFSAII (Michael W. Deem and Ramdas Pophale) SiO2 
 PCOD9541300
Probable space group: P 41
;
_chemical_formula_sum "Si O2"
_cell_formula_units_Z 20
_cell_length_a 11.661179
_cell_length_b 11.661179
_cell_length_c 5.443955
_cell_angle_alpha 90.000000
_cell_angle_beta 90.000000
_cell_angle_gamma 90.000000
_cell_volume 740.285854
_symmetry_space_group_name_H-M "P 41"
_symmetry_group_IT_number 76
_symmetry_cell_setting 'tetragonal'
loop_
_space_group_symop_operation_xyz
x,y,z
-y,x,1/4+z
-x,-y,1/2+z
y,-x,3/4+z
loop_
_atom_site_type_symbol
_atom_site_label
_atom_site_fract_x
_atom_site_fract_y
_atom_site_fract_z
Si Si1 0.647999 0.573791 0.792200
Si Si2 0.721463 0.714591 0.387315
Si Si3 0.563639 0.114280 0.335381
Si Si4 0.144871 0.087169 0.179708
Si Si5 0.919359 0.327629 0.812027
O O1 0.615931 0.442396 0.739675
O O2 0.623691 0.655142 0.552195
O O3 0.787459 0.583249 0.795120
O O4 0.811318 0.610095 0.354344
O O5 0.786104 0.807916 0.560742
O O6 0.692112 0.791132 0.156953
O O7 0.432420 0.080389 0.368868
O O8 0.632439 0.997357 0.291004
O O9 0.213733 0.044153 0.420317
O O10 0.019981 0.129981 0.253417
#
# Coordination Sequence:
#
# PCOD9541300 Si02
#       5
#     4   4   4   4   4
#     4  10  24  43  70 100 145 186 248 309 371 446
#     4  10  26  50  69 112 150 191 261 314 380 464
#     4  10  27  44  76 104 154 193 252 318 376 460
#     4  12  29  47  80 109 154 204 257 320 380 458
#     4  12  26  48  77 111 153 206 252 319 385 458
#
# _framework density 27.016594000000001
#
# number of rings (size 3 to 8) (size 9 to 14) (size 15 to 20)
#    1.200    0.000    0.000    3.600   16.800    0.000 
#    3.600    0.000    0.000    0.000    0.000    0.000 
#    0.000    0.000    0.000    0.000    0.000    0.000 
#
# Total GULP energy -111802.091968 kJ/mol
# GULP energy per Si atom -5590.104598 kJ/mol
# Density = 2.695510 g / cm^3
# Si number density = 27.016594 Si / 1000 Ang^3
#
#
#
# Elastic Constant Matrix: (Units=GPa)
#
#
# Indices 1 2 3 4 5 6 
#
# 1 133.3242 48.1477 31.3306 0.0000 0.0000 -11.8785
# 2 48.1477 133.3242 31.3306 0.0000 0.0000 11.8785
# 3 31.3306 31.3306 85.7113 0.0000 0.0000 0.0000
# 4 0.0000 0.0000 0.0000 31.8256 0.0000 0.0000
# 5 0.0000 0.0000 0.0000 0.0000 31.8256 0.0000
# 6 -11.8785 11.8785 0.0000 0.0000 0.0000 38.8811
#
#
#
# Elastic Compliance Matrix: (Units=1/GPa)
#
#
# Indices 1 2 3 4 5 6 
#
# 1 0.009570 -0.003264 -0.002305 0.000000 0.000000 0.003921
# 2 -0.003264 0.009570 -0.002305 0.000000 0.000000 -0.003921
# 3 -0.002305 -0.002305 0.013352 0.000000 0.000000 0.000000
# 4 0.000000 0.000000 0.000000 0.031421 0.000000 0.000000
# 5 0.000000 0.000000 0.000000 0.000000 0.031421 0.000000
# 6 0.003921 -0.003921 0.000000 0.000000 0.000000 0.028115
#
#
# Mechanical properties :
#
#
# Convention : Reuss Voigt Hill
#
# Bulk Modulus (GPa) = 59.72162 63.77526 61.74844
# Shear Modulus (GPa) = 34.53509 36.60986 35.57247
#
# Velocity S-wave (km/s) = 3.57920 3.68515 3.63256
# Velocity P-wave (km/s) = 6.26374 6.46253 6.36391
#
# Compressibility (1/GPa) = 0.01674435
#
# Stress axis : x y z
#
# Youngs Moduli (GPa) = 104.49111 104.49111 74.89304
#
# Poissons Ratio (x) = 0.34103 0.17265
# Poissons Ratio (y) = 0.34103 0.17265
# Poissons Ratio (z) = 0.24088 0.24088
#
# Static dielectric constant tensor:
#      x y z
#    x 2.085750 0.000000 0.000000 
#    y 0.000000 2.085750 0.000000 
#    z 0.000000 0.000000 2.174030 
# 
# From -- ./inp_files/142.got.cif
#   From: 2010.05.17/outbox.cif.g08.bks.cpg/sg76_cif.got.tgz:142.got - 2010.06.03 18:43:17.
