data_PCOD9541177
_publ_section_title
;
Structure prediction by ZEFSAII (Michael W. Deem and Ramdas Pophale) SiO2 
 PCOD9541177
Probable space group: P 41
;
_chemical_formula_sum "Si O2"
_cell_formula_units_Z 32
_cell_length_a 8.522264
_cell_length_b 8.522264
_cell_length_c 18.987716
_cell_angle_alpha 90.000000
_cell_angle_beta 90.000000
_cell_angle_gamma 90.000000
_cell_volume 1379.058516
_symmetry_space_group_name_H-M "P 41"
_symmetry_group_IT_number 76
_symmetry_cell_setting 'tetragonal'
loop_
_space_group_symop_operation_xyz
x,y,z
-y,x,1/4+z
-x,-y,1/2+z
y,-x,3/4+z
loop_
_atom_site_type_symbol
_atom_site_label
_atom_site_fract_x
_atom_site_fract_y
_atom_site_fract_z
Si Si1 0.787540 0.819168 0.063020
Si Si2 0.275875 0.953460 0.075322
Si Si3 0.592546 0.088004 0.047509
Si Si4 0.829749 0.942586 0.709476
Si Si5 0.810449 0.496801 0.508489
Si Si6 0.355975 0.473344 0.334704
Si Si7 0.549046 0.029977 0.888943
Si Si8 0.357882 0.345265 0.886278
O O1 0.634677 0.710121 0.052311
O O2 0.904588 0.714274 0.109326
O O3 0.894627 0.864751 0.997627
O O4 0.709666 0.977546 0.091944
O O5 0.197131 0.914578 0.000757
O O6 0.364239 0.795783 0.105917
O O7 0.412742 0.078654 0.069622
O O8 0.147737 0.025441 0.127621
O O9 0.640364 0.265910 0.061572
O O10 0.584832 0.004398 0.971104
O O11 0.644954 0.906165 0.722223
O O12 0.639353 0.436826 0.529496
O O13 0.767332 0.623283 0.448829
O O14 0.899664 0.516757 0.584174
O O15 0.494323 0.533219 0.386502
O O16 0.428883 0.173708 0.890234
#
# Coordination Sequence:
#
# PCOD9541177 Si02
#       8
#     4   4   4   4   4   4   4   4
#     4   9  22  40  65  91 127 177 218 261 324 398
#     4  10  22  42  67 100 132 179 224 275 334 408
#     4  11  23  44  66  96 138 174 222 275 339 401
#     4  10  21  40  66  97 133 172 224 269 329 406
#     4  10  21  39  66  97 131 165 221 277 329 394
#     4   9  21  37  68  98 123 169 221 273 327 389
#     4  10  24  44  63 101 132 175 224 276 338 402
#     4  11  22  42  65 100 132 169 220 280 338 390
#
# _framework density 23.204239000000001
#
# number of rings (size 3 to 8) (size 9 to 14) (size 15 to 20)
#    0.000    2.000    1.250    0.750    7.000    3.000 
#   11.250    0.000    0.000    0.000    0.000    0.000 
#    0.000    0.000    0.000    0.000    0.000    0.000 
#
# Total GULP energy -178304.710372 kJ/mol
# GULP energy per Si atom -5572.022199 kJ/mol
# Density = 2.315142 g / cm^3
# Si number density = 23.204239 Si / 1000 Ang^3
#
#
#
# Elastic Constant Matrix: (Units=GPa)
#
#
# Indices 1 2 3 4 5 6 
#
# 1 55.0405 35.4078 3.8349 0.0000 0.0000 -24.3171
# 2 35.4078 55.0405 3.8349 0.0000 0.0000 24.3171
# 3 3.8349 3.8349 55.8496 0.0000 0.0000 0.0000
# 4 0.0000 0.0000 0.0000 23.1067 0.0000 0.0000
# 5 0.0000 0.0000 0.0000 0.0000 23.1067 0.0000
# 6 -24.3171 24.3171 0.0000 0.0000 0.0000 2.9417
#
#
#
# Elastic Compliance Matrix: (Units=1/GPa)
#
#
# Indices 1 2 3 4 5 6 
#
# 1 0.004253 0.006868 -0.000764 0.000000 0.000000 -0.021617
# 2 0.006868 0.004253 -0.000764 0.000000 0.000000 0.021617
# 3 -0.000764 -0.000764 0.018010 0.000000 0.000000 0.000000
# 4 0.000000 0.000000 0.000000 0.043278 0.000000 0.000000
# 5 0.000000 0.000000 0.000000 0.000000 0.043278 0.000000
# 6 -0.021617 0.021617 0.000000 0.000000 0.000000 -0.017453
#
#
# Mechanical properties :
#
#
# Convention : Reuss Voigt Hill
#
# Bulk Modulus (GPa) = 26.88371 28.00954 27.44662
# Shear Modulus (GPa) = 51.36872 18.02120 34.69496
#
# Velocity S-wave (km/s) = 4.71017 2.78984 3.87098
# Velocity P-wave (km/s) = 6.41808 4.74075 5.64209
#
# Compressibility (1/GPa) = 0.03719725
#
# Stress axis : x y z
#
# Youngs Moduli (GPa) = 235.13694 235.13694 55.52436
#
# Poissons Ratio (x) = -1.61491 0.04240
# Poissons Ratio (y) = -1.61491 0.04240
# Poissons Ratio (z) = 0.17955 0.17955
#
# Static dielectric constant tensor:
#      x y z
#    x 1.878060 0.000000 0.000000 
#    y 0.000000 1.878060 0.000000 
#    z 0.000000 0.000000 1.960350 
# 
# From -- ./inp_files/1474.got.cif
#   From: 2010.05.17/outbox.cif.g08.bks.cpg/sg76_cif.got.tgz:1474.got - 2010.06.03 18:43:17.
