data_PCOD9541447
_publ_section_title
;
Structure prediction by ZEFSAII (Michael W. Deem and Ramdas Pophale) SiO2 
 PCOD9541447
Probable space group: P 41
;
_chemical_formula_sum "Si O2"
_cell_formula_units_Z 20
_cell_length_a 8.505363
_cell_length_b 8.505363
_cell_length_c 10.783059
_cell_angle_alpha 90.000000
_cell_angle_beta 90.000000
_cell_angle_gamma 90.000000
_cell_volume 780.059425
_symmetry_space_group_name_H-M "P 41"
_symmetry_group_IT_number 76
_symmetry_cell_setting 'tetragonal'
loop_
_space_group_symop_operation_xyz
x,y,z
-y,x,1/4+z
-x,-y,1/2+z
y,-x,3/4+z
loop_
_atom_site_type_symbol
_atom_site_label
_atom_site_fract_x
_atom_site_fract_y
_atom_site_fract_z
Si Si1 0.127004 0.069532 0.917580
Si Si2 0.327128 0.935661 0.119710
Si Si3 0.593740 0.568524 0.576363
Si Si4 0.889995 0.594284 0.308583
Si Si5 0.646093 0.876350 0.848122
O O1 0.160259 0.248570 0.878006
O O2 0.072245 0.991195 0.787420
O O3 0.276228 0.988104 0.982166
O O4 0.247766 0.771930 0.150894
O O5 0.277894 0.066395 0.219140
O O6 0.514337 0.957450 0.124905
O O7 0.529691 0.525895 0.711965
O O8 0.527912 0.745025 0.555517
O O9 0.776386 0.513489 0.580068
O O10 0.965166 0.632819 0.176067
#
# Coordination Sequence:
#
# PCOD9541447 Si02
#       5
#     4   4   4   4   4
#     4  12  28  53  85 122 166 216 280 346 422 507
#     4  12  27  51  82 117 166 218 275 344 422 491
#     4  12  28  55  84 123 171 222 282 350 422 501
#     4  12  30  48  84 122 165 224 279 342 422 500
#     4  12  29  51  83 124 164 226 276 348 416 507
#
# _framework density 25.639074999999998
#
# number of rings (size 3 to 8) (size 9 to 14) (size 15 to 20)
#    0.000    0.000    4.000    3.600    8.400    1.600 
#    0.000    0.000    0.000    0.000    0.000    0.000 
#    0.000    0.000    0.000    0.000    0.000    0.000 
#
# Total GULP energy -111762.494651 kJ/mol
# GULP energy per Si atom -5588.124733 kJ/mol
# Density = 2.558072 g / cm^3
# Si number density = 25.639075 Si / 1000 Ang^3
#
#
#
# Elastic Constant Matrix: (Units=GPa)
#
#
# Indices 1 2 3 4 5 6 
#
# 1 123.7590 56.7917 51.5458 0.0000 0.0000 -6.9709
# 2 56.7917 123.7590 51.5458 0.0000 0.0000 6.9709
# 3 51.5458 51.5458 148.8089 0.0000 0.0000 0.0000
# 4 0.0000 0.0000 0.0000 47.2713 0.0000 0.0000
# 5 0.0000 0.0000 0.0000 0.0000 47.2713 0.0000
# 6 -6.9709 6.9709 0.0000 0.0000 0.0000 42.4875
#
#
#
# Elastic Compliance Matrix: (Units=1/GPa)
#
#
# Indices 1 2 3 4 5 6 
#
# 1 0.011182 -0.004278 -0.002392 0.000000 0.000000 0.002537
# 2 -0.004278 0.011182 -0.002392 0.000000 0.000000 -0.002537
# 3 -0.002392 -0.002392 0.008377 0.000000 0.000000 0.000000
# 4 0.000000 0.000000 0.000000 0.021154 0.000000 0.000000
# 5 0.000000 0.000000 0.000000 0.000000 0.021154 0.000000
# 6 0.002537 -0.002537 0.000000 0.000000 0.000000 0.024369
#
#
# Mechanical properties :
#
#
# Convention : Reuss Voigt Hill
#
# Bulk Modulus (GPa) = 79.24553 79.56597 79.40575
# Shear Modulus (GPa) = 41.75420 43.16893 42.46156
#
# Velocity S-wave (km/s) = 4.03989 4.10776 4.07397
# Velocity P-wave (km/s) = 7.26197 7.32112 7.29160
#
# Compressibility (1/GPa) = 0.01261901
#
# Stress axis : x y z
#
# Youngs Moduli (GPa) = 89.42586 89.42586 119.37701
#
# Poissons Ratio (x) = 0.38259 0.28549
# Poissons Ratio (y) = 0.38259 0.28549
# Poissons Ratio (z) = 0.21386 0.21386
#
# Static dielectric constant tensor:
#      x y z
#    x 2.118050 0.000000 0.000000 
#    y 0.000000 2.118050 0.000000 
#    z 0.000000 0.000000 2.097970 
# 
# From -- ./inp_files/818.got.cif
#   From: 2010.05.17/outbox.cif.g08.bks.cpg/sg76_cif.got.tgz:818.got - 2010.06.03 18:43:17.
