data_PCOD9541432
_publ_section_title
;
Structure prediction by ZEFSAII (Michael W. Deem and Ramdas Pophale) SiO2 
 PCOD9541432
Probable space group: P 41
;
_chemical_formula_sum "Si O2"
_cell_formula_units_Z 28
_cell_length_a 11.693843
_cell_length_b 11.693843
_cell_length_c 7.933638
_cell_angle_alpha 90.000000
_cell_angle_beta 90.000000
_cell_angle_gamma 90.000000
_cell_volume 1084.892977
_symmetry_space_group_name_H-M "P 41"
_symmetry_group_IT_number 76
_symmetry_cell_setting 'tetragonal'
loop_
_space_group_symop_operation_xyz
x,y,z
-y,x,1/4+z
-x,-y,1/2+z
y,-x,3/4+z
loop_
_atom_site_type_symbol
_atom_site_label
_atom_site_fract_x
_atom_site_fract_y
_atom_site_fract_z
Si Si1 0.387609 0.408662 0.590040
Si Si2 0.047255 0.650828 0.482769
Si Si3 0.224417 0.543340 0.057190
Si Si4 0.861741 0.066277 0.439315
Si Si5 0.206137 0.253187 0.697875
Si Si6 0.725910 0.260802 0.334479
Si Si7 0.037373 0.412227 0.640300
O O1 0.472631 0.397725 0.745913
O O2 0.413294 0.315010 0.446301
O O3 0.266140 0.373702 0.661376
O O4 0.147252 0.719523 0.386099
O O5 0.086398 0.535180 0.578051
O O6 0.991037 0.751092 0.594078
O O7 0.962989 0.599452 0.342141
O O8 0.233332 0.407640 0.082697
O O9 0.094127 0.577583 0.088708
O O10 0.260860 0.606670 0.884689
O O11 0.800763 0.189193 0.470587
O O12 0.973704 0.094655 0.325005
O O13 0.088821 0.284757 0.602675
O O14 0.221336 0.232892 0.898943
#
# Coordination Sequence:
#
# PCOD9541432 Si02
#       7
#     4   4   4   4   4   4   4
#     4  12  28  48  73 114 155 201 261 333 409 491
#     4  12  25  49  77 116 156 204 270 330 405 481
#     4  12  27  50  79 116 156 207 271 337 412 494
#     4  12  27  52  79 115 161 211 276 338 404 480
#     4  12  27  46  77 111 158 207 261 326 398 486
#     4  12  28  50  78 114 160 211 270 336 418 488
#     4  12  26  49  79 112 158 211 261 330 406 482
#
# _framework density 25.808994999999999
#
# number of rings (size 3 to 8) (size 9 to 14) (size 15 to 20)
#    0.000    0.000    7.143    0.857    8.000    2.286 
#    2.571    0.000    0.000    0.000    0.000    0.000 
#    0.000    0.000    0.000    0.000    0.000    0.000 
#
# Total GULP energy -156317.058932 kJ/mol
# GULP energy per Si atom -5582.752105 kJ/mol
# Density = 2.575025 g / cm^3
# Si number density = 25.808995 Si / 1000 Ang^3
#
#
#
# Elastic Constant Matrix: (Units=GPa)
#
#
# Indices 1 2 3 4 5 6 
#
# 1 112.6797 35.8406 14.1581 0.0000 0.0000 -6.5927
# 2 35.8406 112.6797 14.1581 0.0000 0.0000 6.5927
# 3 14.1581 14.1581 43.7507 0.0000 0.0000 0.0000
# 4 0.0000 0.0000 0.0000 31.7505 0.0000 0.0000
# 5 0.0000 0.0000 0.0000 0.0000 31.7505 0.0000
# 6 -6.5927 6.5927 0.0000 0.0000 0.0000 23.4303
#
#
#
# Elastic Compliance Matrix: (Units=1/GPa)
#
#
# Indices 1 2 3 4 5 6 
#
# 1 0.010425 -0.003249 -0.002322 0.000000 0.000000 0.003848
# 2 -0.003249 0.010425 -0.002322 0.000000 0.000000 -0.003848
# 3 -0.002322 -0.002322 0.024360 0.000000 0.000000 0.000000
# 4 0.000000 0.000000 0.000000 0.031496 0.000000 0.000000
# 5 0.000000 0.000000 0.000000 0.000000 0.031496 0.000000
# 6 0.003848 -0.003848 0.000000 0.000000 0.000000 0.044845
#
#
# Mechanical properties :
#
#
# Convention : Reuss Voigt Hill
#
# Bulk Modulus (GPa) = 33.98733 44.15819 39.07276
# Shear Modulus (GPa) = 27.98909 31.04979 29.51944
#
# Velocity S-wave (km/s) = 3.29670 3.47228 3.38563
# Velocity P-wave (km/s) = 5.26197 5.76389 5.51864
#
# Compressibility (1/GPa) = 0.02942273
#
# Stress axis : x y z
#
# Youngs Moduli (GPa) = 95.92201 95.92201 41.05136
#
# Poissons Ratio (x) = 0.31168 0.09533
# Poissons Ratio (y) = 0.31168 0.09533
# Poissons Ratio (z) = 0.22275 0.22275
#
# Static dielectric constant tensor:
#      x y z
#    x 2.151380 0.000000 0.000000 
#    y 0.000000 2.151380 0.000000 
#    z 0.000000 0.000000 2.122450 
# 
# From -- ./inp_files/589.got.cif
#   From: 2010.05.17/outbox.cif.g08.bks.cpg/sg76_cif.got.tgz:589.got - 2010.06.03 18:43:17.
