data_PCOD9541489
_publ_section_title
;
Structure prediction by ZEFSAII (Michael W. Deem and Ramdas Pophale) SiO2 
 PCOD9541489
Probable space group: P 42
;
_chemical_formula_sum "Si O2"
_cell_formula_units_Z 26
_cell_length_a 8.411308
_cell_length_b 8.411308
_cell_length_c 16.445096
_cell_angle_alpha 90.000000
_cell_angle_beta 90.000000
_cell_angle_gamma 90.000000
_cell_volume 1163.492224
_symmetry_space_group_name_H-M "P 42"
_symmetry_group_IT_number 77
_symmetry_cell_setting 'tetragonal'
loop_
_space_group_symop_operation_xyz
x,y,z
-y,x,1/2+z
-x,-y,z
y,-x,1/2+z
loop_
_atom_site_type_symbol
_atom_site_label
_atom_site_fract_x
_atom_site_fract_y
_atom_site_fract_z
Si Si1 0.634062 0.376427 0.253540
Si Si2 0.226361 0.844477 0.832177
Si Si3 0.884007 0.264030 0.460602
Si Si4 0.080650 0.344354 0.851655
Si Si5 0.674989 0.529525 0.431130
Si Si6 0.000000 0.000000 0.079424
Si Si7 0.023324 0.670022 0.174303
O O1 0.500000 0.500000 0.220101
O O2 0.589765 0.196897 0.280035
O O3 0.672901 0.447780 0.342177
O O4 0.797263 0.351610 0.206729
O O5 0.296521 0.719132 0.898785
O O6 0.045954 0.786723 0.819252
O O7 0.258624 0.005613 0.881290
O O8 0.310081 0.889073 0.746397
O O9 0.732273 0.167115 0.428873
O O10 0.815165 0.439415 0.479454
O O11 0.974687 0.159950 0.526618
O O12 0.000000 0.500000 0.883563
O O13 0.500000 0.500000 0.466925
O O14 0.015614 0.835882 0.127904
O O15 0.000000 0.500000 0.130396
#
# Coordination Sequence:
#
# PCOD9541489 Si02
#       7
#     4   4   4   4   4   2   4
#     4  10  20  38  62 101 135 158 220 285 347 411
#     4  12  19  40  71 100 127 169 234 295 349 408
#     4  11  22  42  62  95 134 174 226 290 335 415
#     4  11  21  32  63 104 132 166 215 294 361 400
#     4  10  20  37  70 103 130 161 218 297 359 405
#     4  12  28  44  64  96 146 186 248 276 346 450
#     4  12  24  43  72  97 135 190 231 292 360 419
#
# _framework density 22.346518
#
# number of rings (size 3 to 8) (size 9 to 14) (size 15 to 20)
#    0.000    0.923    6.154    4.154    0.000    0.615 
#    2.769    0.000    6.769    0.923    0.000    0.000 
#    0.000    0.000    0.000    0.000    0.000    0.000 
#
# Total GULP energy -144757.782987 kJ/mol
# GULP energy per Si atom -5567.607038 kJ/mol
# Density = 2.229566 g / cm^3
# Si number density = 22.346518 Si / 1000 Ang^3
#
#
#
# Elastic Constant Matrix: (Units=GPa)
#
#
# Indices 1 2 3 4 5 6 
#
# 1 103.6675 20.9032 22.4708 0.0000 0.0000 3.9244
# 2 20.9032 103.6675 22.4708 0.0000 0.0000 -3.9244
# 3 22.4708 22.4708 34.1014 0.0000 0.0000 0.0000
# 4 0.0000 0.0000 0.0000 4.2339 0.0000 0.0000
# 5 0.0000 0.0000 0.0000 0.0000 4.2339 0.0000
# 6 3.9244 -3.9244 0.0000 0.0000 0.0000 47.9324
#
#
#
# Elastic Compliance Matrix: (Units=1/GPa)
#
#
# Indices 1 2 3 4 5 6 
#
# 1 0.011354 -0.000823 -0.006939 0.000000 0.000000 -0.000997
# 2 -0.000823 0.011354 -0.006939 0.000000 0.000000 0.000997
# 3 -0.006939 -0.006939 0.038470 0.000000 0.000000 0.000000
# 4 0.000000 0.000000 0.000000 0.236188 0.000000 0.000000
# 5 0.000000 0.000000 0.000000 0.000000 0.236188 0.000000
# 6 -0.000997 0.000997 0.000000 0.000000 0.000000 0.021026
#
#
# Mechanical properties :
#
#
# Convention : Reuss Voigt Hill
#
# Bulk Modulus (GPa) = 31.47200 41.45844 36.46522
# Shear Modulus (GPa) = 8.40938 22.98616 15.69777
#
# Velocity S-wave (km/s) = 1.94199 3.21070 2.65329
# Velocity P-wave (km/s) = 4.37523 5.68661 5.07347
#
# Compressibility (1/GPa) = 0.03177427
#
# Stress axis : x y z
#
# Youngs Moduli (GPa) = 88.07410 88.07410 25.99459
#
# Poissons Ratio (x) = 0.07248 0.18039
# Poissons Ratio (y) = 0.07248 0.18039
# Poissons Ratio (z) = 0.61118 0.61118
#
# Static dielectric constant tensor:
#      x y z
#    x 1.993200 0.000000 0.000000 
#    y 0.000000 1.993200 0.000000 
#    z 0.000000 0.000000 1.802530 
# 
# From -- ./inp_files/1390.got.cif
#   From: 2010.05.17/outbox.cif.g08.bks.cpg/sg77_cif.got.tgz:1390.got - 2010.06.03 18:44:51.
