data_PCOD9541866
_publ_section_title
;
Structure prediction by ZEFSAII (Michael W. Deem and Ramdas Pophale) SiO2 
 PCOD9541866
Probable space group: I 4
;
_chemical_formula_sum "Si O2"
_cell_formula_units_Z 56
_cell_length_a 13.887451
_cell_length_b 13.887451
_cell_length_c 15.073613
_cell_angle_alpha 90.000000
_cell_angle_beta 90.000000
_cell_angle_gamma 90.000000
_cell_volume 2907.116528
_symmetry_space_group_name_H-M "I 4"
_symmetry_group_IT_number 79
_symmetry_cell_setting 'tetragonal'
loop_
_space_group_symop_operation_xyz
x,y,z
-y,x,z
-x,-y,z
y,-x,z
1/2+x,1/2+y,1/2+z
1/2-y,1/2+x,1/2+z
1/2-x,1/2-y,1/2+z
1/2+y,1/2-x,1/2+z
loop_
_atom_site_type_symbol
_atom_site_label
_atom_site_fract_x
_atom_site_fract_y
_atom_site_fract_z
Si Si1 0.908250 0.877398 0.387820
Si Si2 0.204163 0.703252 0.384381
Si Si3 0.614234 0.011825 0.194030
Si Si4 0.683555 0.811382 0.577662
Si Si5 0.490735 0.112549 0.894697
Si Si6 0.740670 0.475488 0.043409
Si Si7 0.210880 0.663998 0.195283
O O1 0.817872 0.809379 0.369707
O O2 0.938197 0.853534 0.490752
O O3 0.018122 0.871062 0.354245
O O4 0.242190 0.681442 0.482591
O O5 0.097989 0.655536 0.387861
O O6 0.249229 0.660908 0.295678
O O7 0.658218 0.082494 0.120854
O O8 0.500000 0.000000 0.177627
O O9 0.623606 0.051948 0.295422
O O10 0.659083 0.905218 0.193462
O O11 0.740709 0.748031 0.647627
O O12 0.743015 0.910825 0.558716
O O13 0.500000 0.000000 0.915419
O O14 0.445242 0.172896 0.975111
O O15 0.751940 0.423596 0.136083
#
# Coordination Sequence:
#
# PCOD9541866 Si02
#       7
#     8   8   8   8   8   8   8
#     4  11  20  35  58  80 112 151 187 241 306 356
#     4  10  22  36  50  85 116 144 197 240 287 357
#     4  10  21  38  59  87 116 157 200 240 302 358
#     4  11  22  37  59  83 120 155 194 249 299 361
#     4   9  20  35  57  82 115 148 190 245 288 351
#     4  11  20  37  57  88 115 153 194 245 307 364
#     4  11  23  36  58  85 118 154 198 247 295 363
#
# _framework density 19.263075000000001
#
# number of rings (size 3 to 8) (size 9 to 14) (size 15 to 20)
#    0.000    1.571    5.714    0.000    6.000    0.000 
#    0.000    1.429    0.000    0.429    0.000    0.000 
#    0.000    2.286    0.000    0.000    0.000    0.000 
#
# Total GULP energy -155883.432680 kJ/mol
# GULP energy per Si atom -5567.265453 kJ/mol
# Density = 1.921923 g / cm^3
# Si number density = 19.263075 Si / 1000 Ang^3
#
#
#
# Elastic Constant Matrix: (Units=GPa)
#
#
# Indices 1 2 3 4 5 6 
#
# 1 56.7969 19.8342 10.7707 0.0000 0.0000 0.9897
# 2 19.8342 56.7969 10.7707 0.0000 0.0000 -0.9897
# 3 10.7707 10.7707 115.6478 0.0000 0.0000 0.0000
# 4 0.0000 0.0000 0.0000 23.2689 0.0000 0.0000
# 5 0.0000 0.0000 0.0000 0.0000 23.2689 0.0000
# 6 0.9897 -0.9897 0.0000 0.0000 0.0000 19.6152
#
#
#
# Elastic Compliance Matrix: (Units=1/GPa)
#
#
# Indices 1 2 3 4 5 6 
#
# 1 0.020264 -0.006864 -0.001248 0.000000 0.000000 -0.001369
# 2 -0.006864 0.020264 -0.001248 0.000000 0.000000 0.001369
# 3 -0.001248 -0.001248 0.008879 0.000000 0.000000 0.000000
# 4 0.000000 0.000000 0.000000 0.042976 0.000000 0.000000
# 5 0.000000 0.000000 0.000000 0.000000 0.042976 0.000000
# 6 -0.001369 0.001369 0.000000 0.000000 0.000000 0.051119
#
#
# Mechanical properties :
#
#
# Convention : Reuss Voigt Hill
#
# Bulk Modulus (GPa) = 32.58599 34.66586 33.62592
# Shear Modulus (GPa) = 23.20975 25.75500 24.48237
#
# Velocity S-wave (km/s) = 3.47491 3.66049 3.56890
# Velocity P-wave (km/s) = 5.74917 5.99171 5.87170
#
# Compressibility (1/GPa) = 0.03068804
#
# Stress axis : x y z
#
# Youngs Moduli (GPa) = 49.34860 49.34860 112.62008
#
# Poissons Ratio (x) = 0.33871 0.14055
# Poissons Ratio (y) = 0.33871 0.14055
# Poissons Ratio (z) = 0.06159 0.06159
#
# Static dielectric constant tensor:
#      x y z
#    x 1.706660 0.000000 0.000000 
#    y 0.000000 1.706660 0.000000 
#    z 0.000000 0.000000 1.749770 
# 
# From -- ./inp_files/1412.got.cif
#   From: 2010.05.17/outbox.cif.g08.bks.cpg/sg79_cif.got.tgz:1412.got - 2010.06.03 18:47:27.
