data_PCOD9541550
_publ_section_title
;
Structure prediction by ZEFSAII (Michael W. Deem and Ramdas Pophale) SiO2 
 PCOD9541550
Probable space group: P 42
;
_chemical_formula_sum "Si O2"
_cell_formula_units_Z 16
_cell_length_a 9.266695
_cell_length_b 9.266695
_cell_length_c 8.042872
_cell_angle_alpha 90.000000
_cell_angle_beta 90.000000
_cell_angle_gamma 90.000000
_cell_volume 690.654579
_symmetry_space_group_name_H-M "P 42"
_symmetry_group_IT_number 77
_symmetry_cell_setting 'tetragonal'
loop_
_space_group_symop_operation_xyz
x,y,z
-y,x,1/2+z
-x,-y,z
y,-x,1/2+z
loop_
_atom_site_type_symbol
_atom_site_label
_atom_site_fract_x
_atom_site_fract_y
_atom_site_fract_z
Si Si1 0.217874 0.064468 0.182100
Si Si2 0.500000 0.500000 0.610841
Si Si3 0.000000 0.500000 0.080438
Si Si4 0.778206 0.921285 0.785286
Si Si5 0.468783 0.240658 0.361626
O O1 0.338781 0.141406 0.293618
O O2 0.071291 0.143485 0.238363
O O3 0.195848 0.892977 0.216111
O O4 0.240867 0.086566 0.984433
O O5 0.465106 0.360702 0.503364
O O6 0.649241 0.491049 0.711072
O O7 0.072728 0.624076 0.193131
O O8 0.122359 0.435422 0.959276
#
# Coordination Sequence:
#
# PCOD9541550 Si02
#       5
#     4   2   2   4   4
#     4  11  23  44  70 100 143 193 244 302 370 440
#     4  10  26  50  74 106 152 196 254 312 376 450
#     4  12  26  42  70 106 144 188 246 304 374 440
#     4  11  24  43  68 104 145 190 242 306 370 443
#     4  11  25  46  74 107 146 198 252 312 375 449
#
# _framework density 23.166429999999998
#
# number of rings (size 3 to 8) (size 9 to 14) (size 15 to 20)
#    0.000    1.000    0.000    7.500    0.000   13.000 
#    0.000    2.500    0.000    0.000    0.000    0.000 
#    0.000    0.000    0.000    0.000    0.000    0.000 
#
# Total GULP energy -89212.243564 kJ/mol
# GULP energy per Si atom -5575.765223 kJ/mol
# Density = 2.311370 g / cm^3
# Si number density = 23.166430 Si / 1000 Ang^3
#
#
#
# Elastic Constant Matrix: (Units=GPa)
#
#
# Indices 1 2 3 4 5 6 
#
# 1 239.0264 -85.9634 75.9237 0.0000 0.0000 -6.6775
# 2 -85.9634 239.0264 75.9237 0.0000 0.0000 6.6775
# 3 75.9237 75.9237 169.9529 0.0000 0.0000 0.0000
# 4 0.0000 0.0000 0.0000 20.7595 0.0000 0.0000
# 5 0.0000 0.0000 0.0000 0.0000 20.7595 0.0000
# 6 -6.6775 6.6775 0.0000 0.0000 0.0000 35.2675
#
#
#
# Elastic Compliance Matrix: (Units=1/GPa)
#
#
# Indices 1 2 3 4 5 6 
#
# 1 0.007417 0.004316 -0.005242 0.000000 0.000000 0.000587
# 2 0.004316 0.007417 -0.005242 0.000000 0.000000 -0.000587
# 3 -0.005242 -0.005242 0.010567 0.000000 0.000000 0.000000
# 4 0.000000 0.000000 0.000000 0.048171 0.000000 0.000000
# 5 0.000000 0.000000 0.000000 0.000000 0.048171 0.000000
# 6 0.000587 -0.000587 0.000000 0.000000 0.000000 0.028577
#
#
# Mechanical properties :
#
#
# Convention : Reuss Voigt Hill
#
# Bulk Modulus (GPa) = 76.52758 86.64151 81.58455
# Shear Modulus (GPa) = 29.93829 54.16542 42.05185
#
# Velocity S-wave (km/s) = 3.59878 4.84064 4.26515
# Velocity P-wave (km/s) = 7.09745 8.28994 7.71676
#
# Compressibility (1/GPa) = 0.01306718
#
# Stress axis : x y z
#
# Youngs Moduli (GPa) = 134.82153 134.82153 94.63225
#
# Poissons Ratio (x) = -0.58190 0.49603
# Poissons Ratio (y) = -0.58190 0.49603
# Poissons Ratio (z) = 0.70669 0.70669
#
# Static dielectric constant tensor:
#      x y z
#    x 1.859730 0.000000 0.000000 
#    y 0.000000 1.859730 0.000000 
#    z 0.000000 0.000000 1.894690 
# 
# From -- ./inp_files/315.got.cif
#   From: 2010.05.17/outbox.cif.g08.bks.cpg/sg77_cif.got.tgz:315.got - 2010.06.03 18:44:51.
