data_PCOD9541384
_publ_section_title
;
Structure prediction by ZEFSAII (Michael W. Deem and Ramdas Pophale) SiO2 
 PCOD9541384
Probable space group: P 41
;
_chemical_formula_sum "Si O2"
_cell_formula_units_Z 24
_cell_length_a 7.488457
_cell_length_b 7.488457
_cell_length_c 14.806023
_cell_angle_alpha 90.000000
_cell_angle_beta 90.000000
_cell_angle_gamma 90.000000
_cell_volume 830.277178
_symmetry_space_group_name_H-M "P 41"
_symmetry_group_IT_number 76
_symmetry_cell_setting 'tetragonal'
loop_
_space_group_symop_operation_xyz
x,y,z
-y,x,1/4+z
-x,-y,1/2+z
y,-x,3/4+z
loop_
_atom_site_type_symbol
_atom_site_label
_atom_site_fract_x
_atom_site_fract_y
_atom_site_fract_z
Si Si1 0.700238 0.061382 0.934270
Si Si2 0.138494 0.410019 0.504085
Si Si3 0.947808 0.722017 0.397288
Si Si4 0.834815 0.796666 0.738906
Si Si5 0.277984 0.207382 0.054168
Si Si6 0.568500 0.662072 0.871505
O O1 0.595048 0.179847 0.860301
O O2 0.906398 0.121051 0.915320
O O3 0.621244 0.865670 0.908235
O O4 0.678849 0.076132 0.042163
O O5 0.017659 0.559641 0.458778
O O6 0.316998 0.436818 0.446481
O O7 0.003493 0.234409 0.497163
O O8 0.769223 0.759835 0.451302
O O9 0.872042 0.768911 0.633096
O O10 0.673383 0.675038 0.775820
O O11 0.993570 0.720261 0.799860
O O12 0.395263 0.369937 0.092004
#
# Coordination Sequence:
#
# PCOD9541384 Si02
#       6
#     4   4   4   4   4   4
#     4  11  24  44  70 109 157 209 265 333 413 494
#     4  11  24  47  76 107 158 220 259 347 416 484
#     4  12  25  43  78 113 157 212 276 337 421 495
#     4  11  24  44  74 112 154 199 267 328 403 484
#     4  12  25  43  80 116 151 209 268 336 407 501
#     4  11  24  45  74 109 151 207 265 319 414 488
#
# _framework density 28.906008
#
# number of rings (size 3 to 8) (size 9 to 14) (size 15 to 20)
#    0.000    0.667    6.667    2.000    7.000    0.000 
#    3.000    0.000   14.667    0.000    0.000    0.000 
#    0.000    0.000    0.000    0.000    0.000    0.000 
#
# Total GULP energy -133762.273214 kJ/mol
# GULP energy per Si atom -5573.428051 kJ/mol
# Density = 2.884022 g / cm^3
# Si number density = 28.906008 Si / 1000 Ang^3
#
#
#
# Elastic Constant Matrix: (Units=GPa)
#
#
# Indices 1 2 3 4 5 6 
#
# 1 113.6861 33.0823 26.5081 0.0000 0.0000 -10.1578
# 2 33.0823 113.6861 26.5081 0.0000 0.0000 10.1578
# 3 26.5081 26.5081 235.2793 0.0000 0.0000 0.0000
# 4 0.0000 0.0000 0.0000 37.2441 0.0000 0.0000
# 5 0.0000 0.0000 0.0000 0.0000 37.2441 0.0000
# 6 -10.1578 10.1578 0.0000 0.0000 0.0000 27.5484
#
#
#
# Elastic Compliance Matrix: (Units=1/GPa)
#
#
# Indices 1 2 3 4 5 6 
#
# 1 0.010390 -0.003287 -0.000800 0.000000 0.000000 0.005043
# 2 -0.003287 0.010390 -0.000800 0.000000 0.000000 -0.005043
# 3 -0.000800 -0.000800 0.004431 0.000000 0.000000 0.000000
# 4 0.000000 0.000000 0.000000 0.026850 0.000000 0.000000
# 5 0.000000 0.000000 0.000000 0.000000 0.026850 0.000000
# 6 0.005043 -0.005043 0.000000 0.000000 0.000000 0.040019
#
#
# Mechanical properties :
#
#
# Convention : Reuss Voigt Hill
#
# Bulk Modulus (GPa) = 64.78890 70.53874 67.66382
# Shear Modulus (GPa) = 37.35526 45.51087 41.43306
#
# Velocity S-wave (km/s) = 3.59876 3.97223 3.79010
# Velocity P-wave (km/s) = 6.30320 6.74492 6.52780
#
# Compressibility (1/GPa) = 0.01543474
#
# Stress axis : x y z
#
# Youngs Moduli (GPa) = 96.24645 96.24645 225.70395
#
# Poissons Ratio (x) = 0.31641 0.18061
# Poissons Ratio (y) = 0.31641 0.18061
# Poissons Ratio (z) = 0.07702 0.07702
#
# Static dielectric constant tensor:
#      x y z
#    x 2.426000 0.000000 0.000000 
#    y 0.000000 2.426000 0.000000 
#    z 0.000000 0.000000 2.237330 
# 
# From -- ./inp_files/1054.got.cif
#   From: 2010.05.17/outbox.cif.g08.bks.cpg/sg76_cif.got.tgz:1054.got - 2010.06.03 18:43:17.
