data_PCOD9541873
_publ_section_title
;
Structure prediction by ZEFSAII (Michael W. Deem and Ramdas Pophale) SiO2 
 PCOD9541873
Probable space group: I 4
;
_chemical_formula_sum "Si O2"
_cell_formula_units_Z 56
_cell_length_a 14.216445
_cell_length_b 14.216445
_cell_length_c 13.992302
_cell_angle_alpha 90.000000
_cell_angle_beta 90.000000
_cell_angle_gamma 90.000000
_cell_volume 2827.946496
_symmetry_space_group_name_H-M "I 4"
_symmetry_group_IT_number 79
_symmetry_cell_setting 'tetragonal'
loop_
_space_group_symop_operation_xyz
x,y,z
-y,x,z
-x,-y,z
y,-x,z
1/2+x,1/2+y,1/2+z
1/2-y,1/2+x,1/2+z
1/2-x,1/2-y,1/2+z
1/2+y,1/2-x,1/2+z
loop_
_atom_site_type_symbol
_atom_site_label
_atom_site_fract_x
_atom_site_fract_y
_atom_site_fract_z
Si Si1 0.441807 0.764885 0.053090
Si Si2 0.097337 0.557572 0.922653
Si Si3 0.807795 0.599027 0.601451
Si Si4 0.622986 0.599317 0.520029
Si Si5 0.064967 0.406136 0.200965
Si Si6 0.699433 0.367794 0.119654
Si Si7 0.103313 0.880282 0.811522
O O1 0.420992 0.845969 0.132066
O O2 0.523903 0.692451 0.087103
O O3 0.346887 0.703159 0.042757
O O4 0.488532 0.820812 0.963770
O O5 0.111103 0.587390 0.812501
O O6 0.000000 0.500000 0.927747
O O7 0.087841 0.644454 0.996516
O O8 0.699658 0.630074 0.595177
O O9 0.826190 0.504215 0.659186
O O10 0.859253 0.690273 0.641456
O O11 0.514467 0.626274 0.527251
O O12 0.655150 0.633107 0.415165
O O13 0.000000 0.500000 0.195234
O O14 0.648084 0.340462 0.217218
O O15 0.991103 0.872855 0.809116
#
# Coordination Sequence:
#
# PCOD9541873 Si02
#       7
#     8   8   8   8   8   8   8
#     4  11  22  41  57  94 124 161 203 256 313 373
#     4  10  21  39  62  82 120 161 194 252 307 361
#     4  11  22  39  57  94 114 157 210 245 307 369
#     4   9  21  38  57  83 121 156 192 249 310 367
#     4  11  21  41  63  84 121 162 201 252 308 369
#     4  11  22  34  60  87 124 155 198 252 306 370
#     4   9  17  34  56  84 117 151 186 238 310 357
#
# _framework density 19.802354999999999
#
# number of rings (size 3 to 8) (size 9 to 14) (size 15 to 20)
#    0.000    1.714    5.714    0.857    4.000    0.286 
#    2.571    0.000    0.000    0.000    0.000    0.000 
#    0.000    0.000    0.000    0.000    0.000    0.000 
#
# Total GULP energy -156017.452547 kJ/mol
# GULP energy per Si atom -5572.051877 kJ/mol
# Density = 1.975728 g / cm^3
# Si number density = 19.802355 Si / 1000 Ang^3
#
#
#
# Elastic Constant Matrix: (Units=GPa)
#
#
# Indices 1 2 3 4 5 6 
#
# 1 51.3897 -0.6902 5.6843 0.0000 0.0000 11.0683
# 2 -0.6902 51.3897 5.6843 0.0000 0.0000 -11.0683
# 3 5.6843 5.6843 61.2112 0.0000 0.0000 0.0000
# 4 0.0000 0.0000 0.0000 19.6604 0.0000 0.0000
# 5 0.0000 0.0000 0.0000 0.0000 19.6604 0.0000
# 6 11.0683 -11.0683 0.0000 0.0000 0.0000 26.4093
#
#
#
# Elastic Compliance Matrix: (Units=1/GPa)
#
#
# Indices 1 2 3 4 5 6 
#
# 1 0.021753 -0.001610 -0.001871 0.000000 0.000000 -0.009792
# 2 -0.001610 0.021753 -0.001871 0.000000 0.000000 0.009792
# 3 -0.001871 -0.001871 0.016684 0.000000 0.000000 0.000000
# 4 0.000000 0.000000 0.000000 0.050864 0.000000 0.000000
# 5 0.000000 0.000000 0.000000 0.000000 0.050864 0.000000
# 6 -0.009792 0.009792 0.000000 0.000000 0.000000 0.046073
#
#
# Mechanical properties :
#
#
# Convention : Reuss Voigt Hill
#
# Bulk Modulus (GPa) = 20.20653 20.59414 20.40034
# Shear Modulus (GPa) = 21.25945 23.36684 22.31315
#
# Velocity S-wave (km/s) = 3.28011 3.43884 3.36041
# Velocity P-wave (km/s) = 4.95699 5.11761 5.03794
#
# Compressibility (1/GPa) = 0.04948895
#
# Stress axis : x y z
#
# Youngs Moduli (GPa) = 45.96992 45.96992 59.93657
#
# Poissons Ratio (x) = 0.07400 0.11212
# Poissons Ratio (y) = 0.07400 0.11212
# Poissons Ratio (z) = 0.08599 0.08599
#
# Static dielectric constant tensor:
#      x y z
#    x 1.719590 0.000000 0.000000 
#    y 0.000000 1.719590 0.000000 
#    z 0.000000 0.000000 1.724280 
# 
# From -- ./inp_files/1421.got.cif
#   From: 2010.05.17/outbox.cif.g08.bks.cpg/sg79_cif.got.tgz:1421.got - 2010.06.03 18:47:27.
