data_PCOD9541526
_publ_section_title
;
Structure prediction by ZEFSAII (Michael W. Deem and Ramdas Pophale) SiO2 
 PCOD9541526
Probable space group: P 42
;
_chemical_formula_sum "Si O2"
_cell_formula_units_Z 16
_cell_length_a 5.124994
_cell_length_b 5.124994
_cell_length_c 26.185143
_cell_angle_alpha 90.000000
_cell_angle_beta 90.000000
_cell_angle_gamma 90.000000
_cell_volume 687.767536
_symmetry_space_group_name_H-M "P 42"
_symmetry_group_IT_number 77
_symmetry_cell_setting 'tetragonal'
loop_
_space_group_symop_operation_xyz
x,y,z
-y,x,1/2+z
-x,-y,z
y,-x,1/2+z
loop_
_atom_site_type_symbol
_atom_site_label
_atom_site_fract_x
_atom_site_fract_y
_atom_site_fract_z
Si Si1 0.747477 0.809449 0.263300
Si Si2 0.177257 0.746740 0.874651
Si Si3 0.000000 0.000000 0.108221
Si Si4 0.000000 0.500000 0.535869
Si Si5 0.000000 0.500000 0.181263
Si Si6 0.500000 0.500000 0.965807
O O1 0.766296 0.681057 0.320027
O O2 0.774683 0.588530 0.220640
O O3 0.500000 0.000000 0.256384
O O4 0.000000 0.000000 0.259673
O O5 0.324925 0.663264 0.925492
O O6 0.000000 0.500000 0.864692
O O7 0.000000 0.000000 0.883318
O O8 0.982276 0.251331 0.144640
O O9 0.250122 0.969222 0.071921
O O10 0.741384 0.427373 0.502722
#
# Coordination Sequence:
#
# PCOD9541526 Si02
#       6
#     4   4   2   2   2   2
#     4  10  24  44  72 115 155 199 243 302 375 475
#     4  10  23  43  71 111 156 192 246 300 376 474
#     4  12  30  52  76 110 142 200 264 332 374 446
#     4  12  30  51  78 106 148 193 270 324 384 438
#     4  12  26  51  82 104 156 199 254 314 396 444
#     4  12  26  46  78 106 146 208 240 322 384 454
#
# _framework density 23.263679
#
# number of rings (size 3 to 8) (size 9 to 14) (size 15 to 20)
#    0.000    1.000    1.250    3.000    7.000   10.000 
#    0.000    0.000    0.000    0.000    0.000    0.000 
#    0.000    0.000    0.000    0.000    0.000    0.000 
#
# Total GULP energy -89317.887184 kJ/mol
# GULP energy per Si atom -5582.367949 kJ/mol
# Density = 2.321073 g / cm^3
# Si number density = 23.263679 Si / 1000 Ang^3
#
#
#
# Elastic Constant Matrix: (Units=GPa)
#
#
# Indices 1 2 3 4 5 6 
#
# 1 167.4087 45.3067 74.9731 0.0000 0.0000 4.8553
# 2 45.3067 167.4087 74.9731 0.0000 0.0000 -4.8553
# 3 74.9731 74.9731 209.1392 0.0000 0.0000 0.0000
# 4 0.0000 0.0000 0.0000 23.7746 0.0000 0.0000
# 5 0.0000 0.0000 0.0000 0.0000 23.7746 0.0000
# 6 4.8553 -4.8553 0.0000 0.0000 0.0000 45.5926
#
#
#
# Elastic Compliance Matrix: (Units=1/GPa)
#
#
# Indices 1 2 3 4 5 6 
#
# 1 0.007275 -0.000985 -0.002255 0.000000 0.000000 -0.000880
# 2 -0.000985 0.007275 -0.002255 0.000000 0.000000 0.000880
# 3 -0.002255 -0.002255 0.006398 0.000000 0.000000 0.000000
# 4 0.000000 0.000000 0.000000 0.042062 0.000000 0.000000
# 5 0.000000 0.000000 0.000000 0.000000 0.042062 0.000000
# 6 -0.000880 0.000880 0.000000 0.000000 0.000000 0.022121
#
#
# Mechanical properties :
#
#
# Convention : Reuss Voigt Hill
#
# Bulk Modulus (GPa) = 100.40793 103.82919 102.11856
# Shear Modulus (GPa) = 35.33504 41.87526 38.60515
#
# Velocity S-wave (km/s) = 3.90153 4.24728 4.07807
# Velocity P-wave (km/s) = 7.97185 8.29342 8.13422
#
# Compressibility (1/GPa) = 0.00995937
#
# Stress axis : x y z
#
# Youngs Moduli (GPa) = 137.45100 137.45100 156.28955
#
# Poissons Ratio (x) = 0.13532 0.35246
# Poissons Ratio (y) = 0.13532 0.35246
# Poissons Ratio (z) = 0.30997 0.30997
#
# Static dielectric constant tensor:
#      x y z
#    x 1.886200 0.000000 0.000000 
#    y 0.000000 1.886200 0.000000 
#    z 0.000000 0.000000 1.972940 
# 
# From -- ./inp_files/1506.got.cif
#   From: 2010.05.17/outbox.cif.g08.bks.cpg/sg77_cif.got.tgz:1506.got - 2010.06.03 18:44:51.
