data_PCOD9541843
_publ_section_title
;
Structure prediction by ZEFSAII (Michael W. Deem and Ramdas Pophale) SiO2 
 PCOD9541843
Probable space group: I 4
;
_chemical_formula_sum "Si O2"
_cell_formula_units_Z 40
_cell_length_a 15.921880
_cell_length_b 15.921880
_cell_length_c 6.776037
_cell_angle_alpha 90.000000
_cell_angle_beta 90.000000
_cell_angle_gamma 90.000000
_cell_volume 1717.767816
_symmetry_space_group_name_H-M "I 4"
_symmetry_group_IT_number 79
_symmetry_cell_setting 'tetragonal'
loop_
_space_group_symop_operation_xyz
x,y,z
-y,x,z
-x,-y,z
y,-x,z
1/2+x,1/2+y,1/2+z
1/2-y,1/2+x,1/2+z
1/2-x,1/2-y,1/2+z
1/2+y,1/2-x,1/2+z
loop_
_atom_site_type_symbol
_atom_site_label
_atom_site_fract_x
_atom_site_fract_y
_atom_site_fract_z
Si Si1 0.522507 0.807807 0.048080
Si Si2 0.475801 0.637950 0.221002
Si Si3 0.115149 0.610818 0.721579
Si Si4 0.737803 0.617199 0.505290
Si Si5 0.706073 0.180562 0.837411
O O1 0.471595 0.721322 0.085837
O O2 0.476771 0.892074 0.127372
O O3 0.604190 0.791749 0.182175
O O4 0.539905 0.828639 0.820796
O O5 0.406838 0.565269 0.190727
O O6 0.456442 0.674414 0.441500
O O7 0.096205 0.672801 0.906380
O O8 0.167394 0.650530 0.542630
O O9 0.749806 0.649359 0.726916
O O10 0.710851 0.700576 0.383724
#
# Coordination Sequence:
#
# PCOD9541843 Si02
#       5
#     8   8   8   8   8
#     4  10  23  41  66  97 134 185 233 292 356 433
#     4  10  20  38  67 102 147 189 230 298 369 432
#     4  10  23  40  65  97 130 176 235 290 356 421
#     4  10  20  36  64  97 130 184 234 280 352 423
#     4  11  20  39  64  94 133 178 236 296 342 423
#
# _framework density 23.286034000000001
#
# number of rings (size 3 to 8) (size 9 to 14) (size 15 to 20)
#    0.000    1.800    4.000    0.000    0.000    4.800 
#    0.000    3.000    0.000    0.000    0.000    0.000 
#    0.000    0.000    0.000    0.000    0.000    0.000 
#
# Total GULP energy -111507.587612 kJ/mol
# GULP energy per Si atom -5575.379381 kJ/mol
# Density = 2.323303 g / cm^3
# Si number density = 23.286034 Si / 1000 Ang^3
#
#
#
# Elastic Constant Matrix: (Units=GPa)
#
#
# Indices 1 2 3 4 5 6 
#
# 1 76.4405 37.5803 41.8329 0.0000 0.0000 -10.7162
# 2 37.5803 76.4405 41.8329 0.0000 0.0000 10.7162
# 3 41.8329 41.8329 133.0036 0.0000 0.0000 0.0000
# 4 0.0000 0.0000 0.0000 34.2178 0.0000 0.0000
# 5 0.0000 0.0000 0.0000 0.0000 34.2178 0.0000
# 6 -10.7162 10.7162 0.0000 0.0000 0.0000 42.6086
#
#
#
# Elastic Compliance Matrix: (Units=1/GPa)
#
#
# Indices 1 2 3 4 5 6 
#
# 1 0.020640 -0.009238 -0.003586 0.000000 0.000000 0.007514
# 2 -0.009238 0.020640 -0.003586 0.000000 0.000000 -0.007514
# 3 -0.003586 -0.003586 0.009774 0.000000 0.000000 0.000000
# 4 0.000000 0.000000 0.000000 0.029225 0.000000 0.000000
# 5 0.000000 0.000000 0.000000 0.000000 0.029225 0.000000
# 6 0.007514 -0.007514 0.000000 0.000000 0.000000 0.027249
#
#
# Mechanical properties :
#
#
# Convention : Reuss Voigt Hill
#
# Bulk Modulus (GPa) = 54.84434 58.70852 56.77643
# Shear Modulus (GPa) = 28.46565 33.18476 30.82521
#
# Velocity S-wave (km/s) = 3.50013 3.77914 3.64230
# Velocity P-wave (km/s) = 6.31966 6.65651 6.49027
#
# Compressibility (1/GPa) = 0.01823342
#
# Stress axis : x y z
#
# Youngs Moduli (GPa) = 48.45034 48.45034 102.30756
#
# Poissons Ratio (x) = 0.44758 0.36689
# Poissons Ratio (y) = 0.44758 0.36689
# Poissons Ratio (z) = 0.17375 0.17375
#
# Static dielectric constant tensor:
#      x y z
#    x 1.971380 0.000000 0.000000 
#    y 0.000000 1.971380 0.000000 
#    z 0.000000 0.000000 1.876580 
# 
# From -- ./inp_files/132.got.cif
#   From: 2010.05.17/outbox.cif.g08.bks.cpg/sg79_cif.got.tgz:132.got - 2010.06.03 18:47:27.
