data_PCOD9541956
_publ_section_title
;
Structure prediction by ZEFSAII (Michael W. Deem and Ramdas Pophale) SiO2 
 PCOD9541956
Probable space group: I 4
;
_chemical_formula_sum "Si O2"
_cell_formula_units_Z 40
_cell_length_a 13.826704
_cell_length_b 13.826704
_cell_length_c 8.664433
_cell_angle_alpha 90.000000
_cell_angle_beta 90.000000
_cell_angle_gamma 90.000000
_cell_volume 1656.446750
_symmetry_space_group_name_H-M "I 4"
_symmetry_group_IT_number 79
_symmetry_cell_setting 'tetragonal'
loop_
_space_group_symop_operation_xyz
x,y,z
-y,x,z
-x,-y,z
y,-x,z
1/2+x,1/2+y,1/2+z
1/2-y,1/2+x,1/2+z
1/2-x,1/2-y,1/2+z
1/2+y,1/2-x,1/2+z
loop_
_atom_site_type_symbol
_atom_site_label
_atom_site_fract_x
_atom_site_fract_y
_atom_site_fract_z
Si Si1 0.838768 0.471295 0.457000
Si Si2 0.689759 0.938041 0.251099
Si Si3 0.500033 0.660975 0.984630
Si Si4 0.757787 0.611425 0.239504
Si Si5 0.178761 0.206317 0.046090
O O1 0.884253 0.382380 0.366879
O O2 0.875036 0.513085 0.618344
O O3 0.840565 0.557991 0.335290
O O4 0.731847 0.434671 0.518497
O O5 0.753846 0.006018 0.361104
O O6 0.768228 0.867997 0.163725
O O7 0.406613 0.592288 0.964267
O O8 0.477550 0.703479 0.154223
O O9 0.782997 0.690673 0.111353
O O10 0.706497 0.669544 0.376551
#
# Coordination Sequence:
#
# PCOD9541956 Si02
#       5
#     8   8   8   8   8
#     4  11  24  43  70 105 136 187 243 296 358 437
#     4  11  24  45  72 105 143 190 238 296 367 436
#     4  11  23  41  69 108 145 182 235 301 361 426
#     4  11  22  40  70  96 137 188 244 293 354 436
#     4  11  21  43  69  99 138 190 240 286 367 436
#
# _framework density 24.148074000000001
#
# number of rings (size 3 to 8) (size 9 to 14) (size 15 to 20)
#    0.000    1.000    4.000    2.400    0.000    0.000 
#    3.600    3.000    0.000    9.600    0.000    0.000 
#    0.000    0.000    0.000    0.000    0.000    0.000 
#
# Total GULP energy -111512.184783 kJ/mol
# GULP energy per Si atom -5575.609239 kJ/mol
# Density = 2.409311 g / cm^3
# Si number density = 24.148074 Si / 1000 Ang^3
#
#
#
# Elastic Constant Matrix: (Units=GPa)
#
#
# Indices 1 2 3 4 5 6 
#
# 1 62.4650 7.0600 43.5037 0.0000 0.0000 2.9991
# 2 7.0600 62.4650 43.5037 0.0000 0.0000 -2.9991
# 3 43.5037 43.5037 159.2107 0.0000 0.0000 0.0000
# 4 0.0000 0.0000 0.0000 36.8316 0.0000 0.0000
# 5 0.0000 0.0000 0.0000 0.0000 36.8316 0.0000
# 6 2.9991 -2.9991 0.0000 0.0000 0.0000 15.0049
#
#
#
# Elastic Compliance Matrix: (Units=1/GPa)
#
#
# Indices 1 2 3 4 5 6 
#
# 1 0.020153 0.001705 -0.005973 0.000000 0.000000 -0.003687
# 2 0.001705 0.020153 -0.005973 0.000000 0.000000 0.003687
# 3 -0.005973 -0.005973 0.009545 0.000000 0.000000 0.000000
# 4 0.000000 0.000000 0.000000 0.027151 0.000000 0.000000
# 5 0.000000 0.000000 0.000000 0.000000 0.027151 0.000000
# 6 -0.003687 0.003687 0.000000 0.000000 0.000000 0.068119
#
#
# Mechanical properties :
#
#
# Convention : Reuss Voigt Hill
#
# Bulk Modulus (GPa) = 34.04819 52.47507 43.26163
# Shear Modulus (GPa) = 24.68629 30.40515 27.54572
#
# Velocity S-wave (km/s) = 3.20079 3.55225 3.38109
# Velocity P-wave (km/s) = 5.27167 6.21308 5.76163
#
# Compressibility (1/GPa) = 0.02937014
#
# Stress axis : x y z
#
# Youngs Moduli (GPa) = 49.62070 49.62070 104.76771
#
# Poissons Ratio (x) = -0.08459 0.62573
# Poissons Ratio (y) = -0.08459 0.62573
# Poissons Ratio (z) = 0.29636 0.29636
#
# Static dielectric constant tensor:
#      x y z
#    x 1.977810 0.000000 0.000000 
#    y 0.000000 1.977810 0.000000 
#    z 0.000000 0.000000 1.913730 
# 
# From -- ./inp_files/549.got.cif
#   From: 2010.05.17/outbox.cif.g08.bks.cpg/sg79_cif.got.tgz:549.got - 2010.06.03 18:47:27.
