data_PCOD9541329
_publ_section_title
;
Structure prediction by ZEFSAII (Michael W. Deem and Ramdas Pophale) SiO2 
 PCOD9541329
Probable space group: P 41
;
_chemical_formula_sum "Si O2"
_cell_formula_units_Z 28
_cell_length_a 13.532911
_cell_length_b 13.532911
_cell_length_c 6.481104
_cell_angle_alpha 90.000000
_cell_angle_beta 90.000000
_cell_angle_gamma 90.000000
_cell_volume 1186.947313
_symmetry_space_group_name_H-M "P 41"
_symmetry_group_IT_number 76
_symmetry_cell_setting 'tetragonal'
loop_
_space_group_symop_operation_xyz
x,y,z
-y,x,1/4+z
-x,-y,1/2+z
y,-x,3/4+z
loop_
_atom_site_type_symbol
_atom_site_label
_atom_site_fract_x
_atom_site_fract_y
_atom_site_fract_z
Si Si1 0.241126 0.920292 0.972440
Si Si2 0.513427 0.126017 0.761483
Si Si3 0.028057 0.866644 0.380040
Si Si4 0.457975 0.235012 0.387526
Si Si5 0.611775 0.937942 0.597091
Si Si6 0.252498 0.213558 0.556018
Si Si7 0.803535 0.637926 0.388787
O O1 0.324127 0.877953 0.813795
O O2 0.153683 0.955729 0.824774
O O3 0.229897 0.834641 0.138935
O O4 0.280408 0.016883 0.091380
O O5 0.509198 0.216152 0.606357
O O6 0.540514 0.031230 0.629279
O O7 0.411054 0.112187 0.879230
O O8 0.589457 0.139466 0.946599
O O9 0.095647 0.768968 0.342265
O O10 0.956767 0.899699 0.194450
O O11 0.418566 0.135680 0.275633
O O12 0.348342 0.269301 0.455071
O O13 0.549201 0.264437 0.235507
O O14 0.242705 0.266604 0.778967
#
# Coordination Sequence:
#
# PCOD9541329 Si02
#       7
#     4   4   4   4   4   4   4
#     4  12  25  43  64  94 140 190 240 299 347 416
#     4  11  19  36  60  96 130 171 220 286 361 423
#     4  12  27  45  64  93 142 207 262 290 345 432
#     4  11  25  38  67 101 136 179 235 300 372 431
#     4  11  20  32  62  89 130 173 226 286 354 404
#     4  12  27  43  69 100 144 191 248 301 361 438
#     4  11  23  45  64  97 140 179 231 304 368 430
#
# _framework density 23.589925999999998
#
# number of rings (size 3 to 8) (size 9 to 14) (size 15 to 20)
#    0.000    0.571    5.714    2.571    6.000    2.286 
#    0.000    0.000    0.000    0.000    0.000    0.000 
#   60.000    0.000    0.000    0.000    0.000    0.000 
#
# Total GULP energy -156091.944009 kJ/mol
# GULP energy per Si atom -5574.712286 kJ/mol
# Density = 2.353623 g / cm^3
# Si number density = 23.589926 Si / 1000 Ang^3
#
#
#
# Elastic Constant Matrix: (Units=GPa)
#
#
# Indices 1 2 3 4 5 6 
#
# 1 60.8006 10.0924 23.8737 0.0000 0.0000 -2.7473
# 2 10.0924 60.8006 23.8737 0.0000 0.0000 2.7473
# 3 23.8737 23.8737 107.5251 0.0000 0.0000 0.0000
# 4 0.0000 0.0000 0.0000 36.9582 0.0000 0.0000
# 5 0.0000 0.0000 0.0000 0.0000 36.9582 0.0000
# 6 -2.7473 2.7473 0.0000 0.0000 0.0000 13.6998
#
#
#
# Elastic Compliance Matrix: (Units=1/GPa)
#
#
# Indices 1 2 3 4 5 6 
#
# 1 0.018372 -0.001786 -0.003683 0.000000 0.000000 0.004043
# 2 -0.001786 0.018372 -0.003683 0.000000 0.000000 -0.004043
# 3 -0.003683 -0.003683 0.010935 0.000000 0.000000 0.000000
# 4 0.000000 0.000000 0.000000 0.027058 0.000000 0.000000
# 5 0.000000 0.000000 0.000000 0.000000 0.027058 0.000000
# 6 0.004043 -0.004043 0.000000 0.000000 0.000000 0.074615
#
#
# Mechanical properties :
#
#
# Convention : Reuss Voigt Hill
#
# Bulk Modulus (GPa) = 34.04003 38.31176 36.17590
# Shear Modulus (GPa) = 24.44915 28.94233 26.69574
#
# Velocity S-wave (km/s) = 3.22285 3.50650 3.36766
# Velocity P-wave (km/s) = 5.32073 5.71577 5.52179
#
# Compressibility (1/GPa) = 0.02937717
#
# Stress axis : x y z
#
# Youngs Moduli (GPa) = 54.42956 54.42956 91.44581
#
# Poissons Ratio (x) = 0.09723 0.33676
# Poissons Ratio (y) = 0.09723 0.33676
# Poissons Ratio (z) = 0.20044 0.20044
#
# Static dielectric constant tensor:
#      x y z
#    x 1.988110 0.000000 0.000000 
#    y 0.000000 1.988110 0.000000 
#    z 0.000000 0.000000 1.888240 
# 
# From -- ./inp_files/244.got.cif
#   From: 2010.05.17/outbox.cif.g08.bks.cpg/sg76_cif.got.tgz:244.got - 2010.06.03 18:43:17.
