data_PCOD9541503
_publ_section_title
;
Structure prediction by ZEFSAII (Michael W. Deem and Ramdas Pophale) SiO2 
 PCOD9541503
Probable space group: P 42
;
_chemical_formula_sum "Si O2"
_cell_formula_units_Z 24
_cell_length_a 8.305274
_cell_length_b 8.305274
_cell_length_c 13.957484
_cell_angle_alpha 90.000000
_cell_angle_beta 90.000000
_cell_angle_gamma 90.000000
_cell_volume 962.753416
_symmetry_space_group_name_H-M "P 42"
_symmetry_group_IT_number 77
_symmetry_cell_setting 'tetragonal'
loop_
_space_group_symop_operation_xyz
x,y,z
-y,x,1/2+z
-x,-y,z
y,-x,1/2+z
loop_
_atom_site_type_symbol
_atom_site_label
_atom_site_fract_x
_atom_site_fract_y
_atom_site_fract_z
Si Si1 0.856499 0.398354 0.181970
Si Si2 0.287992 0.249544 0.877988
Si Si3 0.957882 0.669121 0.515346
Si Si4 0.703689 0.428752 0.986838
Si Si5 0.868581 0.105882 0.667597
Si Si6 0.660061 0.937946 0.319144
O O1 0.741893 0.349512 0.268509
O O2 0.000000 0.500000 0.227245
O O3 0.972460 0.259671 0.137182
O O4 0.761338 0.475286 0.093812
O O5 0.324123 0.074099 0.922251
O O6 0.362330 0.397104 0.942887
O O7 0.095303 0.257385 0.864534
O O8 0.035683 0.807821 0.582046
O O9 0.000000 0.500000 0.562152
O O10 0.764564 0.662557 0.500264
O O11 0.839355 0.403700 0.908099
O O12 0.826544 0.238154 0.747134
O O13 0.000000 0.000000 0.722961
O O14 0.500000 0.000000 0.266855
#
# Coordination Sequence:
#
# PCOD9541503 Si02
#       6
#     4   4   4   4   4   4
#     4  12  24  44  71 112 150 198 257 316 384 473
#     4  11  24  43  70 106 148 195 255 318 385 461
#     4  12  26  43  67 104 150 199 257 317 381 471
#     4  11  24  44  73 107 151 200 251 320 391 453
#     4  12  22  41  72 107 140 193 248 310 381 448
#     4  10  21  39  66 104 142 185 247 314 378 458
#
# _framework density 24.928498000000001
#
# number of rings (size 3 to 8) (size 9 to 14) (size 15 to 20)
#    0.000    0.667    3.333    5.500    0.000    2.000 
#    0.000    1.667    0.000    8.000    0.000    0.000 
#    0.000    0.000    0.000    0.000    0.000    0.000 
#
# Total GULP energy -133606.918673 kJ/mol
# GULP energy per Si atom -5566.954945 kJ/mol
# Density = 2.487176 g / cm^3
# Si number density = 24.928498 Si / 1000 Ang^3
#
#
#
# Elastic Constant Matrix: (Units=GPa)
#
#
# Indices 1 2 3 4 5 6 
#
# 1 61.0534 46.5993 29.3086 0.0000 0.0000 -10.9841
# 2 46.5993 61.0534 29.3086 0.0000 0.0000 10.9841
# 3 29.3086 29.3086 147.7067 0.0000 0.0000 0.0000
# 4 0.0000 0.0000 0.0000 12.1380 0.0000 0.0000
# 5 0.0000 0.0000 0.0000 0.0000 12.1380 0.0000
# 6 -10.9841 10.9841 0.0000 0.0000 0.0000 52.6665
#
#
#
# Elastic Compliance Matrix: (Units=1/GPa)
#
#
# Indices 1 2 3 4 5 6 
#
# 1 0.055854 -0.045439 -0.002066 0.000000 0.000000 0.021126
# 2 -0.045439 0.055854 -0.002066 0.000000 0.000000 -0.021126
# 3 -0.002066 -0.002066 0.007590 0.000000 0.000000 0.000000
# 4 0.000000 0.000000 0.000000 0.082386 0.000000 0.000000
# 5 0.000000 0.000000 0.000000 0.000000 0.082386 0.000000
# 6 0.021126 -0.021126 0.000000 0.000000 0.000000 0.027799
#
#
# Mechanical properties :
#
#
# Convention : Reuss Voigt Hill
#
# Bulk Modulus (GPa) = 49.62025 53.36073 51.49049
# Shear Modulus (GPa) = 11.96944 26.36164 19.16554
#
# Velocity S-wave (km/s) = 2.19361 3.25543 2.77577
# Velocity P-wave (km/s) = 5.13460 5.96510 5.56537
#
# Compressibility (1/GPa) = 0.02015306
#
# Stress axis : x y z
#
# Youngs Moduli (GPa) = 17.90395 17.90395 131.74806
#
# Poissons Ratio (x) = 0.81354 0.27225
# Poissons Ratio (y) = 0.81354 0.27225
# Poissons Ratio (z) = 0.03700 0.03700
#
# Static dielectric constant tensor:
#      x y z
#    x 2.131760 0.000000 0.000000 
#    y 0.000000 2.131760 0.000000 
#    z 0.000000 0.000000 1.952510 
# 
# From -- ./inp_files/1106.got.cif
#   From: 2010.05.17/outbox.cif.g08.bks.cpg/sg77_cif.got.tgz:1106.got - 2010.06.03 18:44:51.
