data_PCOD9541115
_publ_section_title
;
Structure prediction by ZEFSAII (Michael W. Deem and Ramdas Pophale) SiO2 
 PCOD9541115
Probable space group: P 41
;
_chemical_formula_sum "Si O2"
_cell_formula_units_Z 28
_cell_length_a 8.791008
_cell_length_b 8.791008
_cell_length_c 17.844104
_cell_angle_alpha 90.000000
_cell_angle_beta 90.000000
_cell_angle_gamma 90.000000
_cell_volume 1379.024863
_symmetry_space_group_name_H-M "P 41"
_symmetry_group_IT_number 76
_symmetry_cell_setting 'tetragonal'
loop_
_space_group_symop_operation_xyz
x,y,z
-y,x,1/4+z
-x,-y,1/2+z
y,-x,3/4+z
loop_
_atom_site_type_symbol
_atom_site_label
_atom_site_fract_x
_atom_site_fract_y
_atom_site_fract_z
Si Si1 0.703911 0.397047 0.220450
Si Si2 0.179040 0.432759 0.277858
Si Si3 0.555795 0.383464 0.749735
Si Si4 0.333151 0.940974 0.484052
Si Si5 0.204086 0.723736 0.127993
Si Si6 0.697970 0.830677 0.324352
Si Si7 0.613918 0.179944 0.349222
O O1 0.545795 0.485834 0.211057
O O2 0.825054 0.533431 0.210705
O O3 0.750280 0.282315 0.155150
O O4 0.697493 0.308778 0.299921
O O5 0.333779 0.517742 0.303199
O O6 0.152262 0.281081 0.325105
O O7 0.433637 0.192163 0.331503
O O8 0.055091 0.565191 0.284017
O O9 0.673397 0.301857 0.694294
O O10 0.444045 0.262224 0.787822
O O11 0.206884 0.845516 0.525947
O O12 0.261848 0.041340 0.417485
O O13 0.194593 0.386186 0.190059
O O14 0.668148 0.009565 0.330754
#
# Coordination Sequence:
#
# PCOD9541115 Si02
#       7
#     4   4   4   4   4   4   4
#     4  11  19  36  61  92 120 161 216 262 310 366
#     4  10  19  40  63  93 123 158 212 267 311 369
#     4   9  20  31  63  95 113 160 213 263 314 349
#     4   9  22  36  62  93 122 161 209 256 314 373
#     4  10  19  40  62  95 126 157 208 269 311 370
#     4  11  21  39  60  92 133 161 206 265 307 382
#     4  10  22  36  61  94 121 166 204 256 315 379
#
# _framework density 20.304203000000001
#
# number of rings (size 3 to 8) (size 9 to 14) (size 15 to 20)
#    0.000    2.286    4.286    0.857    6.000    1.143 
#    0.000    2.857    6.286    0.000    0.000    0.000 
#    0.000    0.000    0.000    0.000    0.000    0.000 
#
# Total GULP energy -155946.882197 kJ/mol
# GULP energy per Si atom -5569.531507 kJ/mol
# Density = 2.025799 g / cm^3
# Si number density = 20.304203 Si / 1000 Ang^3
#
#
#
# Elastic Constant Matrix: (Units=GPa)
#
#
# Indices 1 2 3 4 5 6 
#
# 1 75.5108 21.0307 25.0360 0.0000 0.0000 4.4447
# 2 21.0307 75.5108 25.0360 0.0000 0.0000 -4.4447
# 3 25.0360 25.0360 60.5561 0.0000 0.0000 0.0000
# 4 0.0000 0.0000 0.0000 19.6345 0.0000 0.0000
# 5 0.0000 0.0000 0.0000 0.0000 19.6345 0.0000
# 6 4.4447 -4.4447 0.0000 0.0000 0.0000 17.9410
#
#
#
# Elastic Compliance Matrix: (Units=1/GPa)
#
#
# Indices 1 2 3 4 5 6 
#
# 1 0.016157 -0.002971 -0.005451 0.000000 0.000000 -0.004739
# 2 -0.002971 0.016157 -0.005451 0.000000 0.000000 0.004739
# 3 -0.005451 -0.005451 0.021021 0.000000 0.000000 0.000000
# 4 0.000000 0.000000 0.000000 0.050931 0.000000 0.000000
# 5 0.000000 0.000000 0.000000 0.000000 0.050931 0.000000
# 6 -0.004739 0.004739 0.000000 0.000000 0.000000 0.058086
#
#
# Mechanical properties :
#
#
# Convention : Reuss Voigt Hill
#
# Bulk Modulus (GPa) = 39.08251 39.30923 39.19587
# Shear Modulus (GPa) = 20.03519 20.80700 20.42110
#
# Velocity S-wave (km/s) = 3.14467 3.20467 3.17481
# Velocity P-wave (km/s) = 5.69873 5.75286 5.72586
#
# Compressibility (1/GPa) = 0.02558689
#
# Stress axis : x y z
#
# Youngs Moduli (GPa) = 61.89228 61.89228 47.57103
#
# Poissons Ratio (x) = 0.18391 0.25933
# Poissons Ratio (y) = 0.18391 0.25933
# Poissons Ratio (z) = 0.33740 0.33740
#
# Static dielectric constant tensor:
#      x y z
#    x 1.755550 0.000000 0.000000 
#    y 0.000000 1.755550 0.000000 
#    z 0.000000 0.000000 1.778630 
# 
# From -- ./inp_files/1374.got.cif
#   From: 2010.05.17/outbox.cif.g08.bks.cpg/sg76_cif.got.tgz:1374.got - 2010.06.03 18:43:17.
