data_PCOD9541457
_publ_section_title
;
Structure prediction by ZEFSAII (Michael W. Deem and Ramdas Pophale) SiO2 
 PCOD9541457
Probable space group: P 42
;
_chemical_formula_sum "Si O2"
_cell_formula_units_Z 26
_cell_length_a 7.621022
_cell_length_b 7.621022
_cell_length_c 20.704559
_cell_angle_alpha 90.000000
_cell_angle_beta 90.000000
_cell_angle_gamma 90.000000
_cell_volume 1202.520297
_symmetry_space_group_name_H-M "P 42"
_symmetry_group_IT_number 77
_symmetry_cell_setting 'tetragonal'
loop_
_space_group_symop_operation_xyz
x,y,z
-y,x,1/2+z
-x,-y,z
y,-x,1/2+z
loop_
_atom_site_type_symbol
_atom_site_label
_atom_site_fract_x
_atom_site_fract_y
_atom_site_fract_z
Si Si1 0.868804 0.701985 0.393990
Si Si2 0.645244 0.871747 0.702007
Si Si3 0.310690 0.203446 0.836706
Si Si4 0.716800 0.509862 0.935222
Si Si5 0.304558 0.952828 0.040094
Si Si6 0.702825 0.455667 0.072643
Si Si7 0.000000 0.000000 0.633418
O O1 0.820717 0.508499 0.365816
O O2 0.679727 0.781252 0.410574
O O3 0.972523 0.703579 0.462783
O O4 0.011718 0.777162 0.344662
O O5 0.687586 0.744012 0.761814
O O6 0.538472 0.796415 0.640945
O O7 0.500000 0.000000 0.732478
O O8 0.827965 0.950818 0.675295
O O9 0.229572 0.347076 0.883441
O O10 0.500000 0.500000 0.939089
O O11 0.771377 0.555123 0.008766
O O12 0.282458 0.746492 0.051847
O O13 0.161079 0.044106 0.084969
O O14 0.500000 0.000000 0.061234
O O15 0.500000 0.500000 0.082072
#
# Coordination Sequence:
#
# PCOD9541457 Si02
#       7
#     4   4   4   4   4   4   2
#     4   9  16  30  55  85 109 146 202 238 300 369
#     4  11  23  40  59  85 129 168 199 255 323 376
#     4  10  17  32  55  83 114 156 197 243 305 363
#     4   8  16  29  51  84 115 139 192 263 286 348
#     4  10  19  37  63  85 122 161 198 261 317 359
#     4   9  20  34  56  95 113 153 214 248 308 384
#     4  10  26  42  56  94 130 158 214 258 302 392
#
# _framework density 21.621255999999999
#
# number of rings (size 3 to 8) (size 9 to 14) (size 15 to 20)
#    0.000    2.462    3.077    0.923    2.154    1.846 
#    0.000    0.769    0.000    1.846    0.000    0.000 
#    0.000    0.000    0.000    0.000    0.000    0.000 
#
# Total GULP energy -144838.697541 kJ/mol
# GULP energy per Si atom -5570.719136 kJ/mol
# Density = 2.157205 g / cm^3
# Si number density = 21.621256 Si / 1000 Ang^3
#
#
#
# Elastic Constant Matrix: (Units=GPa)
#
#
# Indices 1 2 3 4 5 6 
#
# 1 61.8385 3.3369 39.4515 0.0000 0.0000 3.6380
# 2 3.3369 61.8385 39.4515 0.0000 0.0000 -3.6380
# 3 39.4515 39.4515 168.4113 0.0000 0.0000 0.0000
# 4 0.0000 0.0000 0.0000 61.1469 0.0000 0.0000
# 5 0.0000 0.0000 0.0000 0.0000 61.1469 0.0000
# 6 3.6380 -3.6380 0.0000 0.0000 0.0000 12.3122
#
#
#
# Elastic Compliance Matrix: (Units=1/GPa)
#
#
# Indices 1 2 3 4 5 6 
#
# 1 0.019581 0.001836 -0.005017 0.000000 0.000000 -0.005244
# 2 0.001836 0.019581 -0.005017 0.000000 0.000000 0.005244
# 3 -0.005017 -0.005017 0.008288 0.000000 0.000000 0.000000
# 4 0.000000 0.000000 0.000000 0.016354 0.000000 0.000000
# 5 0.000000 0.000000 0.000000 0.000000 0.016354 0.000000
# 6 -0.005244 0.005244 0.000000 0.000000 0.000000 0.084319
#
#
# Mechanical properties :
#
#
# Convention : Reuss Voigt Hill
#
# Bulk Modulus (GPa) = 32.20186 50.72978 41.46582
# Shear Modulus (GPa) = 26.14701 40.91112 33.52906
#
# Velocity S-wave (km/s) = 3.48130 4.35463 3.94222
# Velocity P-wave (km/s) = 5.57541 6.98553 6.31992
#
# Compressibility (1/GPa) = 0.03105411
#
# Stress axis : x y z
#
# Youngs Moduli (GPa) = 51.06900 51.06900 120.65036
#
# Poissons Ratio (x) = -0.09374 0.60531
# Poissons Ratio (y) = -0.09374 0.60531
# Poissons Ratio (z) = 0.25622 0.25622
#
# Static dielectric constant tensor:
#      x y z
#    x 1.793430 0.000000 0.000000 
#    y 0.000000 1.793430 0.000000 
#    z 0.000000 0.000000 1.833640 
# 
# From -- ./inp_files/1376.got.cif
#   From: 2010.05.17/outbox.cif.g08.bks.cpg/sg77_cif.got.tgz:1376.got - 2010.06.03 18:44:51.
