data_PCOD9541278
_publ_section_title
;
Structure prediction by ZEFSAII (Michael W. Deem and Ramdas Pophale) SiO2 
 PCOD9541278
Probable space group: P 41
;
_chemical_formula_sum "Si O2"
_cell_formula_units_Z 28
_cell_length_a 11.587335
_cell_length_b 11.587335
_cell_length_c 9.084836
_cell_angle_alpha 90.000000
_cell_angle_beta 90.000000
_cell_angle_gamma 90.000000
_cell_volume 1219.787610
_symmetry_space_group_name_H-M "P 41"
_symmetry_group_IT_number 76
_symmetry_cell_setting 'tetragonal'
loop_
_space_group_symop_operation_xyz
x,y,z
-y,x,1/4+z
-x,-y,1/2+z
y,-x,3/4+z
loop_
_atom_site_type_symbol
_atom_site_label
_atom_site_fract_x
_atom_site_fract_y
_atom_site_fract_z
Si Si1 0.106751 0.939230 0.011800
Si Si2 0.404092 0.577893 0.445416
Si Si3 0.300569 0.759664 0.049270
Si Si4 0.190069 0.676670 0.323572
Si Si5 0.511525 0.090193 0.375361
Si Si6 0.302514 0.103357 0.874977
Si Si7 0.240623 0.559266 0.858521
O O1 0.178721 0.820732 0.009107
O O2 0.075763 0.990546 0.169824
O O3 0.198357 0.031083 0.945562
O O4 0.430189 0.469149 0.543446
O O5 0.269800 0.586925 0.412857
O O6 0.458264 0.686677 0.533172
O O7 0.281636 0.747436 0.224362
O O8 0.399859 0.833982 0.973728
O O9 0.311079 0.633279 0.978750
O O10 0.103389 0.608852 0.214616
O O11 0.132276 0.739860 0.460197
O O12 0.490945 0.138314 0.210431
O O13 0.579016 0.970720 0.361984
O O14 0.346323 0.203283 0.985780
#
# Coordination Sequence:
#
# PCOD9541278 Si02
#       7
#     4   4   4   4   4   4   4
#     4  11  25  45  70  96 129 171 224 285 348 404
#     4  12  26  39  64  96 135 176 220 266 328 401
#     4  10  23  43  63  95 131 172 216 279 334 400
#     4  11  24  42  65 100 133 172 224 279 330 406
#     4  10  23  41  68  88 131 179 218 271 339 401
#     4  11  23  44  65  99 130 171 226 280 337 401
#     4  11  22  42  63  92 133 175 222 268 330 405
#
# _framework density 22.954816000000001
#
# number of rings (size 3 to 8) (size 9 to 14) (size 15 to 20)
#    0.000    1.143    2.857    2.571    8.000    0.000 
#    0.000    1.429    0.000    0.000    0.000    0.000 
#    0.000    0.000    0.000    0.000    0.000    0.000 
#
# Total GULP energy -156361.459937 kJ/mol
# GULP energy per Si atom -5584.337855 kJ/mol
# Density = 2.290257 g / cm^3
# Si number density = 22.954816 Si / 1000 Ang^3
#
#
#
# Elastic Constant Matrix: (Units=GPa)
#
#
# Indices 1 2 3 4 5 6 
#
# 1 24.9606 -5.9961 12.4346 0.0000 0.0000 -2.5586
# 2 -5.9961 24.9606 12.4346 0.0000 0.0000 2.5586
# 3 12.4346 12.4346 110.0446 0.0000 0.0000 0.0000
# 4 0.0000 0.0000 0.0000 37.1027 0.0000 0.0000
# 5 0.0000 0.0000 0.0000 0.0000 37.1027 0.0000
# 6 -2.5586 2.5586 0.0000 0.0000 0.0000 23.3019
#
#
#
# Elastic Compliance Matrix: (Units=1/GPa)
#
#
# Indices 1 2 3 4 5 6 
#
# 1 0.047402 0.014501 -0.006995 0.000000 0.000000 0.003612
# 2 0.014501 0.047402 -0.006995 0.000000 0.000000 -0.003612
# 3 -0.006995 -0.006995 0.010668 0.000000 0.000000 0.000000
# 4 0.000000 0.000000 0.000000 0.026952 0.000000 0.000000
# 5 0.000000 0.000000 0.000000 0.000000 0.026952 0.000000
# 6 0.003612 -0.003612 0.000000 0.000000 0.000000 0.043708
#
#
# Mechanical properties :
#
#
# Convention : Reuss Voigt Hill
#
# Bulk Modulus (GPa) = 9.39015 21.96798 15.67907
# Shear Modulus (GPa) = 21.04745 28.90765 24.97755
#
# Velocity S-wave (km/s) = 3.03133 3.55255 3.30224
# Velocity P-wave (km/s) = 4.04371 5.13988 4.62439
#
# Compressibility (1/GPa) = 0.10649453
#
# Stress axis : x y z
#
# Youngs Moduli (GPa) = 21.09635 21.09635 93.73845
#
# Poissons Ratio (x) = -0.30592 0.65568
# Poissons Ratio (y) = -0.30592 0.65568
# Poissons Ratio (z) = 0.14756 0.14756
#
# Static dielectric constant tensor:
#      x y z
#    x 1.879540 0.000000 0.000000 
#    y 0.000000 1.879540 0.000000 
#    z 0.000000 0.000000 1.876220 
# 
# From -- ./inp_files/586.got.cif
#   From: 2010.05.17/outbox.cif.g08.bks.cpg/sg76_cif.got.tgz:586.got - 2010.06.03 18:43:17.
