data_PCOD9541732
_publ_section_title
;
Structure prediction by ZEFSAII (Michael W. Deem and Ramdas Pophale) SiO2 
 PCOD9541732
Probable space group: P 43
;
_chemical_formula_sum "Si O2"
_cell_formula_units_Z 28
_cell_length_a 11.531376
_cell_length_b 11.531376
_cell_length_c 8.300973
_cell_angle_alpha 90.000000
_cell_angle_beta 90.000000
_cell_angle_gamma 90.000000
_cell_volume 1103.802232
_symmetry_space_group_name_H-M "P 43"
_symmetry_group_IT_number 78
_symmetry_cell_setting 'tetragonal'
loop_
_space_group_symop_operation_xyz
x,y,z
-y,x,3/4+z
-x,-y,1/2+z
y,-x,1/4+z
loop_
_atom_site_type_symbol
_atom_site_label
_atom_site_fract_x
_atom_site_fract_y
_atom_site_fract_z
Si Si1 0.743641 0.635000 0.393460
Si Si2 0.629385 0.868453 0.519862
Si Si3 0.742939 0.204422 0.301966
Si Si4 0.570291 0.617979 0.969948
Si Si5 0.937655 0.112079 0.814035
Si Si6 0.981249 0.548144 0.549272
Si Si7 0.002800 0.256935 0.299113
O O1 0.662036 0.734575 0.475035
O O2 0.788046 0.676304 0.219254
O O3 0.674340 0.517263 0.352477
O O4 0.861951 0.608664 0.487777
O O5 0.752245 0.923350 0.562442
O O6 0.572544 0.932496 0.367235
O O7 0.551720 0.912087 0.672512
O O8 0.697005 0.316481 0.204140
O O9 0.728116 0.093450 0.191201
O O10 0.876831 0.214654 0.345605
O O11 0.604904 0.496322 0.052046
O O12 0.922876 0.058476 0.640386
O O13 0.838632 0.056814 0.927638
O O14 0.018453 0.625060 0.701228
#
# Coordination Sequence:
#
# PCOD9541732 Si02
#       7
#     4   4   4   4   4   4   4
#     4  11  26  51  77 115 162 216 273 340 407 496
#     4  12  27  51  78 118 167 216 269 347 414 490
#     4  11  27  48  83 116 166 207 278 342 419 494
#     4  10  24  51  79 112 151 214 280 332 400 481
#     4  12  25  54  82 117 165 215 271 335 414 509
#     4  12  28  48  80 116 168 214 273 336 418 490
#     4  12  25  51  77 122 161 222 268 334 422 508
#
# _framework density 25.366859999999999
#
# number of rings (size 3 to 8) (size 9 to 14) (size 15 to 20)
#    0.000    0.571    4.286    1.714    6.000    4.571 
#    7.714    0.000    0.000    0.000    0.000    0.000 
#    0.000    0.000    0.000    0.000    0.000    0.000 
#
# Total GULP energy -157100.792247 kJ/mol
# GULP energy per Si atom -5610.742580 kJ/mol
# Density = 2.530912 g / cm^3
# Si number density = 25.366860 Si / 1000 Ang^3
#
#
#
# Elastic Constant Matrix: (Units=GPa)
#
#
# Indices 1 2 3 4 5 6 
#
# 1 119.2554 6.1162 31.1119 0.0000 0.0000 4.0061
# 2 6.1162 119.2554 31.1119 0.0000 0.0000 -4.0061
# 3 31.1119 31.1119 70.7106 0.0000 0.0000 0.0000
# 4 0.0000 0.0000 0.0000 43.8901 0.0000 0.0000
# 5 0.0000 0.0000 0.0000 0.0000 43.8901 0.0000
# 6 4.0061 -4.0061 0.0000 0.0000 0.0000 32.8703
#
#
#
# Elastic Compliance Matrix: (Units=1/GPa)
#
#
# Indices 1 2 3 4 5 6 
#
# 1 0.009560 0.000645 -0.004490 0.000000 0.000000 -0.001087
# 2 0.000645 0.009560 -0.004490 0.000000 0.000000 0.001087
# 3 -0.004490 -0.004490 0.018093 0.000000 0.000000 0.000000
# 4 0.000000 0.000000 0.000000 0.022784 0.000000 0.000000
# 5 0.000000 0.000000 0.000000 0.000000 0.022784 0.000000
# 6 -0.001087 0.001087 0.000000 0.000000 0.000000 0.030687
#
#
# Mechanical properties :
#
#
# Convention : Reuss Voigt Hill
#
# Bulk Modulus (GPa) = 48.67883 49.54459 49.11171
# Shear Modulus (GPa) = 36.49962 40.18887 38.34424
#
# Velocity S-wave (km/s) = 3.79736 3.98465 3.89213
# Velocity P-wave (km/s) = 6.20147 6.38307 6.29292
#
# Compressibility (1/GPa) = 0.02054281
#
# Stress axis : x y z
#
# Youngs Moduli (GPa) = 104.60070 104.60070 55.26931
#
# Poissons Ratio (x) = -0.06742 0.24816
# Poissons Ratio (y) = -0.06742 0.24816
# Poissons Ratio (z) = 0.46965 0.46965
#
# Static dielectric constant tensor:
#      x y z
#    x 1.995770 0.000000 0.000000 
#    y 0.000000 1.995770 0.000000 
#    z 0.000000 0.000000 1.979390 
# 
# From -- ./inp_files/649.got.cif
#   From: 2010.05.17/outbox.cif.g08.bks.cpg/sg78_cif.got.tgz:649.got - 2010.06.03 18:45:56.
