data_PCOD9541493
_publ_section_title
;
Structure prediction by ZEFSAII (Michael W. Deem and Ramdas Pophale) SiO2 
 PCOD9541493
Probable space group: P 42
;
_chemical_formula_sum "Si O2"
_cell_formula_units_Z 24
_cell_length_a 9.894510
_cell_length_b 9.894510
_cell_length_c 10.940661
_cell_angle_alpha 90.000000
_cell_angle_beta 90.000000
_cell_angle_gamma 90.000000
_cell_volume 1071.105243
_symmetry_space_group_name_H-M "P 42"
_symmetry_group_IT_number 77
_symmetry_cell_setting 'tetragonal'
loop_
_space_group_symop_operation_xyz
x,y,z
-y,x,1/2+z
-x,-y,z
y,-x,1/2+z
loop_
_atom_site_type_symbol
_atom_site_label
_atom_site_fract_x
_atom_site_fract_y
_atom_site_fract_z
Si Si1 0.000000 0.500000 0.463951
Si Si2 0.500000 0.500000 0.412462
Si Si3 0.759305 0.631771 0.015534
Si Si4 0.000000 0.000000 0.222104
Si Si5 0.237547 0.184770 0.781516
Si Si6 0.705896 0.991148 0.166999
Si Si7 0.500000 0.000000 0.376007
Si Si8 0.221166 0.454875 0.273982
O O1 0.947474 0.385850 0.555742
O O2 0.113516 0.430032 0.381112
O O3 0.449911 0.621475 0.496589
O O4 0.371732 0.460448 0.328873
O O5 0.755437 0.751558 0.916245
O O6 0.879943 0.543922 0.961745
O O7 0.782575 0.645801 0.159707
O O8 0.943082 0.135350 0.288078
O O9 0.863101 0.954261 0.154174
O O10 0.154418 0.284016 0.689780
O O11 0.391150 0.176365 0.736066
O O12 0.623963 0.950938 0.289271
#
# Coordination Sequence:
#
# PCOD9541493 Si02
#       8
#     2   2   4   2   4   4   2   4
#     4  11  23  40  62 102 141 171 230 294 358 417
#     4  10  24  42  64 100 130 184 228 282 344 434
#     4  10  20  40  66  96 138 174 229 287 339 423
#     4   8  16  40  72  98 124 180 238 286 346 424
#     4   8  19  40  67  97 131 177 241 281 350 428
#     4   8  18  39  68  94 131 180 222 288 345 420
#     4   9  17  38  66  98 123 179 228 268 350 409
#     4  11  23  41  64 101 138 180 230 290 362 412
#
# _framework density 22.406759999999998
#
# number of rings (size 3 to 8) (size 9 to 14) (size 15 to 20)
#    1.000    1.667    0.000    1.000    2.333    0.000 
#   18.000    5.833    0.000    1.000    0.000    0.000 
#    0.000    0.000    0.000    0.000    0.000    0.000 
#
# Total GULP energy -133720.792095 kJ/mol
# GULP energy per Si atom -5571.699671 kJ/mol
# Density = 2.235576 g / cm^3
# Si number density = 22.406760 Si / 1000 Ang^3
#
#
#
# Elastic Constant Matrix: (Units=GPa)
#
#
# Indices 1 2 3 4 5 6 
#
# 1 88.7937 -2.4267 23.4135 0.0000 0.0000 -14.0458
# 2 -2.4267 88.7937 23.4135 0.0000 0.0000 14.0458
# 3 23.4135 23.4135 112.3869 0.0000 0.0000 0.0000
# 4 0.0000 0.0000 0.0000 11.6840 0.0000 0.0000
# 5 0.0000 0.0000 0.0000 0.0000 11.6840 0.0000
# 6 -14.0458 14.0458 0.0000 0.0000 0.0000 25.5332
#
#
#
# Elastic Compliance Matrix: (Units=1/GPa)
#
#
# Indices 1 2 3 4 5 6 
#
# 1 0.013126 -0.000073 -0.002719 0.000000 0.000000 0.007260
# 2 -0.000073 0.013126 -0.002719 0.000000 0.000000 -0.007260
# 3 -0.002719 -0.002719 0.010031 0.000000 0.000000 0.000000
# 4 0.000000 0.000000 0.000000 0.085587 0.000000 0.000000
# 5 0.000000 0.000000 0.000000 0.000000 0.085587 0.000000
# 6 0.007260 -0.007260 0.000000 0.000000 0.000000 0.047153
#
#
# Mechanical properties :
#
#
# Convention : Reuss Voigt Hill
#
# Bulk Modulus (GPa) = 39.58923 42.08609 40.83766
# Shear Modulus (GPa) = 18.24475 26.15185 22.19830
#
# Velocity S-wave (km/s) = 2.85661 3.42005 3.15095
# Velocity P-wave (km/s) = 5.34669 5.86679 5.61276
#
# Compressibility (1/GPa) = 0.02525940
#
# Stress axis : x y z
#
# Youngs Moduli (GPa) = 76.18705 76.18705 99.69246
#
# Poissons Ratio (x) = 0.00554 0.27109
# Poissons Ratio (y) = 0.00554 0.27109
# Poissons Ratio (z) = 0.20717 0.20717
#
# Static dielectric constant tensor:
#      x y z
#    x 1.903610 0.000000 0.000000 
#    y 0.000000 1.903610 0.000000 
#    z 0.000000 0.000000 1.797540 
# 
# From -- ./inp_files/495.got.cif
#   From: 2010.05.17/outbox.cif.g08.bks.cpg/sg77_cif.got.tgz:495.got - 2010.06.03 18:44:51.
