data_PCOD9541920
_publ_section_title
;
Structure prediction by ZEFSAII (Michael W. Deem and Ramdas Pophale) SiO2 
 PCOD9541920
Probable space group: I 4
;
_chemical_formula_sum "Si O2"
_cell_formula_units_Z 58
_cell_length_a 17.495921
_cell_length_b 17.495921
_cell_length_c 9.198409
_cell_angle_alpha 90.000000
_cell_angle_beta 90.000000
_cell_angle_gamma 90.000000
_cell_volume 2815.699698
_symmetry_space_group_name_H-M "I 4"
_symmetry_group_IT_number 79
_symmetry_cell_setting 'tetragonal'
loop_
_space_group_symop_operation_xyz
x,y,z
-y,x,z
-x,-y,z
y,-x,z
1/2+x,1/2+y,1/2+z
1/2-y,1/2+x,1/2+z
1/2-x,1/2-y,1/2+z
1/2+y,1/2-x,1/2+z
loop_
_atom_site_type_symbol
_atom_site_label
_atom_site_fract_x
_atom_site_fract_y
_atom_site_fract_z
Si Si1 0.443865 0.786623 0.782560
Si Si2 0.561887 0.773160 0.025155
Si Si3 0.727146 0.665759 0.259690
Si Si4 0.500000 0.500000 0.334957
Si Si5 0.583248 0.038940 0.745690
Si Si6 0.206344 0.472434 0.441583
Si Si7 0.695886 0.275209 0.944314
Si Si8 0.668182 0.449390 0.278804
O O1 0.520689 0.774492 0.871911
O O2 0.422928 0.875221 0.806970
O O3 0.455859 0.783929 0.610426
O O4 0.381163 0.727643 0.847222
O O5 0.647511 0.742018 0.991851
O O6 0.549053 0.853629 0.113205
O O7 0.523661 0.708944 0.129495
O O8 0.767804 0.601902 0.353335
O O9 0.730936 0.744847 0.344934
O O10 0.638043 0.647802 0.249104
O O11 0.761540 0.674133 0.099002
O O12 0.593472 0.492916 0.327455
O O13 0.500000 0.000000 0.710313
O O14 0.623696 0.992066 0.876041
O O15 0.264942 0.539509 0.396513
#
# Coordination Sequence:
#
# PCOD9541920 Si02
#       8
#     8   8   8   2   8   8   8   8
#     4  12  27  42  68 104 138 191 232 294 374 424
#     4  10  25  46  67 102 138 182 239 294 359 434
#     4  11  22  41  69  95 134 177 227 285 343 427
#     4  12  20  40  80  98 120 196 228 298 352 424
#     4  11  27  46  70 100 146 191 241 299 364 458
#     4  11  24  44  65 103 142 181 231 294 362 431
#     4  11  23  43  68  98 139 182 237 288 350 440
#     4  10  22  43  69 100 130 176 241 282 355 429
#
# _framework density 20.598787000000002
#
# number of rings (size 3 to 8) (size 9 to 14) (size 15 to 20)
#    0.000    1.103    1.379    5.793    7.724    3.310 
#    0.000    0.000    0.000    0.828    0.000    0.000 
#    0.000    0.000    0.000    0.000    0.000    0.000 
#
# Total GULP energy -161490.394101 kJ/mol
# GULP energy per Si atom -5568.634279 kJ/mol
# Density = 2.055190 g / cm^3
# Si number density = 20.598787 Si / 1000 Ang^3
#
#
#
# Elastic Constant Matrix: (Units=GPa)
#
#
# Indices 1 2 3 4 5 6 
#
# 1 75.2821 15.5309 29.2555 0.0000 0.0000 -3.0791
# 2 15.5309 75.2821 29.2555 0.0000 0.0000 3.0791
# 3 29.2555 29.2555 156.4900 0.0000 0.0000 0.0000
# 4 0.0000 0.0000 0.0000 26.0312 0.0000 0.0000
# 5 0.0000 0.0000 0.0000 0.0000 26.0312 0.0000
# 6 -3.0791 3.0791 0.0000 0.0000 0.0000 39.5532
#
#
#
# Elastic Compliance Matrix: (Units=1/GPa)
#
#
# Indices 1 2 3 4 5 6 
#
# 1 0.014696 -0.002176 -0.002341 0.000000 0.000000 0.001313
# 2 -0.002176 0.014696 -0.002341 0.000000 0.000000 -0.001313
# 3 -0.002341 -0.002341 0.007265 0.000000 0.000000 0.000000
# 4 0.000000 0.000000 0.000000 0.038415 0.000000 0.000000
# 5 0.000000 0.000000 0.000000 0.000000 0.038415 0.000000
# 6 0.001313 -0.001313 0.000000 0.000000 0.000000 0.025487
#
#
# Mechanical properties :
#
#
# Convention : Reuss Voigt Hill
#
# Bulk Modulus (GPa) = 43.58722 50.57088 47.07905
# Shear Modulus (GPa) = 31.18458 33.85725 32.52092
#
# Velocity S-wave (km/s) = 3.89511 4.05860 3.97769
# Velocity P-wave (km/s) = 6.43702 6.82398 6.63332
#
# Compressibility (1/GPa) = 0.02294251
#
# Stress axis : x y z
#
# Youngs Moduli (GPa) = 68.04782 68.04782 137.64055
#
# Poissons Ratio (x) = 0.14806 0.32215
# Poissons Ratio (y) = 0.14806 0.32215
# Poissons Ratio (z) = 0.15927 0.15927
#
# Static dielectric constant tensor:
#      x y z
#    x 1.782800 0.000000 0.000000 
#    y 0.000000 1.782800 0.000000 
#    z 0.000000 0.000000 1.755410 
# 
# From -- ./inp_files/730.got.cif
#   From: 2010.05.17/outbox.cif.g08.bks.cpg/sg79_cif.got.tgz:730.got - 2010.06.03 18:47:27.
