data_PCOD9541394
_publ_section_title
;
Structure prediction by ZEFSAII (Michael W. Deem and Ramdas Pophale) SiO2 
 PCOD9541394
Probable space group: P 41
;
_chemical_formula_sum "Si O2"
_cell_formula_units_Z 28
_cell_length_a 12.224113
_cell_length_b 12.224113
_cell_length_c 8.458707
_cell_angle_alpha 90.000000
_cell_angle_beta 90.000000
_cell_angle_gamma 90.000000
_cell_volume 1263.975609
_symmetry_space_group_name_H-M "P 41"
_symmetry_group_IT_number 76
_symmetry_cell_setting 'tetragonal'
loop_
_space_group_symop_operation_xyz
x,y,z
-y,x,1/4+z
-x,-y,1/2+z
y,-x,3/4+z
loop_
_atom_site_type_symbol
_atom_site_label
_atom_site_fract_x
_atom_site_fract_y
_atom_site_fract_z
Si Si1 0.796258 0.427719 0.036610
Si Si2 0.672059 0.296311 0.247414
Si Si3 0.956578 0.252342 0.935606
Si Si4 0.182280 0.908287 0.243794
Si Si5 0.359386 0.487473 0.277483
Si Si6 0.837726 0.146425 0.408227
Si Si7 0.883434 0.619448 0.237001
O O1 0.697281 0.408744 0.159100
O O2 0.874302 0.514417 0.124435
O O3 0.853664 0.310548 0.014326
O O4 0.743361 0.460548 0.870442
O O5 0.596771 0.314290 0.397728
O O6 0.785153 0.245946 0.314026
O O7 0.623778 0.215387 0.113553
O O8 0.920539 0.157825 0.814421
O O9 0.012310 0.355102 0.846354
O O10 0.039086 0.196502 0.059237
O O11 0.277280 0.889057 0.369517
O O12 0.154715 0.033525 0.197441
O O13 0.218143 0.856053 0.078989
O O14 0.429034 0.428934 0.417464
#
# Coordination Sequence:
#
# PCOD9541394 Si02
#       7
#     4   4   4   4   4   4   4
#     4  12  25  46  75  95 154 186 242 313 372 436
#     4  11  24  47  70 105 144 182 250 308 371 446
#     4  11  27  46  67 108 147 192 246 305 368 445
#     4  12  24  43  70 103 147 187 246 299 361 446
#     4  12  26  44  74 107 141 193 248 304 383 450
#     4  11  27  41  73 103 141 192 240 292 371 440
#     4  11  25  45  69 103 140 194 242 301 372 441
#
# _framework density 22.152327
#
# number of rings (size 3 to 8) (size 9 to 14) (size 15 to 20)
#    0.000    0.571    2.857    4.286    6.000    4.571 
#    0.000    0.000    0.000    0.000    0.000    0.000 
#    0.000    0.000    0.000    0.000    0.000    0.000 
#
# Total GULP energy -156442.795715 kJ/mol
# GULP energy per Si atom -5587.242704 kJ/mol
# Density = 2.210191 g / cm^3
# Si number density = 22.152327 Si / 1000 Ang^3
#
#
#
# Elastic Constant Matrix: (Units=GPa)
#
#
# Indices 1 2 3 4 5 6 
#
# 1 77.6430 30.8807 43.5727 0.0000 0.0000 -10.1542
# 2 30.8807 77.6430 43.5727 0.0000 0.0000 10.1542
# 3 43.5727 43.5727 168.8163 0.0000 0.0000 0.0000
# 4 0.0000 0.0000 0.0000 42.7357 0.0000 0.0000
# 5 0.0000 0.0000 0.0000 0.0000 42.7357 0.0000
# 6 -10.1542 10.1542 0.0000 0.0000 0.0000 17.0859
#
#
#
# Elastic Compliance Matrix: (Units=1/GPa)
#
#
# Indices 1 2 3 4 5 6 
#
# 1 0.020224 -0.008600 -0.003000 0.000000 0.000000 0.017130
# 2 -0.008600 0.020224 -0.003000 0.000000 0.000000 -0.017130
# 3 -0.003000 -0.003000 0.007472 0.000000 0.000000 0.000000
# 4 0.000000 0.000000 0.000000 0.023400 0.000000 0.000000
# 5 0.000000 0.000000 0.000000 0.000000 0.023400 0.000000
# 6 0.017130 -0.017130 0.000000 0.000000 0.000000 0.078889
#
#
# Mechanical properties :
#
#
# Convention : Reuss Voigt Hill
#
# Bulk Modulus (GPa) = 53.42131 62.23941 57.83036
# Shear Modulus (GPa) = 23.91774 34.24988 29.08381
#
# Velocity S-wave (km/s) = 3.28943 3.93632 3.62733
# Velocity P-wave (km/s) = 6.21248 6.98689 6.61104
#
# Compressibility (1/GPa) = 0.01871912
#
# Stress axis : x y z
#
# Youngs Moduli (GPa) = 49.44615 49.44615 133.82707
#
# Poissons Ratio (x) = 0.42525 0.40150
# Poissons Ratio (y) = 0.42525 0.40150
# Poissons Ratio (z) = 0.14835 0.14835
#
# Static dielectric constant tensor:
#      x y z
#    x 1.846930 0.000000 0.000000 
#    y 0.000000 1.846930 0.000000 
#    z 0.000000 0.000000 1.844270 
# 
# From -- ./inp_files/619.got.cif
#   From: 2010.05.17/outbox.cif.g08.bks.cpg/sg76_cif.got.tgz:619.got - 2010.06.03 18:43:17.
