data_PCOD9541596
_publ_section_title
;
Structure prediction by ZEFSAII (Michael W. Deem and Ramdas Pophale) SiO2 
 PCOD9541596
Probable space group: P 43
;
_chemical_formula_sum "Si O2"
_cell_formula_units_Z 20
_cell_length_a 7.545534
_cell_length_b 7.545534
_cell_length_c 14.212377
_cell_angle_alpha 90.000000
_cell_angle_beta 90.000000
_cell_angle_gamma 90.000000
_cell_volume 809.182869
_symmetry_space_group_name_H-M "P 43"
_symmetry_group_IT_number 78
_symmetry_cell_setting 'tetragonal'
loop_
_space_group_symop_operation_xyz
x,y,z
-y,x,3/4+z
-x,-y,1/2+z
y,-x,1/4+z
loop_
_atom_site_type_symbol
_atom_site_label
_atom_site_fract_x
_atom_site_fract_y
_atom_site_fract_z
Si Si1 0.726717 0.079491 0.747020
Si Si2 0.364045 0.002897 0.041506
Si Si3 0.390260 0.682229 0.800296
Si Si4 0.894225 0.319448 0.166974
Si Si5 0.399205 0.296604 0.746035
O O1 0.669490 0.969348 0.654120
O O2 0.544912 0.167468 0.785946
O O3 0.862324 0.241155 0.732650
O O4 0.804173 0.980353 0.838735
O O5 0.560004 0.003564 0.992413
O O6 0.292230 0.801834 0.029365
O O7 0.535153 0.799905 0.849567
O O8 0.263154 0.772512 0.725003
O O9 0.465718 0.500128 0.757475
O O10 0.266460 0.612410 0.884878
#
# Coordination Sequence:
#
# PCOD9541596 Si02
#       5
#     4   4   4   4   4
#     4  12  23  44  67 100 144 177 229 288 345 421
#     4  10  24  44  65 108 133 183 235 273 360 408
#     4   8  18  38  64  95 121 173 228 268 347 400
#     4  10  21  41  68 100 133 174 232 281 346 417
#     4  10  18  41  72  89 133 177 220 286 336 408
#
# _framework density 24.716290000000001
#
# number of rings (size 3 to 8) (size 9 to 14) (size 15 to 20)
#    0.000    2.400    4.000    1.200    0.000    3.200 
#   14.400    0.000    0.000    0.000    0.000    0.000 
#    0.000    0.000    0.000    0.000    0.000    0.000 
#
# Total GULP energy -111474.312159 kJ/mol
# GULP energy per Si atom -5573.715608 kJ/mol
# Density = 2.466004 g / cm^3
# Si number density = 24.716290 Si / 1000 Ang^3
#
#
#
# Elastic Constant Matrix: (Units=GPa)
#
#
# Indices 1 2 3 4 5 6 
#
# 1 -182.2769 211.8493 2.9206 0.0000 0.0000 71.6666
# 2 211.8493 -182.2769 2.9206 0.0000 0.0000 -71.6666
# 3 2.9206 2.9206 103.4343 0.0000 0.0000 0.0000
# 4 0.0000 0.0000 0.0000 30.3830 0.0000 0.0000
# 5 0.0000 0.0000 0.0000 0.0000 30.3830 0.0000
# 6 71.6666 -71.6666 0.0000 0.0000 0.0000 5.3689
#
#
#
# Elastic Compliance Matrix: (Units=1/GPa)
#
#
# Indices 1 2 3 4 5 6 
#
# 1 0.016786 0.017219 -0.000960 0.000000 0.000000 0.005785
# 2 0.017219 0.016786 -0.000960 0.000000 0.000000 -0.005785
# 3 -0.000960 -0.000960 0.009722 0.000000 0.000000 0.000000
# 4 0.000000 0.000000 0.000000 0.032913 0.000000 0.000000
# 5 0.000000 0.000000 0.000000 0.000000 0.032913 0.000000
# 6 0.005785 -0.005785 0.000000 0.000000 0.000000 0.031815
#
#
# Mechanical properties :
#
#
# Convention : Reuss Voigt Hill
#
# Bulk Modulus (GPa) = 13.53336 19.36240 16.44788
# Shear Modulus (GPa) = 37.04593 -18.69372 9.17610
#
# Velocity S-wave (km/s) = 3.87569 -2.75313 1.92889
# Velocity P-wave (km/s) = 5.05127 1.50182 3.41027
#
# Compressibility (1/GPa) = 0.07389147
#
# Stress axis : x y z
#
# Youngs Moduli (GPa) = 59.57412 59.57412 102.85736
#
# Poissons Ratio (x) = -1.02582 0.09876
# Poissons Ratio (y) = -1.02582 0.09876
# Poissons Ratio (z) = 0.05720 0.05720
#
# Static dielectric constant tensor:
#      x y z
#    x 2.017640 0.000000 0.000000 
#    y 0.000000 2.017640 0.000000 
#    z 0.000000 0.000000 2.066000 
# 
# From -- ./inp_files/1029.got.cif
#   From: 2010.05.17/outbox.cif.g08.bks.cpg/sg78_cif.got.tgz:1029.got - 2010.06.03 18:45:56.
