data_PCOD9541914
_publ_section_title
;
Structure prediction by ZEFSAII (Michael W. Deem and Ramdas Pophale) SiO2 
 PCOD9541914
Probable space group: I 4
;
_chemical_formula_sum "Si O2"
_cell_formula_units_Z 40
_cell_length_a 15.692793
_cell_length_b 15.692793
_cell_length_c 7.849315
_cell_angle_alpha 90.000000
_cell_angle_beta 90.000000
_cell_angle_gamma 90.000000
_cell_volume 1933.001764
_symmetry_space_group_name_H-M "I 4"
_symmetry_group_IT_number 79
_symmetry_cell_setting 'tetragonal'
loop_
_space_group_symop_operation_xyz
x,y,z
-y,x,z
-x,-y,z
y,-x,z
1/2+x,1/2+y,1/2+z
1/2-y,1/2+x,1/2+z
1/2-x,1/2-y,1/2+z
1/2+y,1/2-x,1/2+z
loop_
_atom_site_type_symbol
_atom_site_label
_atom_site_fract_x
_atom_site_fract_y
_atom_site_fract_z
Si Si1 0.149542 0.180464 0.245370
Si Si2 0.693362 0.284457 0.370628
Si Si3 0.975091 0.244320 0.326266
Si Si4 0.554851 0.186823 0.167894
Si Si5 0.106292 0.356570 0.856990
O O1 0.199974 0.249362 0.356440
O O2 0.166948 0.091573 0.337017
O O3 0.054475 0.212169 0.222153
O O4 0.193431 0.169987 0.062469
O O5 0.611928 0.258976 0.258523
O O6 0.761501 0.357975 0.321448
O O7 0.923337 0.328729 0.265394
O O8 0.000826 0.270416 0.517718
O O9 0.490712 0.139793 0.295775
O O10 0.617519 0.125608 0.055120
#
# Coordination Sequence:
#
# PCOD9541914 Si02
#       5
#     8   8   8   8   8
#     4  11  22  41  65  98 136 176 233 271 345 399
#     4  11  22  40  71  95 130 188 225 277 331 416
#     4   9  24  39  70  99 130 182 218 290 331 408
#     4  10  22  41  73  95 137 173 233 275 340 400
#     4   9  22  41  70 103 128 182 223 288 333 406
#
# _framework density 20.693203
#
# number of rings (size 3 to 8) (size 9 to 14) (size 15 to 20)
#    1.200    0.800    2.000    0.000   11.200    0.400 
#    0.000    1.000   17.600    0.600    0.000    0.000 
#    0.000    0.000    0.000    0.000    0.000    0.000 
#
# Total GULP energy -111339.805714 kJ/mol
# GULP energy per Si atom -5566.990286 kJ/mol
# Density = 2.064610 g / cm^3
# Si number density = 20.693203 Si / 1000 Ang^3
#
#
#
# Elastic Constant Matrix: (Units=GPa)
#
#
# Indices 1 2 3 4 5 6 
#
# 1 49.3904 52.3042 31.4591 0.0000 0.0000 -4.7378
# 2 52.3042 49.3904 31.4591 0.0000 0.0000 4.7378
# 3 31.4591 31.4591 92.2610 0.0000 0.0000 0.0000
# 4 0.0000 0.0000 0.0000 18.9327 0.0000 0.0000
# 5 0.0000 0.0000 0.0000 0.0000 18.9327 0.0000
# 6 -4.7378 4.7378 0.0000 0.0000 0.0000 10.0094
#
#
#
# Elastic Compliance Matrix: (Units=1/GPa)
#
#
# Indices 1 2 3 4 5 6 
#
# 1 -0.061345 0.073808 -0.004249 0.000000 0.000000 -0.063973
# 2 0.073808 -0.061345 -0.004249 0.000000 0.000000 0.063973
# 3 -0.004249 -0.004249 0.013737 0.000000 0.000000 0.000000
# 4 0.000000 0.000000 0.000000 0.052819 0.000000 0.000000
# 5 0.000000 0.000000 0.000000 0.000000 0.052819 0.000000
# 6 -0.063973 0.063973 0.000000 0.000000 0.000000 0.039345
#
#
# Mechanical properties :
#
#
# Convention : Reuss Voigt Hill
#
# Bulk Modulus (GPa) = 46.15967 46.83186 46.49577
# Shear Modulus (GPa) = -57.22900 14.62956 -21.29972
#
# Velocity S-wave (km/s) = -5.26460 2.66178 -3.21177
# Velocity P-wave (km/s) = 3.82093 5.66811 2.96040
#
# Compressibility (1/GPa) = 0.02166393
#
# Stress axis : x y z
#
# Youngs Moduli (GPa) = -16.30114 -16.30114 72.79727
#
# Poissons Ratio (x) = 1.20315 0.30935
# Poissons Ratio (y) = 1.20315 0.30935
# Poissons Ratio (z) = -0.06927 -0.06927
#
# Static dielectric constant tensor:
#      x y z
#    x 1.779500 0.000000 0.000000 
#    y 0.000000 1.779500 0.000000 
#    z 0.000000 0.000000 1.784610 
# 
# From -- ./inp_files/544.got.cif
#   From: 2010.05.17/outbox.cif.g08.bks.cpg/sg79_cif.got.tgz:544.got - 2010.06.03 18:47:27.
