data_PCOD9541091
_publ_section_title
;
Structure prediction by ZEFSAII (Michael W. Deem and Ramdas Pophale) SiO2 
 PCOD9541091
Probable space group: P 41
;
_chemical_formula_sum "Si O2"
_cell_formula_units_Z 20
_cell_length_a 11.173457
_cell_length_b 11.173457
_cell_length_c 8.331685
_cell_angle_alpha 90.000000
_cell_angle_beta 90.000000
_cell_angle_gamma 90.000000
_cell_volume 1040.178723
_symmetry_space_group_name_H-M "P 41"
_symmetry_group_IT_number 76
_symmetry_cell_setting 'tetragonal'
loop_
_space_group_symop_operation_xyz
x,y,z
-y,x,1/4+z
-x,-y,1/2+z
y,-x,3/4+z
loop_
_atom_site_type_symbol
_atom_site_label
_atom_site_fract_x
_atom_site_fract_y
_atom_site_fract_z
Si Si1 0.650911 0.005856 0.442190
Si Si2 0.844142 0.510991 0.957204
Si Si3 0.778142 0.772394 0.528536
Si Si4 0.304262 0.342803 0.704970
Si Si5 0.393491 0.573210 0.908915
O O1 0.570083 0.083999 0.562199
O O2 0.093064 0.260823 0.095577
O O3 0.562415 0.934436 0.322672
O O4 0.730819 0.907309 0.533530
O O5 0.741989 0.415100 0.908639
O O6 0.778728 0.613391 0.061318
O O7 0.766765 0.727806 0.344457
O O8 0.682849 0.693624 0.628971
O O9 0.349917 0.463719 0.794240
O O10 0.522675 0.604790 0.836978
#
# Coordination Sequence:
#
# PCOD9541091 Si02
#       5
#     4   4   4   4   4
#     4  11  24  41  62  88 124 166 212 247 305 353
#     4  11  23  39  64  93 128 161 198 255 309 377
#     4  10  23  40  60  85 122 166 205 255 293 360
#     4  10  19  38  57  93 125 154 192 247 319 369
#     4  10  19  32  57  87 127 151 189 246 316 367
#
# _framework density 19.227463
#
# number of rings (size 3 to 8) (size 9 to 14) (size 15 to 20)
#    0.000    1.600    6.000    1.200    5.600    1.600 
#    0.000    4.000    0.000    0.000    0.000    0.000 
#    0.000    0.000    0.000    0.000    0.000    0.000 
#
# Total GULP energy -111792.810021 kJ/mol
# GULP energy per Si atom -5589.640501 kJ/mol
# Density = 1.918370 g / cm^3
# Si number density = 19.227463 Si / 1000 Ang^3
#
#
#
# Elastic Constant Matrix: (Units=GPa)
#
#
# Indices 1 2 3 4 5 6 
#
# 1 112.7403 60.1210 43.9217 0.0000 0.0000 -1.1299
# 2 60.1210 112.7403 43.9217 0.0000 0.0000 1.1299
# 3 43.9217 43.9217 67.3960 0.0000 0.0000 0.0000
# 4 0.0000 0.0000 0.0000 29.3127 0.0000 0.0000
# 5 0.0000 0.0000 0.0000 0.0000 29.3127 0.0000
# 6 -1.1299 1.1299 0.0000 0.0000 0.0000 26.6554
#
#
#
# Elastic Compliance Matrix: (Units=1/GPa)
#
#
# Indices 1 2 3 4 5 6 
#
# 1 0.013844 -0.005195 -0.005637 0.000000 0.000000 0.000807
# 2 -0.005195 0.013844 -0.005637 0.000000 0.000000 -0.000807
# 3 -0.005637 -0.005637 0.022185 0.000000 0.000000 0.000000
# 4 0.000000 0.000000 0.000000 0.034115 0.000000 0.000000
# 5 0.000000 0.000000 0.000000 0.000000 0.034115 0.000000
# 6 0.000807 -0.000807 0.000000 0.000000 0.000000 0.037584
#
#
# Mechanical properties :
#
#
# Convention : Reuss Voigt Hill
#
# Bulk Modulus (GPa) = 59.04475 65.42283 62.23379
# Shear Modulus (GPa) = 25.73740 26.71695 26.22718
#
# Velocity S-wave (km/s) = 3.66262 3.73167 3.69731
# Velocity P-wave (km/s) = 6.97579 7.25719 7.11788
#
# Compressibility (1/GPa) = 0.01693631
#
# Stress axis : x y z
#
# Youngs Moduli (GPa) = 72.23193 72.23193 45.07613
#
# Poissons Ratio (x) = 0.37523 0.25409
# Poissons Ratio (y) = 0.37523 0.25409
# Poissons Ratio (z) = 0.40716 0.40716
#
# Static dielectric constant tensor:
#      x y z
#    x 1.667290 0.000000 0.000000 
#    y 0.000000 1.667290 0.000000 
#    z 0.000000 0.000000 1.693250 
# 
# From -- ./inp_files/500.got.cif
#   From: 2010.05.17/outbox.cif.g08.bks.cpg/sg76_cif.got.tgz:500.got - 2010.06.03 18:43:17.
