data_PCOD9541610
_publ_section_title
;
Structure prediction by ZEFSAII (Michael W. Deem and Ramdas Pophale) SiO2 
 PCOD9541610
Probable space group: P 43
;
_chemical_formula_sum "Si O2"
_cell_formula_units_Z 20
_cell_length_a 8.614387
_cell_length_b 8.614387
_cell_length_c 10.950728
_cell_angle_alpha 90.000000
_cell_angle_beta 90.000000
_cell_angle_gamma 90.000000
_cell_volume 812.627937
_symmetry_space_group_name_H-M "P 43"
_symmetry_group_IT_number 78
_symmetry_cell_setting 'tetragonal'
loop_
_space_group_symop_operation_xyz
x,y,z
-y,x,3/4+z
-x,-y,1/2+z
y,-x,1/4+z
loop_
_atom_site_type_symbol
_atom_site_label
_atom_site_fract_x
_atom_site_fract_y
_atom_site_fract_z
Si Si1 0.165605 0.443676 0.575520
Si Si2 0.831555 0.579276 0.593739
Si Si3 0.593721 0.814258 0.584003
Si Si4 0.123149 0.019563 0.814989
Si Si5 0.813951 0.620160 0.332060
O O1 0.241691 0.495718 0.450082
O O2 0.250423 0.445030 0.705433
O O3 0.015713 0.557692 0.590501
O O4 0.095737 0.270566 0.557870
O O5 0.767031 0.752923 0.604995
O O6 0.764321 0.484509 0.707047
O O7 0.770710 0.537464 0.458265
O O8 0.593717 0.999573 0.575893
O O9 0.193804 0.192378 0.835343
O O10 0.032375 0.028769 0.686093
#
# Coordination Sequence:
#
# PCOD9541610 Si02
#       5
#     4   4   4   4   4
#     4   9  20  37  57  84 116 147 183 232 284 339
#     4  10  19  37  58  77 110 150 188 228 275 332
#     4  10  21  37  57  82 110 149 194 231 274 337
#     4  10  20  35  58  89 117 144 182 234 298 348
#     4   9  18  36  60  82 111 146 181 235 299 340
#
# _framework density 24.611511
#
# number of rings (size 3 to 8) (size 9 to 14) (size 15 to 20)
#    0.000    2.400    0.000    3.600    0.000    3.200 
#    0.000   22.000    0.000    0.000    0.000    0.000 
#    0.000    0.000    0.000    0.000    0.000    0.000 
#
# Total GULP energy -111655.105416 kJ/mol
# GULP energy per Si atom -5582.755271 kJ/mol
# Density = 2.455549 g / cm^3
# Si number density = 24.611511 Si / 1000 Ang^3
#
#
#
# Elastic Constant Matrix: (Units=GPa)
#
#
# Indices 1 2 3 4 5 6 
#
# 1 32.1633 30.2876 46.3497 0.0000 0.0000 -0.2306
# 2 30.2876 32.1633 46.3497 0.0000 0.0000 0.2306
# 3 46.3497 46.3497 227.2673 0.0000 0.0000 0.0000
# 4 0.0000 0.0000 0.0000 19.9182 0.0000 0.0000
# 5 0.0000 0.0000 0.0000 0.0000 19.9182 0.0000
# 6 -0.2306 0.2306 0.0000 0.0000 0.0000 44.5033
#
#
#
# Elastic Compliance Matrix: (Units=1/GPa)
#
#
# Indices 1 2 3 4 5 6 
#
# 1 0.278387 -0.255422 -0.004683 0.000000 0.000000 0.002766
# 2 -0.255422 0.278387 -0.004683 0.000000 0.000000 -0.002766
# 3 -0.004683 -0.004683 0.006310 0.000000 0.000000 0.000000
# 4 0.000000 0.000000 0.000000 0.050205 0.000000 0.000000
# 5 0.000000 0.000000 0.000000 0.000000 0.050205 0.000000
# 6 0.002766 -0.002766 0.000000 0.000000 0.000000 0.022499
#
#
# Mechanical properties :
#
#
# Convention : Reuss Voigt Hill
#
# Bulk Modulus (GPa) = 29.84572 59.72975 44.78773
# Shear Modulus (GPa) = 4.07584 28.10841 16.09212
#
# Velocity S-wave (km/s) = 1.28828 3.38314 2.55981
# Velocity P-wave (km/s) = 3.79024 6.29147 5.19367
#
# Compressibility (1/GPa) = 0.03350565
#
# Stress axis : x y z
#
# Youngs Moduli (GPa) = 3.59213 3.59213 158.46777
#
# Poissons Ratio (x) = 0.91751 0.74218
# Poissons Ratio (y) = 0.91751 0.74218
# Poissons Ratio (z) = 0.01682 0.01682
#
# Static dielectric constant tensor:
#      x y z
#    x 1.958920 0.000000 0.000000 
#    y 0.000000 1.958920 0.000000 
#    z 0.000000 0.000000 2.026630 
# 
# From -- ./inp_files/487.got.cif
#   From: 2010.05.17/outbox.cif.g08.bks.cpg/sg78_cif.got.tgz:487.got - 2010.06.03 18:45:56.
