data_PCOD9541322
_publ_section_title
;
Structure prediction by ZEFSAII (Michael W. Deem and Ramdas Pophale) SiO2 
 PCOD9541322
Probable space group: P 41
;
_chemical_formula_sum "Si O2"
_cell_formula_units_Z 28
_cell_length_a 11.834929
_cell_length_b 11.834929
_cell_length_c 8.158170
_cell_angle_alpha 90.000000
_cell_angle_beta 90.000000
_cell_angle_gamma 90.000000
_cell_volume 1142.678523
_symmetry_space_group_name_H-M "P 41"
_symmetry_group_IT_number 76
_symmetry_cell_setting 'tetragonal'
loop_
_space_group_symop_operation_xyz
x,y,z
-y,x,1/4+z
-x,-y,1/2+z
y,-x,3/4+z
loop_
_atom_site_type_symbol
_atom_site_label
_atom_site_fract_x
_atom_site_fract_y
_atom_site_fract_z
Si Si1 0.640795 0.075414 0.266200
Si Si2 0.242273 0.528373 0.873638
Si Si3 0.570154 0.600742 0.169012
Si Si4 0.538701 0.841937 0.271086
Si Si5 0.850496 0.990680 0.099027
Si Si6 0.320254 0.912485 0.126397
Si Si7 0.860493 0.270914 0.572338
O O1 0.577415 0.962544 0.207279
O O2 0.584351 0.184567 0.190963
O O3 0.771079 0.066386 0.215446
O O4 0.613444 0.072913 0.457939
O O5 0.358149 0.481269 0.792034
O O6 0.176548 0.568994 0.710704
O O7 0.218680 0.624017 0.011797
O O8 0.444267 0.586562 0.237976
O O9 0.592436 0.733523 0.182978
O O10 0.402443 0.845515 0.250417
O O11 0.934992 0.918808 0.214803
O O12 0.759723 0.914104 0.999912
O O13 0.216806 0.838988 0.061289
O O14 0.281723 0.028746 0.208054
#
# Coordination Sequence:
#
# PCOD9541322 Si02
#       7
#     4   4   4   4   4   4   4
#     4  12  27  45  77 109 152 206 267 323 415 479
#     4  11  26  47  73 109 159 199 263 326 401 489
#     4  10  26  45  71 105 153 193 258 313 392 466
#     4  11  24  50  72 112 152 205 261 332 393 497
#     4  12  31  49  78 112 162 211 278 346 420 499
#     4  12  28  46  81 112 158 210 264 337 403 496
#     4  12  26  50  74 115 156 210 271 333 406 490
#
# _framework density 24.503827999999999
#
# number of rings (size 3 to 8) (size 9 to 14) (size 15 to 20)
#    0.000    0.571    4.286    0.857   14.000    1.143 
#    0.000    0.000    0.000    0.000    0.000    0.000 
#    0.000    0.000    0.000    0.000    0.000    0.000 
#
# Total GULP energy -156349.963154 kJ/mol
# GULP energy per Si atom -5583.927255 kJ/mol
# Density = 2.444806 g / cm^3
# Si number density = 24.503828 Si / 1000 Ang^3
#
#
#
# Elastic Constant Matrix: (Units=GPa)
#
#
# Indices 1 2 3 4 5 6 
#
# 1 61.9840 15.7018 14.2262 0.0000 0.0000 12.6737
# 2 15.7018 61.9840 14.2262 0.0000 0.0000 -12.6737
# 3 14.2262 14.2262 81.4737 0.0000 0.0000 0.0000
# 4 0.0000 0.0000 0.0000 31.6526 0.0000 0.0000
# 5 0.0000 0.0000 0.0000 0.0000 31.6526 0.0000
# 6 12.6737 -12.6737 0.0000 0.0000 0.0000 16.5386
#
#
#
# Elastic Compliance Matrix: (Units=1/GPa)
#
#
# Indices 1 2 3 4 5 6 
#
# 1 0.025492 -0.011740 -0.002401 0.000000 0.000000 -0.028532
# 2 -0.011740 0.025492 -0.002401 0.000000 0.000000 0.028532
# 3 -0.002401 -0.002401 0.013112 0.000000 0.000000 0.000000
# 4 0.000000 0.000000 0.000000 0.031593 0.000000 0.000000
# 5 0.000000 0.000000 0.000000 0.000000 0.031593 0.000000
# 6 -0.028532 0.028532 0.000000 0.000000 0.000000 0.104194
#
#
# Mechanical properties :
#
#
# Convention : Reuss Voigt Hill
#
# Bulk Modulus (GPa) = 32.24642 32.63891 32.44266
# Shear Modulus (GPa) = 18.18846 26.72126 22.45486
#
# Velocity S-wave (km/s) = 2.72742 3.30584 3.03046
# Velocity P-wave (km/s) = 4.80695 5.28397 5.05109
#
# Compressibility (1/GPa) = 0.03101120
#
# Stress axis : x y z
#
# Youngs Moduli (GPa) = 39.22753 39.22753 76.26335
#
# Poissons Ratio (x) = 0.46055 0.18312
# Poissons Ratio (y) = 0.46055 0.18312
# Poissons Ratio (z) = 0.09419 0.09419
#
# Static dielectric constant tensor:
#      x y z
#    x 2.027500 0.000000 0.000000 
#    y 0.000000 2.027500 0.000000 
#    z 0.000000 0.000000 1.949160 
# 
# From -- ./inp_files/635.got.cif
#   From: 2010.05.17/outbox.cif.g08.bks.cpg/sg76_cif.got.tgz:635.got - 2010.06.03 18:43:17.
