data_PCOD9541725
_publ_section_title
;
Structure prediction by ZEFSAII (Michael W. Deem and Ramdas Pophale) SiO2 
 PCOD9541725
Probable space group: P 43
;
_chemical_formula_sum "Si O2"
_cell_formula_units_Z 28
_cell_length_a 12.721741
_cell_length_b 12.721741
_cell_length_c 8.139153
_cell_angle_alpha 90.000000
_cell_angle_beta 90.000000
_cell_angle_gamma 90.000000
_cell_volume 1317.262449
_symmetry_space_group_name_H-M "P 43"
_symmetry_group_IT_number 78
_symmetry_cell_setting 'tetragonal'
loop_
_space_group_symop_operation_xyz
x,y,z
-y,x,3/4+z
-x,-y,1/2+z
y,-x,1/4+z
loop_
_atom_site_type_symbol
_atom_site_label
_atom_site_fract_x
_atom_site_fract_y
_atom_site_fract_z
Si Si1 0.711307 0.179998 0.119110
Si Si2 0.425919 0.718264 0.873754
Si Si3 0.112150 0.514774 0.858654
Si Si4 0.373572 0.344892 0.178568
Si Si5 0.938445 0.120550 0.092243
Si Si6 0.014932 0.351066 0.092599
Si Si7 0.573741 0.722835 0.335917
O O1 0.628072 0.189881 0.264895
O O2 0.823504 0.136080 0.175074
O O3 0.713563 0.299861 0.058525
O O4 0.673155 0.116067 0.958950
O O5 0.511047 0.658970 0.759992
O O6 0.472855 0.781377 0.026054
O O7 0.346428 0.635117 0.952127
O O8 0.058222 0.586978 0.722499
O O9 0.041568 0.422420 0.935523
O O10 0.158755 0.571357 0.019606
O O11 0.330162 0.460566 0.131110
O O12 0.369638 0.281138 0.010427
O O13 0.033023 0.080859 0.205161
O O14 0.969303 0.238528 0.038465
#
# Coordination Sequence:
#
# PCOD9541725 Si02
#       7
#     4   4   4   4   4   4   4
#     4  11  23  44  64  97 135 181 225 294 346 403
#     4  12  24  38  63  96 137 180 228 274 332 408
#     4  12  25  43  65 101 130 185 226 278 350 417
#     4  12  24  39  63  95 143 185 225 276 330 399
#     4  10  24  45  72  97 129 171 226 288 351 401
#     4  11  23  45  68  96 138 173 230 290 351 419
#     4  12  25  38  61  98 138 185 232 266 330 403
#
# _framework density 21.256202999999999
#
# number of rings (size 3 to 8) (size 9 to 14) (size 15 to 20)
#    0.000    0.571    4.286    3.429    2.000    2.286 
#    0.000    5.714    0.000    0.000    0.000    0.000 
#    0.000    0.000    0.000    0.000    0.000    0.000 
#
# Total GULP energy -156392.749061 kJ/mol
# GULP energy per Si atom -5585.455324 kJ/mol
# Density = 2.120782 g / cm^3
# Si number density = 21.256203 Si / 1000 Ang^3
#
#
#
# Elastic Constant Matrix: (Units=GPa)
#
#
# Indices 1 2 3 4 5 6 
#
# 1 85.0911 31.2582 9.3090 0.0000 0.0000 -8.1367
# 2 31.2582 85.0911 9.3090 0.0000 0.0000 8.1367
# 3 9.3090 9.3090 52.0755 0.0000 0.0000 0.0000
# 4 0.0000 0.0000 0.0000 34.2844 0.0000 0.0000
# 5 0.0000 0.0000 0.0000 0.0000 34.2844 0.0000
# 6 -8.1367 8.1367 0.0000 0.0000 0.0000 32.8377
#
#
#
# Elastic Compliance Matrix: (Units=1/GPa)
#
#
# Indices 1 2 3 4 5 6 
#
# 1 0.014464 -0.005616 -0.001582 0.000000 0.000000 0.004976
# 2 -0.005616 0.014464 -0.001582 0.000000 0.000000 -0.004976
# 3 -0.001582 -0.001582 0.019768 0.000000 0.000000 0.000000
# 4 0.000000 0.000000 0.000000 0.029168 0.000000 0.000000
# 5 0.000000 0.000000 0.000000 0.000000 0.029168 0.000000
# 6 0.004976 -0.004976 0.000000 0.000000 0.000000 0.032919
#
#
# Mechanical properties :
#
#
# Convention : Reuss Voigt Hill
#
# Bulk Modulus (GPa) = 32.11555 35.77890 33.94723
# Shear Modulus (GPa) = 29.78166 31.77339 30.77752
#
# Velocity S-wave (km/s) = 3.74716 3.87044 3.80930
# Velocity P-wave (km/s) = 5.81921 6.06980 5.94583
#
# Compressibility (1/GPa) = 0.03113756
#
# Stress axis : x y z
#
# Youngs Moduli (GPa) = 69.13711 69.13711 50.58594
#
# Poissons Ratio (x) = 0.38828 0.08001
# Poissons Ratio (y) = 0.38828 0.08001
# Poissons Ratio (z) = 0.10935 0.10935
#
# Static dielectric constant tensor:
#      x y z
#    x 1.806740 0.000000 0.000000 
#    y 0.000000 1.806740 0.000000 
#    z 0.000000 0.000000 1.747580 
# 
# From -- ./inp_files/604.got.cif
#   From: 2010.05.17/outbox.cif.g08.bks.cpg/sg78_cif.got.tgz:604.got - 2010.06.03 18:45:56.
