data_PCOD9541988
_publ_section_title
;
Structure prediction by ZEFSAII (Michael W. Deem and Ramdas Pophale) SiO2 
 PCOD9541988
Probable space group: I 4
;
_chemical_formula_sum "Si O2"
_cell_formula_units_Z 48
_cell_length_a 7.564897
_cell_length_b 7.564897
_cell_length_c 33.829109
_cell_angle_alpha 90.000000
_cell_angle_beta 90.000000
_cell_angle_gamma 90.000000
_cell_volume 1935.960972
_symmetry_space_group_name_H-M "I 4"
_symmetry_group_IT_number 79
_symmetry_cell_setting 'tetragonal'
loop_
_space_group_symop_operation_xyz
x,y,z
-y,x,z
-x,-y,z
y,-x,z
1/2+x,1/2+y,1/2+z
1/2-y,1/2+x,1/2+z
1/2-x,1/2-y,1/2+z
1/2+y,1/2-x,1/2+z
loop_
_atom_site_type_symbol
_atom_site_label
_atom_site_fract_x
_atom_site_fract_y
_atom_site_fract_z
Si Si1 0.000000 0.500000 0.679770
Si Si2 0.225569 0.617455 0.025854
Si Si3 0.885247 0.724091 0.613416
Si Si4 0.000000 0.500000 0.460657
Si Si5 0.867117 0.747968 0.234857
Si Si6 0.835511 0.746211 0.904607
Si Si7 0.277165 0.300252 0.320773
O O1 0.861139 0.588026 0.648836
O O2 0.921350 0.340476 0.707446
O O3 0.279015 0.409833 0.023412
O O4 0.149085 0.650341 0.069563
O O5 0.090618 0.643450 0.990013
O O6 0.092165 0.780369 0.615966
O O7 0.914214 0.336648 0.435597
O O8 0.832287 0.740542 0.281700
O O9 0.072280 0.772238 0.225286
O O10 0.743516 0.703017 0.862400
O O11 0.050905 0.770424 0.907044
O O12 0.487039 0.263033 0.319557
#
# Coordination Sequence:
#
# PCOD9541988 Si02
#       7
#     4   8   8   4   8   8   8
#     4  12  21  36  59  86 114 144 192 248 296 346
#     4   9  19  35  53  80 120 158 193 235 284 341
#     4   9  19  36  57  81 114 157 198 234 280 345
#     4  12  19  30  57  88 114 150 194 240 294 338
#     4  11  24  38  54  81 114 145 181 236 299 355
#     4   9  20  36  53  78 110 144 187 238 286 344
#     4   9  19  38  60  78 102 143 190 234 288 349
#
# _framework density 24.793886000000001
#
# number of rings (size 3 to 8) (size 9 to 14) (size 15 to 20)
#    0.000    2.167    0.000    5.500    0.000    2.667 
#    0.000    1.667    0.000    2.000    0.000   14.000 
#    0.000    0.000    0.000    0.000    0.000    0.000 
#
# Total GULP energy -133626.522899 kJ/mol
# GULP energy per Si atom -5567.771787 kJ/mol
# Density = 2.473745 g / cm^3
# Si number density = 24.793886 Si / 1000 Ang^3
#
#
#
# Elastic Constant Matrix: (Units=GPa)
#
#
# Indices 1 2 3 4 5 6 
#
# 1 -140.8630 193.2297 31.7360 0.0000 0.0000 -14.4994
# 2 193.2297 -140.8631 31.7359 0.0000 0.0000 14.4994
# 3 31.7360 31.7359 226.1163 0.0000 0.0000 0.0000
# 4 0.0000 0.0000 0.0000 27.1266 0.0000 0.0000
# 5 0.0000 0.0000 0.0000 0.0000 27.1266 0.0000
# 6 -14.4994 14.4994 0.0000 0.0000 0.0000 25.7160
#
#
#
# Elastic Compliance Matrix: (Units=1/GPa)
#
#
# Indices 1 2 3 4 5 6 
#
# 1 0.010079 0.012932 -0.003230 0.000000 0.000000 -0.001609
# 2 0.012932 0.010079 -0.003230 0.000000 0.000000 0.001609
# 3 -0.003230 -0.003230 0.005329 0.000000 0.000000 0.000000
# 4 0.000000 0.000000 0.000000 0.036864 0.000000 0.000000
# 5 0.000000 0.000000 0.000000 0.000000 0.036864 0.000000
# 6 -0.001609 0.001609 0.000000 0.000000 0.000000 0.037072
#
#
# Mechanical properties :
#
#
# Convention : Reuss Voigt Hill
#
# Bulk Modulus (GPa) = 26.02005 50.86593 38.44299
# Shear Modulus (GPa) = 36.72384 -4.82692 15.94846
#
# Velocity S-wave (km/s) = 3.85277 -1.39680 2.53897
# Velocity P-wave (km/s) = 5.50537 4.23777 4.91262
#
# Compressibility (1/GPa) = 0.03843190
#
# Stress axis : x y z
#
# Youngs Moduli (GPa) = 99.22078 99.22083 187.65027
#
# Poissons Ratio (x) = -1.28313 0.60603
# Poissons Ratio (y) = -1.28313 0.60603
# Poissons Ratio (z) = 0.32044 0.32044
#
# Static dielectric constant tensor:
#      x y z
#    x 2.134730 0.000000 0.000000 
#    y 0.000000 2.134730 0.000000 
#    z 0.000000 0.000000 2.111890 
# 
# From -- ./inp_files/2178.got.cif
#   From: 2010.05.17/outbox.cif.g08.bks.cpg/sg79_cif.got.tgz:2178.got - 2010.06.03 18:47:27.
