data_PCOD9541004
_publ_section_title
;
Structure prediction by ZEFSAII (Michael W. Deem and Ramdas Pophale) SiO2 
 PCOD9541004
Probable space group: P 4
;
_chemical_formula_sum "Si O2"
_cell_formula_units_Z 24
_cell_length_a 11.206673
_cell_length_b 11.206673
_cell_length_c 9.240028
_cell_angle_alpha 90.000000
_cell_angle_beta 90.000000
_cell_angle_gamma 90.000000
_cell_volume 1160.450679
_symmetry_space_group_name_H-M "P 4"
_symmetry_group_IT_number 75
_symmetry_cell_setting 'tetragonal'
loop_
_space_group_symop_operation_xyz
x,y,z
-y,x,z
-x,-y,z
y,-x,z
loop_
_atom_site_type_symbol
_atom_site_label
_atom_site_fract_x
_atom_site_fract_y
_atom_site_fract_z
Si Si1 0.005268 0.643867 0.046740
Si Si2 0.050114 0.804285 0.311365
Si Si3 0.809645 0.393543 0.815771
Si Si4 0.111985 0.581913 0.503512
Si Si5 0.511098 0.304086 0.290086
Si Si6 0.244065 0.383733 0.981635
O O1 0.067841 0.722521 0.168579
O O2 0.000000 0.500000 0.082063
O O3 0.869740 0.687952 0.038691
O O4 0.073770 0.657861 0.895638
O O5 0.139761 0.916751 0.316487
O O6 0.070207 0.707116 0.436270
O O7 0.810889 0.385733 0.644673
O O8 0.698231 0.338577 0.902067
O O9 0.807763 0.531560 0.858005
O O10 0.185918 0.504922 0.384600
O O11 0.000000 0.500000 0.547833
O O12 0.621662 0.390969 0.323802
O O13 0.534753 0.282693 0.118788
#
# Coordination Sequence:
#
# PCOD9541004 Si02
#       6
#     4   4   4   4   4   4
#     4  10  21  40  66  99 129 175 232 282 343 408
#     4  11  25  43  68  98 132 176 233 292 346 406
#     4  11  25  40  66  98 134 183 222 280 347 418
#     4  12  27  44  69  98 143 185 229 284 352 435
#     4  11  25  44  69 103 137 179 231 288 348 409
#     4  11  21  42  68  94 135 176 227 289 338 404
#
# _framework density 20.681621
#
# number of rings (size 3 to 8) (size 9 to 14) (size 15 to 20)
#    0.000    1.000    1.667    6.000    7.000    1.667 
#    0.000    0.000    0.000    2.000    0.000    0.000 
#    0.000    0.000    0.000    0.000    0.000    0.000 
#
# Total GULP energy -133943.980584 kJ/mol
# GULP energy per Si atom -5580.999191 kJ/mol
# Density = 2.063455 g / cm^3
# Si number density = 20.681621 Si / 1000 Ang^3
#
#
#
# Elastic Constant Matrix: (Units=GPa)
#
#
# Indices 1 2 3 4 5 6 
#
# 1 64.0118 20.8167 41.3367 0.0000 0.0000 -2.1989
# 2 20.8167 64.0118 41.3367 0.0000 0.0000 2.1989
# 3 41.3367 41.3367 126.3302 0.0000 0.0000 0.0000
# 4 0.0000 0.0000 0.0000 24.5279 0.0000 0.0000
# 5 0.0000 0.0000 0.0000 0.0000 24.5279 0.0000
# 6 -2.1989 2.1989 0.0000 0.0000 0.0000 21.5714
#
#
#
# Elastic Compliance Matrix: (Units=1/GPa)
#
#
# Indices 1 2 3 4 5 6 
#
# 1 0.020351 -0.003043 -0.005663 0.000000 0.000000 0.002385
# 2 -0.003043 0.020351 -0.005663 0.000000 0.000000 -0.002385
# 3 -0.005663 -0.005663 0.011622 0.000000 0.000000 0.000000
# 4 0.000000 0.000000 0.000000 0.040770 0.000000 0.000000
# 5 0.000000 0.000000 0.000000 0.000000 0.040770 0.000000
# 6 0.002385 -0.002385 0.000000 0.000000 0.000000 0.046844
#
#
# Mechanical properties :
#
#
# Convention : Reuss Voigt Hill
#
# Bulk Modulus (GPa) = 42.40075 51.25932 46.83004
# Shear Modulus (GPa) = 23.00884 24.18302 23.59593
#
# Velocity S-wave (km/s) = 3.33907 3.42321 3.38140
# Velocity P-wave (km/s) = 5.95080 6.36108 6.15936
#
# Compressibility (1/GPa) = 0.02358449
#
# Stress axis : x y z
#
# Youngs Moduli (GPa) = 49.13822 49.13822 86.04375
#
# Poissons Ratio (x) = 0.14952 0.48730
# Poissons Ratio (y) = 0.14952 0.48730
# Poissons Ratio (z) = 0.27829 0.27829
#
# Static dielectric constant tensor:
#      x y z
#    x 1.769380 0.000000 0.000000 
#    y 0.000000 1.769380 0.000000 
#    z 0.000000 0.000000 1.738770 
# 
# From -- ./inp_files/353.got.cif
#   From: 2010.05.17/outbox.cif.g08.bks.cpg/sg75_cif.got.tgz:353.got - 2010.06.03 18:42:43.
