data_PCOD9541899
_publ_section_title
;
Structure prediction by ZEFSAII (Michael W. Deem and Ramdas Pophale) SiO2 
 PCOD9541899
Probable space group: I 4
;
_chemical_formula_sum "Si O2"
_cell_formula_units_Z 56
_cell_length_a 14.303061
_cell_length_b 14.303061
_cell_length_c 12.998142
_cell_angle_alpha 90.000000
_cell_angle_beta 90.000000
_cell_angle_gamma 90.000000
_cell_volume 2659.128097
_symmetry_space_group_name_H-M "I 4"
_symmetry_group_IT_number 79
_symmetry_cell_setting 'tetragonal'
loop_
_space_group_symop_operation_xyz
x,y,z
-y,x,z
-x,-y,z
y,-x,z
1/2+x,1/2+y,1/2+z
1/2-y,1/2+x,1/2+z
1/2-x,1/2-y,1/2+z
1/2+y,1/2-x,1/2+z
loop_
_atom_site_type_symbol
_atom_site_label
_atom_site_fract_x
_atom_site_fract_y
_atom_site_fract_z
Si Si1 0.447270 0.242992 0.708540
Si Si2 0.710544 0.368687 0.500629
Si Si3 0.166773 0.438797 0.205275
Si Si4 0.700053 0.678715 0.083932
Si Si5 0.563741 0.226113 0.435755
Si Si6 0.128549 0.650532 0.152621
Si Si7 0.071488 0.139374 0.402876
O O1 0.413120 0.307705 0.614052
O O2 0.406154 0.142076 0.676538
O O3 0.557444 0.219667 0.711143
O O4 0.408658 0.286039 0.813480
O O5 0.783735 0.283492 0.510866
O O6 0.619076 0.323018 0.452181
O O7 0.754660 0.453852 0.440311
O O8 0.260756 0.412233 0.141712
O O9 0.183740 0.419865 0.325033
O O10 0.129020 0.542343 0.184536
O O11 0.685345 0.764740 0.162145
O O12 0.608201 0.670887 0.014329
O O13 0.597923 0.163444 0.532480
O O14 0.961159 0.120726 0.391954
#
# Coordination Sequence:
#
# PCOD9541899 Si02
#       7
#     8   8   8   8   8   8   8
#     4  10  22  40  65  97 131 173 226 285 350 404
#     4   9  21  38  62  92 125 171 219 278 335 405
#     4  11  23  39  70  98 134 185 223 284 353 408
#     4  10  22  42  65  92 132 179 221 280 338 415
#     4  10  22  40  63  96 132 173 225 277 344 411
#     4  10  22  42  63  94 137 170 229 291 335 421
#     4  11  25  41  65  99 133 180 228 280 346 407
#
# _framework density 21.059535
#
# number of rings (size 3 to 8) (size 9 to 14) (size 15 to 20)
#    0.000    1.857    0.000    3.000   10.000    1.429 
#    0.000   10.000    0.000    0.000    0.000    0.000 
#    0.000    0.000    0.000    0.000    0.000    0.000 
#
# Total GULP energy -156225.128154 kJ/mol
# GULP energy per Si atom -5579.468863 kJ/mol
# Density = 2.101160 g / cm^3
# Si number density = 21.059535 Si / 1000 Ang^3
#
#
#
# Elastic Constant Matrix: (Units=GPa)
#
#
# Indices 1 2 3 4 5 6 
#
# 1 79.3965 29.5162 17.8561 0.0000 0.0000 -2.6013
# 2 29.5162 79.3965 17.8561 0.0000 0.0000 2.6013
# 3 17.8561 17.8561 64.5404 0.0000 0.0000 0.0000
# 4 0.0000 0.0000 0.0000 20.5420 0.0000 0.0000
# 5 0.0000 0.0000 0.0000 0.0000 20.5420 0.0000
# 6 -2.6013 2.6013 0.0000 0.0000 0.0000 23.7416
#
#
#
# Elastic Compliance Matrix: (Units=1/GPa)
#
#
# Indices 1 2 3 4 5 6 
#
# 1 0.015189 -0.005091 -0.002794 0.000000 0.000000 0.002222
# 2 -0.005091 0.015189 -0.002794 0.000000 0.000000 -0.002222
# 3 -0.002794 -0.002794 0.017040 0.000000 0.000000 0.000000
# 4 0.000000 0.000000 0.000000 0.048681 0.000000 0.000000
# 5 0.000000 0.000000 0.000000 0.000000 0.048681 0.000000
# 6 0.002222 -0.002222 0.000000 0.000000 0.000000 0.042607
#
#
# Mechanical properties :
#
#
# Convention : Reuss Voigt Hill
#
# Bulk Modulus (GPa) = 38.37200 39.31003 38.84101
# Shear Modulus (GPa) = 22.99591 23.50543 23.25067
#
# Velocity S-wave (km/s) = 3.30805 3.34450 3.32632
# Velocity P-wave (km/s) = 5.73160 5.79835 5.76507
#
# Compressibility (1/GPa) = 0.02606067
#
# Stress axis : x y z
#
# Youngs Moduli (GPa) = 65.83824 65.83824 58.68539
#
# Poissons Ratio (x) = 0.33518 0.16395
# Poissons Ratio (y) = 0.33518 0.16395
# Poissons Ratio (z) = 0.18393 0.18393
#
# Static dielectric constant tensor:
#      x y z
#    x 1.788910 0.000000 0.000000 
#    y 0.000000 1.788910 0.000000 
#    z 0.000000 0.000000 1.775750 
# 
# From -- ./inp_files/1161.got.cif
#   From: 2010.05.17/outbox.cif.g08.bks.cpg/sg79_cif.got.tgz:1161.got - 2010.06.03 18:47:27.
