data_PCOD9541653
_publ_section_title
;
Structure prediction by ZEFSAII (Michael W. Deem and Ramdas Pophale) SiO2 
 PCOD9541653
Probable space group: P 43
;
_chemical_formula_sum "Si O2"
_cell_formula_units_Z 28
_cell_length_a 14.098126
_cell_length_b 14.098126
_cell_length_c 6.016151
_cell_angle_alpha 90.000000
_cell_angle_beta 90.000000
_cell_angle_gamma 90.000000
_cell_volume 1195.753067
_symmetry_space_group_name_H-M "P 43"
_symmetry_group_IT_number 78
_symmetry_cell_setting 'tetragonal'
loop_
_space_group_symop_operation_xyz
x,y,z
-y,x,3/4+z
-x,-y,1/2+z
y,-x,1/4+z
loop_
_atom_site_type_symbol
_atom_site_label
_atom_site_fract_x
_atom_site_fract_y
_atom_site_fract_z
Si Si1 0.812574 0.810317 0.389830
Si Si2 0.945026 0.686252 0.598714
Si Si3 0.500219 0.172400 0.824618
Si Si4 0.463578 0.627997 0.178090
Si Si5 0.117219 0.931913 0.502040
Si Si6 0.668928 0.859222 0.029062
Si Si7 0.723581 0.366532 0.908416
O O1 0.898177 0.734341 0.381245
O O2 0.859912 0.892502 0.540711
O O3 0.764058 0.846674 0.169312
O O4 0.727843 0.756201 0.522835
O O5 0.892591 0.588040 0.636832
O O6 0.924613 0.768858 0.783317
O O7 0.057226 0.674077 0.599722
O O8 0.416316 0.117921 0.697633
O O9 0.530635 0.258800 0.661068
O O10 0.452970 0.222849 0.037174
O O11 0.415423 0.565595 0.987131
O O12 0.387915 0.616695 0.380971
O O13 0.038897 0.904402 0.677883
O O14 0.648671 0.761539 0.903562
#
# Coordination Sequence:
#
# PCOD9541653 Si02
#       7
#     4   4   4   4   4   4   4
#     4   9  22  45  63  96 136 166 217 287 331 397
#     4  10  23  43  64  99 132 178 223 277 343 409
#     4  10  23  44  63  94 142 174 218 289 328 405
#     4  10  21  38  63  94 132 168 219 281 335 394
#     4  10  22  38  64  93 132 166 218 279 333 401
#     4  11  24  42  73  94 129 184 225 274 350 409
#     4  10  21  44  64  96 133 172 226 281 332 413
#
# _framework density 23.416205000000001
#
# number of rings (size 3 to 8) (size 9 to 14) (size 15 to 20)
#    0.857    1.143    1.429    0.857    6.000    0.000 
#    7.714    0.000    0.000    0.000    0.000    0.000 
#    0.000    0.000    0.000    0.000    0.000    0.000 
#
# Total GULP energy -156277.239693 kJ/mol
# GULP energy per Si atom -5581.329989 kJ/mol
# Density = 2.336291 g / cm^3
# Si number density = 23.416205 Si / 1000 Ang^3
#
#
#
# Elastic Constant Matrix: (Units=GPa)
#
#
# Indices 1 2 3 4 5 6 
#
# 1 105.3698 26.0325 25.9497 0.0000 0.0000 -8.2021
# 2 26.0325 105.3698 25.9497 0.0000 0.0000 8.2021
# 3 25.9497 25.9497 38.9498 0.0000 0.0000 0.0000
# 4 0.0000 0.0000 0.0000 20.6626 0.0000 0.0000
# 5 0.0000 0.0000 0.0000 0.0000 20.6626 0.0000
# 6 -8.2021 8.2021 0.0000 0.0000 0.0000 34.6653
#
#
#
# Elastic Compliance Matrix: (Units=1/GPa)
#
#
# Indices 1 2 3 4 5 6 
#
# 1 0.011790 -0.001462 -0.006881 0.000000 0.000000 0.003136
# 2 -0.001462 0.011790 -0.006881 0.000000 0.000000 -0.003136
# 3 -0.006881 -0.006881 0.034843 0.000000 0.000000 0.000000
# 4 0.000000 0.000000 0.000000 0.048397 0.000000 0.000000
# 5 0.000000 0.000000 0.000000 0.000000 0.048397 0.000000
# 6 0.003136 -0.003136 0.000000 0.000000 0.000000 0.030331
#
#
# Mechanical properties :
#
#
# Convention : Reuss Voigt Hill
#
# Bulk Modulus (GPa) = 35.74604 45.06147 40.40375
# Shear Modulus (GPa) = 22.19060 26.64861 24.41960
#
# Velocity S-wave (km/s) = 3.08175 3.37715 3.23282
# Velocity P-wave (km/s) = 5.28787 5.87302 5.58811
#
# Compressibility (1/GPa) = 0.02797513
#
# Stress axis : x y z
#
# Youngs Moduli (GPa) = 84.81519 84.81519 28.70052
#
# Poissons Ratio (x) = 0.12404 0.19748
# Poissons Ratio (y) = 0.12404 0.19748
# Poissons Ratio (z) = 0.58360 0.58360
#
# Static dielectric constant tensor:
#      x y z
#    x 1.892660 0.000000 0.000000 
#    y 0.000000 1.892660 0.000000 
#    z 0.000000 0.000000 1.909520 
# 
# From -- ./inp_files/262.got.cif
#   From: 2010.05.17/outbox.cif.g08.bks.cpg/sg78_cif.got.tgz:262.got - 2010.06.03 18:45:56.
