data_PCOD9541213
_publ_section_title
;
Structure prediction by ZEFSAII (Michael W. Deem and Ramdas Pophale) SiO2 
 PCOD9541213
Probable space group: P 41
;
_chemical_formula_sum "Si O2"
_cell_formula_units_Z 28
_cell_length_a 11.307668
_cell_length_b 11.307668
_cell_length_c 8.464013
_cell_angle_alpha 90.000000
_cell_angle_beta 90.000000
_cell_angle_gamma 90.000000
_cell_volume 1082.237104
_symmetry_space_group_name_H-M "P 41"
_symmetry_group_IT_number 76
_symmetry_cell_setting 'tetragonal'
loop_
_space_group_symop_operation_xyz
x,y,z
-y,x,1/4+z
-x,-y,1/2+z
y,-x,3/4+z
loop_
_atom_site_type_symbol
_atom_site_label
_atom_site_fract_x
_atom_site_fract_y
_atom_site_fract_z
Si Si1 0.395402 0.993014 0.588130
Si Si2 0.242276 0.462933 0.006216
Si Si3 0.274528 0.106578 0.894289
Si Si4 0.969975 0.855012 0.228031
Si Si5 0.592771 0.681861 0.319196
Si Si6 0.326259 0.320645 0.481940
Si Si7 0.647912 0.113510 0.534684
O O1 0.445072 0.863939 0.631525
O O2 0.286074 0.000098 0.464508
O O3 0.337191 0.038446 0.749443
O O4 0.512732 0.067471 0.550843
O O5 0.356905 0.433555 0.902575
O O6 0.268269 0.580741 0.107397
O O7 0.205067 0.365262 0.138572
O O8 0.144650 0.146881 0.845409
O O9 0.363638 0.213000 0.932956
O O10 0.271897 0.001749 0.020180
O O11 0.072199 0.926044 0.324497
O O12 0.461251 0.660803 0.260632
O O13 0.658123 0.723545 0.158999
O O14 0.193838 0.306116 0.424762
#
# Coordination Sequence:
#
# PCOD9541213 Si02
#       7
#     4   4   4   4   4   4   4
#     4  10  21  45  75 101 148 194 247 305 386 446
#     4  11  26  45  74 108 152 201 247 325 384 462
#     4  10  22  46  71 102 149 193 244 310 377 454
#     4  10  22  46  73 108 144 191 251 312 378 455
#     4  12  27  45  76 106 156 205 249 320 394 454
#     4  12  27  46  70 116 155 194 271 305 390 475
#     4  11  25  47  73 111 146 198 261 313 377 476
#
# _framework density 25.872336000000001
#
# number of rings (size 3 to 8) (size 9 to 14) (size 15 to 20)
#    0.000    1.143    4.286    0.000    6.000    0.000 
#    7.714    0.000    0.000    0.000    0.000    0.000 
#    0.000    0.000    0.000    0.000    0.000    0.000 
#
# Total GULP energy -156655.703424 kJ/mol
# GULP energy per Si atom -5594.846551 kJ/mol
# Density = 2.581345 g / cm^3
# Si number density = 25.872336 Si / 1000 Ang^3
#
#
#
# Elastic Constant Matrix: (Units=GPa)
#
#
# Indices 1 2 3 4 5 6 
#
# 1 172.0259 -22.5103 28.2270 0.0000 0.0000 65.6957
# 2 -22.5103 172.0259 28.2270 0.0000 0.0000 -65.6957
# 3 28.2270 28.2270 59.1805 0.0000 0.0000 0.0000
# 4 0.0000 0.0000 0.0000 36.6548 0.0000 0.0000
# 5 0.0000 0.0000 0.0000 0.0000 36.6548 0.0000
# 6 65.6957 -65.6957 0.0000 0.0000 0.0000 105.6524
#
#
#
# Elastic Compliance Matrix: (Units=1/GPa)
#
#
# Indices 1 2 3 4 5 6 
#
# 1 0.008510 -0.000353 -0.003891 0.000000 0.000000 -0.005511
# 2 -0.000353 0.008510 -0.003891 0.000000 0.000000 0.005511
# 3 -0.003891 -0.003891 0.020609 0.000000 0.000000 0.000000
# 4 0.000000 0.000000 0.000000 0.027282 0.000000 0.000000
# 5 0.000000 0.000000 0.000000 0.000000 0.027282 0.000000
# 6 -0.005511 0.005511 0.000000 0.000000 0.000000 0.016318
#
#
# Mechanical properties :
#
#
# Convention : Reuss Voigt Hill
#
# Bulk Modulus (GPa) = 46.81516 52.34661 49.58089
# Shear Modulus (GPa) = 37.90799 60.41167 49.15983
#
# Velocity S-wave (km/s) = 3.83194 4.83742 4.36373
# Velocity P-wave (km/s) = 6.14103 7.17477 6.67794
#
# Compressibility (1/GPa) = 0.02136060
#
# Stress axis : x y z
#
# Youngs Moduli (GPa) = 117.51044 117.51044 48.52263
#
# Poissons Ratio (x) = 0.04143 0.18879
# Poissons Ratio (y) = 0.04143 0.18879
# Poissons Ratio (z) = 0.45720 0.45720
#
# Static dielectric constant tensor:
#      x y z
#    x 2.111730 0.000000 0.000000 
#    y 0.000000 2.111730 0.000000 
#    z 0.000000 0.000000 2.077810 
# 
# From -- ./inp_files/603.got.cif
#   From: 2010.05.17/outbox.cif.g08.bks.cpg/sg76_cif.got.tgz:603.got - 2010.06.03 18:43:17.
