data_PCOD9541231
_publ_section_title
;
Structure prediction by ZEFSAII (Michael W. Deem and Ramdas Pophale) SiO2 
 PCOD9541231
Probable space group: P 41
;
_chemical_formula_sum "Si O2"
_cell_formula_units_Z 16
_cell_length_a 12.227287
_cell_length_b 12.227287
_cell_length_c 5.114352
_cell_angle_alpha 90.000000
_cell_angle_beta 90.000000
_cell_angle_gamma 90.000000
_cell_volume 764.629110
_symmetry_space_group_name_H-M "P 41"
_symmetry_group_IT_number 76
_symmetry_cell_setting 'tetragonal'
loop_
_space_group_symop_operation_xyz
x,y,z
-y,x,1/4+z
-x,-y,1/2+z
y,-x,3/4+z
loop_
_atom_site_type_symbol
_atom_site_label
_atom_site_fract_x
_atom_site_fract_y
_atom_site_fract_z
Si Si1 0.157095 0.994537 0.695050
Si Si2 0.609538 0.890701 0.559967
Si Si3 0.642649 0.099647 0.914980
Si Si4 0.190387 0.729725 0.281482
O O1 0.175322 0.097435 0.490345
O O2 0.101822 0.068904 0.914755
O O3 0.273229 0.935891 0.646062
O O4 0.480249 0.892361 0.514785
O O5 0.668730 0.851503 0.294536
O O6 0.647399 0.811271 0.791970
O O7 0.642123 0.008522 0.685012
O O8 0.694694 0.211461 0.814204
#
# Coordination Sequence:
#
# PCOD9541231 Si02
#       4
#     4   4   4   4
#     4   9  19  32  50  83 123 159 191 233 294 366
#     4  11  23  41  63  93 122 161 210 254 305 371
#     4  10  22  40  64  91 125 163 207 257 306 365
#     4  10  24  39  61  91 126 163 202 254 311 364
#
# _framework density 20.925179
#
# number of rings (size 3 to 8) (size 9 to 14) (size 15 to 20)
#    0.000    2.000    0.000    3.000    0.000   22.000 
#    0.000    0.000    0.000    3.000    0.000    0.000 
#    0.000    0.000    0.000    0.000    0.000    0.000 
#
# Total GULP energy -89094.777827 kJ/mol
# GULP energy per Si atom -5568.423614 kJ/mol
# Density = 2.087755 g / cm^3
# Si number density = 20.925179 Si / 1000 Ang^3
#
#
#
# Elastic Constant Matrix: (Units=GPa)
#
#
# Indices 1 2 3 4 5 6 
#
# 1 125.7360 66.6609 70.0902 0.0000 0.0000 4.7904
# 2 66.6609 125.7360 70.0902 0.0000 0.0000 -4.7904
# 3 70.0902 70.0902 145.8996 0.0000 0.0000 0.0000
# 4 0.0000 0.0000 0.0000 23.1184 0.0000 0.0000
# 5 0.0000 0.0000 0.0000 0.0000 23.1184 0.0000
# 6 4.7904 -4.7904 0.0000 0.0000 0.0000 18.2997
#
#
#
# Elastic Compliance Matrix: (Units=1/GPa)
#
#
# Indices 1 2 3 4 5 6 
#
# 1 0.012837 -0.004841 -0.003842 0.000000 0.000000 -0.004628
# 2 -0.004841 0.012837 -0.003842 0.000000 0.000000 0.004628
# 3 -0.003842 -0.003842 0.010545 0.000000 0.000000 0.000000
# 4 0.000000 0.000000 0.000000 0.043256 0.000000 0.000000
# 5 0.000000 0.000000 0.000000 0.000000 0.043256 0.000000
# 6 -0.004628 0.004628 0.000000 0.000000 0.000000 0.057069
#
#
# Mechanical properties :
#
#
# Convention : Reuss Voigt Hill
#
# Bulk Modulus (GPa) = 89.51029 90.11712 89.81370
# Shear Modulus (GPa) = 23.97263 25.60931 24.79097
#
# Velocity S-wave (km/s) = 3.38840 3.50215 3.44574
# Velocity P-wave (km/s) = 7.62742 7.71449 7.67108
#
# Compressibility (1/GPa) = 0.01117190
#
# Stress axis : x y z
#
# Youngs Moduli (GPa) = 77.89788 77.89788 94.83194
#
# Poissons Ratio (x) = 0.37709 0.36430
# Poissons Ratio (y) = 0.37709 0.36430
# Poissons Ratio (z) = 0.29925 0.29925
#
# Static dielectric constant tensor:
#      x y z
#    x 1.789150 0.000000 0.000000 
#    y 0.000000 1.789150 0.000000 
#    z 0.000000 0.000000 1.869560 
# 
# From -- ./inp_files/62.got.cif
#   From: 2010.05.17/outbox.cif.g08.bks.cpg/sg76_cif.got.tgz:62.got - 2010.06.03 18:43:17.
