data_PCOD9541399
_publ_section_title
;
Structure prediction by ZEFSAII (Michael W. Deem and Ramdas Pophale) SiO2 
 PCOD9541399
Probable space group: P 41
;
_chemical_formula_sum "Si O2"
_cell_formula_units_Z 28
_cell_length_a 11.750688
_cell_length_b 11.750688
_cell_length_c 9.004183
_cell_angle_alpha 90.000000
_cell_angle_beta 90.000000
_cell_angle_gamma 90.000000
_cell_volume 1243.285599
_symmetry_space_group_name_H-M "P 41"
_symmetry_group_IT_number 76
_symmetry_cell_setting 'tetragonal'
loop_
_space_group_symop_operation_xyz
x,y,z
-y,x,1/4+z
-x,-y,1/2+z
y,-x,3/4+z
loop_
_atom_site_type_symbol
_atom_site_label
_atom_site_fract_x
_atom_site_fract_y
_atom_site_fract_z
Si Si1 0.640034 0.044818 0.543540
Si Si2 0.321461 0.705485 0.160229
Si Si3 0.866797 0.956899 0.384014
Si Si4 0.544995 0.686410 0.350008
Si Si5 0.294777 0.151873 0.662996
Si Si6 0.456605 0.953737 0.737982
Si Si7 0.507665 0.715177 0.670622
O O1 0.642857 0.177769 0.581760
O O2 0.553421 0.019565 0.410435
O O3 0.761652 0.007986 0.479215
O O4 0.583521 0.980402 0.681766
O O5 0.421645 0.673869 0.276380
O O6 0.206499 0.729616 0.253483
O O7 0.306314 0.605725 0.040087
O O8 0.811146 0.861444 0.275537
O O9 0.955549 0.916493 0.510137
O O10 0.618248 0.760807 0.238418
O O11 0.549153 0.750205 0.507414
O O12 0.604699 0.567218 0.386614
O O13 0.362431 0.032374 0.658494
O O14 0.431310 0.820393 0.722889
#
# Coordination Sequence:
#
# PCOD9541399 Si02
#       7
#     4   4   4   4   4   4   4
#     4  11  26  48  78 106 153 191 265 317 395 470
#     4  12  28  48  73 117 149 209 261 320 405 476
#     4  11  29  53  77 113 153 202 270 339 412 475
#     4  12  27  45  69 110 155 201 250 315 392 475
#     4  11  26  49  75 107 155 198 258 324 389 476
#     4  11  24  49  73 107 144 206 255 314 382 479
#     4  12  28  42  75 102 157 201 255 317 389 467
#
# _framework density 22.520970999999999
#
# number of rings (size 3 to 8) (size 9 to 14) (size 15 to 20)
#    0.000    0.571    2.857    3.429   14.000    0.000 
#    2.571    0.000    0.000    0.000    0.000    0.000 
#    0.000    0.000    0.000    0.000    0.000    0.000 
#
# Total GULP energy -156567.788013 kJ/mol
# GULP energy per Si atom -5591.706715 kJ/mol
# Density = 2.246971 g / cm^3
# Si number density = 22.520971 Si / 1000 Ang^3
#
#
#
# Elastic Constant Matrix: (Units=GPa)
#
#
# Indices 1 2 3 4 5 6 
#
# 1 84.5395 44.2674 55.3619 0.0000 0.0000 4.7759
# 2 44.2674 84.5395 55.3619 0.0000 0.0000 -4.7759
# 3 55.3619 55.3619 120.2399 0.0000 0.0000 0.0000
# 4 0.0000 0.0000 0.0000 40.6340 0.0000 0.0000
# 5 0.0000 0.0000 0.0000 0.0000 40.6340 0.0000
# 6 4.7759 -4.7759 0.0000 0.0000 0.0000 29.2469
#
#
#
# Elastic Compliance Matrix: (Units=1/GPa)
#
#
# Indices 1 2 3 4 5 6 
#
# 1 0.019340 -0.006491 -0.005916 0.000000 0.000000 -0.004218
# 2 -0.006491 0.019340 -0.005916 0.000000 0.000000 0.004218
# 3 -0.005916 -0.005916 0.013765 0.000000 0.000000 0.000000
# 4 0.000000 0.000000 0.000000 0.024610 0.000000 0.000000
# 5 0.000000 0.000000 0.000000 0.000000 0.024610 0.000000
# 6 -0.004218 0.004218 0.000000 0.000000 0.000000 0.035569
#
#
# Mechanical properties :
#
#
# Convention : Reuss Voigt Hill
#
# Bulk Modulus (GPa) = 63.29755 66.58904 64.94329
# Shear Modulus (GPa) = 27.90999 31.05816 29.48407
#
# Velocity S-wave (km/s) = 3.52417 3.71762 3.62219
# Velocity P-wave (km/s) = 6.68781 6.93249 6.81125
#
# Compressibility (1/GPa) = 0.01579840
#
# Stress axis : x y z
#
# Youngs Moduli (GPa) = 51.70547 51.70547 72.65028
#
# Poissons Ratio (x) = 0.33563 0.42980
# Poissons Ratio (y) = 0.33563 0.42980
# Poissons Ratio (z) = 0.30589 0.30589
#
# Static dielectric constant tensor:
#      x y z
#    x 1.871180 0.000000 0.000000 
#    y 0.000000 1.871180 0.000000 
#    z 0.000000 0.000000 2.000630 
# 
# From -- ./inp_files/612.got.cif
#   From: 2010.05.17/outbox.cif.g08.bks.cpg/sg76_cif.got.tgz:612.got - 2010.06.03 18:43:17.
