data_PCOD9541784
_publ_section_title
;
Structure prediction by ZEFSAII (Michael W. Deem and Ramdas Pophale) SiO2 
 PCOD9541784
Probable space group: P 43
;
_chemical_formula_sum "Si O2"
_cell_formula_units_Z 20
_cell_length_a 8.206143
_cell_length_b 8.206143
_cell_length_c 11.364877
_cell_angle_alpha 90.000000
_cell_angle_beta 90.000000
_cell_angle_gamma 90.000000
_cell_volume 765.319715
_symmetry_space_group_name_H-M "P 43"
_symmetry_group_IT_number 78
_symmetry_cell_setting 'tetragonal'
loop_
_space_group_symop_operation_xyz
x,y,z
-y,x,3/4+z
-x,-y,1/2+z
y,-x,1/4+z
loop_
_atom_site_type_symbol
_atom_site_label
_atom_site_fract_x
_atom_site_fract_y
_atom_site_fract_z
Si Si1 0.229693 0.607909 0.261040
Si Si2 0.092333 0.402423 0.609040
Si Si3 0.035277 0.069848 0.533205
Si Si4 0.771141 0.255295 0.015501
Si Si5 0.430538 0.411425 0.670818
O O1 0.202577 0.708554 0.377719
O O2 0.259617 0.419450 0.295577
O O3 0.398683 0.673080 0.205015
O O4 0.078552 0.595157 0.174845
O O5 0.138399 0.590372 0.577097
O O6 0.250468 0.340077 0.682039
O O7 0.077291 0.259726 0.512267
O O8 0.168867 0.927736 0.531948
O O9 0.000303 0.072868 0.674828
O O10 0.453848 0.426656 0.527826
#
# Coordination Sequence:
#
# PCOD9541784 Si02
#       5
#     4   4   4   4   4
#     4  12  25  48  83 114 158 222 268 335 426 483
#     4  12  29  47  81 114 158 215 266 336 420 479
#     4  12  29  52  78 118 164 206 273 340 407 501
#     4  12  25  50  79 118 163 210 275 339 412 500
#     4  12  26  51  81 118 161 209 280 338 399 511
#
# _framework density 26.132868999999999
#
# number of rings (size 3 to 8) (size 9 to 14) (size 15 to 20)
#    0.000    0.000    4.000    3.600    8.400    1.600 
#    3.600    0.000    0.000    0.000    0.000    0.000 
#    0.000    0.000    0.000    0.000    0.000    0.000 
#
# Total GULP energy -111413.570253 kJ/mol
# GULP energy per Si atom -5570.678513 kJ/mol
# Density = 2.607339 g / cm^3
# Si number density = 26.132869 Si / 1000 Ang^3
#
#
#
# Elastic Constant Matrix: (Units=GPa)
#
#
# Indices 1 2 3 4 5 6 
#
# 1 142.1164 -15.7708 28.1018 0.0000 0.0000 -19.4181
# 2 -15.7708 142.1164 28.1018 0.0000 0.0000 19.4181
# 3 28.1018 28.1018 116.7176 0.0000 0.0000 0.0000
# 4 0.0000 0.0000 0.0000 39.3451 0.0000 0.0000
# 5 0.0000 0.0000 0.0000 0.0000 39.3451 0.0000
# 6 -19.4181 19.4181 0.0000 0.0000 0.0000 14.3152
#
#
#
# Elastic Compliance Matrix: (Units=1/GPa)
#
#
# Indices 1 2 3 4 5 6 
#
# 1 0.009185 -0.000320 -0.002134 0.000000 0.000000 0.012893
# 2 -0.000320 0.009185 -0.002134 0.000000 0.000000 -0.012893
# 3 -0.002134 -0.002134 0.009595 0.000000 0.000000 0.000000
# 4 0.000000 0.000000 0.000000 0.025416 0.000000 0.000000
# 5 0.000000 0.000000 0.000000 0.000000 0.025416 0.000000
# 6 0.012893 -0.012893 0.000000 0.000000 0.000000 0.104835
#
#
# Mechanical properties :
#
#
# Convention : Reuss Voigt Hill
#
# Bulk Modulus (GPa) = 53.22853 53.53511 53.38182
# Shear Modulus (GPa) = 25.11659 42.63558 33.87608
#
# Velocity S-wave (km/s) = 3.10354 4.04356 3.60432
# Velocity P-wave (km/s) = 5.76674 6.50620 6.14760
#
# Compressibility (1/GPa) = 0.01878692
#
# Stress axis : x y z
#
# Youngs Moduli (GPa) = 108.87754 108.87754 104.21681
#
# Poissons Ratio (x) = 0.03489 0.22242
# Poissons Ratio (y) = 0.03489 0.22242
# Poissons Ratio (z) = 0.23237 0.23237
#
# Static dielectric constant tensor:
#      x y z
#    x 2.223800 0.000000 0.000000 
#    y 0.000000 2.223800 0.000000 
#    z 0.000000 0.000000 2.188340 
# 
# From -- ./inp_files/840.got.cif
#   From: 2010.05.17/outbox.cif.g08.bks.cpg/sg78_cif.got.tgz:840.got - 2010.06.03 18:45:56.
