data_PCOD9541739
_publ_section_title
;
Structure prediction by ZEFSAII (Michael W. Deem and Ramdas Pophale) SiO2 
 PCOD9541739
Probable space group: P 43
;
_chemical_formula_sum "Si O2"
_cell_formula_units_Z 28
_cell_length_a 11.427822
_cell_length_b 11.427822
_cell_length_c 9.542602
_cell_angle_alpha 90.000000
_cell_angle_beta 90.000000
_cell_angle_gamma 90.000000
_cell_volume 1246.217212
_symmetry_space_group_name_H-M "P 43"
_symmetry_group_IT_number 78
_symmetry_cell_setting 'tetragonal'
loop_
_space_group_symop_operation_xyz
x,y,z
-y,x,3/4+z
-x,-y,1/2+z
y,-x,1/4+z
loop_
_atom_site_type_symbol
_atom_site_label
_atom_site_fract_x
_atom_site_fract_y
_atom_site_fract_z
Si Si1 0.667516 0.146644 0.424340
Si Si2 0.081430 0.276823 0.161863
Si Si3 0.560525 0.402736 0.771138
Si Si4 0.217239 0.190978 0.426977
Si Si5 0.077919 0.547097 0.052639
Si Si6 0.243196 0.226625 0.941950
Si Si7 0.762386 0.455649 0.298280
O O1 0.779630 0.161915 0.327243
O O2 0.721959 0.150144 0.579787
O O3 0.569502 0.245457 0.451868
O O4 0.587344 0.050020 0.349666
O O5 0.137112 0.255186 0.313799
O O6 0.095616 0.414181 0.112509
O O7 0.945821 0.240529 0.153378
O O8 0.158495 0.188167 0.065913
O O9 0.579193 0.517358 0.677645
O O10 0.674750 0.323585 0.763900
O O11 0.470306 0.327350 0.676182
O O12 0.344446 0.248916 0.450331
O O13 0.149029 0.657546 0.118795
O O14 0.114511 0.546243 0.887692
#
# Coordination Sequence:
#
# PCOD9541739 Si02
#       7
#     4   4   4   4   4   4   4
#     4  11  24  42  79 102 147 196 241 311 379 431
#     4  12  28  48  75 108 160 189 264 305 375 459
#     4  11  21  38  64  98 145 181 230 307 380 446
#     4  12  27  49  69 117 148 198 250 318 361 461
#     4  12  23  46  80 104 144 202 252 309 378 457
#     4  11  24  45  70 109 141 197 245 308 373 458
#     4  11  21  44  71 104 141 183 258 298 372 456
#
# _framework density 22.467991000000001
#
# number of rings (size 3 to 8) (size 9 to 14) (size 15 to 20)
#    0.000    0.571    7.143    1.714    2.000    3.429 
#    2.571    0.000    0.000    0.000    0.000    0.000 
#    0.000    0.000    0.000    0.000    0.000    0.000 
#
# Total GULP energy -155966.762005 kJ/mol
# GULP energy per Si atom -5570.241500 kJ/mol
# Density = 2.241685 g / cm^3
# Si number density = 22.467991 Si / 1000 Ang^3
#
#
#
# Elastic Constant Matrix: (Units=GPa)
#
#
# Indices 1 2 3 4 5 6 
#
# 1 57.8521 -13.2453 -1.7799 0.0000 0.0000 38.4839
# 2 -13.2453 57.8521 -1.7799 0.0000 0.0000 -38.4839
# 3 -1.7799 -1.7799 45.9481 0.0000 0.0000 0.0000
# 4 0.0000 0.0000 0.0000 27.4266 0.0000 0.0000
# 5 0.0000 0.0000 0.0000 0.0000 27.4266 0.0000
# 6 38.4839 -38.4839 0.0000 0.0000 0.0000 99.2114
#
#
#
# Elastic Compliance Matrix: (Units=1/GPa)
#
#
# Indices 1 2 3 4 5 6 
#
# 1 0.023367 -0.000880 0.000871 0.000000 0.000000 -0.009405
# 2 -0.000880 0.023367 0.000871 0.000000 0.000000 0.009405
# 3 0.000871 0.000871 0.021831 0.000000 0.000000 0.000000
# 4 0.000000 0.000000 0.000000 0.036461 0.000000 0.000000
# 5 0.000000 0.000000 0.000000 0.000000 0.036461 0.000000
# 6 -0.009405 0.009405 0.000000 0.000000 0.000000 0.017376
#
#
# Mechanical properties :
#
#
# Convention : Reuss Voigt Hill
#
# Bulk Modulus (GPa) = 14.22657 14.22687 14.22672
# Shear Modulus (GPa) = 27.69017 42.71009 35.20013
#
# Velocity S-wave (km/s) = 3.51440 4.36470 3.96242
# Velocity P-wave (km/s) = 4.77637 5.63441 5.22304
#
# Compressibility (1/GPa) = 0.07029099
#
# Stress axis : x y z
#
# Youngs Moduli (GPa) = 42.79465 42.79465 45.80600
#
# Poissons Ratio (x) = 0.03765 -0.03990
# Poissons Ratio (y) = 0.03765 -0.03990
# Poissons Ratio (z) = -0.03728 -0.03728
#
# Static dielectric constant tensor:
#      x y z
#    x 1.911030 0.000000 0.000000 
#    y 0.000000 1.911030 0.000000 
#    z 0.000000 0.000000 1.832600 
# 
# From -- ./inp_files/646.got.cif
#   From: 2010.05.17/outbox.cif.g08.bks.cpg/sg78_cif.got.tgz:646.got - 2010.06.03 18:45:56.
