data_PCOD9541321
_publ_section_title
;
Structure prediction by ZEFSAII (Michael W. Deem and Ramdas Pophale) SiO2 
 PCOD9541321
Probable space group: P 41
;
_chemical_formula_sum "Si O2"
_cell_formula_units_Z 28
_cell_length_a 11.873619
_cell_length_b 11.873619
_cell_length_c 7.392689
_cell_angle_alpha 90.000000
_cell_angle_beta 90.000000
_cell_angle_gamma 90.000000
_cell_volume 1042.242203
_symmetry_space_group_name_H-M "P 41"
_symmetry_group_IT_number 76
_symmetry_cell_setting 'tetragonal'
loop_
_space_group_symop_operation_xyz
x,y,z
-y,x,1/4+z
-x,-y,1/2+z
y,-x,3/4+z
loop_
_atom_site_type_symbol
_atom_site_label
_atom_site_fract_x
_atom_site_fract_y
_atom_site_fract_z
Si Si1 0.090954 0.693939 0.248250
Si Si2 0.245323 0.856810 0.406033
Si Si3 0.841722 0.547415 0.681328
Si Si4 0.124747 0.084404 0.998111
Si Si5 0.604254 0.583446 0.792207
Si Si6 0.546174 0.249346 0.049725
Si Si7 0.633441 0.918000 0.422101
O O1 0.161192 0.809946 0.253996
O O2 0.164442 0.587666 0.186930
O O3 0.069628 0.670536 0.463114
O O4 0.975807 0.692835 0.134091
O O5 0.169370 0.890846 0.579796
O O6 0.333925 0.756620 0.449330
O O7 0.736645 0.606509 0.778667
O O8 0.826921 0.577608 0.472880
O O9 0.965556 0.580777 0.740338
O O10 0.255674 0.104466 0.040314
O O11 0.106290 0.961664 0.908759
O O12 0.546545 0.595558 0.983246
O O13 0.523932 0.649447 0.646292
O O14 0.455057 0.182565 0.932469
#
# Coordination Sequence:
#
# PCOD9541321 Si02
#       7
#     4   4   4   4   4   4   4
#     4  11  24  41  74  96 141 179 235 274 348 412
#     4  11  21  43  69 100 130 186 221 287 333 419
#     4  11  22  46  61 103 133 174 224 290 326 412
#     4  11  23  43  65  97 133 177 224 278 342 407
#     4  10  26  42  64  91 137 170 223 274 336 402
#     4  11  24  42  68  96 135 173 225 280 346 399
#     4  11  22  41  73  95 129 181 226 271 345 413
#
# _framework density 26.865155999999999
#
# number of rings (size 3 to 8) (size 9 to 14) (size 15 to 20)
#    0.000    1.143    5.714    0.000   12.000    0.000 
#    5.143    0.000    0.000    0.000    0.000    0.000 
#    0.000    0.000    0.000    0.000    0.000    0.000 
#
# Total GULP energy -156767.494444 kJ/mol
# GULP energy per Si atom -5598.839087 kJ/mol
# Density = 2.680401 g / cm^3
# Si number density = 26.865156 Si / 1000 Ang^3
#
#
#
# Elastic Constant Matrix: (Units=GPa)
#
#
# Indices 1 2 3 4 5 6 
#
# 1 98.7398 1.0707 4.7906 0.0000 0.0000 -9.3094
# 2 1.0707 98.7398 4.7906 0.0000 0.0000 9.3094
# 3 4.7906 4.7906 66.0858 0.0000 0.0000 0.0000
# 4 0.0000 0.0000 0.0000 25.0013 0.0000 0.0000
# 5 0.0000 0.0000 0.0000 0.0000 25.0013 0.0000
# 6 -9.3094 9.3094 0.0000 0.0000 0.0000 50.5362
#
#
#
# Elastic Compliance Matrix: (Units=1/GPa)
#
#
# Indices 1 2 3 4 5 6 
#
# 1 0.010350 -0.000261 -0.000731 0.000000 0.000000 0.001955
# 2 -0.000261 0.010350 -0.000731 0.000000 0.000000 -0.001955
# 3 -0.000731 -0.000731 0.015238 0.000000 0.000000 0.000000
# 4 0.000000 0.000000 0.000000 0.039998 0.000000 0.000000
# 5 0.000000 0.000000 0.000000 0.000000 0.039998 0.000000
# 6 0.001955 -0.001955 0.000000 0.000000 0.000000 0.020508
#
#
# Mechanical properties :
#
#
# Convention : Reuss Voigt Hill
#
# Bulk Modulus (GPa) = 30.77796 31.65214 31.21505
# Shear Modulus (GPa) = 33.17409 36.96865 35.07137
#
# Velocity S-wave (km/s) = 3.51784 3.71358 3.61703
# Velocity P-wave (km/s) = 5.28976 5.49500 5.39336
#
# Compressibility (1/GPa) = 0.03249078
#
# Stress axis : x y z
#
# Youngs Moduli (GPa) = 96.61614 96.61614 65.62594
#
# Poissons Ratio (x) = 0.02522 0.04800
# Poissons Ratio (y) = 0.02522 0.04800
# Poissons Ratio (z) = 0.07066 0.07066
#
# Static dielectric constant tensor:
#      x y z
#    x 2.128210 0.000000 0.000000 
#    y 0.000000 2.128210 0.000000 
#    z 0.000000 0.000000 2.096970 
# 
# From -- ./inp_files/616.got.cif
#   From: 2010.05.17/outbox.cif.g08.bks.cpg/sg76_cif.got.tgz:616.got - 2010.06.03 18:43:17.
