data_PCOD9541916
_publ_section_title
;
Structure prediction by ZEFSAII (Michael W. Deem and Ramdas Pophale) SiO2 
 PCOD9541916
Probable space group: I 4
;
_chemical_formula_sum "Si O2"
_cell_formula_units_Z 52
_cell_length_a 17.575011
_cell_length_b 17.575011
_cell_length_c 8.198596
_cell_angle_alpha 90.000000
_cell_angle_beta 90.000000
_cell_angle_gamma 90.000000
_cell_volume 2532.390627
_symmetry_space_group_name_H-M "I 4"
_symmetry_group_IT_number 79
_symmetry_cell_setting 'tetragonal'
loop_
_space_group_symop_operation_xyz
x,y,z
-y,x,z
-x,-y,z
y,-x,z
1/2+x,1/2+y,1/2+z
1/2-y,1/2+x,1/2+z
1/2-x,1/2-y,1/2+z
1/2+y,1/2-x,1/2+z
loop_
_atom_site_type_symbol
_atom_site_label
_atom_site_fract_x
_atom_site_fract_y
_atom_site_fract_z
Si Si1 0.405533 0.420289 0.420000
Si Si2 0.132784 0.503716 0.463234
Si Si3 0.325738 0.822546 0.016361
Si Si4 0.240372 0.382995 0.336527
Si Si5 0.000000 0.500000 0.712183
Si Si6 0.078498 0.094083 0.314544
Si Si7 0.691536 0.723267 0.813141
O O1 0.490718 0.396292 0.370023
O O2 0.331177 0.378287 0.352849
O O3 0.410325 0.411309 0.617177
O O4 0.153571 0.591978 0.475163
O O5 0.207205 0.452901 0.438565
O O6 0.077495 0.485994 0.613717
O O7 0.075871 0.487256 0.314930
O O8 0.384632 0.784036 0.145294
O O9 0.248576 0.821019 0.126347
O O10 0.315961 0.771095 0.857489
O O11 0.197296 0.306323 0.396215
O O12 0.127452 0.165495 0.370873
O O13 0.990677 0.103391 0.365369
#
# Coordination Sequence:
#
# PCOD9541916 Si02
#       7
#     8   8   8   8   4   8   8
#     4   9  19  36  63  94 123 170 220 265 334 409
#     4  11  22  44  63  98 130 177 228 274 348 408
#     4  10  24  42  61  97 129 176 219 275 341 406
#     4  10  23  37  64  93 130 173 217 279 341 398
#     4  10  22  42  68  88 134 170 224 284 324 424
#     4   9  19  37  62  92 126 169 216 268 328 403
#     4  10  22  42  61  99 129 169 222 275 344 404
#
# _framework density 20.533957000000001
#
# number of rings (size 3 to 8) (size 9 to 14) (size 15 to 20)
#    0.923    1.231    1.538    1.846    6.462    2.462 
#    5.538    3.077    0.000    1.846    0.000    0.000 
#    0.000    0.000    0.000    0.000    0.000    0.000 
#
# Total GULP energy -144788.715376 kJ/mol
# GULP energy per Si atom -5568.796745 kJ/mol
# Density = 2.048722 g / cm^3
# Si number density = 20.533957 Si / 1000 Ang^3
#
#
#
# Elastic Constant Matrix: (Units=GPa)
#
#
# Indices 1 2 3 4 5 6 
#
# 1 86.6853 29.3984 11.1653 0.0000 0.0000 -6.3822
# 2 29.3984 86.6853 11.1653 0.0000 0.0000 6.3822
# 3 11.1653 11.1653 26.0457 0.0000 0.0000 0.0000
# 4 0.0000 0.0000 0.0000 54.7853 0.0000 0.0000
# 5 0.0000 0.0000 0.0000 0.0000 54.7853 0.0000
# 6 -6.3822 6.3822 0.0000 0.0000 0.0000 39.2673
#
#
#
# Elastic Compliance Matrix: (Units=1/GPa)
#
#
# Indices 1 2 3 4 5 6 
#
# 1 0.013750 -0.004362 -0.004025 0.000000 0.000000 0.002944
# 2 -0.004362 0.013750 -0.004025 0.000000 0.000000 -0.002944
# 3 -0.004025 -0.004025 0.041845 0.000000 0.000000 0.000000
# 4 0.000000 0.000000 0.000000 0.018253 0.000000 0.000000
# 5 0.000000 0.000000 0.000000 0.000000 0.018253 0.000000
# 6 0.002944 -0.002944 0.000000 0.000000 0.000000 0.026423
#
#
# Mechanical properties :
#
#
# Convention : Reuss Voigt Hill
#
# Bulk Modulus (GPa) = 22.46025 33.65273 28.05649
# Shear Modulus (GPa) = 29.08019 39.61338 34.34679
#
# Velocity S-wave (km/s) = 3.76733 4.39699 4.09428
# Velocity P-wave (km/s) = 5.46676 6.49634 6.00366
#
# Compressibility (1/GPa) = 0.04452310
#
# Stress axis : x y z
#
# Youngs Moduli (GPa) = 72.72566 72.72566 23.89783
#
# Poissons Ratio (x) = 0.31720 0.09618
# Poissons Ratio (y) = 0.31720 0.09618
# Poissons Ratio (z) = 0.29270 0.29270
#
# Static dielectric constant tensor:
#      x y z
#    x 1.713610 0.000000 0.000000 
#    y 0.000000 1.713610 0.000000 
#    z 0.000000 0.000000 1.773810 
# 
# From -- ./inp_files/681.got.cif
#   From: 2010.05.17/outbox.cif.g08.bks.cpg/sg79_cif.got.tgz:681.got - 2010.06.03 18:47:27.
