data_PCOD9541577
_publ_section_title
;
Structure prediction by ZEFSAII (Michael W. Deem and Ramdas Pophale) SiO2 
 PCOD9541577
Probable space group: P 42
;
_chemical_formula_sum "Si O2"
_cell_formula_units_Z 16
_cell_length_a 8.271095
_cell_length_b 8.271095
_cell_length_c 9.229397
_cell_angle_alpha 90.000000
_cell_angle_beta 90.000000
_cell_angle_gamma 90.000000
_cell_volume 631.392394
_symmetry_space_group_name_H-M "P 42"
_symmetry_group_IT_number 77
_symmetry_cell_setting 'tetragonal'
loop_
_space_group_symop_operation_xyz
x,y,z
-y,x,1/2+z
-x,-y,z
y,-x,1/2+z
loop_
_atom_site_type_symbol
_atom_site_label
_atom_site_fract_x
_atom_site_fract_y
_atom_site_fract_z
Si Si1 0.000000 0.500000 0.983901
Si Si2 0.357240 0.192248 0.232430
Si Si3 0.385266 0.150263 0.906719
Si Si4 0.992722 0.815273 0.188535
Si Si5 0.500000 0.500000 0.804198
O O1 0.859903 0.463203 0.869098
O O2 0.019234 0.334005 0.074746
O O3 0.352634 0.110083 0.075080
O O4 0.434453 0.362534 0.199696
O O5 0.172548 0.192317 0.280450
O O6 0.500000 0.000000 0.858185
O O7 0.230694 0.135549 0.799765
O O8 0.454815 0.331153 0.885224
O O9 0.000000 0.000000 0.132104
#
# Coordination Sequence:
#
# PCOD9541577 Si02
#       5
#     2   4   4   4   2
#     4  12  28  54  78 124 176 216 288 348 424 520
#     4  12  28  48  82 121 161 225 283 349 427 507
#     4  12  26  54  79 123 170 217 285 350 425 513
#     4  12  30  53  85 122 172 223 280 353 430 513
#     4  12  26  50  84 116 166 224 272 358 422 502
#
# _framework density 25.340814000000002
#
# number of rings (size 3 to 8) (size 9 to 14) (size 15 to 20)
#    0.000    0.000    5.000    2.250   10.500    2.000 
#    0.000    0.000    0.000    0.000    0.000    0.000 
#    0.000    0.000    0.000    0.000    0.000    0.000 
#
# Total GULP energy -89254.002274 kJ/mol
# GULP energy per Si atom -5578.375142 kJ/mol
# Density = 2.528314 g / cm^3
# Si number density = 25.340814 Si / 1000 Ang^3
#
#
#
# Elastic Constant Matrix: (Units=GPa)
#
#
# Indices 1 2 3 4 5 6 
#
# 1 155.3753 50.3760 45.1897 0.0000 0.0000 0.9793
# 2 50.3760 155.3753 45.1897 0.0000 0.0000 -0.9793
# 3 45.1897 45.1897 154.7773 0.0000 0.0000 0.0000
# 4 0.0000 0.0000 0.0000 26.5334 0.0000 0.0000
# 5 0.0000 0.0000 0.0000 0.0000 26.5334 0.0000
# 6 0.9793 -0.9793 0.0000 0.0000 0.0000 34.5931
#
#
#
# Elastic Compliance Matrix: (Units=1/GPa)
#
#
# Indices 1 2 3 4 5 6 
#
# 1 0.007552 -0.001977 -0.001628 0.000000 0.000000 -0.000270
# 2 -0.001977 0.007552 -0.001628 0.000000 0.000000 0.000270
# 3 -0.001628 -0.001628 0.007411 0.000000 0.000000 0.000000
# 4 0.000000 0.000000 0.000000 0.037688 0.000000 0.000000
# 5 0.000000 0.000000 0.000000 0.000000 0.037688 0.000000
# 6 -0.000270 0.000270 0.000000 0.000000 0.000000 0.028923
#
#
# Mechanical properties :
#
#
# Convention : Reuss Voigt Hill
#
# Bulk Modulus (GPa) = 82.98209 83.00432 82.99321
# Shear Modulus (GPa) = 35.38653 39.18349 37.28501
#
# Velocity S-wave (km/s) = 3.74093 3.93652 3.83997
# Velocity P-wave (km/s) = 7.17474 7.31354 7.24447
#
# Compressibility (1/GPa) = 0.01205079
#
# Stress axis : x y z
#
# Youngs Moduli (GPa) = 132.41378 132.41378 134.92701
#
# Poissons Ratio (x) = 0.26176 0.21963
# Poissons Ratio (y) = 0.26176 0.21963
# Poissons Ratio (z) = 0.21554 0.21554
#
# Static dielectric constant tensor:
#      x y z
#    x 1.721540 0.000000 0.000000 
#    y 0.000000 1.721540 0.000000 
#    z 0.000000 0.000000 2.012330 
# 
# From -- ./inp_files/309.got.cif
#   From: 2010.05.17/outbox.cif.g08.bks.cpg/sg77_cif.got.tgz:309.got - 2010.06.03 18:44:51.
