data_PCOD9541179
_publ_section_title
;
Structure prediction by ZEFSAII (Michael W. Deem and Ramdas Pophale) SiO2 
 PCOD9541179
Probable space group: P 41
;
_chemical_formula_sum "Si O2"
_cell_formula_units_Z 20
_cell_length_a 11.969091
_cell_length_b 11.969091
_cell_length_c 4.833446
_cell_angle_alpha 90.000000
_cell_angle_beta 90.000000
_cell_angle_gamma 90.000000
_cell_volume 692.435314
_symmetry_space_group_name_H-M "P 41"
_symmetry_group_IT_number 76
_symmetry_cell_setting 'tetragonal'
loop_
_space_group_symop_operation_xyz
x,y,z
-y,x,1/4+z
-x,-y,1/2+z
y,-x,3/4+z
loop_
_atom_site_type_symbol
_atom_site_label
_atom_site_fract_x
_atom_site_fract_y
_atom_site_fract_z
Si Si1 0.264677 0.792004 0.387300
Si Si2 0.037196 0.173773 0.222129
Si Si3 0.531895 0.337168 0.881715
Si Si4 0.647832 0.769493 0.656842
Si Si5 0.022396 0.576512 0.554893
O O1 0.211939 0.903396 0.259819
O O2 0.392487 0.767730 0.292840
O O3 0.516715 0.965711 0.008594
O O4 0.293582 0.976593 0.810860
O O5 0.299816 0.200679 0.447849
O O6 0.920658 0.111227 0.309415
O O7 0.617319 0.436004 0.938175
O O8 0.457454 0.312626 0.152985
O O9 0.250250 0.268949 0.953623
O O10 0.597379 0.867274 0.478401
#
# Coordination Sequence:
#
# PCOD9541179 Si02
#       5
#     4   4   4   4   4
#     4  11  25  46  72 109 162 202 274 344 423 494
#     4  12  30  53  87 130 170 234 296 368 433 533
#     4  10  21  39  72 111 154 211 272 337 409 498
#     4  11  24  46  69 110 156 205 268 345 418 501
#     4  12  28  52  82 116 164 222 280 354 443 514
#
# _framework density 28.883566999999999
#
# number of rings (size 3 to 8) (size 9 to 14) (size 15 to 20)
#    0.000    0.800    2.000    3.600    2.800   11.200 
#    0.000    0.000    0.000    0.000    0.000    0.000 
#    0.000    0.000    0.000    0.000    0.000    0.000 
#
# Total GULP energy -111751.612953 kJ/mol
# GULP energy per Si atom -5587.580648 kJ/mol
# Density = 2.881783 g / cm^3
# Si number density = 28.883567 Si / 1000 Ang^3
#
#
#
# Elastic Constant Matrix: (Units=GPa)
#
#
# Indices 1 2 3 4 5 6 
#
# 1 146.2247 73.0103 17.2690 0.0000 0.0000 -6.2257
# 2 73.0103 146.2247 17.2690 0.0000 0.0000 6.2257
# 3 17.2690 17.2690 128.9463 0.0000 0.0000 0.0000
# 4 0.0000 0.0000 0.0000 30.4699 0.0000 0.0000
# 5 0.0000 0.0000 0.0000 0.0000 30.4699 0.0000
# 6 -6.2257 6.2257 0.0000 0.0000 0.0000 64.3409
#
#
#
# Elastic Compliance Matrix: (Units=1/GPa)
#
#
# Indices 1 2 3 4 5 6 
#
# 1 0.009273 -0.004614 -0.000624 0.000000 0.000000 0.001344
# 2 -0.004614 0.009273 -0.000624 0.000000 0.000000 -0.001344
# 3 -0.000624 -0.000624 0.007922 0.000000 0.000000 0.000000
# 4 0.000000 0.000000 0.000000 0.032819 0.000000 0.000000
# 5 0.000000 0.000000 0.000000 0.000000 0.032819 0.000000
# 6 0.001344 -0.001344 0.000000 0.000000 0.000000 0.015802
#
#
# Mechanical properties :
#
#
# Convention : Reuss Voigt Hill
#
# Bulk Modulus (GPa) = 67.81768 70.72139 69.26954
# Shear Modulus (GPa) = 40.14499 45.97929 43.06214
#
# Velocity S-wave (km/s) = 3.73217 3.99417 3.86539
# Velocity P-wave (km/s) = 6.48866 6.76826 6.62994
#
# Compressibility (1/GPa) = 0.01474542
#
# Stress axis : x y z
#
# Youngs Moduli (GPa) = 107.83614 107.83614 126.22573
#
# Poissons Ratio (x) = 0.49752 0.07877
# Poissons Ratio (y) = 0.49752 0.07877
# Poissons Ratio (z) = 0.06729 0.06729
#
# Static dielectric constant tensor:
#      x y z
#    x 2.435700 0.000000 0.000000 
#    y 0.000000 2.435700 0.000000 
#    z 0.000000 0.000000 2.221190 
# 
# From -- ./inp_files/498.got.cif
#   From: 2010.05.17/outbox.cif.g08.bks.cpg/sg76_cif.got.tgz:498.got - 2010.06.03 18:43:17.
