data_PCOD9541237
_publ_section_title
;
Structure prediction by ZEFSAII (Michael W. Deem and Ramdas Pophale) SiO2 
 PCOD9541237
Probable space group: P 41
;
_chemical_formula_sum "Si O2"
_cell_formula_units_Z 24
_cell_length_a 9.048892
_cell_length_b 9.048892
_cell_length_c 13.441116
_cell_angle_alpha 90.000000
_cell_angle_beta 90.000000
_cell_angle_gamma 90.000000
_cell_volume 1100.591461
_symmetry_space_group_name_H-M "P 41"
_symmetry_group_IT_number 76
_symmetry_cell_setting 'tetragonal'
loop_
_space_group_symop_operation_xyz
x,y,z
-y,x,1/4+z
-x,-y,1/2+z
y,-x,3/4+z
loop_
_atom_site_type_symbol
_atom_site_label
_atom_site_fract_x
_atom_site_fract_y
_atom_site_fract_z
Si Si1 0.719233 0.675436 0.250000
Si Si2 0.754061 0.994918 0.297619
Si Si3 0.005084 0.245941 0.275072
Si Si4 0.368631 0.368632 0.536346
Si Si5 0.719233 0.324568 0.572691
Si Si6 0.109902 0.499999 0.911345
O O1 0.730394 0.665042 0.131884
O O2 0.542640 0.661969 0.268165
O O3 0.789830 0.551280 0.319142
O O4 0.797704 0.825416 0.284114
O O5 0.883992 0.116010 0.286346
O O6 0.632049 0.018915 0.211675
O O7 0.694411 0.000001 0.411345
O O8 0.981087 0.367955 0.361014
O O9 0.174586 0.202299 0.288577
O O10 0.542640 0.338038 0.554526
O O11 0.334961 0.269605 0.440807
O O12 0.789832 0.448722 0.503549
#
# Coordination Sequence:
#
# PCOD9541237 Si02
#       6
#     4   4   4   4   4   4
#     4  11  23  43  70 107 141 185 243 307 370 432
#     4  12  26  48  69 105 151 191 243 294 374 455
#     4  12  26  48  69 105 151 191 243 294 374 455
#     4  10  22  40  70 106 144 178 250 314 356 432
#     4  11  23  43  70 107 141 185 243 307 370 432
#     4  12  24  42  78 100 138 196 242 306 366 442
#
# _framework density 21.806456000000001
#
# number of rings (size 3 to 8) (size 9 to 14) (size 15 to 20)
#    0.000    0.667    3.333    6.000    2.333    0.000 
#    3.000    1.667    0.000    0.000    0.000    0.000 
#    0.000    0.000    0.000    0.000    0.000    0.000 
#
# Total GULP energy -134003.839532 kJ/mol
# GULP energy per Si atom -5583.493314 kJ/mol
# Density = 2.175682 g / cm^3
# Si number density = 21.806456 Si / 1000 Ang^3
#
#
#
# Elastic Constant Matrix: (Units=GPa)
#
#
# Indices 1 2 3 4 5 6 
#
# 1 49.9130 13.8043 1.3140 0.0000 0.0000 -0.0004
# 2 13.8043 49.9130 1.3140 0.0000 0.0000 0.0004
# 3 1.3140 1.3140 144.5018 0.0000 0.0000 0.0000
# 4 0.0000 0.0000 0.0000 24.1017 0.0000 0.0000
# 5 0.0000 0.0000 0.0000 0.0000 24.1017 0.0000
# 6 -0.0004 0.0004 0.0000 0.0000 0.0000 11.2039
#
#
#
# Elastic Compliance Matrix: (Units=1/GPa)
#
#
# Indices 1 2 3 4 5 6 
#
# 1 0.021697 -0.005997 -0.000143 0.000000 0.000000 0.000001
# 2 -0.005997 0.021697 -0.000143 0.000000 0.000000 -0.000001
# 3 -0.000143 -0.000143 0.006923 0.000000 0.000000 0.000000
# 4 0.000000 0.000000 0.000000 0.041491 0.000000 0.000000
# 5 0.000000 0.000000 0.000000 0.000000 0.041491 0.000000
# 6 0.000001 -0.000001 0.000000 0.000000 0.000000 0.089255
#
#
# Mechanical properties :
#
#
# Convention : Reuss Voigt Hill
#
# Bulk Modulus (GPa) = 26.48844 30.79913 28.64379
# Shear Modulus (GPa) = 20.18548 27.07451 23.62999
#
# Velocity S-wave (km/s) = 3.04578 3.52743 3.29542
# Velocity P-wave (km/s) = 4.95403 5.54481 5.25772
#
# Compressibility (1/GPa) = 0.03775232
#
# Stress axis : x y z
#
# Youngs Moduli (GPa) = 46.08894 46.08894 144.44763
#
# Poissons Ratio (x) = 0.27639 0.02062
# Poissons Ratio (y) = 0.27639 0.02062
# Poissons Ratio (z) = 0.00658 0.00658
#
# Static dielectric constant tensor:
#      x y z
#    x 1.821590 0.000000 0.000000 
#    y 0.000000 1.821590 0.000000 
#    z 0.000000 0.000000 1.888370 
# 
# From -- ./inp_files/842.got.cif
#   From: 2010.05.17/outbox.cif.g08.bks.cpg/sg76_cif.got.tgz:842.got - 2010.06.03 18:43:17.
