data_PCOD9541690
_publ_section_title
;
Structure prediction by ZEFSAII (Michael W. Deem and Ramdas Pophale) SiO2 
 PCOD9541690
Probable space group: P 43
;
_chemical_formula_sum "Si O2"
_cell_formula_units_Z 24
_cell_length_a 12.460619
_cell_length_b 12.460619
_cell_length_c 6.397942
_cell_angle_alpha 90.000000
_cell_angle_beta 90.000000
_cell_angle_gamma 90.000000
_cell_volume 993.389426
_symmetry_space_group_name_H-M "P 43"
_symmetry_group_IT_number 78
_symmetry_cell_setting 'tetragonal'
loop_
_space_group_symop_operation_xyz
x,y,z
-y,x,3/4+z
-x,-y,1/2+z
y,-x,1/4+z
loop_
_atom_site_type_symbol
_atom_site_label
_atom_site_fract_x
_atom_site_fract_y
_atom_site_fract_z
Si Si1 0.831574 0.258713 0.901090
Si Si2 0.658668 0.147594 0.592220
Si Si3 0.536624 0.842946 0.363496
Si Si4 0.148077 0.983111 0.977915
Si Si5 0.463699 0.630071 0.483465
Si Si6 0.696706 0.331337 0.296687
O O1 0.742200 0.199178 0.759068
O O2 0.870917 0.368206 0.779406
O O3 0.932145 0.177777 0.912756
O O4 0.776510 0.284332 0.119854
O O5 0.555166 0.099239 0.717625
O O6 0.737015 0.073285 0.450676
O O7 0.632939 0.243370 0.432388
O O8 0.464936 0.757073 0.487100
O O9 0.601298 0.771823 0.197583
O O10 0.057974 0.897929 0.045000
O O11 0.413480 0.581101 0.277548
O O12 0.386925 0.596151 0.671128
#
# Coordination Sequence:
#
# PCOD9541690 Si02
#       6
#     4   4   4   4   4   4
#     4  10  22  43  62  92 135 172 223 283 343 413
#     4  10  22  41  64  96 132 168 228 286 338 413
#     4  11  21  39  57  91 136 178 217 276 335 407
#     4  10  24  46  74 102 127 169 233 302 356 420
#     4  12  20  32  53  88 127 175 228 262 309 390
#     4  11  21  37  62  87 131 184 219 275 335 397
#
# _framework density 24.159707999999998
#
# number of rings (size 3 to 8) (size 9 to 14) (size 15 to 20)
#    0.000    1.333    3.333    3.000    2.333    0.000 
#    3.000    0.000    0.000    0.000    0.000    0.000 
#    0.000    0.000    0.000    0.000    0.000    0.000 
#
# Total GULP energy -133753.210303 kJ/mol
# GULP energy per Si atom -5573.050429 kJ/mol
# Density = 2.410472 g / cm^3
# Si number density = 24.159708 Si / 1000 Ang^3
#
#
#
# Elastic Constant Matrix: (Units=GPa)
#
#
# Indices 1 2 3 4 5 6 
#
# 1 51.9286 0.4404 -0.3264 0.0000 0.0000 -5.2673
# 2 0.4404 51.9286 -0.3264 0.0000 0.0000 5.2673
# 3 -0.3264 -0.3264 64.1759 0.0000 0.0000 0.0000
# 4 0.0000 0.0000 0.0000 22.2027 0.0000 0.0000
# 5 0.0000 0.0000 0.0000 0.0000 22.2027 0.0000
# 6 -5.2673 5.2673 0.0000 0.0000 0.0000 43.5484
#
#
#
# Elastic Compliance Matrix: (Units=1/GPa)
#
#
# Indices 1 2 3 4 5 6 
#
# 1 0.019506 -0.000409 0.000097 0.000000 0.000000 0.002409
# 2 -0.000409 0.019506 0.000097 0.000000 0.000000 -0.002409
# 3 0.000097 0.000097 0.015583 0.000000 0.000000 0.000000
# 4 0.000000 0.000000 0.000000 0.045039 0.000000 0.000000
# 5 0.000000 0.000000 0.000000 0.000000 0.045039 0.000000
# 6 0.002409 -0.002409 0.000000 0.000000 0.000000 0.023546
#
#
# Mechanical properties :
#
#
# Convention : Reuss Voigt Hill
#
# Bulk Modulus (GPa) = 18.46223 18.62314 18.54269
# Shear Modulus (GPa) = 26.78042 28.80716 27.79379
#
# Velocity S-wave (km/s) = 3.33299 3.45681 3.39546
# Velocity P-wave (km/s) = 4.74026 4.86393 4.80249
#
# Compressibility (1/GPa) = 0.05416463
#
# Stress axis : x y z
#
# Youngs Moduli (GPa) = 51.26731 51.26731 64.17183
#
# Poissons Ratio (x) = 0.02098 -0.00623
# Poissons Ratio (y) = 0.02098 -0.00623
# Poissons Ratio (z) = -0.00498 -0.00498
#
# Static dielectric constant tensor:
#      x y z
#    x 2.006290 0.000000 0.000000 
#    y 0.000000 2.006290 0.000000 
#    z 0.000000 0.000000 1.922300 
# 
# From -- ./inp_files/182.got.cif
#   From: 2010.05.17/outbox.cif.g08.bks.cpg/sg78_cif.got.tgz:182.got - 2010.06.03 18:45:56.
