data_PCOD9541134
_publ_section_title
;
Structure prediction by ZEFSAII (Michael W. Deem and Ramdas Pophale) SiO2 
 PCOD9541134
Probable space group: P 41
;
_chemical_formula_sum "Si O2"
_cell_formula_units_Z 32
_cell_length_a 11.528883
_cell_length_b 11.528883
_cell_length_c 12.765495
_cell_angle_alpha 90.000000
_cell_angle_beta 90.000000
_cell_angle_gamma 90.000000
_cell_volume 1696.727596
_symmetry_space_group_name_H-M "P 41"
_symmetry_group_IT_number 76
_symmetry_cell_setting 'tetragonal'
loop_
_space_group_symop_operation_xyz
x,y,z
-y,x,1/4+z
-x,-y,1/2+z
y,-x,3/4+z
loop_
_atom_site_type_symbol
_atom_site_label
_atom_site_fract_x
_atom_site_fract_y
_atom_site_fract_z
Si Si1 0.960794 0.624457 0.851570
Si Si2 0.785737 0.834503 0.564537
Si Si3 0.677806 0.166693 0.802653
Si Si4 0.988346 0.610466 0.241442
Si Si5 0.836421 0.942731 0.348375
Si Si6 0.346305 0.728372 0.973085
Si Si7 0.255666 0.609333 0.179739
Si Si8 0.929369 0.167481 0.864838
O O1 0.019178 0.507882 0.807406
O O2 0.859131 0.659531 0.770823
O O3 0.053094 0.726542 0.865751
O O4 0.896839 0.606830 0.961574
O O5 0.779893 0.868378 0.441606
O O6 0.721942 0.724811 0.615219
O O7 0.920397 0.814318 0.592368
O O8 0.692044 0.300741 0.766249
O O9 0.814133 0.131166 0.804249
O O10 0.627217 0.118187 0.911536
O O11 0.114829 0.608135 0.184582
O O12 0.005394 0.722328 0.315329
O O13 0.804613 0.894991 0.233980
O O14 0.974548 0.931570 0.365652
O O15 0.293348 0.650456 0.065096
O O16 0.480649 0.702929 0.954922
#
# Coordination Sequence:
#
# PCOD9541134 Si02
#       8
#     4   4   4   4   4   4   4   4
#     4  10  22  35  57  87 117 156 199 257 304 373
#     4  11  21  37  56  84 121 157 197 245 314 368
#     4  10  20  36  59  85 115 158 205 246 305 380
#     4  10  20  38  58  87 121 155 202 253 313 374
#     4  10  22  34  55  84 118 158 185 247 306 368
#     4  10  20  42  60  86 120 156 215 252 306 367
#     4   9  21  38  65  87 115 165 205 260 306 363
#     4  10  20  36  56  84 117 157 200 242 306 373
#
# _framework density 18.859833999999999
#
# number of rings (size 3 to 8) (size 9 to 14) (size 15 to 20)
#    0.000    2.000    2.500    0.750    3.500    2.000 
#    6.750    1.250    0.000    0.000    0.000    0.000 
#    0.000    0.000    0.000    0.000    0.000    0.000 
#
# Total GULP energy -178271.097133 kJ/mol
# GULP energy per Si atom -5570.971785 kJ/mol
# Density = 1.881691 g / cm^3
# Si number density = 18.859834 Si / 1000 Ang^3
#
#
#
# Elastic Constant Matrix: (Units=GPa)
#
#
# Indices 1 2 3 4 5 6 
#
# 1 50.8897 25.3197 41.0267 0.0000 0.0000 1.0138
# 2 25.3197 50.8897 41.0267 0.0000 0.0000 -1.0138
# 3 41.0267 41.0267 113.0094 0.0000 0.0000 0.0000
# 4 0.0000 0.0000 0.0000 21.6649 0.0000 0.0000
# 5 0.0000 0.0000 0.0000 0.0000 21.6649 0.0000
# 6 1.0138 -1.0138 0.0000 0.0000 0.0000 12.1166
#
#
#
# Elastic Compliance Matrix: (Units=1/GPa)
#
#
# Indices 1 2 3 4 5 6 
#
# 1 0.030456 -0.008914 -0.007821 0.000000 0.000000 -0.003294
# 2 -0.008914 0.030456 -0.007821 0.000000 0.000000 0.003294
# 3 -0.007821 -0.007821 0.014527 0.000000 0.000000 0.000000
# 4 0.000000 0.000000 0.000000 0.046158 0.000000 0.000000
# 5 0.000000 0.000000 0.000000 0.000000 0.046158 0.000000
# 6 -0.003294 0.003294 0.000000 0.000000 0.000000 0.083083
#
#
# Mechanical properties :
#
#
# Convention : Reuss Voigt Hill
#
# Bulk Modulus (GPa) = 37.98111 47.72611 42.85361
# Shear Modulus (GPa) = 16.19577 18.25034 17.22306
#
# Velocity S-wave (km/s) = 2.93361 3.11414 3.02522
# Velocity P-wave (km/s) = 5.62647 6.18798 5.91389
#
# Compressibility (1/GPa) = 0.02632888
#
# Stress axis : x y z
#
# Youngs Moduli (GPa) = 32.83449 32.83449 68.83674
#
# Poissons Ratio (x) = 0.29268 0.53834
# Poissons Ratio (y) = 0.29268 0.53834
# Poissons Ratio (z) = 0.25678 0.25678
#
# Static dielectric constant tensor:
#      x y z
#    x 1.657690 0.000000 0.000000 
#    y 0.000000 1.657690 0.000000 
#    z 0.000000 0.000000 1.698620 
# 
# From -- ./inp_files/972.got.cif
#   From: 2010.05.17/outbox.cif.g08.bks.cpg/sg76_cif.got.tgz:972.got - 2010.06.03 18:43:17.
