data_PCOD9541290
_publ_section_title
;
Structure prediction by ZEFSAII (Michael W. Deem and Ramdas Pophale) SiO2 
 PCOD9541290
Probable space group: P 41
;
_chemical_formula_sum "Si O2"
_cell_formula_units_Z 28
_cell_length_a 8.107306
_cell_length_b 8.107306
_cell_length_c 16.460028
_cell_angle_alpha 90.000000
_cell_angle_beta 90.000000
_cell_angle_gamma 90.000000
_cell_volume 1081.891479
_symmetry_space_group_name_H-M "P 41"
_symmetry_group_IT_number 76
_symmetry_cell_setting 'tetragonal'
loop_
_space_group_symop_operation_xyz
x,y,z
-y,x,1/4+z
-x,-y,1/2+z
y,-x,3/4+z
loop_
_atom_site_type_symbol
_atom_site_label
_atom_site_fract_x
_atom_site_fract_y
_atom_site_fract_z
Si Si1 0.016590 0.474913 0.035550
Si Si2 0.396333 0.251688 0.181832
Si Si3 0.018690 0.828337 0.292752
Si Si4 0.444449 0.293665 0.994981
Si Si5 0.484689 0.147421 0.461583
Si Si6 0.872371 0.868178 0.461028
Si Si7 0.642248 0.283688 0.836919
O O1 0.112683 0.541261 0.115373
O O2 0.824422 0.494190 0.052229
O O3 0.062607 0.588292 0.958153
O O4 0.062460 0.289763 0.011765
O O5 0.460404 0.280893 0.091054
O O6 0.541587 0.335981 0.233057
O O7 0.218593 0.327170 0.202953
O O8 0.014142 0.647220 0.249869
O O9 0.195600 0.829904 0.337327
O O10 0.891877 0.834160 0.366362
O O11 0.001980 0.991904 0.238086
O O12 0.325356 0.132999 0.976212
O O13 0.586745 0.321258 0.928381
O O14 0.416840 0.298681 0.520134
#
# Coordination Sequence:
#
# PCOD9541290 Si02
#       7
#     4   4   4   4   4   4   4
#     4  11  24  43  69 109 150 194 257 306 387 456
#     4  11  22  44  74 109 147 192 252 316 386 441
#     4  10  25  43  77 101 153 202 248 318 373 455
#     4  11  24  44  78 108 147 198 252 319 378 456
#     4  10  23  46  70 106 154 189 250 325 368 450
#     4  11  23  46  70 105 152 200 251 304 384 458
#     4  10  25  44  74 108 149 193 260 310 374 458
#
# _framework density 25.880599
#
# number of rings (size 3 to 8) (size 9 to 14) (size 15 to 20)
#    0.857    0.571    2.857    2.571    0.000    9.143 
#    2.571    0.000    0.000    0.000    0.000    0.000 
#    0.000    0.000    0.000    0.000    0.000    0.000 
#
# Total GULP energy -155900.068991 kJ/mol
# GULP energy per Si atom -5567.859607 kJ/mol
# Density = 2.582169 g / cm^3
# Si number density = 25.880599 Si / 1000 Ang^3
#
#
#
# Elastic Constant Matrix: (Units=GPa)
#
#
# Indices 1 2 3 4 5 6 
#
# 1 64.3665 -17.1118 22.0212 0.0000 0.0000 -7.5300
# 2 -17.1118 64.3665 22.0212 0.0000 0.0000 7.5300
# 3 22.0212 22.0212 168.0810 0.0000 0.0000 0.0000
# 4 0.0000 0.0000 0.0000 43.7951 0.0000 0.0000
# 5 0.0000 0.0000 0.0000 0.0000 43.7951 0.0000
# 6 -7.5300 7.5300 0.0000 0.0000 0.0000 29.9602
#
#
#
# Elastic Compliance Matrix: (Units=1/GPa)
#
#
# Indices 1 2 3 4 5 6 
#
# 1 0.018488 0.005617 -0.003158 0.000000 0.000000 0.003235
# 2 0.005617 0.018488 -0.003158 0.000000 0.000000 -0.003235
# 3 -0.003158 -0.003158 0.006777 0.000000 0.000000 0.000000
# 4 0.000000 0.000000 0.000000 0.022834 0.000000 0.000000
# 5 0.000000 0.000000 0.000000 0.000000 0.022834 0.000000
# 6 0.003235 -0.003235 0.000000 0.000000 0.000000 0.035004
#
#
# Mechanical properties :
#
#
# Convention : Reuss Voigt Hill
#
# Bulk Modulus (GPa) = 23.60990 38.96393 31.28691
# Shear Modulus (GPa) = 35.72926 41.50230 38.61578
#
# Velocity S-wave (km/s) = 3.71960 4.00885 3.86693
# Velocity P-wave (km/s) = 5.25258 6.04283 5.66151
#
# Compressibility (1/GPa) = 0.04235512
#
# Stress axis : x y z
#
# Youngs Moduli (GPa) = 54.08835 54.08835 147.55672
#
# Poissons Ratio (x) = -0.30382 0.46601
# Poissons Ratio (y) = -0.30382 0.46601
# Poissons Ratio (z) = 0.17082 0.17082
#
# Static dielectric constant tensor:
#      x y z
#    x 2.176840 0.000000 0.000000 
#    y 0.000000 2.176840 0.000000 
#    z 0.000000 0.000000 2.033890 
# 
# From -- ./inp_files/1300.got.cif
#   From: 2010.05.17/outbox.cif.g08.bks.cpg/sg76_cif.got.tgz:1300.got - 2010.06.03 18:43:17.
