data_PCOD9541552
_publ_section_title
;
Structure prediction by ZEFSAII (Michael W. Deem and Ramdas Pophale) SiO2 
 PCOD9541552
Probable space group: P 42
;
_chemical_formula_sum "Si O2"
_cell_formula_units_Z 24
_cell_length_a 9.270965
_cell_length_b 9.270965
_cell_length_c 13.007525
_cell_angle_alpha 90.000000
_cell_angle_beta 90.000000
_cell_angle_gamma 90.000000
_cell_volume 1118.007076
_symmetry_space_group_name_H-M "P 42"
_symmetry_group_IT_number 77
_symmetry_cell_setting 'tetragonal'
loop_
_space_group_symop_operation_xyz
x,y,z
-y,x,1/2+z
-x,-y,z
y,-x,1/2+z
loop_
_atom_site_type_symbol
_atom_site_label
_atom_site_fract_x
_atom_site_fract_y
_atom_site_fract_z
Si Si1 0.332368 0.969356 0.006690
Si Si2 0.131595 0.169607 0.140569
Si Si3 0.377615 0.892910 0.368335
Si Si4 0.522444 0.171310 0.577734
Si Si5 0.094659 0.858320 0.868143
Si Si6 0.784371 0.224095 0.175540
O O1 0.218194 0.091434 0.047708
O O2 0.500000 0.000000 0.984803
O O3 0.322897 0.862159 0.102237
O O4 0.251312 0.892780 0.911959
O O5 0.192298 0.330150 0.137794
O O6 0.178606 0.099712 0.248101
O O7 0.953296 0.174702 0.151214
O O8 0.449909 0.795220 0.456991
O O9 0.275168 0.805552 0.290126
O O10 0.500000 0.000000 0.321730
O O11 0.269747 0.008561 0.422974
O O12 0.387646 0.231384 0.638620
O O13 0.500000 0.000000 0.577306
O O14 0.000000 0.000000 0.880541
#
# Coordination Sequence:
#
# PCOD9541552 Si02
#       6
#     4   4   4   4   4   4
#     4  12  25  40  62  99 140 174 225 284 338 406
#     4  11  22  41  65  99 134 172 227 288 341 402
#     4  11  21  38  68 101 132 180 227 281 353 408
#     4   9  21  39  64  97 137 175 221 286 347 408
#     4  12  22  39  68  99 133 175 229 283 339 406
#     4  11  21  41  66  98 129 179 229 285 339 411
#
# _framework density 21.466771999999999
#
# number of rings (size 3 to 8) (size 9 to 14) (size 15 to 20)
#    0.000    1.000    3.333    6.000    0.000    2.000 
#    0.000    0.833    0.000    0.000    4.333    0.000 
#    0.000    0.000    0.000    0.000    0.000    0.000 
#
# Total GULP energy -133793.842980 kJ/mol
# GULP energy per Si atom -5574.743458 kJ/mol
# Density = 2.141791 g / cm^3
# Si number density = 21.466772 Si / 1000 Ang^3
#
#
#
# Elastic Constant Matrix: (Units=GPa)
#
#
# Indices 1 2 3 4 5 6 
#
# 1 120.7811 31.3271 38.3849 0.0000 0.0000 1.6071
# 2 31.3271 120.7811 38.3849 0.0000 0.0000 -1.6071
# 3 38.3849 38.3849 86.7850 0.0000 0.0000 0.0000
# 4 0.0000 0.0000 0.0000 30.8615 0.0000 0.0000
# 5 0.0000 0.0000 0.0000 0.0000 30.8615 0.0000
# 6 1.6071 -1.6071 0.0000 0.0000 0.0000 7.5745
#
#
#
# Elastic Compliance Matrix: (Units=1/GPa)
#
#
# Indices 1 2 3 4 5 6 
#
# 1 0.009864 -0.001401 -0.003743 0.000000 0.000000 -0.002390
# 2 -0.001401 0.009864 -0.003743 0.000000 0.000000 0.002390
# 3 -0.003743 -0.003743 0.014834 0.000000 0.000000 0.000000
# 4 0.000000 0.000000 0.000000 0.032403 0.000000 0.000000
# 5 0.000000 0.000000 0.000000 0.000000 0.032403 0.000000
# 6 -0.002390 0.002390 0.000000 0.000000 0.000000 0.133036
#
#
# Mechanical properties :
#
#
# Convention : Reuss Voigt Hill
#
# Bulk Modulus (GPa) = 59.56773 60.50453 60.03613
# Shear Modulus (GPa) = 19.54846 28.54286 24.04566
#
# Velocity S-wave (km/s) = 3.02095 3.65036 3.35047
# Velocity P-wave (km/s) = 6.32276 6.78331 6.55708
#
# Compressibility (1/GPa) = 0.01678761
#
# Stress axis : x y z
#
# Youngs Moduli (GPa) = 101.37662 101.37662 67.41199
#
# Poissons Ratio (x) = 0.14199 0.25235
# Poissons Ratio (y) = 0.14199 0.25235
# Poissons Ratio (z) = 0.37950 0.37950
#
# Static dielectric constant tensor:
#      x y z
#    x 1.830760 0.000000 0.000000 
#    y 0.000000 1.830760 0.000000 
#    z 0.000000 0.000000 1.859690 
# 
# From -- ./inp_files/1108.got.cif
#   From: 2010.05.17/outbox.cif.g08.bks.cpg/sg77_cif.got.tgz:1108.got - 2010.06.03 18:44:51.
