data_PCOD9541590
_publ_section_title
;
Structure prediction by ZEFSAII (Michael W. Deem and Ramdas Pophale) SiO2 
 PCOD9541590
Probable space group: P 43
;
_chemical_formula_sum "Si O2"
_cell_formula_units_Z 32
_cell_length_a 12.406284
_cell_length_b 12.406284
_cell_length_c 7.236516
_cell_angle_alpha 90.000000
_cell_angle_beta 90.000000
_cell_angle_gamma 90.000000
_cell_volume 1113.814748
_symmetry_space_group_name_H-M "P 43"
_symmetry_group_IT_number 78
_symmetry_cell_setting 'tetragonal'
loop_
_space_group_symop_operation_xyz
x,y,z
-y,x,3/4+z
-x,-y,1/2+z
y,-x,1/4+z
loop_
_atom_site_type_symbol
_atom_site_label
_atom_site_fract_x
_atom_site_fract_y
_atom_site_fract_z
Si Si1 0.709733 0.672050 0.151680
Si Si2 0.391004 0.029520 0.553557
Si Si3 0.835008 0.552632 0.456533
Si Si4 0.895910 0.086698 0.970464
Si Si5 0.376193 0.044799 0.071641
Si Si6 0.303176 0.210512 0.297403
Si Si7 0.506627 0.361658 0.901509
Si Si8 0.765034 0.070142 0.312361
O O1 0.777713 0.578607 0.258339
O O2 0.679000 0.690243 0.935013
O O3 0.596396 0.657063 0.261191
O O4 0.810190 0.761564 0.151282
O O5 0.430116 0.124656 0.694238
O O6 0.508050 0.989150 0.488299
O O7 0.318052 0.101549 0.423104
O O8 0.337268 0.936870 0.671889
O O9 0.941471 0.626053 0.464733
O O10 0.749643 0.570033 0.617003
O O11 0.812550 0.186283 0.963650
O O12 0.858709 0.037026 0.172274
O O13 0.017353 0.112497 0.035579
O O14 0.269185 0.021062 0.956281
O O15 0.383182 0.168640 0.136971
O O16 0.590222 0.452232 0.831751
#
# Coordination Sequence:
#
# PCOD9541590 Si02
#       8
#     4   4   4   4   4   4   4   4
#     4   9  18  35  60  84 116 159 203 240 310 367
#     4  10  18  35  59  89 119 155 203 246 312 364
#     4   8  18  33  59  87 115 159 196 244 301 369
#     4  11  25  41  61  82 120 167 211 254 304 375
#     4   9  20  32  60  90 122 148 196 256 307 357
#     4  11  20  37  61  91 118 157 209 255 297 380
#     4  10  19  35  61  82 113 160 203 243 300 374
#     4  10  20  38  57  91 119 161 199 256 313 362
#
# _framework density 28.730094999999999
#
# number of rings (size 3 to 8) (size 9 to 14) (size 15 to 20)
#    0.750    1.500    2.500    0.750    1.750    0.000 
#    0.000    1.250    2.750    0.000    0.000    0.000 
#    0.000    0.000    0.000    0.000    0.000    0.000 
#
# Total GULP energy -178146.414019 kJ/mol
# GULP energy per Si atom -5567.075438 kJ/mol
# Density = 2.866470 g / cm^3
# Si number density = 28.730095 Si / 1000 Ang^3
#
#
#
# Elastic Constant Matrix: (Units=GPa)
#
#
# Indices 1 2 3 4 5 6 
#
# 1 93.6848 19.3607 18.1343 0.0000 0.0000 -6.9408
# 2 19.3607 93.6848 18.1343 0.0000 0.0000 6.9408
# 3 18.1343 18.1343 53.0349 0.0000 0.0000 0.0000
# 4 0.0000 0.0000 0.0000 46.6359 0.0000 0.0000
# 5 0.0000 0.0000 0.0000 0.0000 46.6359 0.0000
# 6 -6.9408 6.9408 0.0000 0.0000 0.0000 29.3852
#
#
#
# Elastic Compliance Matrix: (Units=1/GPa)
#
#
# Indices 1 2 3 4 5 6 
#
# 1 0.012006 -0.002070 -0.003397 0.000000 0.000000 0.003325
# 2 -0.002070 0.012006 -0.003397 0.000000 0.000000 -0.003325
# 3 -0.003397 -0.003397 0.021179 0.000000 0.000000 0.000000
# 4 0.000000 0.000000 0.000000 0.021443 0.000000 0.000000
# 5 0.000000 0.000000 0.000000 0.000000 0.021443 0.000000
# 6 0.003325 -0.003325 0.000000 0.000000 0.000000 0.035601
#
#
# Mechanical properties :
#
#
# Convention : Reuss Voigt Hill
#
# Bulk Modulus (GPa) = 36.41507 39.07368 37.74437
# Shear Modulus (GPa) = 33.20933 36.84975 35.02954
#
# Velocity S-wave (km/s) = 3.40355 3.58525 3.49558
# Velocity P-wave (km/s) = 5.30547 5.54694 5.42754
#
# Compressibility (1/GPa) = 0.02746116
#
# Stress axis : x y z
#
# Youngs Moduli (GPa) = 83.29328 83.29328 47.21689
#
# Poissons Ratio (x) = 0.17240 0.16042
# Poissons Ratio (y) = 0.17240 0.16042
# Poissons Ratio (z) = 0.28298 0.28298
#
# Static dielectric constant tensor:
#      x y z
#    x 2.310680 0.000000 0.000000 
#    y 0.000000 2.310680 0.000000 
#    z 0.000000 0.000000 2.685860 
# 
# From -- ./inp_files/688.got.cif
#   From: 2010.05.17/outbox.cif.g08.bks.cpg/sg78_cif.got.tgz:688.got - 2010.06.03 18:45:56.
