data_PCOD9541303
_publ_section_title
;
Structure prediction by ZEFSAII (Michael W. Deem and Ramdas Pophale) SiO2 
 PCOD9541303
Probable space group: P 41
;
_chemical_formula_sum "Si O2"
_cell_formula_units_Z 28
_cell_length_a 8.440037
_cell_length_b 8.440037
_cell_length_c 16.345158
_cell_angle_alpha 90.000000
_cell_angle_beta 90.000000
_cell_angle_gamma 90.000000
_cell_volume 1164.334655
_symmetry_space_group_name_H-M "P 41"
_symmetry_group_IT_number 76
_symmetry_cell_setting 'tetragonal'
loop_
_space_group_symop_operation_xyz
x,y,z
-y,x,1/4+z
-x,-y,1/2+z
y,-x,3/4+z
loop_
_atom_site_type_symbol
_atom_site_label
_atom_site_fract_x
_atom_site_fract_y
_atom_site_fract_z
Si Si1 0.017583 0.367687 0.848520
Si Si2 0.463667 0.978453 0.414950
Si Si3 0.970372 0.726707 0.881691
Si Si4 0.527142 0.521585 0.809003
Si Si5 0.797208 0.716360 0.727117
Si Si6 0.199281 0.273516 0.541273
Si Si7 0.348209 0.329228 0.934895
O O1 0.059420 0.378034 0.751609
O O2 0.169674 0.342757 0.904804
O O3 0.949435 0.537423 0.874702
O O4 0.872305 0.246518 0.849644
O O5 0.359002 0.949271 0.335028
O O6 0.594331 0.840960 0.407222
O O7 0.561322 0.137607 0.430032
O O8 0.930203 0.782046 0.790489
O O9 0.850669 0.784177 0.951711
O O10 0.145424 0.758181 0.914509
O O11 0.656311 0.654312 0.785981
O O12 0.610171 0.352144 0.783417
O O13 0.464506 0.465005 0.897263
O O14 0.363982 0.602972 0.776935
#
# Coordination Sequence:
#
# PCOD9541303 Si02
#       7
#     4   4   4   4   4   4   4
#     4  11  23  46  68 105 143 178 244 301 359 441
#     4  10  24  44  67 104 140 182 234 301 356 432
#     4  11  25  44  71 108 142 194 241 299 372 428
#     4  11  21  38  71  97 134 183 242 296 338 430
#     4  11  24  47  70 104 147 190 246 299 364 449
#     4  11  25  42  73 104 144 188 240 300 372 432
#     4  11  22  39  68 102 134 183 237 300 359 414
#
# _framework density 24.048068000000001
#
# number of rings (size 3 to 8) (size 9 to 14) (size 15 to 20)
#    0.000    1.143    5.714    0.857    4.000    2.286 
#    5.143    0.000    0.000    0.000    0.000    0.000 
#    0.000    0.000    0.000    0.000    0.000    0.000 
#
# Total GULP energy -156330.935541 kJ/mol
# GULP energy per Si atom -5583.247698 kJ/mol
# Density = 2.399333 g / cm^3
# Si number density = 24.048068 Si / 1000 Ang^3
#
#
#
# Elastic Constant Matrix: (Units=GPa)
#
#
# Indices 1 2 3 4 5 6 
#
# 1 69.9952 30.8480 27.1954 0.0000 0.0000 -1.5900
# 2 30.8480 69.9952 27.1954 0.0000 0.0000 1.5900
# 3 27.1954 27.1954 66.5910 0.0000 0.0000 0.0000
# 4 0.0000 0.0000 0.0000 43.1084 0.0000 0.0000
# 5 0.0000 0.0000 0.0000 0.0000 43.1084 0.0000
# 6 -1.5900 1.5900 0.0000 0.0000 0.0000 39.4759
#
#
#
# Elastic Compliance Matrix: (Units=1/GPa)
#
#
# Indices 1 2 3 4 5 6 
#
# 1 0.019173 -0.006455 -0.005194 0.000000 0.000000 0.001032
# 2 -0.006455 0.019173 -0.005194 0.000000 0.000000 -0.001032
# 3 -0.005194 -0.005194 0.019259 0.000000 0.000000 0.000000
# 4 0.000000 0.000000 0.000000 0.023197 0.000000 0.000000
# 5 0.000000 0.000000 0.000000 0.000000 0.023197 0.000000
# 6 0.001032 -0.001032 0.000000 0.000000 0.000000 0.025415
#
#
# Mechanical properties :
#
#
# Convention : Reuss Voigt Hill
#
# Bulk Modulus (GPa) = 41.80706 41.89542 41.85124
# Shear Modulus (GPa) = 29.22705 33.22807 31.22756
#
# Velocity S-wave (km/s) = 3.48998 3.72120 3.60745
# Velocity P-wave (km/s) = 5.80194 5.99354 5.89852
#
# Compressibility (1/GPa) = 0.02391940
#
# Stress axis : x y z
#
# Youngs Moduli (GPa) = 52.15648 52.15648 51.92290
#
# Poissons Ratio (x) = 0.33669 0.26968
# Poissons Ratio (y) = 0.33669 0.26968
# Poissons Ratio (z) = 0.27089 0.27089
#
# Static dielectric constant tensor:
#      x y z
#    x 1.928270 0.000000 0.000000 
#    y 0.000000 1.928270 0.000000 
#    z 0.000000 0.000000 1.938380 
# 
# From -- ./inp_files/1284.got.cif
#   From: 2010.05.17/outbox.cif.g08.bks.cpg/sg76_cif.got.tgz:1284.got - 2010.06.03 18:43:17.
