data_PCOD9541553
_publ_section_title
;
Structure prediction by ZEFSAII (Michael W. Deem and Ramdas Pophale) SiO2 
 PCOD9541553
Probable space group: P 42
;
_chemical_formula_sum "Si O2"
_cell_formula_units_Z 24
_cell_length_a 9.257974
_cell_length_b 9.257974
_cell_length_c 13.092146
_cell_angle_alpha 90.000000
_cell_angle_beta 90.000000
_cell_angle_gamma 90.000000
_cell_volume 1122.128915
_symmetry_space_group_name_H-M "P 42"
_symmetry_group_IT_number 77
_symmetry_cell_setting 'tetragonal'
loop_
_space_group_symop_operation_xyz
x,y,z
-y,x,1/2+z
-x,-y,z
y,-x,1/2+z
loop_
_atom_site_type_symbol
_atom_site_label
_atom_site_fract_x
_atom_site_fract_y
_atom_site_fract_z
Si Si1 0.329463 0.986538 0.292090
Si Si2 0.740470 0.189621 0.724678
Si Si3 0.633006 0.596848 0.040132
Si Si4 0.282715 0.155058 0.717683
Si Si5 0.388986 0.118663 0.506699
Si Si6 0.488837 0.672714 0.841553
O O1 0.233385 0.093488 0.225523
O O2 0.323588 0.036533 0.410222
O O3 0.500000 0.000000 0.265431
O O4 0.255383 0.834136 0.273074
O O5 0.674591 0.272415 0.626001
O O6 0.671397 0.269088 0.823360
O O7 0.725047 0.017260 0.735247
O O8 0.500000 0.500000 0.082752
O O9 0.743999 0.489374 0.982449
O O10 0.558713 0.694481 0.953126
O O11 0.280826 0.167856 0.594899
O O12 0.428437 0.226897 0.759961
O O13 0.500000 0.000000 0.554211
O O14 0.500000 0.500000 0.822242
#
# Coordination Sequence:
#
# PCOD9541553 Si02
#       6
#     4   4   4   4   4   4
#     4  11  26  45  70  99 147 188 243 297 359 433
#     4  12  24  45  65 104 145 185 238 297 368 433
#     4  11  23  39  73 104 139 183 241 298 359 421
#     4  12  24  43  72 102 138 194 232 298 365 434
#     4  11  21  44  71 100 134 193 234 290 373 432
#     4  11  22  42  71 105 134 180 245 297 346 424
#
# _framework density 21.387916000000001
#
# number of rings (size 3 to 8) (size 9 to 14) (size 15 to 20)
#    0.000    0.667    3.333    6.500    2.333    0.000 
#    3.000    1.667    0.000    0.000    0.000    0.000 
#    0.000    0.000    0.000    0.000    0.000    0.000 
#
# Total GULP energy -133962.558453 kJ/mol
# GULP energy per Si atom -5581.773269 kJ/mol
# Density = 2.133924 g / cm^3
# Si number density = 21.387916 Si / 1000 Ang^3
#
#
#
# Elastic Constant Matrix: (Units=GPa)
#
#
# Indices 1 2 3 4 5 6 
#
# 1 82.4682 -10.9703 8.7531 0.0000 0.0000 -6.4905
# 2 -10.9703 82.4682 8.7531 0.0000 0.0000 6.4905
# 3 8.7531 8.7531 90.5411 0.0000 0.0000 0.0000
# 4 0.0000 0.0000 0.0000 24.9896 0.0000 0.0000
# 5 0.0000 0.0000 0.0000 0.0000 24.9896 0.0000
# 6 -6.4905 6.4905 0.0000 0.0000 0.0000 41.8098
#
#
#
# Elastic Compliance Matrix: (Units=1/GPa)
#
#
# Indices 1 2 3 4 5 6 
#
# 1 0.012632 0.001694 -0.001385 0.000000 0.000000 0.001698
# 2 0.001694 0.012632 -0.001385 0.000000 0.000000 -0.001698
# 3 -0.001385 -0.001385 0.011312 0.000000 0.000000 0.000000
# 4 0.000000 0.000000 0.000000 0.040017 0.000000 0.000000
# 5 0.000000 0.000000 0.000000 0.000000 0.040017 0.000000
# 6 0.001698 -0.001698 0.000000 0.000000 0.000000 0.024445
#
#
# Mechanical properties :
#
#
# Convention : Reuss Voigt Hill
#
# Bulk Modulus (GPa) = 29.04962 29.83879 29.44421
# Shear Modulus (GPa) = 32.32449 34.95390 33.63919
#
# Velocity S-wave (km/s) = 3.89182 4.04701 3.97017
# Velocity P-wave (km/s) = 5.81436 5.98492 5.90025
#
# Compressibility (1/GPa) = 0.03442385
#
# Stress axis : x y z
#
# Youngs Moduli (GPa) = 79.16512 79.16512 88.39791
#
# Poissons Ratio (x) = -0.13408 0.12242
# Poissons Ratio (y) = -0.13408 0.12242
# Poissons Ratio (z) = 0.10964 0.10964
#
# Static dielectric constant tensor:
#      x y z
#    x 1.797180 0.000000 0.000000 
#    y 0.000000 1.797180 0.000000 
#    z 0.000000 0.000000 1.826780 
# 
# From -- ./inp_files/1110.got.cif
#   From: 2010.05.17/outbox.cif.g08.bks.cpg/sg77_cif.got.tgz:1110.got - 2010.06.03 18:44:51.
