data_PCOD9541851
_publ_section_title
;
Structure prediction by ZEFSAII (Michael W. Deem and Ramdas Pophale) SiO2 
 PCOD9541851
Probable space group: I 4
;
_chemical_formula_sum "Si O2"
_cell_formula_units_Z 40
_cell_length_a 14.587338
_cell_length_b 14.587338
_cell_length_c 8.035596
_cell_angle_alpha 90.000000
_cell_angle_beta 90.000000
_cell_angle_gamma 90.000000
_cell_volume 1709.897928
_symmetry_space_group_name_H-M "I 4"
_symmetry_group_IT_number 79
_symmetry_cell_setting 'tetragonal'
loop_
_space_group_symop_operation_xyz
x,y,z
-y,x,z
-x,-y,z
y,-x,z
1/2+x,1/2+y,1/2+z
1/2-y,1/2+x,1/2+z
1/2-x,1/2-y,1/2+z
1/2+y,1/2-x,1/2+z
loop_
_atom_site_type_symbol
_atom_site_label
_atom_site_fract_x
_atom_site_fract_y
_atom_site_fract_z
Si Si1 0.665002 0.919079 0.745770
Si Si2 0.634783 0.733560 0.605819
Si Si3 0.896344 0.404280 0.399476
Si Si4 0.545123 0.353798 0.090964
Si Si5 0.233511 0.060816 0.222544
O O1 0.649918 0.810042 0.751983
O O2 0.618524 0.947670 0.569655
O O3 0.772730 0.935569 0.720263
O O4 0.619353 0.989055 0.871620
O O5 0.639195 0.795188 0.440196
O O6 0.703227 0.650576 0.623829
O O7 0.530647 0.701932 0.630135
O O8 0.938628 0.342753 0.254723
O O9 0.610687 0.441368 0.109137
O O10 0.560795 0.313197 0.905263
#
# Coordination Sequence:
#
# PCOD9541851 Si02
#       5
#     8   8   8   8   8
#     4   9  22  44  61 100 130 172 223 280 346 404
#     4  10  24  40  65  96 126 178 219 283 339 399
#     4   9  23  44  63  99 128 176 224 279 347 401
#     4  10  20  38  68  93 125 171 227 280 335 404
#     4  11  21  41  65  93 126 175 222 276 340 404
#
# _framework density 23.393208000000001
#
# number of rings (size 3 to 8) (size 9 to 14) (size 15 to 20)
#    1.200    1.000    2.000    0.000    2.800    2.800 
#   10.800    0.000    0.000    0.000    0.000    0.000 
#    0.000    0.000    0.000    0.000    0.000    0.000 
#
# Total GULP energy -111716.903023 kJ/mol
# GULP energy per Si atom -5585.845151 kJ/mol
# Density = 2.333996 g / cm^3
# Si number density = 23.393208 Si / 1000 Ang^3
#
#
#
# Elastic Constant Matrix: (Units=GPa)
#
#
# Indices 1 2 3 4 5 6 
#
# 1 94.9302 20.8970 6.3848 0.0000 0.0000 12.6737
# 2 20.8970 94.9302 6.3848 0.0000 0.0000 -12.6737
# 3 6.3848 6.3848 40.3586 0.0000 0.0000 0.0000
# 4 0.0000 0.0000 0.0000 22.2069 0.0000 0.0000
# 5 0.0000 0.0000 0.0000 0.0000 22.2069 0.0000
# 6 12.6737 -12.6737 0.0000 0.0000 0.0000 28.7000
#
#
#
# Elastic Compliance Matrix: (Units=1/GPa)
#
#
# Indices 1 2 3 4 5 6 
#
# 1 0.012350 -0.003563 -0.001390 0.000000 0.000000 -0.007027
# 2 -0.003563 0.012350 -0.001390 0.000000 0.000000 0.007027
# 3 -0.001390 -0.001390 0.025218 0.000000 0.000000 0.000000
# 4 0.000000 0.000000 0.000000 0.045031 0.000000 0.000000
# 5 0.000000 0.000000 0.000000 0.000000 0.045031 0.000000
# 6 -0.007027 0.007027 0.000000 0.000000 0.000000 0.041050
#
#
# Mechanical properties :
#
#
# Convention : Reuss Voigt Hill
#
# Bulk Modulus (GPa) = 26.85936 33.06134 29.96035
# Shear Modulus (GPa) = 24.25687 27.72623 25.99155
#
# Velocity S-wave (km/s) = 3.22362 3.44645 3.33689
# Velocity P-wave (km/s) = 5.03609 5.47731 5.26133
#
# Compressibility (1/GPa) = 0.03723097
#
# Stress axis : x y z
#
# Youngs Moduli (GPa) = 80.97080 80.97080 39.65464
#
# Poissons Ratio (x) = 0.28852 0.05512
# Poissons Ratio (y) = 0.28852 0.05512
# Poissons Ratio (z) = 0.11256 0.11256
#
# Static dielectric constant tensor:
#      x y z
#    x 1.863740 0.000000 0.000000 
#    y 0.000000 1.863740 0.000000 
#    z 0.000000 0.000000 1.895490 
# 
# From -- ./inp_files/563.got.cif
#   From: 2010.05.17/outbox.cif.g08.bks.cpg/sg79_cif.got.tgz:563.got - 2010.06.03 18:47:27.
