data_PCOD9541434
_publ_section_title
;
Structure prediction by ZEFSAII (Michael W. Deem and Ramdas Pophale) SiO2 
 PCOD9541434
Probable space group: P 41
;
_chemical_formula_sum "Si O2"
_cell_formula_units_Z 16
_cell_length_a 7.615892
_cell_length_b 7.615892
_cell_length_c 9.891211
_cell_angle_alpha 90.000000
_cell_angle_beta 90.000000
_cell_angle_gamma 90.000000
_cell_volume 573.708151
_symmetry_space_group_name_H-M "P 41"
_symmetry_group_IT_number 76
_symmetry_cell_setting 'tetragonal'
loop_
_space_group_symop_operation_xyz
x,y,z
-y,x,1/4+z
-x,-y,1/2+z
y,-x,3/4+z
loop_
_atom_site_type_symbol
_atom_site_label
_atom_site_fract_x
_atom_site_fract_y
_atom_site_fract_z
Si Si1 0.203167 0.190808 0.742890
Si Si2 0.239867 0.810433 0.795457
Si Si3 0.463566 0.662897 0.144116
Si Si4 0.643586 0.899911 0.810665
O O1 0.391017 0.189860 0.668735
O O2 0.068358 0.294237 0.646636
O O3 0.140245 0.994956 0.773186
O O4 0.250781 0.263733 0.891114
O O5 0.437544 0.862227 0.840961
O O6 0.135199 0.691060 0.902205
O O7 0.448691 0.529902 0.268066
O O8 0.271443 0.738900 0.123184
#
# Coordination Sequence:
#
# PCOD9541434 Si02
#       4
#     4   4   4   4
#     4  12  31  52  83 129 176 230 297 374 451 539
#     4  12  31  54  87 127 174 236 295 380 451 540
#     4  12  25  50  88 123 170 233 295 368 448 541
#     4  12  29  56  88 129 176 235 305 364 456 546
#
# _framework density 27.888742000000001
#
# number of rings (size 3 to 8) (size 9 to 14) (size 15 to 20)
#    0.000    0.000    2.500    4.500   10.500    2.000 
#    0.000    0.000    0.000    0.000    0.000    0.000 
#    0.000    0.000    0.000    0.000    0.000    0.000 
#
# Total GULP energy -89642.486881 kJ/mol
# GULP energy per Si atom -5602.655430 kJ/mol
# Density = 2.782527 g / cm^3
# Si number density = 27.888742 Si / 1000 Ang^3
#
#
#
# Elastic Constant Matrix: (Units=GPa)
#
#
# Indices 1 2 3 4 5 6 
#
# 1 124.8867 -16.1981 41.9661 0.0000 0.0000 10.3523
# 2 -16.1981 124.8867 41.9661 0.0000 0.0000 -10.3523
# 3 41.9661 41.9661 199.5044 0.0000 0.0000 0.0000
# 4 0.0000 0.0000 0.0000 52.5810 0.0000 0.0000
# 5 0.0000 0.0000 0.0000 0.0000 52.5810 0.0000
# 6 10.3523 -10.3523 0.0000 0.0000 0.0000 28.7795
#
#
#
# Elastic Compliance Matrix: (Units=1/GPa)
#
#
# Indices 1 2 3 4 5 6 
#
# 1 0.009234 0.001751 -0.002311 0.000000 0.000000 -0.002692
# 2 0.001751 0.009234 -0.002311 0.000000 0.000000 0.002692
# 3 -0.002311 -0.002311 0.005985 0.000000 0.000000 0.000000
# 4 0.000000 0.000000 0.000000 0.019018 0.000000 0.000000
# 5 0.000000 0.000000 0.000000 0.000000 0.019018 0.000000
# 6 -0.002692 0.002692 0.000000 0.000000 0.000000 0.036683
#
#
# Mechanical properties :
#
#
# Convention : Reuss Voigt Hill
#
# Bulk Modulus (GPa) = 53.44255 64.97176 59.20716
# Shear Modulus (GPa) = 44.98408 52.22456 48.60432
#
# Velocity S-wave (km/s) = 4.02055 4.33205 4.17921
# Velocity P-wave (km/s) = 6.38416 6.95483 6.67559
#
# Compressibility (1/GPa) = 0.01871168
#
# Stress axis : x y z
#
# Youngs Moduli (GPa) = 108.29582 108.29582 167.09710
#
# Poissons Ratio (x) = -0.18963 0.38611
# Poissons Ratio (y) = -0.18963 0.38611
# Poissons Ratio (z) = 0.25024 0.25024
#
# Static dielectric constant tensor:
#      x y z
#    x 2.177010 0.000000 0.000000 
#    y 0.000000 2.177010 0.000000 
#    z 0.000000 0.000000 2.301700 
# 
# From -- ./inp_files/424.got.cif
#   From: 2010.05.17/outbox.cif.g08.bks.cpg/sg76_cif.got.tgz:424.got - 2010.06.03 18:43:17.
