data_PCOD9541627
_publ_section_title
;
Structure prediction by ZEFSAII (Michael W. Deem and Ramdas Pophale) SiO2 
 PCOD9541627
Probable space group: P 43
;
_chemical_formula_sum "Si O2"
_cell_formula_units_Z 32
_cell_length_a 11.046685
_cell_length_b 11.046685
_cell_length_c 11.091071
_cell_angle_alpha 90.000000
_cell_angle_beta 90.000000
_cell_angle_gamma 90.000000
_cell_volume 1353.435070
_symmetry_space_group_name_H-M "P 43"
_symmetry_group_IT_number 78
_symmetry_cell_setting 'tetragonal'
loop_
_space_group_symop_operation_xyz
x,y,z
-y,x,3/4+z
-x,-y,1/2+z
y,-x,1/4+z
loop_
_atom_site_type_symbol
_atom_site_label
_atom_site_fract_x
_atom_site_fract_y
_atom_site_fract_z
Si Si1 0.724986 0.052172 0.293950
Si Si2 0.599905 0.463984 0.466722
Si Si3 0.877623 0.378458 0.898113
Si Si4 0.033289 0.807967 0.804248
Si Si5 0.791035 0.508178 0.125376
Si Si6 0.009321 0.826218 0.542271
Si Si7 0.752713 0.801109 0.423259
Si Si8 0.537180 0.155601 0.626006
O O1 0.725534 0.034884 0.150325
O O2 0.606430 0.105769 0.351459
O O3 0.831591 0.145893 0.327429
O O4 0.742754 0.916056 0.337891
O O5 0.543141 0.551770 0.357438
O O6 0.567607 0.337282 0.402927
O O7 0.746414 0.483558 0.470546
O O8 0.811550 0.357477 0.770041
O O9 0.011715 0.442973 0.896085
O O10 0.792796 0.433347 0.002206
O O11 0.911280 0.246623 0.948018
O O12 0.020109 0.759802 0.669808
O O13 0.957266 0.933554 0.808281
O O14 0.826254 0.455762 0.256443
O O15 0.875417 0.826081 0.496018
O O16 0.785660 0.672857 0.362092
#
# Coordination Sequence:
#
# PCOD9541627 Si02
#       8
#     4   4   4   4   4   4   4   4
#     4  11  22  36  61  96 130 184 217 272 346 422
#     4  10  25  49  74  96 135 186 248 302 351 408
#     4  11  24  40  71 102 140 176 224 287 353 411
#     4  10  21  32  59  94 135 176 219 257 336 415
#     4  11  25  44  64  97 137 177 229 304 340 396
#     4  10  20  38  58 100 139 174 213 275 331 417
#     4  11  21  40  70  96 138 178 228 269 349 426
#     4  10  24  45  69 103 136 179 230 292 344 421
#
# _framework density 23.643543000000001
#
# number of rings (size 3 to 8) (size 9 to 14) (size 15 to 20)
#    0.000    1.500    2.500    2.250    5.250    8.000 
#    0.000    0.000    0.000    0.000    0.000    0.000 
#    0.000    0.000    0.000    0.000    0.000    0.000 
#
# Total GULP energy -178461.017775 kJ/mol
# GULP energy per Si atom -5576.906805 kJ/mol
# Density = 2.358973 g / cm^3
# Si number density = 23.643543 Si / 1000 Ang^3
#
#
#
# Elastic Constant Matrix: (Units=GPa)
#
#
# Indices 1 2 3 4 5 6 
#
# 1 37.5462 -13.3197 7.7130 0.0000 0.0000 10.0598
# 2 -13.3197 37.5462 7.7130 0.0000 0.0000 -10.0598
# 3 7.7130 7.7130 102.7921 0.0000 0.0000 0.0000
# 4 0.0000 0.0000 0.0000 36.3273 0.0000 0.0000
# 5 0.0000 0.0000 0.0000 0.0000 36.3273 0.0000
# 6 10.0598 -10.0598 0.0000 0.0000 0.0000 34.2089
#
#
#
# Elastic Compliance Matrix: (Units=1/GPa)
#
#
# Indices 1 2 3 4 5 6 
#
# 1 0.032798 0.010551 -0.003253 0.000000 0.000000 -0.006542
# 2 0.010551 0.032798 -0.003253 0.000000 0.000000 0.006542
# 3 -0.003253 -0.003253 0.010216 0.000000 0.000000 0.000000
# 4 0.000000 0.000000 0.000000 0.027527 0.000000 0.000000
# 5 0.000000 0.000000 0.000000 0.000000 0.027527 0.000000
# 6 -0.006542 0.006542 0.000000 0.000000 0.000000 0.033080
#
#
# Mechanical properties :
#
#
# Convention : Reuss Voigt Hill
#
# Bulk Modulus (GPa) = 11.91857 20.23297 16.07577
# Shear Modulus (GPa) = 27.19994 33.09126 30.14560
#
# Velocity S-wave (km/s) = 3.39546 3.74517 3.57459
# Velocity P-wave (km/s) = 4.51930 5.22281 4.88374
#
# Compressibility (1/GPa) = 0.08390267
#
# Stress axis : x y z
#
# Youngs Moduli (GPa) = 30.48986 30.48986 97.88094
#
# Poissons Ratio (x) = -0.32168 0.31837
# Poissons Ratio (y) = -0.32168 0.31837
# Poissons Ratio (z) = 0.09917 0.09917
#
# Static dielectric constant tensor:
#      x y z
#    x 1.900680 0.000000 0.000000 
#    y 0.000000 1.900680 0.000000 
#    z 0.000000 0.000000 1.998200 
# 
# From -- ./inp_files/951.got.cif
#   From: 2010.05.17/outbox.cif.g08.bks.cpg/sg78_cif.got.tgz:951.got - 2010.06.03 18:45:56.
