data_PCOD9541821
_publ_section_title
;
Structure prediction by ZEFSAII (Michael W. Deem and Ramdas Pophale) SiO2 
 PCOD9541821
Probable space group: I 4
;
_chemical_formula_sum "Si O2"
_cell_formula_units_Z 56
_cell_length_a 25.279234
_cell_length_b 25.279234
_cell_length_c 5.010640
_cell_angle_alpha 90.000000
_cell_angle_beta 90.000000
_cell_angle_gamma 90.000000
_cell_volume 3201.997740
_symmetry_space_group_name_H-M "I 4"
_symmetry_group_IT_number 79
_symmetry_cell_setting 'tetragonal'
loop_
_space_group_symop_operation_xyz
x,y,z
-y,x,z
-x,-y,z
y,-x,z
1/2+x,1/2+y,1/2+z
1/2-y,1/2+x,1/2+z
1/2-x,1/2-y,1/2+z
1/2+y,1/2-x,1/2+z
loop_
_atom_site_type_symbol
_atom_site_label
_atom_site_fract_x
_atom_site_fract_y
_atom_site_fract_z
Si Si1 0.717671 0.813673 0.765190
Si Si2 0.729928 0.592604 0.565348
Si Si3 0.684825 0.416316 0.142093
Si Si4 0.741032 0.177823 0.755313
Si Si5 0.535015 0.419130 0.974172
Si Si6 0.111265 0.118891 0.118034
Si Si7 0.532761 0.297454 0.086664
O O1 0.773988 0.783104 0.767726
O O2 0.693249 0.804331 0.471149
O O3 0.728853 0.868476 0.920178
O O4 0.679210 0.782244 0.960254
O O5 0.672535 0.620261 0.538647
O O6 0.726771 0.542212 0.375121
O O7 0.729855 0.571773 0.869877
O O8 0.728117 0.377116 0.269527
O O9 0.644983 0.423964 0.390371
O O10 0.707172 0.470988 0.028681
O O11 0.651925 0.392298 0.894180
O O12 0.566182 0.474044 0.022833
O O13 0.558464 0.406492 0.677205
O O14 0.544582 0.360789 0.096330
#
# Coordination Sequence:
#
# PCOD9541821 Si02
#       7
#     8   8   8   8   8   8   8
#     4  10  20  34  52  79 100 124 167 207 284 324
#     4  11  22  37  55  72 100 131 173 218 270 333
#     4  12  22  38  54  73 102 131 173 217 277 340
#     4  10  21  32  53  78 100 128 157 220 274 335
#     4  10  21  37  49  66  90 127 185 237 278 320
#     4  11  22  35  51  68  94 134 165 228 280 320
#     4  11  24  37  53  75  95 140 177 221 284 318
#
# _framework density 17.489082
#
# number of rings (size 3 to 8) (size 9 to 14) (size 15 to 20)
#    0.000    1.286    2.857    4.286    6.000    0.000 
#    0.000    0.000    0.000    0.000    0.000    0.000 
#    0.000    0.000    0.000    0.000    0.000   20.000 
#
# Total GULP energy -155934.452320 kJ/mol
# GULP energy per Si atom -5569.087583 kJ/mol
# Density = 1.744928 g / cm^3
# Si number density = 17.489082 Si / 1000 Ang^3
#
#
#
# Elastic Constant Matrix: (Units=GPa)
#
#
# Indices 1 2 3 4 5 6 
#
# 1 40.7021 24.8097 5.0543 0.0000 0.0000 2.6500
# 2 24.8097 40.7021 5.0543 0.0000 0.0000 -2.6500
# 3 5.0543 5.0543 74.8043 0.0000 0.0000 0.0000
# 4 0.0000 0.0000 0.0000 20.7159 0.0000 0.0000
# 5 0.0000 0.0000 0.0000 0.0000 20.7159 0.0000
# 6 2.6500 -2.6500 0.0000 0.0000 0.0000 24.4771
#
#
#
# Elastic Compliance Matrix: (Units=1/GPa)
#
#
# Indices 1 2 3 4 5 6 
#
# 1 0.040353 -0.024927 -0.001042 0.000000 0.000000 -0.007067
# 2 -0.024927 0.040353 -0.001042 0.000000 0.000000 0.007067
# 3 -0.001042 -0.001042 0.013509 0.000000 0.000000 0.000000
# 4 0.000000 0.000000 0.000000 0.048272 0.000000 0.000000
# 5 0.000000 0.000000 0.000000 0.000000 0.048272 0.000000
# 6 -0.007067 0.007067 0.000000 0.000000 0.000000 0.042385
#
#
# Mechanical properties :
#
#
# Convention : Reuss Voigt Hill
#
# Bulk Modulus (GPa) = 24.88144 25.11612 24.99878
# Shear Modulus (GPa) = 16.63541 21.26781 18.95161
#
# Velocity S-wave (km/s) = 3.08748 3.49099 3.29542
# Velocity P-wave (km/s) = 5.19305 5.53548 5.36700
#
# Compressibility (1/GPa) = 0.04019060
#
# Stress axis : x y z
#
# Youngs Moduli (GPa) = 24.78155 24.78155 74.02440
#
# Poissons Ratio (x) = 0.61774 0.07715
# Poissons Ratio (y) = 0.61774 0.07715
# Poissons Ratio (z) = 0.02583 0.02583
#
# Static dielectric constant tensor:
#      x y z
#    x 1.620950 0.000000 0.000000 
#    y 0.000000 1.620950 0.000000 
#    z 0.000000 0.000000 1.641060 
# 
# From -- ./inp_files/284.got.cif
#   From: 2010.05.17/outbox.cif.g08.bks.cpg/sg79_cif.got.tgz:284.got - 2010.06.03 18:47:27.
