data_PCOD9541279
_publ_section_title
;
Structure prediction by ZEFSAII (Michael W. Deem and Ramdas Pophale) SiO2 
 PCOD9541279
Probable space group: P 41
;
_chemical_formula_sum "Si O2"
_cell_formula_units_Z 32
_cell_length_a 8.304712
_cell_length_b 8.304712
_cell_length_c 18.236244
_cell_angle_alpha 90.000000
_cell_angle_beta 90.000000
_cell_angle_gamma 90.000000
_cell_volume 1257.721678
_symmetry_space_group_name_H-M "P 41"
_symmetry_group_IT_number 76
_symmetry_cell_setting 'tetragonal'
loop_
_space_group_symop_operation_xyz
x,y,z
-y,x,1/4+z
-x,-y,1/2+z
y,-x,3/4+z
loop_
_atom_site_type_symbol
_atom_site_label
_atom_site_fract_x
_atom_site_fract_y
_atom_site_fract_z
Si Si1 0.363389 0.490673 0.092090
Si Si2 0.984194 0.454274 0.261720
Si Si3 0.426372 0.348134 0.938793
Si Si4 0.633288 0.023771 0.762720
Si Si5 0.094430 0.954882 0.383885
Si Si6 0.849478 0.796914 0.663680
Si Si7 0.621418 0.062934 0.164473
Si Si8 0.209431 0.707437 0.196927
O O1 0.536837 0.510069 0.130555
O O2 0.257622 0.336428 0.120658
O O3 0.259276 0.643558 0.116853
O O4 0.398676 0.463465 0.008257
O O5 0.818310 0.500642 0.218873
O O6 0.031182 0.285602 0.223486
O O7 0.960991 0.491447 0.347851
O O8 0.138985 0.559486 0.240520
O O9 0.246458 0.319119 0.908814
O O10 0.747591 0.042786 0.832637
O O11 0.450870 0.969872 0.746070
O O12 0.638624 0.203173 0.729346
O O13 0.725276 0.896932 0.711950
O O14 0.049756 0.773547 0.401016
O O15 0.163145 0.064923 0.449701
O O16 0.927843 0.051014 0.364967
#
# Coordination Sequence:
#
# PCOD9541279 Si02
#       8
#     4   4   4   4   4   4   4   4
#     4  11  25  44  70 107 146 195 246 302 373 458
#     4  11  23  44  66 103 151 190 240 294 372 451
#     4  12  23  43  71 104 142 195 240 297 373 447
#     4  11  23  41  69 102 135 184 240 303 361 428
#     4  11  24  44  71 103 143 184 242 308 367 435
#     4  10  23  41  73 100 140 189 240 307 354 444
#     4  12  24  44  72 109 146 188 247 308 379 447
#     4  10  25  43  64 102 137 183 239 297 361 430
#
# _framework density 25.442834000000001
#
# number of rings (size 3 to 8) (size 9 to 14) (size 15 to 20)
#    0.000    1.000    5.000    0.750    5.250    2.000 
#    2.250    1.250    0.000    0.000    0.000    0.000 
#    0.000    0.000    0.000    0.000    0.000    0.000 
#
# Total GULP energy -178699.174255 kJ/mol
# GULP energy per Si atom -5584.349195 kJ/mol
# Density = 2.538493 g / cm^3
# Si number density = 25.442834 Si / 1000 Ang^3
#
#
#
# Elastic Constant Matrix: (Units=GPa)
#
#
# Indices 1 2 3 4 5 6 
#
# 1 78.1058 16.9638 -1.4602 0.0000 0.0000 -6.4875
# 2 16.9638 78.1058 -1.4602 0.0000 0.0000 6.4875
# 3 -1.4602 -1.4602 49.5765 0.0000 0.0000 0.0000
# 4 0.0000 0.0000 0.0000 31.9756 0.0000 0.0000
# 5 0.0000 0.0000 0.0000 0.0000 31.9756 0.0000
# 6 -6.4875 6.4875 0.0000 0.0000 0.0000 41.8844
#
#
#
# Elastic Compliance Matrix: (Units=1/GPa)
#
#
# Indices 1 2 3 4 5 6 
#
# 1 0.013720 -0.003192 0.000310 0.000000 0.000000 0.002619
# 2 -0.003192 0.013720 0.000310 0.000000 0.000000 -0.002619
# 3 0.000310 0.000310 0.020189 0.000000 0.000000 0.000000
# 4 0.000000 0.000000 0.000000 0.031274 0.000000 0.000000
# 5 0.000000 0.000000 0.000000 0.000000 0.031274 0.000000
# 6 0.002619 -0.002619 0.000000 0.000000 0.000000 0.024687
#
#
# Mechanical properties :
#
#
# Convention : Reuss Voigt Hill
#
# Bulk Modulus (GPa) = 23.53732 25.98612 24.76172
# Shear Modulus (GPa) = 32.43229 33.95013 33.19121
#
# Velocity S-wave (km/s) = 3.57418 3.65686 3.61576
# Velocity P-wave (km/s) = 5.12876 5.29773 5.21393
#
# Compressibility (1/GPa) = 0.04248572
#
# Stress axis : x y z
#
# Youngs Moduli (GPa) = 72.88801 72.88801 49.53167
#
# Poissons Ratio (x) = 0.23263 -0.01536
# Poissons Ratio (y) = 0.23263 -0.01536
# Poissons Ratio (z) = -0.02260 -0.02260
#
# Static dielectric constant tensor:
#      x y z
#    x 2.043200 0.000000 0.000000 
#    y 0.000000 2.043200 0.000000 
#    z 0.000000 0.000000 2.053960 
# 
# From -- ./inp_files/1473.got.cif
#   From: 2010.05.17/outbox.cif.g08.bks.cpg/sg76_cif.got.tgz:1473.got - 2010.06.03 18:43:17.
