data_PCOD9541991
_publ_section_title
;
Structure prediction by ZEFSAII (Michael W. Deem and Ramdas Pophale) SiO2 
 PCOD9541991
Probable space group: I 4
;
_chemical_formula_sum "Si O2"
_cell_formula_units_Z 40
_cell_length_a 8.463837
_cell_length_b 8.463837
_cell_length_c 25.254422
_cell_angle_alpha 90.000000
_cell_angle_beta 90.000000
_cell_angle_gamma 90.000000
_cell_volume 1809.139330
_symmetry_space_group_name_H-M "I 4"
_symmetry_group_IT_number 79
_symmetry_cell_setting 'tetragonal'
loop_
_space_group_symop_operation_xyz
x,y,z
-y,x,z
-x,-y,z
y,-x,z
1/2+x,1/2+y,1/2+z
1/2-y,1/2+x,1/2+z
1/2-x,1/2-y,1/2+z
1/2+y,1/2-x,1/2+z
loop_
_atom_site_type_symbol
_atom_site_label
_atom_site_fract_x
_atom_site_fract_y
_atom_site_fract_z
Si Si1 0.236705 0.460084 0.463450
Si Si2 0.762916 0.466697 0.343738
Si Si3 0.429010 0.242562 0.047177
Si Si4 0.925777 0.255294 0.262307
Si Si5 0.247502 0.414684 0.640295
O O1 0.376882 0.330567 0.473231
O O2 0.180974 0.499146 0.403675
O O3 0.105150 0.376883 0.499159
O O4 0.666504 0.627396 0.336283
O O5 0.886236 0.391962 0.303317
O O6 0.604502 0.313434 0.045565
O O7 0.383134 0.147044 0.100051
O O8 0.903233 0.305712 0.201280
O O9 0.102226 0.187402 0.269242
O O10 0.405647 0.307770 0.632155
#
# Coordination Sequence:
#
# PCOD9541991 Si02
#       5
#     8   8   8   8   8
#     4   9  19  39  61  82 111 153 204 251 299 360
#     4   9  19  37  57  82 115 154 203 253 300 354
#     4  11  24  39  57  89 128 160 200 256 312 362
#     4   9  19  37  61  92 128 162 201 249 302 360
#     4   9  19  37  62  91 124 164 206 248 297 362
#
# _framework density 22.109960999999998
#
# number of rings (size 3 to 8) (size 9 to 14) (size 15 to 20)
#    0.000    2.600    0.000    3.600    0.000    7.200 
#    0.000   26.000    0.000    9.600    0.000    0.000 
#    0.000    0.000    0.000    0.000    0.000    0.000 
#
# Total GULP energy -111504.816950 kJ/mol
# GULP energy per Si atom -5575.240848 kJ/mol
# Density = 2.205964 g / cm^3
# Si number density = 22.109961 Si / 1000 Ang^3
#
#
#
# Elastic Constant Matrix: (Units=GPa)
#
#
# Indices 1 2 3 4 5 6 
#
# 1 86.0711 102.5660 92.9725 0.0000 0.0000 7.5234
# 2 102.5660 86.0711 92.9725 0.0000 0.0000 -7.5234
# 3 92.9725 92.9725 170.4241 0.0000 0.0000 0.0000
# 4 0.0000 0.0000 0.0000 -134.3354 0.0000 0.0000
# 5 0.0000 0.0000 0.0000 0.0000 -134.3354 0.0000
# 6 7.5234 -7.5234 0.0000 0.0000 0.0000 61.8851
#
#
#
# Elastic Compliance Matrix: (Units=1/GPa)
#
#
# Indices 1 2 3 4 5 6 
#
# 1 -0.021552 0.033021 -0.006256 0.000000 0.000000 0.006634
# 2 0.033021 -0.021552 -0.006256 0.000000 0.000000 -0.006634
# 3 -0.006256 -0.006256 0.012694 0.000000 0.000000 0.000000
# 4 0.000000 0.000000 0.000000 -0.007444 0.000000 0.000000
# 5 0.000000 0.000000 0.000000 0.000000 -0.007444 0.000000
# 6 0.006634 -0.006634 0.000000 0.000000 0.000000 0.014546
#
#
# Mechanical properties :
#
#
# Convention : Reuss Voigt Hill
#
# Bulk Modulus (GPa) = 94.29556 102.17647 98.23602
# Shear Modulus (GPa) = -73.27743 -37.75344 -55.51543
#
# Velocity S-wave (km/s) = -5.76318 -4.13671 -5.01630
# Velocity P-wave (km/s) = 1.24281 4.84734 3.31301
#
# Compressibility (1/GPa) = 0.01060495
#
# Stress axis : x y z
#
# Youngs Moduli (GPa) = -46.39872 -46.39873 78.77853
#
# Poissons Ratio (x) = 1.53211 0.49286
# Poissons Ratio (y) = 1.53211 0.49286
# Poissons Ratio (z) = -0.29029 -0.29029
#
# Static dielectric constant tensor:
#      x y z
#    x 2.178900 0.000000 0.000000 
#    y 0.000000 2.178900 0.000000 
#    z 0.000000 0.000000 1.823930 
# 
# From -- ./inp_files/1896.got.cif
#   From: 2010.05.17/outbox.cif.g08.bks.cpg/sg79_cif.got.tgz:1896.got - 2010.06.03 18:47:27.
