data_PCOD9541903
_publ_section_title
;
Structure prediction by ZEFSAII (Michael W. Deem and Ramdas Pophale) SiO2 
 PCOD9541903
Probable space group: I 4
;
_chemical_formula_sum "Si O2"
_cell_formula_units_Z 44
_cell_length_a 10.985976
_cell_length_b 10.985976
_cell_length_c 14.743244
_cell_angle_alpha 90.000000
_cell_angle_beta 90.000000
_cell_angle_gamma 90.000000
_cell_volume 1779.386720
_symmetry_space_group_name_H-M "I 4"
_symmetry_group_IT_number 79
_symmetry_cell_setting 'tetragonal'
loop_
_space_group_symop_operation_xyz
x,y,z
-y,x,z
-x,-y,z
y,-x,z
1/2+x,1/2+y,1/2+z
1/2-y,1/2+x,1/2+z
1/2-x,1/2-y,1/2+z
1/2+y,1/2-x,1/2+z
loop_
_atom_site_type_symbol
_atom_site_label
_atom_site_fract_x
_atom_site_fract_y
_atom_site_fract_z
Si Si1 0.000000 0.000000 0.487901
Si Si2 0.296195 0.480015 0.701785
Si Si3 0.266204 0.104307 0.533974
Si Si4 0.855062 0.652397 0.838944
Si Si5 0.855058 0.652399 0.564625
Si Si6 0.500000 0.500000 0.415666
Si Si7 0.233797 0.395692 0.369594
O O1 0.142274 0.046184 0.493559
O O2 0.398274 0.373833 0.701785
O O3 0.211286 0.457415 0.788532
O O4 0.211286 0.457414 0.615037
O O5 0.346986 0.139589 0.447414
O O6 0.221128 0.224371 0.585762
O O7 0.328581 0.995609 0.589183
O O8 0.778878 0.775628 0.817809
O O9 0.995613 0.671414 0.814386
O O10 0.846983 0.639593 0.456155
O O11 0.357723 0.453824 0.410009
#
# Coordination Sequence:
#
# PCOD9541903 Si02
#       7
#     2   8   8   8   8   2   8
#     4   8  16  32  60  86 112 164 208 258 284 372
#     4  11  28  44  64  93 134 176 210 264 337 398
#     4   9  20  37  66  90 124 166 220 260 308 380
#     4  10  22  41  62  97 125 172 213 264 322 383
#     4  10  22  41  62  97 125 172 213 264 322 383
#     4   8  16  32  60  86 112 164 208 258 284 372
#     4   9  20  37  66  90 124 166 220 260 308 380
#
# _framework density 24.727619000000001
#
# number of rings (size 3 to 8) (size 9 to 14) (size 15 to 20)
#    0.000    2.364    0.000    0.000   15.273    2.182 
#    0.000    1.818    0.000    6.545    0.000    0.000 
#    0.000    0.000    0.000    0.000    0.000    0.000 
#
# Total GULP energy -122590.557918 kJ/mol
# GULP energy per Si atom -5572.298087 kJ/mol
# Density = 2.467134 g / cm^3
# Si number density = 24.727619 Si / 1000 Ang^3
#
#
#
# Elastic Constant Matrix: (Units=GPa)
#
#
# Indices 1 2 3 4 5 6 
#
# 1 109.2529 25.6087 14.4111 0.0000 0.0000 5.8567
# 2 25.6087 109.2529 14.4111 0.0000 0.0000 -5.8567
# 3 14.4111 14.4111 72.1103 0.0000 0.0000 0.0000
# 4 0.0000 0.0000 0.0000 21.3788 0.0000 0.0000
# 5 0.0000 0.0000 0.0000 0.0000 21.3788 0.0000
# 6 5.8567 -5.8567 0.0000 0.0000 0.0000 60.5304
#
#
#
# Elastic Compliance Matrix: (Units=1/GPa)
#
#
# Indices 1 2 3 4 5 6 
#
# 1 0.009933 -0.002187 -0.001548 0.000000 0.000000 -0.001173
# 2 -0.002187 0.009933 -0.001548 0.000000 0.000000 0.001173
# 3 -0.001548 -0.001548 0.014486 0.000000 0.000000 0.000000
# 4 0.000000 0.000000 0.000000 0.046775 0.000000 0.000000
# 5 0.000000 0.000000 0.000000 0.000000 0.046775 0.000000
# 6 -0.001173 0.001173 0.000000 0.000000 0.000000 0.016748
#
#
# Mechanical properties :
#
#
# Convention : Reuss Voigt Hill
#
# Bulk Modulus (GPa) = 42.04138 44.38643 43.21390
# Shear Modulus (GPa) = 30.64770 36.40328 33.52549
#
# Velocity S-wave (km/s) = 3.52435 3.84105 3.68610
# Velocity P-wave (km/s) = 5.79656 6.13683 5.96912
#
# Compressibility (1/GPa) = 0.02378609
#
# Stress axis : x y z
#
# Youngs Moduli (GPa) = 100.67727 100.67727 69.03041
#
# Poissons Ratio (x) = 0.22017 0.10686
# Poissons Ratio (y) = 0.22017 0.10686
# Poissons Ratio (z) = 0.15585 0.15585
#
# Static dielectric constant tensor:
#      x y z
#    x 1.952110 0.000000 0.000000 
#    y 0.000000 1.952110 0.000000 
#    z 0.000000 0.000000 1.964440 
# 
# From -- ./inp_files/1596.got.cif
#   From: 2010.05.17/outbox.cif.g08.bks.cpg/sg79_cif.got.tgz:1596.got - 2010.06.03 18:47:27.
