data_PCOD9541258
_publ_section_title
;
Structure prediction by ZEFSAII (Michael W. Deem and Ramdas Pophale) SiO2 
 PCOD9541258
Probable space group: P 41
;
_chemical_formula_sum "Si O2"
_cell_formula_units_Z 20
_cell_length_a 7.933068
_cell_length_b 7.933068
_cell_length_c 13.498327
_cell_angle_alpha 90.000000
_cell_angle_beta 90.000000
_cell_angle_gamma 90.000000
_cell_volume 849.497879
_symmetry_space_group_name_H-M "P 41"
_symmetry_group_IT_number 76
_symmetry_cell_setting 'tetragonal'
loop_
_space_group_symop_operation_xyz
x,y,z
-y,x,1/4+z
-x,-y,1/2+z
y,-x,3/4+z
loop_
_atom_site_type_symbol
_atom_site_label
_atom_site_fract_x
_atom_site_fract_y
_atom_site_fract_z
Si Si1 0.679782 0.757625 0.937690
Si Si2 0.667783 0.380535 0.885255
Si Si3 0.780572 0.931162 0.744655
Si Si4 0.150325 0.177658 0.042374
Si Si5 0.799843 0.323311 0.089246
O O1 0.615425 0.571506 0.909816
O O2 0.677827 0.871874 0.840549
O O3 0.598491 0.800386 0.044159
O O4 0.876163 0.748901 0.968078
O O5 0.507860 0.273890 0.852595
O O6 0.734278 0.278203 0.979833
O O7 0.738909 0.832709 0.642578
O O8 0.982149 0.908026 0.769899
O O9 0.997158 0.294477 0.075653
O O10 0.226536 0.244501 0.940261
#
# Coordination Sequence:
#
# PCOD9541258 Si02
#       5
#     4   4   4   4   4
#     4  10  22  45  66  95 136 174 219 273 327 395
#     4  10  24  44  60  96 144 180 208 264 342 400
#     4   9  20  42  72 100 125 167 229 278 320 379
#     4   9  20  42  72 100 125 167 229 278 320 379
#     4  10  22  45  66  95 136 174 219 273 327 395
#
# _framework density 23.543316999999998
#
# number of rings (size 3 to 8) (size 9 to 14) (size 15 to 20)
#    0.000    2.400    0.000    0.000    8.400    0.000 
#   57.600    0.000    0.000    0.000    0.000    0.000 
#    0.000    0.000    0.000    0.000    0.000    0.000 
#
# Total GULP energy -111545.105806 kJ/mol
# GULP energy per Si atom -5577.255290 kJ/mol
# Density = 2.348973 g / cm^3
# Si number density = 23.543317 Si / 1000 Ang^3
#
#
#
# Elastic Constant Matrix: (Units=GPa)
#
#
# Indices 1 2 3 4 5 6 
#
# 1 14.9207 35.6235 25.6820 0.0000 0.0000 17.8754
# 2 35.6235 14.9207 25.6820 0.0000 0.0000 -17.8754
# 3 25.6820 25.6820 188.3922 0.0000 0.0000 0.0000
# 4 0.0000 0.0000 0.0000 -267.0750 0.0000 0.0000
# 5 0.0000 0.0000 0.0000 0.0000 -267.0750 0.0000
# 6 17.8754 -17.8754 0.0000 0.0000 0.0000 20.3965
#
#
#
# Elastic Compliance Matrix: (Units=1/GPa)
#
#
# Indices 1 2 3 4 5 6 
#
# 1 0.001874 0.021092 -0.003131 0.000000 0.000000 0.016843
# 2 0.021092 0.001874 -0.003131 0.000000 0.000000 -0.016843
# 3 -0.003131 -0.003131 0.006162 0.000000 0.000000 0.000000
# 4 0.000000 0.000000 0.000000 -0.003744 0.000000 0.000000
# 5 0.000000 0.000000 0.000000 0.000000 -0.003744 0.000000
# 6 0.016843 -0.016843 0.000000 0.000000 0.000000 0.019507
#
#
# Mechanical properties :
#
#
# Convention : Reuss Voigt Hill
#
# Bulk Modulus (GPa) = 25.27103 43.57871 34.42487
# Shear Modulus (GPa) = 916.21757 -94.00095 411.10831
#
# Velocity S-wave (km/s) = 19.74860 -6.32562 13.22864
# Velocity P-wave (km/s) = 23.03838 5.89925 15.74747
#
# Compressibility (1/GPa) = 0.03957100
#
# Stress axis : x y z
#
# Youngs Moduli (GPa) = 533.58373 533.58373 162.29364
#
# Poissons Ratio (x) = -11.25443 0.50811
# Poissons Ratio (y) = -11.25443 0.50811
# Poissons Ratio (z) = 1.67055 1.67055
#
# Static dielectric constant tensor:
#      x y z
#    x 2.047130 0.000000 0.000000 
#    y 0.000000 2.047130 0.000000 
#    z 0.000000 0.000000 2.108090 
# 
# From -- ./inp_files/1015.got.cif
#   From: 2010.05.17/outbox.cif.g08.bks.cpg/sg76_cif.got.tgz:1015.got - 2010.06.03 18:43:17.
