data_PCOD9541946
_publ_section_title
;
Structure prediction by ZEFSAII (Michael W. Deem and Ramdas Pophale) SiO2 
 PCOD9541946
Probable space group: I 4
;
_chemical_formula_sum "Si O2"
_cell_formula_units_Z 32
_cell_length_a 12.136774
_cell_length_b 12.136774
_cell_length_c 7.159925
_cell_angle_alpha 90.000000
_cell_angle_beta 90.000000
_cell_angle_gamma 90.000000
_cell_volume 1054.666140
_symmetry_space_group_name_H-M "I 4"
_symmetry_group_IT_number 79
_symmetry_cell_setting 'tetragonal'
loop_
_space_group_symop_operation_xyz
x,y,z
-y,x,z
-x,-y,z
y,-x,z
1/2+x,1/2+y,1/2+z
1/2-y,1/2+x,1/2+z
1/2-x,1/2-y,1/2+z
1/2+y,1/2-x,1/2+z
loop_
_atom_site_type_symbol
_atom_site_label
_atom_site_fract_x
_atom_site_fract_y
_atom_site_fract_z
Si Si1 0.071015 0.827317 0.311530
Si Si2 0.571015 0.672683 0.251687
Si Si3 0.344371 0.877556 0.060091
Si Si4 0.122444 0.655629 0.003126
O O1 0.056247 0.865495 0.734888
O O2 0.104156 0.726175 0.449147
O O3 0.349736 0.849736 0.281608
O O4 0.943753 0.865495 0.328330
O O5 0.604156 0.773825 0.114070
O O6 0.600784 0.732000 0.445056
O O7 0.100784 0.768000 0.118161
O O8 0.394135 0.000000 0.031608
#
# Coordination Sequence:
#
# PCOD9541946 Si02
#       4
#     8   8   8   8
#     4  10  26  60 103 149 210 283 365 447 541 653
#     4  10  26  60 103 149 210 283 365 447 541 653
#     4  11  28  61  97 150 210 279 354 446 544 646
#     4  11  28  61  97 150 210 279 354 446 544 646
#
# _framework density 30.341352000000001
#
# number of rings (size 3 to 8) (size 9 to 14) (size 15 to 20)
#    0.000    1.500    0.000    0.000    0.000   14.000 
#   36.000   22.500   11.000    6.000    0.000    0.000 
#    0.000    0.000    0.000    0.000    0.000    0.000 
#
# Total GULP energy -89534.001185 kJ/mol
# GULP energy per Si atom -5595.875074 kJ/mol
# Density = 3.027229 g / cm^3
# Si number density = 30.341352 Si / 1000 Ang^3
#
#
#
# Elastic Constant Matrix: (Units=GPa)
#
#
# Indices 1 2 3 4 5 6 
#
# 1 371.9351 190.3572 160.2814 0.0000 0.0000 0.0002
# 2 190.3572 371.9351 160.2814 0.0000 0.0000 -0.0002
# 3 160.2814 160.2814 348.0200 0.0000 0.0000 0.0000
# 4 0.0000 0.0000 0.0000 65.5932 0.0000 0.0000
# 5 0.0000 0.0000 0.0000 0.0000 65.5932 0.0000
# 6 0.0002 -0.0002 0.0000 0.0000 0.0000 38.7711
#
#
#
# Elastic Compliance Matrix: (Units=1/GPa)
#
#
# Indices 1 2 3 4 5 6 
#
# 1 0.003959 -0.001548 -0.001111 0.000000 0.000000 0.000000
# 2 -0.001548 0.003959 -0.001111 0.000000 0.000000 0.000000
# 3 -0.001111 -0.001111 0.003896 0.000000 0.000000 0.000000
# 4 0.000000 0.000000 0.000000 0.015245 0.000000 0.000000
# 5 0.000000 0.000000 0.000000 0.000000 0.015245 0.000000
# 6 0.000000 0.000000 0.000000 0.000000 0.000000 0.025792
#
#
# Mechanical properties :
#
#
# Convention : Reuss Voigt Hill
#
# Bulk Modulus (GPa) = 233.80937 234.85890 234.33413
# Shear Modulus (GPa) = 64.88216 72.72284 68.80250
#
# Velocity S-wave (km/s) = 4.62931 4.90105 4.76711
# Velocity P-wave (km/s) = 10.28596 10.46903 10.37790
#
# Compressibility (1/GPa) = 0.00427699
#
# Stress axis : x y z
#
# Youngs Moduli (GPa) = 252.55991 252.55991 256.64369
#
# Poissons Ratio (x) = 0.39092 0.28505
# Poissons Ratio (y) = 0.39092 0.28505
# Poissons Ratio (z) = 0.28051 0.28051
#
# Static dielectric constant tensor:
#      x y z
#    x 2.662360 0.000000 0.000000 
#    y 0.000000 2.662360 0.000000 
#    z 0.000000 0.000000 2.515130 
# 
# From -- ./inp_files/1266.got.cif
#   From: 2010.05.17/outbox.cif.g08.bks.cpg/sg79_cif.got.tgz:1266.got - 2010.06.03 18:47:27.
