data_PCOD9541445
_publ_section_title
;
Structure prediction by ZEFSAII (Michael W. Deem and Ramdas Pophale) SiO2 
 PCOD9541445
Probable space group: P 41
;
_chemical_formula_sum "Si O2"
_cell_formula_units_Z 16
_cell_length_a 11.026399
_cell_length_b 11.026399
_cell_length_c 4.824698
_cell_angle_alpha 90.000000
_cell_angle_beta 90.000000
_cell_angle_gamma 90.000000
_cell_volume 586.593899
_symmetry_space_group_name_H-M "P 41"
_symmetry_group_IT_number 76
_symmetry_cell_setting 'tetragonal'
loop_
_space_group_symop_operation_xyz
x,y,z
-y,x,1/4+z
-x,-y,1/2+z
y,-x,3/4+z
loop_
_atom_site_type_symbol
_atom_site_label
_atom_site_fract_x
_atom_site_fract_y
_atom_site_fract_z
Si Si1 0.553888 0.679660 0.478520
Si Si2 0.144717 0.118022 0.870509
Si Si3 0.762278 0.754739 0.853423
Si Si4 0.081181 0.471018 0.412054
O O1 0.424760 0.625097 0.565104
O O2 0.792372 0.786592 0.167576
O O3 0.533310 0.802801 0.307356
O O4 0.348153 0.862805 0.035013
O O5 0.145180 0.992384 0.708853
O O6 0.213405 0.127989 0.161413
O O7 0.633118 0.706867 0.752444
O O8 0.015859 0.541564 0.161660
#
# Coordination Sequence:
#
# PCOD9541445 Si02
#       4
#     4   4   4   4
#     4  12  28  55  87 124 173 229 294 355 434 529
#     4  12  27  50  79 117 164 221 284 348 424 514
#     4  12  28  49  82 123 158 227 274 354 436 499
#     4  12  29  52  82 126 171 217 284 357 438 516
#
# _framework density 27.276114
#
# number of rings (size 3 to 8) (size 9 to 14) (size 15 to 20)
#    0.000    0.000    0.000    9.000   10.500    4.000 
#    0.000    0.000    0.000    0.000    0.000    0.000 
#    0.000    0.000    0.000    0.000    0.000    0.000 
#
# Total GULP energy -89898.274251 kJ/mol
# GULP energy per Si atom -5618.642141 kJ/mol
# Density = 2.721403 g / cm^3
# Si number density = 27.276114 Si / 1000 Ang^3
#
#
#
# Elastic Constant Matrix: (Units=GPa)
#
#
# Indices 1 2 3 4 5 6 
#
# 1 173.3250 87.8683 73.2141 0.0000 0.0000 5.2667
# 2 87.8683 173.3250 73.2141 0.0000 0.0000 -5.2667
# 3 73.2141 73.2141 181.4551 0.0000 0.0000 0.0000
# 4 0.0000 0.0000 0.0000 52.2086 0.0000 0.0000
# 5 0.0000 0.0000 0.0000 0.0000 52.2086 0.0000
# 6 5.2667 -5.2667 0.0000 0.0000 0.0000 26.7689
#
#
#
# Elastic Compliance Matrix: (Units=1/GPa)
#
#
# Indices 1 2 3 4 5 6 
#
# 1 0.008470 -0.003522 -0.001996 0.000000 0.000000 -0.002360
# 2 -0.003522 0.008470 -0.001996 0.000000 0.000000 0.002360
# 3 -0.001996 -0.001996 0.007122 0.000000 0.000000 0.000000
# 4 0.000000 0.000000 0.000000 0.019154 0.000000 0.000000
# 5 0.000000 0.000000 0.000000 0.000000 0.019154 0.000000
# 6 -0.002360 0.002360 0.000000 0.000000 0.000000 0.038285
#
#
# Mechanical properties :
#
#
# Convention : Reuss Voigt Hill
#
# Bulk Modulus (GPa) = 110.71567 110.74423 110.72995
# Shear Modulus (GPa) = 42.12429 45.82450 43.97440
#
# Velocity S-wave (km/s) = 3.93411 4.10325 4.01957
# Velocity P-wave (km/s) = 7.83039 7.94596 7.88839
#
# Compressibility (1/GPa) = 0.00903215
#
# Stress axis : x y z
#
# Youngs Moduli (GPa) = 118.06086 118.06086 140.41044
#
# Poissons Ratio (x) = 0.41586 0.28031
# Poissons Ratio (y) = 0.41586 0.28031
# Poissons Ratio (z) = 0.23569 0.23569
#
# Static dielectric constant tensor:
#      x y z
#    x 2.105600 0.000000 0.000000 
#    y 0.000000 2.105600 0.000000 
#    z 0.000000 0.000000 2.069410 
# 
# From -- ./inp_files/111.got.cif
#   From: 2010.05.17/outbox.cif.g08.bks.cpg/sg76_cif.got.tgz:111.got - 2010.06.03 18:43:17.
