data_PCOD9541169
_publ_section_title
;
Structure prediction by ZEFSAII (Michael W. Deem and Ramdas Pophale) SiO2 
 PCOD9541169
Probable space group: P 41
;
_chemical_formula_sum "Si O2"
_cell_formula_units_Z 16
_cell_length_a 12.223617
_cell_length_b 12.223617
_cell_length_c 4.897113
_cell_angle_alpha 90.000000
_cell_angle_beta 90.000000
_cell_angle_gamma 90.000000
_cell_volume 731.711015
_symmetry_space_group_name_H-M "P 41"
_symmetry_group_IT_number 76
_symmetry_cell_setting 'tetragonal'
loop_
_space_group_symop_operation_xyz
x,y,z
-y,x,1/4+z
-x,-y,1/2+z
y,-x,3/4+z
loop_
_atom_site_type_symbol
_atom_site_label
_atom_site_fract_x
_atom_site_fract_y
_atom_site_fract_z
Si Si1 0.579376 0.351230 0.001050
Si Si2 0.743802 0.682904 0.745293
Si Si3 0.619328 0.908252 0.675699
Si Si4 0.047203 0.360147 0.932912
O O1 0.629175 0.469612 0.078536
O O2 0.584190 0.302892 0.306025
O O3 0.646057 0.266980 0.809017
O O4 0.667850 0.789620 0.729975
O O5 0.859235 0.705019 0.596806
O O6 0.487839 0.916371 0.696595
O O7 0.648247 0.939489 0.368435
O O8 0.663406 0.002615 0.880901
#
# Coordination Sequence:
#
# PCOD9541169 Si02
#       4
#     4   4   4   4
#     4  12  23  36  54  86 127 162 198 244 306 386
#     4  12  23  38  62  86 117 164 210 254 316 380
#     4  10  21  38  59  86 119 155 201 255 308 370
#     4  10  21  38  59  86 119 155 201 255 308 370
#
# _framework density 21.866558999999999
#
# number of rings (size 3 to 8) (size 9 to 14) (size 15 to 20)
#    0.000    1.000    0.000    9.000    0.000    4.000 
#    0.000    0.000    0.000    3.000    0.000    0.000 
#    0.000    0.000    0.000    0.000    0.000    0.000 
#
# Total GULP energy -89200.099422 kJ/mol
# GULP energy per Si atom -5575.006214 kJ/mol
# Density = 2.181679 g / cm^3
# Si number density = 21.866559 Si / 1000 Ang^3
#
#
#
# Elastic Constant Matrix: (Units=GPa)
#
#
# Indices 1 2 3 4 5 6 
#
# 1 39.3205 24.9858 15.9648 0.0000 0.0000 -7.7526
# 2 24.9858 39.3205 15.9648 0.0000 0.0000 7.7526
# 3 15.9648 15.9648 122.8945 0.0000 0.0000 0.0000
# 4 0.0000 0.0000 0.0000 23.5661 0.0000 0.0000
# 5 0.0000 0.0000 0.0000 0.0000 23.5661 0.0000
# 6 -7.7526 7.7526 0.0000 0.0000 0.0000 6.5392
#
#
#
# Elastic Compliance Matrix: (Units=1/GPa)
#
#
# Indices 1 2 3 4 5 6 
#
# 1 -0.115228 0.131851 -0.002159 0.000000 0.000000 -0.292923
# 2 0.131851 -0.115228 -0.002159 0.000000 0.000000 0.292923
# 3 -0.002159 -0.002159 0.008698 0.000000 0.000000 0.000000
# 4 0.000000 0.000000 0.000000 0.042434 0.000000 0.000000
# 5 0.000000 0.000000 0.000000 0.000000 0.042434 0.000000
# 6 -0.292923 0.292923 0.000000 0.000000 0.000000 -0.541624
#
#
# Mechanical properties :
#
#
# Convention : Reuss Voigt Hill
#
# Bulk Modulus (GPa) = 30.02462 35.04073 32.53267
# Shear Modulus (GPa) = -5.42020 20.37562 7.47771
#
# Velocity S-wave (km/s) = -1.57612 3.05588 1.85125
# Velocity P-wave (km/s) = 3.23241 5.33955 4.41357
#
# Compressibility (1/GPa) = 0.03330600
#
# Stress axis : x y z
#
# Youngs Moduli (GPa) = -8.67846 -8.67846 114.96759
#
# Poissons Ratio (x) = 1.14426 0.24826
# Poissons Ratio (y) = 1.14426 0.24826
# Poissons Ratio (z) = -0.01874 -0.01874
#
# Static dielectric constant tensor:
#      x y z
#    x 1.843170 0.000000 0.000000 
#    y 0.000000 1.843170 0.000000 
#    z 0.000000 0.000000 1.764240 
# 
# From -- ./inp_files/58.got.cif
#   From: 2010.05.17/outbox.cif.g08.bks.cpg/sg76_cif.got.tgz:58.got - 2010.06.03 18:43:17.
