data_PCOD9541232
_publ_section_title
;
Structure prediction by ZEFSAII (Michael W. Deem and Ramdas Pophale) SiO2 
 PCOD9541232
Probable space group: P 41
;
_chemical_formula_sum "Si O2"
_cell_formula_units_Z 28
_cell_length_a 12.751392
_cell_length_b 12.751392
_cell_length_c 7.228312
_cell_angle_alpha 90.000000
_cell_angle_beta 90.000000
_cell_angle_gamma 90.000000
_cell_volume 1175.309060
_symmetry_space_group_name_H-M "P 41"
_symmetry_group_IT_number 76
_symmetry_cell_setting 'tetragonal'
loop_
_space_group_symop_operation_xyz
x,y,z
-y,x,1/4+z
-x,-y,1/2+z
y,-x,3/4+z
loop_
_atom_site_type_symbol
_atom_site_label
_atom_site_fract_x
_atom_site_fract_y
_atom_site_fract_z
Si Si1 0.589521 0.617084 0.274470
Si Si2 0.421868 0.156234 0.637075
Si Si3 0.943133 0.878979 0.994694
Si Si4 0.057901 0.313142 0.313938
Si Si5 0.200700 0.104591 0.822307
Si Si6 0.191514 0.332707 0.975266
Si Si7 0.044230 0.476111 0.724876
O O1 0.487341 0.606462 0.404074
O O2 0.572863 0.718302 0.139506
O O3 0.692045 0.637395 0.404804
O O4 0.308282 0.129040 0.715449
O O5 0.504987 0.112709 0.791142
O O6 0.434949 0.076371 0.465300
O O7 0.914748 0.754017 0.993887
O O8 0.898808 0.939263 0.815115
O O9 0.880628 0.927564 0.168009
O O10 0.976441 0.408401 0.307616
O O11 0.159236 0.342716 0.191266
O O12 0.987464 0.224891 0.212998
O O13 0.172829 0.211903 0.924621
O O14 0.108514 0.403980 0.864410
#
# Coordination Sequence:
#
# PCOD9541232 Si02
#       7
#     4   4   4   4   4   4   4
#     4  11  25  45  69  97 145 190 225 281 350 424
#     4  10  23  41  67 100 128 175 225 287 339 396
#     4  12  25  40  63  93 132 178 216 269 338 422
#     4  11  24  41  65  99 127 172 226 279 337 403
#     4  10  22  40  64  91 133 169 216 274 338 395
#     4  11  22  43  67  95 132 177 222 289 341 401
#     4  11  21  40  69  95 129 167 224 289 339 387
#
# _framework density 23.823519000000001
#
# number of rings (size 3 to 8) (size 9 to 14) (size 15 to 20)
#    0.000    1.143    4.286    2.571    2.000    1.143 
#    0.000    0.000    0.000    0.000    0.000    0.000 
#    0.000    0.000    0.000    0.000    0.000    0.000 
#
# Total GULP energy -156386.132167 kJ/mol
# GULP energy per Si atom -5585.219006 kJ/mol
# Density = 2.376930 g / cm^3
# Si number density = 23.823519 Si / 1000 Ang^3
#
#
#
# Elastic Constant Matrix: (Units=GPa)
#
#
# Indices 1 2 3 4 5 6 
#
# 1 108.6588 29.7502 10.5747 0.0000 0.0000 11.0707
# 2 29.7502 108.6588 10.5747 0.0000 0.0000 -11.0707
# 3 10.5747 10.5747 48.8435 0.0000 0.0000 0.0000
# 4 0.0000 0.0000 0.0000 32.2141 0.0000 0.0000
# 5 0.0000 0.0000 0.0000 0.0000 32.2141 0.0000
# 6 11.0707 -11.0707 0.0000 0.0000 0.0000 41.0515
#
#
#
# Elastic Compliance Matrix: (Units=1/GPa)
#
#
# Indices 1 2 3 4 5 6 
#
# 1 0.010591 -0.003119 -0.001618 0.000000 0.000000 -0.003697
# 2 -0.003119 0.010591 -0.001618 0.000000 0.000000 0.003697
# 3 -0.001618 -0.001618 0.021174 0.000000 0.000000 0.000000
# 4 0.000000 0.000000 0.000000 0.031042 0.000000 0.000000
# 5 0.000000 0.000000 0.000000 0.000000 0.031042 0.000000
# 6 -0.003697 0.003697 0.000000 0.000000 0.000000 0.026354
#
#
# Mechanical properties :
#
#
# Convention : Reuss Voigt Hill
#
# Bulk Modulus (GPa) = 33.72977 40.88448 37.30713
# Shear Modulus (GPa) = 32.59736 35.44670 34.02203
#
# Velocity S-wave (km/s) = 3.70305 3.86150 3.78310
# Velocity P-wave (km/s) = 5.69845 6.08935 5.89714
#
# Compressibility (1/GPa) = 0.02964740
#
# Stress axis : x y z
#
# Youngs Moduli (GPa) = 94.41744 94.41744 47.22769
#
# Poissons Ratio (x) = 0.29450 0.07640
# Poissons Ratio (y) = 0.29450 0.07640
# Poissons Ratio (z) = 0.15274 0.15274
#
# Static dielectric constant tensor:
#      x y z
#    x 1.955500 0.000000 0.000000 
#    y 0.000000 1.955500 0.000000 
#    z 0.000000 0.000000 2.016900 
# 
# From -- ./inp_files/626.got.cif
#   From: 2010.05.17/outbox.cif.g08.bks.cpg/sg76_cif.got.tgz:626.got - 2010.06.03 18:43:17.
