data_PCOD9541818
_publ_section_title
;
Structure prediction by ZEFSAII (Michael W. Deem and Ramdas Pophale) SiO2 
 PCOD9541818
Probable space group: I 4
;
_chemical_formula_sum "Si O2"
_cell_formula_units_Z 24
_cell_length_a 12.204338
_cell_length_b 12.204338
_cell_length_c 6.911736
_cell_angle_alpha 90.000000
_cell_angle_beta 90.000000
_cell_angle_gamma 90.000000
_cell_volume 1029.474504
_symmetry_space_group_name_H-M "I 4"
_symmetry_group_IT_number 79
_symmetry_cell_setting 'tetragonal'
loop_
_space_group_symop_operation_xyz
x,y,z
-y,x,z
-x,-y,z
y,-x,z
1/2+x,1/2+y,1/2+z
1/2-y,1/2+x,1/2+z
1/2-x,1/2-y,1/2+z
1/2+y,1/2-x,1/2+z
loop_
_atom_site_type_symbol
_atom_site_label
_atom_site_fract_x
_atom_site_fract_y
_atom_site_fract_z
Si Si1 0.799656 0.361579 0.321550
Si Si2 0.751236 0.594282 0.153019
Si Si3 0.434579 0.663736 0.738756
O O1 0.791506 0.484325 0.250569
O O2 0.681034 0.306064 0.292547
O O3 0.846528 0.348760 0.536445
O O4 0.880657 0.281831 0.195605
O O5 0.669561 0.567347 0.974475
O O6 0.363053 0.558328 0.677570
#
# Coordination Sequence:
#
# PCOD9541818 Si02
#       3
#     8   8   8
#     4  10  21  39  69 104 141 183 228 289 347 423
#     4  10  19  40  67 103 142 175 237 278 353 415
#     4   9  18  38  71  97 136 176 228 282 352 407
#
# _framework density 23.312867000000001
#
# number of rings (size 3 to 8) (size 9 to 14) (size 15 to 20)
#    2.000    0.333    3.333    0.000    0.000    0.667 
#    6.000    1.667    7.333    0.000    0.000    0.000 
#    0.000    0.000    0.000    0.000    0.000    0.000 
#
# Total GULP energy -66946.540246 kJ/mol
# GULP energy per Si atom -5578.878354 kJ/mol
# Density = 2.325981 g / cm^3
# Si number density = 23.312867 Si / 1000 Ang^3
#
#
#
# Elastic Constant Matrix: (Units=GPa)
#
#
# Indices 1 2 3 4 5 6 
#
# 1 196.2780 104.2683 60.7803 0.0000 0.0000 3.4388
# 2 104.2683 196.2780 60.7803 0.0000 0.0000 -3.4388
# 3 60.7803 60.7803 89.3849 0.0000 0.0000 0.0000
# 4 0.0000 0.0000 0.0000 34.3315 0.0000 0.0000
# 5 0.0000 0.0000 0.0000 0.0000 34.3315 0.0000
# 6 3.4388 -3.4388 0.0000 0.0000 0.0000 18.6170
#
#
#
# Elastic Compliance Matrix: (Units=1/GPa)
#
#
# Indices 1 2 3 4 5 6 
#
# 1 0.007805 -0.003216 -0.003121 0.000000 0.000000 -0.002036
# 2 -0.003216 0.007805 -0.003121 0.000000 0.000000 0.002036
# 3 -0.003121 -0.003121 0.015432 0.000000 0.000000 0.000000
# 4 0.000000 0.000000 0.000000 0.029128 0.000000 0.000000
# 5 0.000000 0.000000 0.000000 0.000000 0.029128 0.000000
# 6 -0.002036 0.002036 0.000000 0.000000 0.000000 0.054466
#
#
# Mechanical properties :
#
#
# Convention : Reuss Voigt Hill
#
# Bulk Modulus (GPa) = 82.45654 103.73322 93.09488
# Shear Modulus (GPa) = 29.99029 34.53012 32.26021
#
# Velocity S-wave (km/s) = 3.59057 3.85276 3.72397
# Velocity P-wave (km/s) = 7.25506 8.02399 7.64919
#
# Compressibility (1/GPa) = 0.01212760
#
# Stress axis : x y z
#
# Youngs Moduli (GPa) = 128.12204 128.12204 64.80134
#
# Poissons Ratio (x) = 0.41198 0.20223
# Poissons Ratio (y) = 0.41198 0.20223
# Poissons Ratio (z) = 0.39984 0.39984
#
# Static dielectric constant tensor:
#      x y z
#    x 1.849110 0.000000 0.000000 
#    y 0.000000 1.849110 0.000000 
#    z 0.000000 0.000000 1.913900 
# 
# From -- ./inp_files/363.got.cif
#   From: 2010.05.17/outbox.cif.g08.bks.cpg/sg79_cif.got.tgz:363.got - 2010.06.03 18:47:27.
