data_PCOD9541573
_publ_section_title
;
Structure prediction by ZEFSAII (Michael W. Deem and Ramdas Pophale) SiO2 
 PCOD9541573
Probable space group: P 42
;
_chemical_formula_sum "Si O2"
_cell_formula_units_Z 20
_cell_length_a 7.558343
_cell_length_b 7.558343
_cell_length_c 13.891727
_cell_angle_alpha 90.000000
_cell_angle_beta 90.000000
_cell_angle_gamma 90.000000
_cell_volume 793.614205
_symmetry_space_group_name_H-M "P 42"
_symmetry_group_IT_number 77
_symmetry_cell_setting 'tetragonal'
loop_
_space_group_symop_operation_xyz
x,y,z
-y,x,1/2+z
-x,-y,z
y,-x,1/2+z
loop_
_atom_site_type_symbol
_atom_site_label
_atom_site_fract_x
_atom_site_fract_y
_atom_site_fract_z
Si Si1 0.027292 0.292633 0.220570
Si Si2 0.937324 0.204109 0.001320
Si Si3 0.790711 0.709288 0.847004
Si Si4 0.792633 0.527293 0.473438
Si Si5 0.437324 0.295891 0.192688
O O1 0.236189 0.259958 0.223824
O O2 0.000000 0.500000 0.237198
O O3 0.959446 0.254036 0.112930
O O4 0.902383 0.195222 0.296724
O O5 0.736190 0.240042 0.970183
O O6 0.000000 0.000000 0.995095
O O7 0.069845 0.306569 0.931948
O O8 0.806569 0.569843 0.762061
O O9 0.597616 0.695222 0.897285
O O10 0.754035 0.459449 0.581078
O O11 0.000000 0.500000 0.456811
O O12 0.500000 0.500000 0.198915
#
# Coordination Sequence:
#
# PCOD9541573 Si02
#       5
#     4   4   4   4   4
#     4  12  25  53  77 115 163 213 278 345 412 490
#     4  12  26  50  81 112 163 217 276 345 413 495
#     4  12  27  50  85 118 162 223 270 345 416 494
#     4  12  25  53  77 115 163 213 278 345 412 490
#     4  12  26  50  81 112 163 217 276 345 413 495
#
# _framework density 25.201159000000001
#
# number of rings (size 3 to 8) (size 9 to 14) (size 15 to 20)
#    0.000    0.000    8.000    0.600    0.000    1.600 
#   14.400    0.000    0.000    0.000    0.000    0.000 
#    0.000    0.000    0.000    0.000    0.000    0.000 
#
# Total GULP energy -112397.542087 kJ/mol
# GULP energy per Si atom -5619.877104 kJ/mol
# Density = 2.514380 g / cm^3
# Si number density = 25.201159 Si / 1000 Ang^3
#
#
#
# Elastic Constant Matrix: (Units=GPa)
#
#
# Indices 1 2 3 4 5 6 
#
# 1 151.2190 26.7466 48.9795 0.0000 0.0000 -0.0002
# 2 26.7466 151.2190 48.9795 0.0000 0.0000 0.0002
# 3 48.9795 48.9795 194.1756 0.0000 0.0000 0.0000
# 4 0.0000 0.0000 0.0000 38.5800 0.0000 0.0000
# 5 0.0000 0.0000 0.0000 0.0000 38.5800 0.0000
# 6 -0.0002 0.0002 0.0000 0.0000 0.0000 29.4107
#
#
#
# Elastic Compliance Matrix: (Units=1/GPa)
#
#
# Indices 1 2 3 4 5 6 
#
# 1 0.007279 -0.000754 -0.001646 0.000000 0.000000 0.000000
# 2 -0.000754 0.007279 -0.001646 0.000000 0.000000 0.000000
# 3 -0.001646 -0.001646 0.005980 0.000000 0.000000 0.000000
# 4 0.000000 0.000000 0.000000 0.025920 0.000000 0.000000
# 5 0.000000 0.000000 0.000000 0.000000 0.025920 0.000000
# 6 0.000000 0.000000 0.000000 0.000000 0.000000 0.034001
#
#
# Mechanical properties :
#
#
# Convention : Reuss Voigt Hill
#
# Bulk Modulus (GPa) = 80.34201 82.89163 81.61682
# Shear Modulus (GPa) = 42.15065 46.10802 44.12933
#
# Velocity S-wave (km/s) = 4.09414 4.28202 4.18913
# Velocity P-wave (km/s) = 7.36877 7.57701 7.47361
#
# Compressibility (1/GPa) = 0.01244679
#
# Stress axis : x y z
#
# Youngs Moduli (GPa) = 137.37264 137.37264 167.21547
#
# Poissons Ratio (x) = 0.10364 0.27522
# Poissons Ratio (y) = 0.10364 0.27522
# Poissons Ratio (z) = 0.22610 0.22610
#
# Static dielectric constant tensor:
#      x y z
#    x 2.008710 0.000000 0.000000 
#    y 0.000000 2.008710 0.000000 
#    z 0.000000 0.000000 1.928670 
# 
# From -- ./inp_files/1008.got.cif
#   From: 2010.05.17/outbox.cif.g08.bks.cpg/sg77_cif.got.tgz:1008.got - 2010.06.03 18:44:51.
