data_PCOD9541032
_publ_section_title
;
Structure prediction by ZEFSAII (Michael W. Deem and Ramdas Pophale) SiO2 
 PCOD9541032
Probable space group: P 4
;
_chemical_formula_sum "Si O2"
_cell_formula_units_Z 24
_cell_length_a 8.197622
_cell_length_b 8.197622
_cell_length_c 16.066766
_cell_angle_alpha 90.000000
_cell_angle_beta 90.000000
_cell_angle_gamma 90.000000
_cell_volume 1079.702846
_symmetry_space_group_name_H-M "P 4"
_symmetry_group_IT_number 75
_symmetry_cell_setting 'tetragonal'
loop_
_space_group_symop_operation_xyz
x,y,z
-y,x,z
-x,-y,z
y,-x,z
loop_
_atom_site_type_symbol
_atom_site_label
_atom_site_fract_x
_atom_site_fract_y
_atom_site_fract_z
Si Si1 0.762170 0.418381 0.710390
Si Si2 0.589598 0.761563 0.393941
Si Si3 0.261565 0.089593 0.868829
Si Si4 0.238321 0.584144 0.209330
Si Si5 0.261680 0.084142 0.053438
Si Si6 0.262170 0.081622 0.552380
O O1 0.696639 0.601772 0.707512
O O2 0.856494 0.378398 0.795157
O O3 0.870168 0.370175 0.631383
O O4 0.403648 0.698427 0.400720
O O5 0.612859 0.833651 0.301374
O O6 0.643515 0.878401 0.467609
O O7 0.096355 0.198425 0.862052
O O8 0.333657 0.112857 0.961395
O O9 0.303324 0.399964 0.204956
O O10 0.128592 0.628597 0.131385
O O11 0.100037 0.196675 0.057809
O O12 0.101770 0.196641 0.555260
#
# Coordination Sequence:
#
# PCOD9541032 Si02
#       6
#     4   4   4   4   4   4
#     4  11  24  39  56  81 110 139 174 217 264 315
#     4   9  19  37  58  79 106 141 180 221 265 313
#     4   9  19  37  58  79 106 141 180 221 265 313
#     4   9  19  35  54  78 109 143 179 221 266 312
#     4   9  19  35  54  78 109 143 179 221 266 312
#     4  11  24  39  56  81 110 139 174 217 264 315
#
# _framework density 22.228335999999999
#
# number of rings (size 3 to 8) (size 9 to 14) (size 15 to 20)
#    0.000    2.333    0.000    4.000    0.000   10.667 
#    0.000   10.000    0.000    0.000    0.000    0.000 
#    0.000    0.000    0.000    0.000    0.000    0.000 
#
# Total GULP energy -134394.930440 kJ/mol
# GULP energy per Si atom -5599.788768 kJ/mol
# Density = 2.217774 g / cm^3
# Si number density = 22.228336 Si / 1000 Ang^3
#
#
#
# Elastic Constant Matrix: (Units=GPa)
#
#
# Indices 1 2 3 4 5 6 
#
# 1 73.5507 52.1553 71.4261 0.0000 0.0000 -0.0009
# 2 52.1553 73.5507 71.4261 0.0000 0.0000 0.0009
# 3 71.4261 71.4261 222.1030 0.0000 0.0000 0.0000
# 4 0.0000 0.0000 0.0000 330.4010 0.0000 0.0000
# 5 0.0000 0.0000 0.0000 0.0000 330.4010 0.0000
# 6 -0.0009 0.0009 0.0000 0.0000 0.0000 44.3868
#
#
#
# Elastic Compliance Matrix: (Units=1/GPa)
#
#
# Indices 1 2 3 4 5 6 
#
# 1 0.029638 -0.017101 -0.004032 0.000000 0.000000 0.000001
# 2 -0.017101 0.029638 -0.004032 0.000000 0.000000 -0.000001
# 3 -0.004032 -0.004032 0.007095 0.000000 0.000000 0.000000
# 4 0.000000 0.000000 0.000000 0.003027 0.000000 0.000000
# 5 0.000000 0.000000 0.000000 0.000000 0.003027 0.000000
# 6 0.000001 -0.000001 0.000000 0.000000 0.000000 0.022529
#
#
# Mechanical properties :
#
#
# Convention : Reuss Voigt Hill
#
# Bulk Modulus (GPa) = 62.33576 84.35769 73.34673
# Shear Modulus (GPa) = 33.19388 152.65088 92.92238
#
# Velocity S-wave (km/s) = 3.86853 8.29597 6.47258
# Velocity P-wave (km/s) = 6.93241 11.39285 9.43015
#
# Compressibility (1/GPa) = 0.01604216
#
# Stress axis : x y z
#
# Youngs Moduli (GPa) = 33.74061 33.74061 140.93446
#
# Poissons Ratio (x) = 0.57701 0.56820
# Poissons Ratio (y) = 0.57701 0.56820
# Poissons Ratio (z) = 0.13603 0.13603
#
# Static dielectric constant tensor:
#      x y z
#    x 1.798510 0.000000 0.000000 
#    y 0.000000 1.798510 0.000000 
#    z 0.000000 0.000000 1.782270 
# 
# From -- ./inp_files/656.got.cif
#   From: 2010.05.17/outbox.cif.g08.bks.cpg/sg75_cif.got.tgz:656.got - 2010.06.03 18:42:43.
