data_PCOD9541028
_publ_section_title
;
Structure prediction by ZEFSAII (Michael W. Deem and Ramdas Pophale) SiO2 
 PCOD9541028
Probable space group: P 4
;
_chemical_formula_sum "Si O2"
_cell_formula_units_Z 28
_cell_length_a 8.127426
_cell_length_b 8.127426
_cell_length_c 19.039557
_cell_angle_alpha 90.000000
_cell_angle_beta 90.000000
_cell_angle_gamma 90.000000
_cell_volume 1257.658954
_symmetry_space_group_name_H-M "P 4"
_symmetry_group_IT_number 75
_symmetry_cell_setting 'tetragonal'
loop_
_space_group_symop_operation_xyz
x,y,z
-y,x,z
-x,-y,z
y,-x,z
loop_
_atom_site_type_symbol
_atom_site_label
_atom_site_fract_x
_atom_site_fract_y
_atom_site_fract_z
Si Si1 0.587349 0.764045 0.447260
Si Si2 0.581435 0.764168 0.872130
Si Si3 0.406701 0.236628 0.143084
Si Si4 0.913444 0.263436 0.581800
Si Si5 0.594333 0.762911 0.295767
Si Si6 0.736312 0.909734 0.736892
Si Si7 0.082497 0.736089 0.006817
O O1 0.400723 0.699164 0.449547
O O2 0.628749 0.868855 0.515146
O O3 0.622376 0.846506 0.371143
O O4 0.396825 0.697992 0.874343
O O5 0.621259 0.858191 0.800364
O O6 0.628799 0.870928 0.939500
O O7 0.595135 0.298880 0.138770
O O8 0.375771 0.157099 0.220014
O O9 0.357244 0.123686 0.078617
O O10 0.884076 0.337891 0.659138
O O11 0.099693 0.199014 0.578530
O O12 0.405331 0.700708 0.295773
O O13 0.902808 0.799983 0.741934
O O14 0.897558 0.801551 0.004582
#
# Coordination Sequence:
#
# PCOD9541028 Si02
#       7
#     4   4   4   4   4   4   4
#     4   9  17  30  50  76 104 134 171 215 259 302
#     4  11  24  39  56  81 108 131 162 206 253 301
#     4   9  17  32  56  81 102 129 170 216 258 302
#     4   9  19  35  52  72 102 139 175 210 251 300
#     4   7  12  26  48  73 101 132 166 208 257 303
#     4   9  19  37  58  77 100 134 174 211 250 300
#     4  11  24  39  54  75 105 139 172 205 246 299
#
# _framework density 22.263587000000001
#
# number of rings (size 3 to 8) (size 9 to 14) (size 15 to 20)
#    0.000    2.714    0.000    4.286    0.000    8.000 
#    0.000    5.714    0.000    6.857    0.000    0.000 
#    0.000    0.000    0.000    0.000    0.000    0.000 
#
# Total GULP energy -156606.412202 kJ/mol
# GULP energy per Si atom -5593.086150 kJ/mol
# Density = 2.221291 g / cm^3
# Si number density = 22.263587 Si / 1000 Ang^3
#
#
#
# Elastic Constant Matrix: (Units=GPa)
#
#
# Indices 1 2 3 4 5 6 
#
# 1 63.6223 45.1991 65.8972 0.0000 0.0000 1.2212
# 2 45.1991 63.6223 65.8972 0.0000 0.0000 -1.2212
# 3 65.8972 65.8972 253.0140 0.0000 0.0000 0.0000
# 4 0.0000 0.0000 0.0000 205.7587 0.0000 0.0000
# 5 0.0000 0.0000 0.0000 0.0000 205.7587 0.0000
# 6 1.2212 -1.2212 0.0000 0.0000 0.0000 37.7144
#
#
#
# Elastic Compliance Matrix: (Units=1/GPa)
#
#
# Indices 1 2 3 4 5 6 
#
# 1 0.033968 -0.020545 -0.003496 0.000000 0.000000 -0.001765
# 2 -0.020545 0.033968 -0.003496 0.000000 0.000000 0.001765
# 3 -0.003496 -0.003496 0.005773 0.000000 0.000000 0.000000
# 4 0.000000 0.000000 0.000000 0.004860 0.000000 0.000000
# 5 0.000000 0.000000 0.000000 0.000000 0.004860 0.000000
# 6 -0.001765 0.001765 0.000000 0.000000 0.000000 0.026629
#
#
# Mechanical properties :
#
#
# Convention : Reuss Voigt Hill
#
# Bulk Modulus (GPa) = 53.65948 81.58282 67.62115
# Shear Modulus (GPa) = 29.18066 103.39738 66.28902
#
# Velocity S-wave (km/s) = 3.62427 6.82226 5.46253
# Velocity P-wave (km/s) = 6.45508 9.93887 8.38001
#
# Compressibility (1/GPa) = 0.01863604
#
# Stress axis : x y z
#
# Youngs Moduli (GPa) = 29.43906 29.43906 173.20554
#
# Poissons Ratio (x) = 0.60482 0.60555
# Poissons Ratio (y) = 0.60482 0.60555
# Poissons Ratio (z) = 0.10292 0.10292
#
# Static dielectric constant tensor:
#      x y z
#    x 1.803070 0.000000 0.000000 
#    y 0.000000 1.803070 0.000000 
#    z 0.000000 0.000000 1.820490 
# 
# From -- ./inp_files/741.got.cif
#   From: 2010.05.17/outbox.cif.g08.bks.cpg/sg75_cif.got.tgz:741.got - 2010.06.03 18:42:43.
