data_PCOD9541535
_publ_section_title
;
Structure prediction by ZEFSAII (Michael W. Deem and Ramdas Pophale) SiO2 
 PCOD9541535
Probable space group: P 42
;
_chemical_formula_sum "Si O2"
_cell_formula_units_Z 26
_cell_length_a 11.891366
_cell_length_b 11.891366
_cell_length_c 8.341700
_cell_angle_alpha 90.000000
_cell_angle_beta 90.000000
_cell_angle_gamma 90.000000
_cell_volume 1179.554630
_symmetry_space_group_name_H-M "P 42"
_symmetry_group_IT_number 77
_symmetry_cell_setting 'tetragonal'
loop_
_space_group_symop_operation_xyz
x,y,z
-y,x,1/2+z
-x,-y,z
y,-x,1/2+z
loop_
_atom_site_type_symbol
_atom_site_label
_atom_site_fract_x
_atom_site_fract_y
_atom_site_fract_z
Si Si1 0.348844 0.579186 0.631610
Si Si2 0.225331 0.131091 0.851108
Si Si3 0.500000 0.500000 0.883347
Si Si4 0.318508 0.735449 0.126427
Si Si5 0.126478 0.951049 0.627093
Si Si6 0.823549 0.276144 0.805907
Si Si7 0.003613 0.368801 0.612384
O O1 0.434879 0.588473 0.777719
O O2 0.431505 0.590618 0.483475
O O3 0.309959 0.447188 0.627858
O O4 0.253492 0.668247 0.665535
O O5 0.286061 0.242391 0.783661
O O6 0.301539 0.057398 0.969951
O O7 0.197283 0.056066 0.693607
O O8 0.111661 0.151651 0.957714
O O9 0.245063 0.704972 0.968817
O O10 0.329026 0.869701 0.122384
O O11 0.147610 0.852463 0.759717
O O12 0.000000 0.000000 0.619630
O O13 0.939137 0.342959 0.778819
O O14 0.000000 0.500000 0.578327
#
# Coordination Sequence:
#
# PCOD9541535 Si02
#       7
#     4   4   2   4   4   4   4
#     4  11  23  44  71 101 141 185 238 296 366 429
#     4  11  25  41  68 102 135 181 236 290 363 422
#     4  10  24  42  70 106 132 182 242 302 350 432
#     4  12  25  44  68 103 144 187 237 299 360 440
#     4  11  24  42  67 100 131 180 233 297 349 430
#     4  11  24  45  68  99 138 189 237 292 364 437
#     4  11  24  45  67  96 140 187 228 295 363 424
#
# _framework density 22.042217000000001
#
# number of rings (size 3 to 8) (size 9 to 14) (size 15 to 20)
#    0.000    0.923    4.615    2.308    8.615    0.000 
#    0.000    2.308    0.000    0.000    0.000    0.000 
#    0.000    0.000    0.000    0.000    0.000    0.000 
#
# Total GULP energy -145145.188017 kJ/mol
# GULP energy per Si atom -5582.507231 kJ/mol
# Density = 2.199205 g / cm^3
# Si number density = 22.042217 Si / 1000 Ang^3
#
#
#
# Elastic Constant Matrix: (Units=GPa)
#
#
# Indices 1 2 3 4 5 6 
#
# 1 71.3048 -8.8736 8.8201 0.0000 0.0000 -7.7281
# 2 -8.8736 71.3048 8.8201 0.0000 0.0000 7.7281
# 3 8.8201 8.8201 78.9815 0.0000 0.0000 0.0000
# 4 0.0000 0.0000 0.0000 26.8102 0.0000 0.0000
# 5 0.0000 0.0000 0.0000 0.0000 26.8102 0.0000
# 6 -7.7281 7.7281 0.0000 0.0000 0.0000 49.1129
#
#
#
# Elastic Compliance Matrix: (Units=1/GPa)
#
#
# Indices 1 2 3 4 5 6 
#
# 1 0.014701 0.001839 -0.001847 0.000000 0.000000 0.002024
# 2 0.001839 0.014701 -0.001847 0.000000 0.000000 -0.002024
# 3 -0.001847 -0.001847 0.013074 0.000000 0.000000 0.000000
# 4 0.000000 0.000000 0.000000 0.037299 0.000000 0.000000
# 5 0.000000 0.000000 0.000000 0.000000 0.037299 0.000000
# 6 0.002024 -0.002024 0.000000 0.000000 0.000000 0.020998
#
#
# Mechanical properties :
#
#
# Convention : Reuss Voigt Hill
#
# Bulk Modulus (GPa) = 25.79667 26.56935 26.18301
# Shear Modulus (GPa) = 32.31961 34.73494 33.52727
#
# Velocity S-wave (km/s) = 3.83333 3.97399 3.90429
# Velocity P-wave (km/s) = 5.59654 5.75646 5.67706
#
# Compressibility (1/GPa) = 0.03876470
#
# Stress axis : x y z
#
# Youngs Moduli (GPa) = 68.02288 68.02288 76.48935
#
# Poissons Ratio (x) = -0.12507 0.14128
# Poissons Ratio (y) = -0.12507 0.14128
# Poissons Ratio (z) = 0.12564 0.12564
#
# Static dielectric constant tensor:
#      x y z
#    x 1.825140 0.000000 0.000000 
#    y 0.000000 1.825140 0.000000 
#    z 0.000000 0.000000 1.871620 
# 
# From -- ./inp_files/466.got.cif
#   From: 2010.05.17/outbox.cif.g08.bks.cpg/sg77_cif.got.tgz:466.got - 2010.06.03 18:44:51.
