data_PCOD9541268
_publ_section_title
;
Structure prediction by ZEFSAII (Michael W. Deem and Ramdas Pophale) SiO2 
 PCOD9541268
Probable space group: P 41
;
_chemical_formula_sum "Si O2"
_cell_formula_units_Z 20
_cell_length_a 8.414598
_cell_length_b 8.414598
_cell_length_c 13.136346
_cell_angle_alpha 90.000000
_cell_angle_beta 90.000000
_cell_angle_gamma 90.000000
_cell_volume 930.125015
_symmetry_space_group_name_H-M "P 41"
_symmetry_group_IT_number 76
_symmetry_cell_setting 'tetragonal'
loop_
_space_group_symop_operation_xyz
x,y,z
-y,x,1/4+z
-x,-y,1/2+z
y,-x,3/4+z
loop_
_atom_site_type_symbol
_atom_site_label
_atom_site_fract_x
_atom_site_fract_y
_atom_site_fract_z
Si Si1 0.190960 0.705485 0.271990
Si Si2 0.840260 0.840260 0.232232
Si Si3 0.294515 0.809040 0.692474
Si Si4 0.826191 0.661669 0.826837
Si Si5 0.173809 0.661669 0.887627
O O1 0.243898 0.780894 0.379103
O O2 0.310828 0.723633 0.178396
O O3 0.160635 0.521002 0.293867
O O4 0.025810 0.795321 0.243854
O O5 0.756102 0.780894 0.335360
O O6 0.795321 0.025810 0.220610
O O7 0.276367 0.689172 0.786068
O O8 0.478998 0.839365 0.670597
O O9 0.757546 0.757546 0.732232
O O10 0.000000 0.721139 0.857232
#
# Coordination Sequence:
#
# PCOD9541268 Si02
#       5
#     4   4   4   4   4
#     4  11  25  46  72 107 144 191 239 295 359 424
#     4  10  22  48  74 102 142 190 242 296 342 420
#     4  11  25  46  72 107 144 191 239 295 359 424
#     4  12  26  48  72 107 146 186 241 296 359 431
#     4  12  26  48  72 107 146 186 241 296 359 431
#
# _framework density 21.502485
#
# number of rings (size 3 to 8) (size 9 to 14) (size 15 to 20)
#    0.000    0.800    4.000    3.600    8.400    1.600 
#   10.800    0.000    0.000    0.000    0.000    0.000 
#    0.000    0.000    0.000    0.000    0.000    0.000 
#
# Total GULP energy -111867.634487 kJ/mol
# GULP energy per Si atom -5593.381724 kJ/mol
# Density = 2.145354 g / cm^3
# Si number density = 21.502485 Si / 1000 Ang^3
#
#
#
# Elastic Constant Matrix: (Units=GPa)
#
#
# Indices 1 2 3 4 5 6 
#
# 1 70.3584 78.4774 61.3401 0.0000 0.0000 0.0000
# 2 78.4774 70.3584 61.3401 0.0000 0.0000 0.0000
# 3 61.3401 61.3401 194.7599 0.0000 0.0000 0.0000
# 4 0.0000 0.0000 0.0000 31.1551 0.0000 0.0000
# 5 0.0000 0.0000 0.0000 0.0000 31.1551 0.0000
# 6 0.0000 0.0000 0.0000 0.0000 0.0000 8.0146
#
#
#
# Elastic Compliance Matrix: (Units=1/GPa)
#
#
# Indices 1 2 3 4 5 6 
#
# 1 -0.057046 0.066121 -0.002858 0.000000 0.000000 0.000000
# 2 0.066121 -0.057046 -0.002858 0.000000 0.000000 0.000000
# 3 -0.002858 -0.002858 0.006935 0.000000 0.000000 0.000000
# 4 0.000000 0.000000 0.000000 0.032097 0.000000 0.000000
# 5 0.000000 0.000000 0.000000 0.000000 0.032097 0.000000
# 6 0.000000 0.000000 0.000000 0.000000 0.000000 0.124772
#
#
# Mechanical properties :
#
#
# Convention : Reuss Voigt Hill
#
# Bulk Modulus (GPa) = 73.25045 81.97687 77.61366
# Shear Modulus (GPa) = -145.13984 23.01959 -61.06013
#
# Velocity S-wave (km/s) = -8.22470 3.27548 -5.33464
# Velocity P-wave (km/s) = 7.48693 7.24653 1.33079
#
# Compressibility (1/GPa) = 0.01365179
#
# Stress axis : x y z
#
# Youngs Moduli (GPa) = -17.52967 -17.52967 144.19939
#
# Poissons Ratio (x) = 1.15908 0.41213
# Poissons Ratio (y) = 1.15908 0.41213
# Poissons Ratio (z) = -0.05010 -0.05010
#
# Static dielectric constant tensor:
#      x y z
#    x 1.776090 0.000000 0.000000 
#    y 0.000000 1.776090 0.000000 
#    z 0.000000 0.000000 1.813870 
# 
# From -- ./inp_files/816.got.cif
#   From: 2010.05.17/outbox.cif.g08.bks.cpg/sg76_cif.got.tgz:816.got - 2010.06.03 18:43:17.
