data_PCOD9541172
_publ_section_title
;
Structure prediction by ZEFSAII (Michael W. Deem and Ramdas Pophale) SiO2 
 PCOD9541172
Probable space group: P 41
;
_chemical_formula_sum "Si O2"
_cell_formula_units_Z 24
_cell_length_a 8.297208
_cell_length_b 8.297208
_cell_length_c 15.881450
_cell_angle_alpha 90.000000
_cell_angle_beta 90.000000
_cell_angle_gamma 90.000000
_cell_volume 1093.337154
_symmetry_space_group_name_H-M "P 41"
_symmetry_group_IT_number 76
_symmetry_cell_setting 'tetragonal'
loop_
_space_group_symop_operation_xyz
x,y,z
-y,x,1/4+z
-x,-y,1/2+z
y,-x,3/4+z
loop_
_atom_site_type_symbol
_atom_site_label
_atom_site_fract_x
_atom_site_fract_y
_atom_site_fract_z
Si Si1 0.202787 0.897871 0.506790
Si Si2 0.341608 0.609087 0.598464
Si Si3 0.835574 0.981186 0.830230
Si Si4 0.034733 0.686031 0.895748
Si Si5 0.576143 0.970563 0.253153
Si Si6 0.634170 0.325347 0.294826
O O1 0.185063 0.522981 0.558628
O O2 0.058242 0.767396 0.494361
O O3 0.251865 0.970964 0.417069
O O4 0.123562 0.036323 0.562384
O O5 0.332957 0.783857 0.551630
O O6 0.517271 0.537099 0.577532
O O7 0.324730 0.638286 0.697320
O O8 0.744387 0.961177 0.742737
O O9 0.926014 0.813115 0.847228
O O10 0.964041 0.508946 0.912369
O O11 0.208708 0.683043 0.853538
O O12 0.556560 0.147624 0.293974
#
# Coordination Sequence:
#
# PCOD9541172 Si02
#       6
#     4   4   4   4   4   4
#     4   9  20  38  64  90 128 170 217 277 345 403
#     4  10  25  40  71  95 132 184 223 288 349 423
#     4  10  21  38  64  96 127 168 227 287 335 420
#     4  11  23  40  65  99 129 174 230 287 352 417
#     4  10  23  40  65  96 127 178 225 277 355 410
#     4  12  22  44  67  98 133 182 232 280 354 419
#
# _framework density 21.951142000000001
#
# number of rings (size 3 to 8) (size 9 to 14) (size 15 to 20)
#    1.000    0.667    3.333    1.000    7.000    0.000 
#    3.000    0.000    0.000    0.000    0.000    0.000 
#    0.000    0.000    0.000    0.000    0.000    0.000 
#
# Total GULP energy -133754.653079 kJ/mol
# GULP energy per Si atom -5573.110545 kJ/mol
# Density = 2.190118 g / cm^3
# Si number density = 21.951142 Si / 1000 Ang^3
#
#
#
# Elastic Constant Matrix: (Units=GPa)
#
#
# Indices 1 2 3 4 5 6 
#
# 1 74.1055 7.7938 10.7108 0.0000 0.0000 4.4135
# 2 7.7938 74.1055 10.7108 0.0000 0.0000 -4.4135
# 3 10.7108 10.7108 78.3870 0.0000 0.0000 0.0000
# 4 0.0000 0.0000 0.0000 30.1056 0.0000 0.0000
# 5 0.0000 0.0000 0.0000 0.0000 30.1056 0.0000
# 6 4.4135 -4.4135 0.0000 0.0000 0.0000 4.8766
#
#
#
# Elastic Compliance Matrix: (Units=1/GPa)
#
#
# Indices 1 2 3 4 5 6 
#
# 1 0.014904 -0.002242 -0.001730 0.000000 0.000000 -0.015517
# 2 -0.002242 0.014904 -0.001730 0.000000 0.000000 0.015517
# 3 -0.001730 -0.001730 0.013230 0.000000 0.000000 0.000000
# 4 0.000000 0.000000 0.000000 0.033216 0.000000 0.000000
# 5 0.000000 0.000000 0.000000 0.000000 0.033216 0.000000
# 6 -0.015517 0.015517 0.000000 0.000000 0.000000 0.233147
#
#
# Mechanical properties :
#
#
# Convention : Reuss Voigt Hill
#
# Bulk Modulus (GPa) = 31.61108 31.66988 31.64048
# Shear Modulus (GPa) = 13.71487 26.17641 19.94564
#
# Velocity S-wave (km/s) = 2.50229 3.45698 3.01763
# Velocity P-wave (km/s) = 4.77290 5.51299 5.15624
#
# Compressibility (1/GPa) = 0.03163448
#
# Stress axis : x y z
#
# Youngs Moduli (GPa) = 67.09494 67.09494 75.58544
#
# Poissons Ratio (x) = 0.15040 0.13078
# Poissons Ratio (y) = 0.15040 0.13078
# Poissons Ratio (z) = 0.11609 0.11609
#
# Static dielectric constant tensor:
#      x y z
#    x 1.872640 0.000000 0.000000 
#    y 0.000000 1.872640 0.000000 
#    z 0.000000 0.000000 1.774760 
# 
# From -- ./inp_files/1097.got.cif
#   From: 2010.05.17/outbox.cif.g08.bks.cpg/sg76_cif.got.tgz:1097.got - 2010.06.03 18:43:17.
