data_PCOD9541717
_publ_section_title
;
Structure prediction by ZEFSAII (Michael W. Deem and Ramdas Pophale) SiO2 
 PCOD9541717
Probable space group: P 43
;
_chemical_formula_sum "Si O2"
_cell_formula_units_Z 28
_cell_length_a 10.781546
_cell_length_b 10.781546
_cell_length_c 9.798259
_cell_angle_alpha 90.000000
_cell_angle_beta 90.000000
_cell_angle_gamma 90.000000
_cell_volume 1138.966618
_symmetry_space_group_name_H-M "P 43"
_symmetry_group_IT_number 78
_symmetry_cell_setting 'tetragonal'
loop_
_space_group_symop_operation_xyz
x,y,z
-y,x,3/4+z
-x,-y,1/2+z
y,-x,1/4+z
loop_
_atom_site_type_symbol
_atom_site_label
_atom_site_fract_x
_atom_site_fract_y
_atom_site_fract_z
Si Si1 0.307825 0.749032 0.957630
Si Si2 0.182574 0.584236 0.377474
Si Si3 0.157111 0.557113 0.072209
Si Si4 0.068183 0.068467 0.339396
Si Si5 0.089971 0.314158 0.463703
Si Si6 0.363603 0.534717 0.584054
Si Si7 0.297918 0.929912 0.210410
O O1 0.255644 0.819214 0.826575
O O2 0.452148 0.733662 0.921191
O O3 0.257511 0.609687 0.967253
O O4 0.278282 0.827097 0.093015
O O5 0.218156 0.580865 0.219555
O O6 0.146989 0.442662 0.411429
O O7 0.279010 0.628735 0.493702
O O8 0.055934 0.659769 0.385983
O O9 0.117481 0.415632 0.048396
O O10 0.037064 0.643100 0.038622
O O11 0.081953 0.216046 0.342257
O O12 0.960219 0.028755 0.241044
O O13 0.181647 0.978725 0.297214
O O14 0.420853 0.458103 0.452750
#
# Coordination Sequence:
#
# PCOD9541717 Si02
#       7
#     4   4   4   4   4   4   4
#     4  11  24  43  74 105 148 189 248 314 378 448
#     4  10  24  43  71 100 142 190 249 308 371 453
#     4  11  23  43  76 101 145 195 251 309 380 459
#     4  12  29  45  72 103 153 194 249 308 386 455
#     4  10  23  46  67 103 142 193 243 303 379 455
#     4  11  27  47  72 107 152 196 254 315 388 453
#     4  11  26  45  70 109 146 191 254 309 390 463
#
# _framework density 24.583687000000001
#
# number of rings (size 3 to 8) (size 9 to 14) (size 15 to 20)
#    0.000    1.143    1.429    2.571   12.000    2.286 
#    0.000    0.000    0.000    0.000    0.000    0.000 
#    0.000    0.000    0.000    0.000    0.000    0.000 
#
# Total GULP energy -156363.266480 kJ/mol
# GULP energy per Si atom -5584.402374 kJ/mol
# Density = 2.452773 g / cm^3
# Si number density = 24.583687 Si / 1000 Ang^3
#
#
#
# Elastic Constant Matrix: (Units=GPa)
#
#
# Indices 1 2 3 4 5 6 
#
# 1 57.4530 9.2110 12.3320 0.0000 0.0000 -10.1586
# 2 9.2110 57.4530 12.3320 0.0000 0.0000 10.1586
# 3 12.3320 12.3320 98.9160 0.0000 0.0000 0.0000
# 4 0.0000 0.0000 0.0000 36.6118 0.0000 0.0000
# 5 0.0000 0.0000 0.0000 0.0000 36.6118 0.0000
# 6 -10.1586 10.1586 0.0000 0.0000 0.0000 39.0085
#
#
#
# Elastic Compliance Matrix: (Units=1/GPa)
#
#
# Indices 1 2 3 4 5 6 
#
# 1 0.019504 -0.003778 -0.001961 0.000000 0.000000 0.006063
# 2 -0.003778 0.019504 -0.001961 0.000000 0.000000 -0.006063
# 3 -0.001961 -0.001961 0.010598 0.000000 0.000000 0.000000
# 4 0.000000 0.000000 0.000000 0.027314 0.000000 0.000000
# 5 0.000000 0.000000 0.000000 0.000000 0.027314 0.000000
# 6 0.006063 -0.006063 0.000000 0.000000 0.000000 0.028793
#
#
# Mechanical properties :
#
#
# Convention : Reuss Voigt Hill
#
# Bulk Modulus (GPa) = 29.23288 31.28578 30.25933
# Shear Modulus (GPa) = 31.28349 34.44290 32.86320
#
# Velocity S-wave (km/s) = 3.57112 3.74712 3.66018
# Velocity P-wave (km/s) = 5.37781 5.61026 5.49527
#
# Compressibility (1/GPa) = 0.03420805
#
# Stress axis : x y z
#
# Youngs Moduli (GPa) = 51.27111 51.27111 94.35342
#
# Poissons Ratio (x) = 0.19371 0.18499
# Poissons Ratio (y) = 0.19371 0.18499
# Poissons Ratio (z) = 0.10052 0.10052
#
# Static dielectric constant tensor:
#      x y z
#    x 2.001610 0.000000 0.000000 
#    y 0.000000 2.001610 0.000000 
#    z 0.000000 0.000000 1.939740 
# 
# From -- ./inp_files/602.got.cif
#   From: 2010.05.17/outbox.cif.g08.bks.cpg/sg78_cif.got.tgz:602.got - 2010.06.03 18:45:56.
