data_PCOD9541319
_publ_section_title
;
Structure prediction by ZEFSAII (Michael W. Deem and Ramdas Pophale) SiO2 
 PCOD9541319
Probable space group: P 41
;
_chemical_formula_sum "Si O2"
_cell_formula_units_Z 28
_cell_length_a 8.611025
_cell_length_b 8.611025
_cell_length_c 15.263202
_cell_angle_alpha 90.000000
_cell_angle_beta 90.000000
_cell_angle_gamma 90.000000
_cell_volume 1131.762636
_symmetry_space_group_name_H-M "P 41"
_symmetry_group_IT_number 76
_symmetry_cell_setting 'tetragonal'
loop_
_space_group_symop_operation_xyz
x,y,z
-y,x,1/4+z
-x,-y,1/2+z
y,-x,3/4+z
loop_
_atom_site_type_symbol
_atom_site_label
_atom_site_fract_x
_atom_site_fract_y
_atom_site_fract_z
Si Si1 0.884970 0.070719 0.618280
Si Si2 0.888566 0.232810 0.871080
Si Si3 0.589684 0.858813 0.286348
Si Si4 0.022860 0.255456 0.195517
Si Si5 0.626666 0.334351 0.365472
Si Si6 0.159903 0.412448 0.937879
Si Si7 0.327042 0.309451 0.473106
O O1 0.768357 0.994776 0.547392
O O2 0.782824 0.198074 0.666843
O O3 0.055098 0.143258 0.592931
O O4 0.951234 0.923554 0.669389
O O5 0.069266 0.279208 0.884727
O O6 0.824463 0.269219 0.968674
O O7 0.814721 0.353228 0.801807
O O8 0.460160 0.730390 0.276319
O O9 0.633749 0.273219 0.266801
O O10 0.514678 0.014464 0.241790
O O11 0.191868 0.326060 0.178378
O O12 0.908480 0.349590 0.131580
O O13 0.742381 0.475621 0.377959
O O14 0.455515 0.365266 0.403757
#
# Coordination Sequence:
#
# PCOD9541319 Si02
#       7
#     4   4   4   4   4   4   4
#     4  12  24  46  81 109 153 214 268 332 396 498
#     4  10  25  47  73 115 153 200 272 337 396 484
#     4   9  24  49  68 110 162 196 267 340 400 489
#     4  11  24  43  77 106 148 209 266 322 407 475
#     4  11  24  44  72 114 151 215 261 327 413 483
#     4   9  23  46  74 103 161 201 268 323 407 488
#     4  12  26  43  81 117 160 211 274 339 411 489
#
# _framework density 24.740172000000001
#
# number of rings (size 3 to 8) (size 9 to 14) (size 15 to 20)
#    0.857    0.571    1.429    2.571    8.000    0.000 
#    2.571    0.000    0.000    0.000    0.000    0.000 
#    0.000    0.000    0.000    0.000    0.000    0.000 
#
# Total GULP energy -156298.006436 kJ/mol
# GULP energy per Si atom -5582.071658 kJ/mol
# Density = 2.468386 g / cm^3
# Si number density = 24.740172 Si / 1000 Ang^3
#
#
#
# Elastic Constant Matrix: (Units=GPa)
#
#
# Indices 1 2 3 4 5 6 
#
# 1 79.1834 51.5164 36.7815 0.0000 0.0000 -2.6324
# 2 51.5164 79.1834 36.7815 0.0000 0.0000 2.6324
# 3 36.7815 36.7815 111.2879 0.0000 0.0000 0.0000
# 4 0.0000 0.0000 0.0000 29.4446 0.0000 0.0000
# 5 0.0000 0.0000 0.0000 0.0000 29.4446 0.0000
# 6 -2.6324 2.6324 0.0000 0.0000 0.0000 43.8665
#
#
#
# Elastic Compliance Matrix: (Units=1/GPa)
#
#
# Indices 1 2 3 4 5 6 
#
# 1 0.022981 -0.013581 -0.003107 0.000000 0.000000 0.002194
# 2 -0.013581 0.022981 -0.003107 0.000000 0.000000 -0.002194
# 3 -0.003107 -0.003107 0.011039 0.000000 0.000000 0.000000
# 4 0.000000 0.000000 0.000000 0.033962 0.000000 0.000000
# 5 0.000000 0.000000 0.000000 0.000000 0.033962 0.000000
# 6 0.002194 -0.002194 0.000000 0.000000 0.000000 0.023060
#
#
# Mechanical properties :
#
#
# Convention : Reuss Voigt Hill
#
# Bulk Modulus (GPa) = 57.43183 57.75706 57.59445
# Shear Modulus (GPa) = 25.85621 30.18951 28.02286
#
# Velocity S-wave (km/s) = 3.23632 3.49702 3.36919
# Velocity P-wave (km/s) = 6.10159 6.30092 6.20206
#
# Compressibility (1/GPa) = 0.01741195
#
# Stress axis : x y z
#
# Youngs Moduli (GPa) = 43.51481 43.51481 90.58586
#
# Poissons Ratio (x) = 0.59098 0.28142
# Poissons Ratio (y) = 0.59098 0.28142
# Poissons Ratio (z) = 0.13519 0.13519
#
# Static dielectric constant tensor:
#      x y z
#    x 2.011950 0.000000 0.000000 
#    y 0.000000 2.011950 0.000000 
#    z 0.000000 0.000000 1.969580 
# 
# From -- ./inp_files/1287.got.cif
#   From: 2010.05.17/outbox.cif.g08.bks.cpg/sg76_cif.got.tgz:1287.got - 2010.06.03 18:43:17.
