data_PCOD9541037
_publ_section_title
;
Structure prediction by ZEFSAII (Michael W. Deem and Ramdas Pophale) SiO2 
 PCOD9541037
Probable space group: P 4
;
_chemical_formula_sum "Si O2"
_cell_formula_units_Z 22
_cell_length_a 8.180311
_cell_length_b 8.180311
_cell_length_c 14.554826
_cell_angle_alpha 90.000000
_cell_angle_beta 90.000000
_cell_angle_gamma 90.000000
_cell_volume 973.972395
_symmetry_space_group_name_H-M "P 4"
_symmetry_group_IT_number 75
_symmetry_cell_setting 'tetragonal'
loop_
_space_group_symop_operation_xyz
x,y,z
-y,x,z
-x,-y,z
y,-x,z
loop_
_atom_site_type_symbol
_atom_site_label
_atom_site_fract_x
_atom_site_fract_y
_atom_site_fract_z
Si Si1 0.628389 0.746944 0.774690
Si Si2 0.216251 0.844649 0.163941
Si Si3 0.392960 0.743969 0.333760
Si Si4 0.707500 0.316854 0.975622
Si Si5 0.500000 0.000000 0.644467
Si Si6 0.083591 0.258438 0.500334
O O1 0.432833 0.708361 0.765737
O O2 0.700671 0.790036 0.875469
O O3 0.631425 0.899515 0.705750
O O4 0.359345 0.771231 0.226083
O O5 0.035807 0.781553 0.187972
O O6 0.225639 0.792490 0.057753
O O7 0.292958 0.579535 0.355507
O O8 0.326262 0.885700 0.398428
O O9 0.719596 0.513597 0.982904
O O10 0.397546 0.884065 0.575637
O O11 0.898672 0.197854 0.511850
#
# Coordination Sequence:
#
# PCOD9541037 Si02
#       6
#     4   4   4   4   2   4
#     4   9  20  38  60  88 122 161 211 266 315 372
#     4  11  24  39  58  89 126 161 199 249 314 382
#     4  11  24  42  65  92 120 156 206 260 314 381
#     4   9  19  37  60  87 119 157 205 258 309 369
#     4  12  22  38  64  92 124 170 220 266 324 378
#     4  11  24  41  61  89 126 165 209 262 320 382
#
# _framework density 22.587910000000001
#
# number of rings (size 3 to 8) (size 9 to 14) (size 15 to 20)
#    0.000    1.636    0.000    5.455    0.000   10.182 
#    0.000    1.818    0.000    2.182    0.000    0.000 
#    0.000    0.000    0.000    0.000    0.000    0.000 
#
# Total GULP energy -122684.722018 kJ/mol
# GULP energy per Si atom -5576.578274 kJ/mol
# Density = 2.253650 g / cm^3
# Si number density = 22.587910 Si / 1000 Ang^3
#
#
#
# Elastic Constant Matrix: (Units=GPa)
#
#
# Indices 1 2 3 4 5 6 
#
# 1 35.5042 20.6254 20.7538 0.0000 0.0000 0.7531
# 2 20.6254 35.5042 20.7538 0.0000 0.0000 -0.7531
# 3 20.7538 20.7538 128.6533 0.0000 0.0000 0.0000
# 4 0.0000 0.0000 0.0000 32.6110 0.0000 0.0000
# 5 0.0000 0.0000 0.0000 0.0000 32.6110 0.0000
# 6 0.7531 -0.7531 0.0000 0.0000 0.0000 28.3640
#
#
#
# Elastic Compliance Matrix: (Units=1/GPa)
#
#
# Indices 1 2 3 4 5 6 
#
# 1 0.043810 -0.023581 -0.003263 0.000000 0.000000 -0.001789
# 2 -0.023581 0.043810 -0.003263 0.000000 0.000000 0.001789
# 3 -0.003263 -0.003263 0.008826 0.000000 0.000000 0.000000
# 4 0.000000 0.000000 0.000000 0.030665 0.000000 0.000000
# 5 0.000000 0.000000 0.000000 0.000000 0.030665 0.000000
# 6 -0.001789 0.001789 0.000000 0.000000 0.000000 0.035351
#
#
# Mechanical properties :
#
#
# Convention : Reuss Voigt Hill
#
# Bulk Modulus (GPa) = 27.60086 35.99198 31.79642
# Shear Modulus (GPa) = 18.83823 27.88576 23.36199
#
# Velocity S-wave (km/s) = 2.89103 3.51742 3.21950
# Velocity P-wave (km/s) = 4.83631 5.69781 5.28465
#
# Compressibility (1/GPa) = 0.03623075
#
# Stress axis : x y z
#
# Youngs Moduli (GPa) = 22.82582 22.82582 113.30588
#
# Poissons Ratio (x) = 0.53825 0.36975
# Poissons Ratio (y) = 0.53825 0.36975
# Poissons Ratio (z) = 0.07449 0.07449
#
# Static dielectric constant tensor:
#      x y z
#    x 1.847790 0.000000 0.000000 
#    y 0.000000 1.847790 0.000000 
#    z 0.000000 0.000000 1.869530 
# 
# From -- ./inp_files/662.got.cif
#   From: 2010.05.17/outbox.cif.g08.bks.cpg/sg75_cif.got.tgz:662.got - 2010.06.03 18:42:43.
