data_PCOD9541163
_publ_section_title
;
Structure prediction by ZEFSAII (Michael W. Deem and Ramdas Pophale) SiO2 
 PCOD9541163
Probable space group: P 41
;
_chemical_formula_sum "Si O2"
_cell_formula_units_Z 28
_cell_length_a 10.345491
_cell_length_b 10.345491
_cell_length_c 10.685594
_cell_angle_alpha 90.000000
_cell_angle_beta 90.000000
_cell_angle_gamma 90.000000
_cell_volume 1143.670407
_symmetry_space_group_name_H-M "P 41"
_symmetry_group_IT_number 76
_symmetry_cell_setting 'tetragonal'
loop_
_space_group_symop_operation_xyz
x,y,z
-y,x,1/4+z
-x,-y,1/2+z
y,-x,3/4+z
loop_
_atom_site_type_symbol
_atom_site_label
_atom_site_fract_x
_atom_site_fract_y
_atom_site_fract_z
Si Si1 0.773403 0.452130 0.962730
Si Si2 0.926062 0.030524 0.163945
Si Si3 0.132688 0.566943 0.731191
Si Si4 0.001659 0.337515 0.831524
Si Si5 0.595282 0.478872 0.289412
Si Si6 0.111597 0.313920 0.322851
Si Si7 0.763030 0.961075 0.820729
O O1 0.873446 0.345588 0.913882
O O2 0.629964 0.398412 0.989451
O O3 0.792683 0.568244 0.861896
O O4 0.832579 0.493325 0.096409
O O5 0.788304 0.079413 0.119636
O O6 0.919466 0.032754 0.314200
O O7 0.949509 0.880974 0.121695
O O8 0.275960 0.607589 0.773007
O O9 0.089813 0.462522 0.835010
O O10 0.004354 0.654766 0.725025
O O11 0.954273 0.330980 0.688433
O O12 0.569754 0.490824 0.437458
O O13 0.186059 0.182546 0.293523
O O14 0.030248 0.288449 0.449266
#
# Coordination Sequence:
#
# PCOD9541163 Si02
#       7
#     4   4   4   4   4   4   4
#     4  10  23  41  67  94 123 174 224 264 321 390
#     4  10  21  35  57  94 125 168 211 254 323 392
#     4  10  23  44  61  95 136 164 219 274 325 377
#     4  10  21  37  65  90 124 172 209 264 324 392
#     4  10  24  45  69  94 130 175 226 275 323 382
#     4  11  23  42  64  98 128 170 210 269 324 393
#     4  11  21  38  65  89 134 165 211 260 324 392
#
# _framework density 24.482576999999999
#
# number of rings (size 3 to 8) (size 9 to 14) (size 15 to 20)
#    0.000    1.714    4.286    0.000    8.000    2.286 
#    2.571    2.857    0.000    0.000    0.000    0.000 
#    0.000    0.000    0.000    0.000    0.000    0.000 
#
# Total GULP energy -156022.411518 kJ/mol
# GULP energy per Si atom -5572.228983 kJ/mol
# Density = 2.442685 g / cm^3
# Si number density = 24.482577 Si / 1000 Ang^3
#
#
#
# Elastic Constant Matrix: (Units=GPa)
#
#
# Indices 1 2 3 4 5 6 
#
# 1 48.8956 -7.6121 9.7008 0.0000 0.0000 2.0235
# 2 -7.6121 48.8956 9.7008 0.0000 0.0000 -2.0235
# 3 9.7008 9.7008 60.4847 0.0000 0.0000 0.0000
# 4 0.0000 0.0000 0.0000 32.7006 0.0000 0.0000
# 5 0.0000 0.0000 0.0000 0.0000 32.7006 0.0000
# 6 2.0235 -2.0235 0.0000 0.0000 0.0000 23.4683
#
#
#
# Elastic Compliance Matrix: (Units=1/GPa)
#
#
# Indices 1 2 3 4 5 6 
#
# 1 0.022002 0.004195 -0.004202 0.000000 0.000000 -0.001535
# 2 0.004195 0.022002 -0.004202 0.000000 0.000000 0.001535
# 3 -0.004202 -0.004202 0.017881 0.000000 0.000000 0.000000
# 4 0.000000 0.000000 0.000000 0.030581 0.000000 0.000000
# 5 0.000000 0.000000 0.000000 0.000000 0.030581 0.000000
# 6 -0.001535 0.001535 0.000000 0.000000 0.000000 0.042875
#
#
# Mechanical properties :
#
#
# Convention : Reuss Voigt Hill
#
# Bulk Modulus (GPa) = 18.70241 20.20610 19.45425
# Shear Modulus (GPa) = 26.01994 27.53964 26.77979
#
# Velocity S-wave (km/s) = 3.26359 3.35754 3.31090
# Velocity P-wave (km/s) = 4.67515 4.82721 4.75179
#
# Compressibility (1/GPa) = 0.05346905
#
# Stress axis : x y z
#
# Youngs Moduli (GPa) = 45.45031 45.45031 55.92562
#
# Poissons Ratio (x) = -0.19068 0.23498
# Poissons Ratio (y) = -0.19068 0.23498
# Poissons Ratio (z) = 0.19097 0.19097
#
# Static dielectric constant tensor:
#      x y z
#    x 2.021970 0.000000 0.000000 
#    y 0.000000 2.021970 0.000000 
#    z 0.000000 0.000000 2.003910 
# 
# From -- ./inp_files/919.got.cif
#   From: 2010.05.17/outbox.cif.g08.bks.cpg/sg76_cif.got.tgz:919.got - 2010.06.03 18:43:17.
