data_PCOD9541443
_publ_section_title
;
Structure prediction by ZEFSAII (Michael W. Deem and Ramdas Pophale) SiO2 
 PCOD9541443
Probable space group: P 41
;
_chemical_formula_sum "Si O2"
_cell_formula_units_Z 16
_cell_length_a 8.681996
_cell_length_b 8.681996
_cell_length_c 7.609882
_cell_angle_alpha 90.000000
_cell_angle_beta 90.000000
_cell_angle_gamma 90.000000
_cell_volume 573.610491
_symmetry_space_group_name_H-M "P 41"
_symmetry_group_IT_number 76
_symmetry_cell_setting 'tetragonal'
loop_
_space_group_symop_operation_xyz
x,y,z
-y,x,1/4+z
-x,-y,1/2+z
y,-x,3/4+z
loop_
_atom_site_type_symbol
_atom_site_label
_atom_site_fract_x
_atom_site_fract_y
_atom_site_fract_z
Si Si1 0.251517 0.745277 0.258740
Si Si2 0.448861 0.950854 0.986079
Si Si3 0.494846 0.690929 0.554513
Si Si4 0.981965 0.176768 0.033058
O O1 0.346410 0.840747 0.114342
O O2 0.134593 0.610657 0.200376
O O3 0.368709 0.671435 0.399190
O O4 0.145806 0.851506 0.384520
O O5 0.463095 0.129609 0.044821
O O6 0.352382 0.975052 0.806797
O O7 0.419230 0.632144 0.735473
O O8 0.918871 0.125388 0.219274
#
# Coordination Sequence:
#
# PCOD9541443 Si02
#       4
#     4   4   4   4
#     4  12  26  53  85 127 170 229 293 363 438 522
#     4  12  28  53  91 125 177 228 294 367 438 526
#     4  12  27  58  89 131 178 232 295 365 446 531
#     4  12  27  50  79 121 171 223 284 355 432 515
#
# _framework density 27.893491999999998
#
# number of rings (size 3 to 8) (size 9 to 14) (size 15 to 20)
#    0.000    0.000    5.000    3.000    0.000    6.000 
#    9.000    0.000    0.000    0.000    0.000    0.000 
#    0.000    0.000    0.000    0.000    0.000    0.000 
#
# Total GULP energy -89793.275253 kJ/mol
# GULP energy per Si atom -5612.079703 kJ/mol
# Density = 2.783001 g / cm^3
# Si number density = 27.893492 Si / 1000 Ang^3
#
#
#
# Elastic Constant Matrix: (Units=GPa)
#
#
# Indices 1 2 3 4 5 6 
#
# 1 184.1310 92.2625 51.5114 0.0000 0.0000 -12.7284
# 2 92.2625 184.1310 51.5114 0.0000 0.0000 12.7284
# 3 51.5114 51.5114 98.8512 0.0000 0.0000 0.0000
# 4 0.0000 0.0000 0.0000 62.2689 0.0000 0.0000
# 5 0.0000 0.0000 0.0000 0.0000 62.2689 0.0000
# 6 -12.7284 12.7284 0.0000 0.0000 0.0000 63.7839
#
#
#
# Elastic Compliance Matrix: (Units=1/GPa)
#
#
# Indices 1 2 3 4 5 6 
#
# 1 0.008006 -0.003516 -0.002340 0.000000 0.000000 0.002299
# 2 -0.003516 0.008006 -0.002340 0.000000 0.000000 -0.002299
# 3 -0.002340 -0.002340 0.012555 0.000000 0.000000 0.000000
# 4 0.000000 0.000000 0.000000 0.016059 0.000000 0.000000
# 5 0.000000 0.000000 0.000000 0.000000 0.016059 0.000000
# 6 0.002299 -0.002299 0.000000 0.000000 0.000000 0.016596
#
#
# Mechanical properties :
#
#
# Convention : Reuss Voigt Hill
#
# Bulk Modulus (GPa) = 82.13002 95.29819 88.71411
# Shear Modulus (GPa) = 51.16048 55.78620 53.47334
#
# Velocity S-wave (km/s) = 4.28733 4.47696 4.38317
# Velocity P-wave (km/s) = 7.34958 7.80790 7.58221
#
# Compressibility (1/GPa) = 0.01217582
#
# Stress axis : x y z
#
# Youngs Moduli (GPa) = 124.90277 124.90277 79.65080
#
# Poissons Ratio (x) = 0.43916 0.18637
# Poissons Ratio (y) = 0.43916 0.18637
# Poissons Ratio (z) = 0.29225 0.29225
#
# Static dielectric constant tensor:
#      x y z
#    x 2.235580 0.000000 0.000000 
#    y 0.000000 2.235580 0.000000 
#    z 0.000000 0.000000 2.164220 
# 
# From -- ./inp_files/393.got.cif
#   From: 2010.05.17/outbox.cif.g08.bks.cpg/sg76_cif.got.tgz:393.got - 2010.06.03 18:43:17.
