data_PCOD9541809
_publ_section_title
;
Structure prediction by ZEFSAII (Michael W. Deem and Ramdas Pophale) SiO2 
 PCOD9541809
Probable space group: I 4
;
_chemical_formula_sum "Si O2"
_cell_formula_units_Z 58
_cell_length_a 11.950606
_cell_length_b 11.950606
_cell_length_c 22.727970
_cell_angle_alpha 90.000000
_cell_angle_beta 90.000000
_cell_angle_gamma 90.000000
_cell_volume 3245.940123
_symmetry_space_group_name_H-M "I 4"
_symmetry_group_IT_number 79
_symmetry_cell_setting 'tetragonal'
loop_
_space_group_symop_operation_xyz
x,y,z
-y,x,z
-x,-y,z
y,-x,z
1/2+x,1/2+y,1/2+z
1/2-y,1/2+x,1/2+z
1/2-x,1/2-y,1/2+z
1/2+y,1/2-x,1/2+z
loop_
_atom_site_type_symbol
_atom_site_label
_atom_site_fract_x
_atom_site_fract_y
_atom_site_fract_z
Si Si1 0.500000 0.500000 0.719891
Si Si2 0.933807 0.823566 0.671289
Si Si3 0.228947 0.624859 0.300118
Si Si4 0.283331 0.150532 0.116738
Si Si5 0.918424 0.172219 0.995295
Si Si6 0.574216 0.748419 0.686837
Si Si7 0.131188 0.519251 0.796785
Si Si8 0.214172 0.392871 0.369921
O O1 0.534495 0.631903 0.714267
O O2 0.911893 0.772790 0.736240
O O3 0.891091 0.728677 0.626143
O O4 0.062676 0.860852 0.665020
O O5 0.105738 0.679976 0.295204
O O6 0.220281 0.516862 0.342352
O O7 0.315181 0.706470 0.331082
O O8 0.294633 0.030826 0.149425
O O9 0.181800 0.219524 0.147773
O O10 0.243473 0.121274 0.051235
O O11 0.893747 0.239808 0.935763
O O12 0.051176 0.143150 0.997281
O O13 0.593309 0.828139 0.742166
O O14 0.147650 0.587594 0.856934
O O15 0.000000 0.500000 0.788187
#
# Coordination Sequence:
#
# PCOD9541809 Si02
#       8
#     2   8   8   8   8   8   8   8
#     4   8  20  28  44  80 112 140 184 212 288 354
#     4  11  23  38  60  89 122 157 201 251 311 372
#     4  11  20  36  59  89 120 157 196 253 302 365
#     4  11  21  36  59  88 122 154 198 247 307 363
#     4  11  22  38  63  90 121 160 207 254 299 356
#     4  10  19  33  55  84 120 154 179 244 305 364
#     4  10  23  36  54  84 125 158 189 240 310 367
#     4  11  22  37  59  88 122 156 203 248 306 357
#
# _framework density 17.868473999999999
#
# number of rings (size 3 to 8) (size 9 to 14) (size 15 to 20)
#    0.000    1.379    5.517    0.828    3.862    0.276 
#    0.000    1.379    0.000    0.000    0.000    0.000 
#    0.000    0.000    0.000    0.000    0.000    0.000 
#
# Total GULP energy -161555.995916 kJ/mol
# GULP energy per Si atom -5570.896411 kJ/mol
# Density = 1.782780 g / cm^3
# Si number density = 17.868474 Si / 1000 Ang^3
#
#
#
# Elastic Constant Matrix: (Units=GPa)
#
#
# Indices 1 2 3 4 5 6 
#
# 1 54.7629 7.8965 26.6650 0.0000 0.0000 4.4280
# 2 7.8965 54.7629 26.6650 0.0000 0.0000 -4.4280
# 3 26.6650 26.6650 123.0196 0.0000 0.0000 0.0000
# 4 0.0000 0.0000 0.0000 27.8877 0.0000 0.0000
# 5 0.0000 0.0000 0.0000 0.0000 27.8877 0.0000
# 6 4.4280 -4.4280 0.0000 0.0000 0.0000 29.4503
#
#
#
# Elastic Compliance Matrix: (Units=1/GPa)
#
#
# Indices 1 2 3 4 5 6 
#
# 1 0.020765 -0.001196 -0.004242 0.000000 0.000000 -0.003302
# 2 -0.001196 0.020765 -0.004242 0.000000 0.000000 0.003302
# 3 -0.004242 -0.004242 0.009968 0.000000 0.000000 0.000000
# 4 0.000000 0.000000 0.000000 0.035858 0.000000 0.000000
# 5 0.000000 0.000000 0.000000 0.000000 0.035858 0.000000
# 6 -0.003302 0.003302 0.000000 0.000000 0.000000 0.034948
#
#
# Mechanical properties :
#
#
# Convention : Reuss Voigt Hill
#
# Bulk Modulus (GPa) = 31.11433 39.44426 35.27930
# Shear Modulus (GPa) = 26.56255 28.46640 27.51448
#
# Velocity S-wave (km/s) = 3.85978 3.99571 3.92833
# Velocity P-wave (km/s) = 6.10857 6.58865 6.35314
#
# Compressibility (1/GPa) = 0.03213953
#
# Stress axis : x y z
#
# Youngs Moduli (GPa) = 48.15719 48.15719 100.32491
#
# Poissons Ratio (x) = 0.05759 0.42555
# Poissons Ratio (y) = 0.05759 0.42555
# Poissons Ratio (z) = 0.20427 0.20427
#
# Static dielectric constant tensor:
#      x y z
#    x 1.682500 0.000000 0.000000 
#    y 0.000000 1.682500 0.000000 
#    z 0.000000 0.000000 1.590640 
# 
# From -- ./inp_files/1875.got.cif
#   From: 2010.05.17/outbox.cif.g08.bks.cpg/sg79_cif.got.tgz:1875.got - 2010.06.03 18:47:27.
