data_PCOD9541406
_publ_section_title
;
Structure prediction by ZEFSAII (Michael W. Deem and Ramdas Pophale) SiO2 
 PCOD9541406
Probable space group: P 41
;
_chemical_formula_sum "Si O2"
_cell_formula_units_Z 20
_cell_length_a 9.552438
_cell_length_b 9.552438
_cell_length_c 9.434169
_cell_angle_alpha 90.000000
_cell_angle_beta 90.000000
_cell_angle_gamma 90.000000
_cell_volume 860.859164
_symmetry_space_group_name_H-M "P 41"
_symmetry_group_IT_number 76
_symmetry_cell_setting 'tetragonal'
loop_
_space_group_symop_operation_xyz
x,y,z
-y,x,1/4+z
-x,-y,1/2+z
y,-x,3/4+z
loop_
_atom_site_type_symbol
_atom_site_label
_atom_site_fract_x
_atom_site_fract_y
_atom_site_fract_z
Si Si1 0.893218 0.091902 0.018460
Si Si2 0.757957 0.834858 0.854759
Si Si3 0.015993 0.618018 0.851709
Si Si4 0.403166 0.592852 0.209979
Si Si5 0.852357 0.411002 0.045745
O O1 0.831956 0.246922 0.015056
O O2 0.907033 0.038112 0.179293
O O3 0.804573 0.977332 0.931657
O O4 0.693556 0.873210 0.704081
O O5 0.646347 0.754762 0.952649
O O6 0.886843 0.727352 0.837811
O O7 0.080825 0.579806 0.701479
O O8 0.958828 0.483606 0.936211
O O9 0.418948 0.454063 0.299551
O O10 0.501670 0.709614 0.282245
#
# Coordination Sequence:
#
# PCOD9541406 Si02
#       5
#     4   4   4   4   4
#     4  12  25  44  76 113 154 191 247 314 380 448
#     4  11  25  47  76 112 152 194 254 317 382 443
#     4  11  27  47  75 112 152 201 251 312 377 454
#     4  11  28  52  74 107 149 209 253 313 379 455
#     4  11  29  46  75 110 151 203 247 308 384 448
#
# _framework density 23.232603999999998
#
# number of rings (size 3 to 8) (size 9 to 14) (size 15 to 20)
#    0.000    0.800    2.000    2.400   16.800    0.000 
#    0.000    0.000    0.000    0.000    0.000    0.000 
#    0.000    0.000    0.000    0.000    0.000    0.000 
#
# Total GULP energy -112156.273056 kJ/mol
# GULP energy per Si atom -5607.813653 kJ/mol
# Density = 2.317973 g / cm^3
# Si number density = 23.232604 Si / 1000 Ang^3
#
#
#
# Elastic Constant Matrix: (Units=GPa)
#
#
# Indices 1 2 3 4 5 6 
#
# 1 103.6853 25.2831 30.6371 0.0000 0.0000 -1.7746
# 2 25.2831 103.6853 30.6371 0.0000 0.0000 1.7746
# 3 30.6371 30.6371 75.1997 0.0000 0.0000 0.0000
# 4 0.0000 0.0000 0.0000 33.2995 0.0000 0.0000
# 5 0.0000 0.0000 0.0000 0.0000 33.2995 0.0000
# 6 -1.7746 1.7746 0.0000 0.0000 0.0000 4.8883
#
#
#
# Elastic Compliance Matrix: (Units=1/GPa)
#
#
# Indices 1 2 3 4 5 6 
#
# 1 0.011291 -0.001676 -0.003917 0.000000 0.000000 0.004708
# 2 -0.001676 0.011291 -0.003917 0.000000 0.000000 -0.004708
# 3 -0.003917 -0.003917 0.016490 0.000000 0.000000 0.000000
# 4 0.000000 0.000000 0.000000 0.030030 0.000000 0.000000
# 5 0.000000 0.000000 0.000000 0.000000 0.030030 0.000000
# 6 0.004708 -0.004708 0.000000 0.000000 0.000000 0.207990
#
#
# Mechanical properties :
#
#
# Convention : Reuss Voigt Hill
#
# Bulk Modulus (GPa) = 49.87344 50.63166 50.25255
# Shear Modulus (GPa) = 15.02273 27.36498 21.19385
#
# Velocity S-wave (km/s) = 2.54564 3.43573 3.02362
# Velocity P-wave (km/s) = 5.49126 6.13023 5.81952
#
# Compressibility (1/GPa) = 0.02005075
#
# Stress axis : x y z
#
# Youngs Moduli (GPa) = 88.56283 88.56283 60.64368
#
# Poissons Ratio (x) = 0.14847 0.23756
# Poissons Ratio (y) = 0.14847 0.23756
# Poissons Ratio (z) = 0.34692 0.34692
#
# Static dielectric constant tensor:
#      x y z
#    x 1.862940 0.000000 0.000000 
#    y 0.000000 1.862940 0.000000 
#    z 0.000000 0.000000 1.860870 
# 
# From -- ./inp_files/435.got.cif
#   From: 2010.05.17/outbox.cif.g08.bks.cpg/sg76_cif.got.tgz:435.got - 2010.06.03 18:43:17.
