data_PCOD9541665
_publ_section_title
;
Structure prediction by ZEFSAII (Michael W. Deem and Ramdas Pophale) SiO2 
 PCOD9541665
Probable space group: P 43
;
_chemical_formula_sum "Si O2"
_cell_formula_units_Z 32
_cell_length_a 9.675032
_cell_length_b 9.675032
_cell_length_c 17.455658
_cell_angle_alpha 90.000000
_cell_angle_beta 90.000000
_cell_angle_gamma 90.000000
_cell_volume 1633.958585
_symmetry_space_group_name_H-M "P 43"
_symmetry_group_IT_number 78
_symmetry_cell_setting 'tetragonal'
loop_
_space_group_symop_operation_xyz
x,y,z
-y,x,3/4+z
-x,-y,1/2+z
y,-x,1/4+z
loop_
_atom_site_type_symbol
_atom_site_label
_atom_site_fract_x
_atom_site_fract_y
_atom_site_fract_z
Si Si1 0.712856 0.172384 0.273040
Si Si2 0.631028 0.947634 0.533212
Si Si3 0.898764 0.273165 0.617845
Si Si4 0.267141 0.408457 0.807646
Si Si5 0.405347 0.770964 0.605741
Si Si6 0.920551 0.958301 0.614098
Si Si7 0.964707 0.802439 0.765902
Si Si8 0.551397 0.372071 0.385761
O O1 0.642360 0.184917 0.190649
O O2 0.623560 0.253818 0.335345
O O3 0.870590 0.230462 0.269315
O O4 0.715992 0.015729 0.302964
O O5 0.630308 0.924643 0.441523
O O6 0.553072 0.829475 0.580589
O O7 0.788657 0.943663 0.560631
O O8 0.573520 0.100761 0.553684
O O9 0.750962 0.293262 0.578795
O O10 0.909901 0.114302 0.646369
O O11 0.348674 0.498076 0.870210
O O12 0.328345 0.448439 0.724556
O O13 0.307294 0.856506 0.547996
O O14 0.396510 0.604686 0.605850
O O15 0.926005 0.846319 0.680555
O O16 0.062044 0.949019 0.568014
#
# Coordination Sequence:
#
# PCOD9541665 Si02
#       8
#     4   4   4   4   4   4   4   4
#     4  11  24  43  69  98 132 171 231 272 335 402
#     4  11  24  45  66 102 135 172 224 279 331 405
#     4  10  23  42  71 102 127 175 224 277 332 407
#     4  11  26  45  73  93 139 182 220 274 342 409
#     4  12  28  41  67  97 136 176 224 279 331 399
#     4  10  21  41  68  97 136 166 217 279 336 391
#     4  11  22  41  68  99 128 174 220 276 337 392
#     4  12  26  48  64  96 137 184 224 272 332 407
#
# _framework density 19.584337999999999
#
# number of rings (size 3 to 8) (size 9 to 14) (size 15 to 20)
#    0.000    1.000    5.000    0.750    7.000    0.000 
#    0.000    0.000    0.000    0.000    0.000    0.000 
#    0.000    0.000    0.000    0.000    0.000    0.000 
#
# Total GULP energy -178741.687470 kJ/mol
# GULP energy per Si atom -5585.677733 kJ/mol
# Density = 1.953976 g / cm^3
# Si number density = 19.584338 Si / 1000 Ang^3
#
#
#
# Elastic Constant Matrix: (Units=GPa)
#
#
# Indices 1 2 3 4 5 6 
#
# 1 64.2019 18.3564 -0.0051 0.0000 0.0000 -5.4953
# 2 18.3564 64.2019 -0.0051 0.0000 0.0000 5.4953
# 3 -0.0051 -0.0051 58.1765 0.0000 0.0000 0.0000
# 4 0.0000 0.0000 0.0000 29.1206 0.0000 0.0000
# 5 0.0000 0.0000 0.0000 0.0000 29.1206 0.0000
# 6 -5.4953 5.4953 0.0000 0.0000 0.0000 31.8559
#
#
#
# Elastic Compliance Matrix: (Units=1/GPa)
#
#
# Indices 1 2 3 4 5 6 
#
# 1 0.017433 -0.005320 0.000001 0.000000 0.000000 0.003925
# 2 -0.005320 0.017433 0.000001 0.000000 0.000000 -0.003925
# 3 0.000001 0.000001 0.017189 0.000000 0.000000 0.000000
# 4 0.000000 0.000000 0.000000 0.034340 0.000000 0.000000
# 5 0.000000 0.000000 0.000000 0.000000 0.034340 0.000000
# 6 0.003925 -0.003925 0.000000 0.000000 0.000000 0.032746
#
#
# Mechanical properties :
#
#
# Convention : Reuss Voigt Hill
#
# Bulk Modulus (GPa) = 24.14375 24.80810 24.47593
# Shear Modulus (GPa) = 28.10201 29.23501 28.66851
#
# Velocity S-wave (km/s) = 3.79215 3.86784 3.83018
# Velocity P-wave (km/s) = 5.61504 5.71329 5.66438
#
# Compressibility (1/GPa) = 0.04141858
#
# Stress axis : x y z
#
# Youngs Moduli (GPa) = 57.36252 57.36252 58.17650
#
# Poissons Ratio (x) = 0.30519 -0.00006
# Poissons Ratio (y) = 0.30519 -0.00006
# Poissons Ratio (z) = -0.00006 -0.00006
#
# Static dielectric constant tensor:
#      x y z
#    x 1.691940 0.000000 0.000000 
#    y 0.000000 1.691940 0.000000 
#    z 0.000000 0.000000 1.667320 
# 
# From -- ./inp_files/1337.got.cif
#   From: 2010.05.17/outbox.cif.g08.bks.cpg/sg78_cif.got.tgz:1337.got - 2010.06.03 18:45:56.
