data_PCOD9541887
_publ_section_title
;
Structure prediction by ZEFSAII (Michael W. Deem and Ramdas Pophale) SiO2 
 PCOD9541887
Probable space group: I 4
;
_chemical_formula_sum "Si O2"
_cell_formula_units_Z 56
_cell_length_a 10.849016
_cell_length_b 10.849016
_cell_length_c 23.495446
_cell_angle_alpha 90.000000
_cell_angle_beta 90.000000
_cell_angle_gamma 90.000000
_cell_volume 2765.440971
_symmetry_space_group_name_H-M "I 4"
_symmetry_group_IT_number 79
_symmetry_cell_setting 'tetragonal'
loop_
_space_group_symop_operation_xyz
x,y,z
-y,x,z
-x,-y,z
y,-x,z
1/2+x,1/2+y,1/2+z
1/2-y,1/2+x,1/2+z
1/2-x,1/2-y,1/2+z
1/2+y,1/2-x,1/2+z
loop_
_atom_site_type_symbol
_atom_site_label
_atom_site_fract_x
_atom_site_fract_y
_atom_site_fract_z
Si Si1 0.796460 0.401497 0.674480
Si Si2 0.623826 0.243891 0.603258
Si Si3 0.190790 0.914618 0.298927
Si Si4 0.550210 0.301067 0.475468
Si Si5 0.951271 0.202661 0.482631
Si Si6 0.566275 0.876783 0.898045
Si Si7 0.351675 0.011546 0.590284
O O1 0.691078 0.357772 0.630803
O O2 0.807552 0.542202 0.655663
O O3 0.755038 0.386974 0.738470
O O4 0.918013 0.337440 0.649763
O O5 0.561008 0.274373 0.543270
O O6 0.705486 0.124086 0.591208
O O7 0.286168 0.885592 0.348977
O O8 0.060372 0.843778 0.302207
O O9 0.645783 0.413404 0.463394
O O10 0.584883 0.177893 0.440573
O O11 0.923389 0.283816 0.538298
O O12 0.088158 0.141154 0.479967
O O13 0.961174 0.299766 0.431637
O O14 0.500000 0.000000 0.875519
O O15 0.500000 0.000000 0.577324
#
# Coordination Sequence:
#
# PCOD9541887 Si02
#       7
#     8   8   8   8   8   8   8
#     4  11  22  38  66  95 127 162 213 269 331 390
#     4  11  20  36  64  96 131 163 204 267 327 397
#     4  11  25  48  72  95 127 172 230 285 334 393
#     4  11  25  42  67 101 137 172 216 272 339 406
#     4  11  23  39  62  93 136 178 221 269 322 390
#     4  12  28  42  69  95 133 177 223 274 333 402
#     4  10  22  34  56  94 133 169 204 256 329 398
#
# _framework density 20.249936000000002
#
# number of rings (size 3 to 8) (size 9 to 14) (size 15 to 20)
#    0.000    1.000    4.286    2.143    6.000    3.143 
#    0.000    0.000    0.000    0.000    0.000    2.000 
#    0.000    0.000    0.000    0.000    0.000    0.000 
#
# Total GULP energy -156206.247721 kJ/mol
# GULP energy per Si atom -5578.794561 kJ/mol
# Density = 2.020385 g / cm^3
# Si number density = 20.249936 Si / 1000 Ang^3
#
#
#
# Elastic Constant Matrix: (Units=GPa)
#
#
# Indices 1 2 3 4 5 6 
#
# 1 58.0342 6.4390 25.4285 0.0000 0.0000 -1.9759
# 2 6.4390 58.0342 25.4285 0.0000 0.0000 1.9759
# 3 25.4285 25.4285 105.8296 0.0000 0.0000 0.0000
# 4 0.0000 0.0000 0.0000 30.2216 0.0000 0.0000
# 5 0.0000 0.0000 0.0000 0.0000 30.2216 0.0000
# 6 -1.9759 1.9759 0.0000 0.0000 0.0000 19.4303
#
#
#
# Elastic Compliance Matrix: (Units=1/GPa)
#
#
# Indices 1 2 3 4 5 6 
#
# 1 0.019336 -0.000198 -0.004598 0.000000 0.000000 0.001986
# 2 -0.000198 0.019336 -0.004598 0.000000 0.000000 -0.001986
# 3 -0.004598 -0.004598 0.011659 0.000000 0.000000 0.000000
# 4 0.000000 0.000000 0.000000 0.033089 0.000000 0.000000
# 5 0.000000 0.000000 0.000000 0.000000 0.033089 0.000000
# 6 0.001986 -0.001986 0.000000 0.000000 0.000000 0.051870
#
#
# Mechanical properties :
#
#
# Convention : Reuss Voigt Hill
#
# Bulk Modulus (GPa) = 31.70511 37.38777 34.54644
# Shear Modulus (GPa) = 25.29328 26.94819 26.12074
#
# Velocity S-wave (km/s) = 3.53803 3.65194 3.59544
# Velocity P-wave (km/s) = 5.69044 6.02374 5.85946
#
# Compressibility (1/GPa) = 0.03154066
#
# Stress axis : x y z
#
# Youngs Moduli (GPa) = 51.71798 51.71798 85.77140
#
# Poissons Ratio (x) = 0.01025 0.39440
# Poissons Ratio (y) = 0.01025 0.39440
# Poissons Ratio (z) = 0.23782 0.23782
#
# Static dielectric constant tensor:
#      x y z
#    x 1.796530 0.000000 0.000000 
#    y 0.000000 1.796530 0.000000 
#    z 0.000000 0.000000 1.688050 
# 
# From -- ./inp_files/1821.got.cif
#   From: 2010.05.17/outbox.cif.g08.bks.cpg/sg79_cif.got.tgz:1821.got - 2010.06.03 18:47:27.
