data_PCOD9541272
_publ_section_title
;
Structure prediction by ZEFSAII (Michael W. Deem and Ramdas Pophale) SiO2 
 PCOD9541272
Probable space group: P 41
;
_chemical_formula_sum "Si O2"
_cell_formula_units_Z 24
_cell_length_a 5.183706
_cell_length_b 5.183706
_cell_length_c 36.438246
_cell_angle_alpha 90.000000
_cell_angle_beta 90.000000
_cell_angle_gamma 90.000000
_cell_volume 979.125108
_symmetry_space_group_name_H-M "P 41"
_symmetry_group_IT_number 76
_symmetry_cell_setting 'tetragonal'
loop_
_space_group_symop_operation_xyz
x,y,z
-y,x,1/4+z
-x,-y,1/2+z
y,-x,3/4+z
loop_
_atom_site_type_symbol
_atom_site_label
_atom_site_fract_x
_atom_site_fract_y
_atom_site_fract_z
Si Si1 0.338030 0.975170 0.644840
Si Si2 0.959473 0.070172 0.587817
Si Si3 0.736805 0.444139 0.965443
Si Si4 0.070168 0.959478 0.251654
Si Si5 0.263203 0.444137 0.124027
Si Si6 0.338035 0.024828 0.944631
O O1 0.472028 0.708475 0.632704
O O2 0.091094 0.908905 0.669736
O O3 0.491572 0.129690 0.675720
O O4 0.225261 0.119491 0.609841
O O5 0.762448 0.288663 0.602194
O O6 0.999999 0.086205 0.544735
O O7 0.877507 0.780332 0.599745
O O8 0.762455 0.711341 0.987276
O O9 0.877514 0.219673 0.989726
O O10 0.472038 0.291522 0.956766
O O11 0.119489 0.225267 0.229630
O O12 0.129698 0.491571 0.163751
#
# Coordination Sequence:
#
# PCOD9541272 Si02
#       6
#     4   4   4   4   4   4
#     4  10  23  39  67 101 136 186 249 313 374 452
#     4  11  25  44  66 104 150 192 250 318 387 460
#     4  11  23  42  72  99 142 193 251 311 381 457
#     4  11  25  44  66 104 150 192 250 318 387 460
#     4  11  23  42  72  99 142 193 251 311 381 457
#     4  10  23  39  67 101 136 186 249 313 374 452
#
# _framework density 24.511683000000001
#
# number of rings (size 3 to 8) (size 9 to 14) (size 15 to 20)
#    0.000    1.333    3.333    1.000    4.667    1.333 
#    0.000    3.333    0.000    0.000    0.000    0.000 
#    0.000    0.000    0.000    0.000    0.000    0.000 
#
# Total GULP energy -134051.146756 kJ/mol
# GULP energy per Si atom -5585.464448 kJ/mol
# Density = 2.445589 g / cm^3
# Si number density = 24.511683 Si / 1000 Ang^3
#
#
#
# Elastic Constant Matrix: (Units=GPa)
#
#
# Indices 1 2 3 4 5 6 
#
# 1 111.6246 56.6851 53.4198 0.0000 0.0000 0.0000
# 2 56.6851 111.6246 53.4198 0.0000 0.0000 0.0000
# 3 53.4198 53.4198 236.1705 0.0000 0.0000 0.0000
# 4 0.0000 0.0000 0.0000 17.2650 0.0000 0.0000
# 5 0.0000 0.0000 0.0000 0.0000 17.2650 0.0000
# 6 0.0000 0.0000 0.0000 0.0000 0.0000 53.6668
#
#
#
# Elastic Compliance Matrix: (Units=1/GPa)
#
#
# Indices 1 2 3 4 5 6 
#
# 1 0.012570 -0.005632 -0.001569 0.000000 0.000000 0.000000
# 2 -0.005632 0.012570 -0.001569 0.000000 0.000000 0.000000
# 3 -0.001569 -0.001569 0.004944 0.000000 0.000000 0.000000
# 4 0.000000 0.000000 0.000000 0.057921 0.000000 0.000000
# 5 0.000000 0.000000 0.000000 0.000000 0.057921 0.000000
# 6 0.000000 0.000000 0.000000 0.000000 0.000000 0.018634
#
#
# Mechanical properties :
#
#
# Convention : Reuss Voigt Hill
#
# Bulk Modulus (GPa) = 79.72999 87.38547 83.55773
# Shear Modulus (GPa) = 26.84127 37.36568 32.10348
#
# Velocity S-wave (km/s) = 3.31273 3.90860 3.62293
# Velocity P-wave (km/s) = 6.87242 7.48982 7.18775
#
# Compressibility (1/GPa) = 0.01254233
#
# Stress axis : x y z
#
# Youngs Moduli (GPa) = 79.55649 79.55649 202.26068
#
# Poissons Ratio (x) = 0.44807 0.31739
# Poissons Ratio (y) = 0.44807 0.31739
# Poissons Ratio (z) = 0.12484 0.12484
#
# Static dielectric constant tensor:
#      x y z
#    x 2.096970 0.000000 0.000000 
#    y 0.000000 2.096970 0.000000 
#    z 0.000000 0.000000 1.925000 
# 
# From -- ./inp_files/1709.got.cif
#   From: 2010.05.17/outbox.cif.g08.bks.cpg/sg76_cif.got.tgz:1709.got - 2010.06.03 18:43:17.
