data_PCOD9541453
_publ_section_title
;
Structure prediction by ZEFSAII (Michael W. Deem and Ramdas Pophale) SiO2 
 PCOD9541453
Probable space group: P 41
;
_chemical_formula_sum "Si O2"
_cell_formula_units_Z 16
_cell_length_a 10.822247
_cell_length_b 10.822247
_cell_length_c 4.651976
_cell_angle_alpha 90.000000
_cell_angle_beta 90.000000
_cell_angle_gamma 90.000000
_cell_volume 544.844221
_symmetry_space_group_name_H-M "P 41"
_symmetry_group_IT_number 76
_symmetry_cell_setting 'tetragonal'
loop_
_space_group_symop_operation_xyz
x,y,z
-y,x,1/4+z
-x,-y,1/2+z
y,-x,3/4+z
loop_
_atom_site_type_symbol
_atom_site_label
_atom_site_fract_x
_atom_site_fract_y
_atom_site_fract_z
Si Si1 0.592489 0.748644 0.113960
Si Si2 0.673436 0.265303 0.335440
Si Si3 0.588832 0.974297 0.547948
Si Si4 0.813393 0.063851 0.941320
O O1 0.643990 0.641653 0.320640
O O2 0.453336 0.737357 0.015355
O O3 0.966704 0.709982 0.946804
O O4 0.679423 0.759978 0.836819
O O5 0.740479 0.149934 0.172405
O O6 0.859590 0.387124 0.089964
O O7 0.503769 0.048688 0.314655
O O8 0.866144 0.935894 0.074698
#
# Coordination Sequence:
#
# PCOD9541453 Si02
#       4
#     4   4   4   4
#     4  12  31  59 101 143 194 258 339 419 516 625
#     4  12  32  60 101 145 198 263 341 423 521 615
#     4  12  33  57 100 138 193 266 340 417 509 624
#     4  12  36  62  98 148 207 269 346 433 506 612
#
# _framework density 29.366191000000001
#
# number of rings (size 3 to 8) (size 9 to 14) (size 15 to 20)
#    0.000    0.000    0.000    3.000   21.000    6.000 
#    0.000    0.000    0.000    0.000    0.000    0.000 
#    0.000    0.000    0.000    0.000    0.000    0.000 
#
# Total GULP energy -89672.341281 kJ/mol
# GULP energy per Si atom -5604.521330 kJ/mol
# Density = 2.929935 g / cm^3
# Si number density = 29.366191 Si / 1000 Ang^3
#
#
#
# Elastic Constant Matrix: (Units=GPa)
#
#
# Indices 1 2 3 4 5 6 
#
# 1 232.4980 107.1855 153.2266 0.0000 0.0000 4.6833
# 2 107.1855 232.4980 153.2266 0.0000 0.0000 -4.6833
# 3 153.2266 153.2266 361.9505 0.0000 0.0000 0.0000
# 4 0.0000 0.0000 0.0000 88.0229 0.0000 0.0000
# 5 0.0000 0.0000 0.0000 0.0000 88.0229 0.0000
# 6 4.6833 -4.6833 0.0000 0.0000 0.0000 17.6834
#
#
#
# Elastic Compliance Matrix: (Units=1/GPa)
#
#
# Indices 1 2 3 4 5 6 
#
# 1 0.006452 -0.001689 -0.002016 0.000000 0.000000 -0.002156
# 2 -0.001689 0.006452 -0.002016 0.000000 0.000000 0.002156
# 3 -0.002016 -0.002016 0.004470 0.000000 0.000000 0.000000
# 4 0.000000 0.000000 0.000000 0.011361 0.000000 0.000000
# 5 0.000000 0.000000 0.000000 0.000000 0.011361 0.000000
# 6 -0.002156 0.002156 0.000000 0.000000 0.000000 0.057692
#
#
# Mechanical properties :
#
#
# Convention : Reuss Voigt Hill
#
# Bulk Modulus (GPa) = 168.61666 183.80268 176.20967
# Shear Modulus (GPa) = 44.96064 66.29967 55.63016
#
# Velocity S-wave (km/s) = 3.91709 4.75667 4.35715
# Velocity P-wave (km/s) = 8.83184 9.63813 9.24378
#
# Compressibility (1/GPa) = 0.00593061
#
# Stress axis : x y z
#
# Youngs Moduli (GPa) = 154.98792 154.98792 223.71354
#
# Poissons Ratio (x) = 0.26179 0.45109
# Poissons Ratio (y) = 0.26179 0.45109
# Poissons Ratio (z) = 0.31251 0.31251
#
# Static dielectric constant tensor:
#      x y z
#    x 2.651960 0.000000 0.000000 
#    y 0.000000 2.651960 0.000000 
#    z 0.000000 0.000000 2.229660 
# 
# From -- ./inp_files/48.got.cif
#   From: 2010.05.17/outbox.cif.g08.bks.cpg/sg76_cif.got.tgz:48.got - 2010.06.03 18:43:17.
