data_PCOD9541854
_publ_section_title
;
Structure prediction by ZEFSAII (Michael W. Deem and Ramdas Pophale) SiO2 
 PCOD9541854
Probable space group: I 4
;
_chemical_formula_sum "Si O2"
_cell_formula_units_Z 40
_cell_length_a 13.300838
_cell_length_b 13.300838
_cell_length_c 9.024980
_cell_angle_alpha 90.000000
_cell_angle_beta 90.000000
_cell_angle_gamma 90.000000
_cell_volume 1596.629893
_symmetry_space_group_name_H-M "I 4"
_symmetry_group_IT_number 79
_symmetry_cell_setting 'tetragonal'
loop_
_space_group_symop_operation_xyz
x,y,z
-y,x,z
-x,-y,z
y,-x,z
1/2+x,1/2+y,1/2+z
1/2-y,1/2+x,1/2+z
1/2-x,1/2-y,1/2+z
1/2+y,1/2-x,1/2+z
loop_
_atom_site_type_symbol
_atom_site_label
_atom_site_fract_x
_atom_site_fract_y
_atom_site_fract_z
Si Si1 0.769030 0.398878 0.023400
Si Si2 0.209545 0.768247 0.809262
Si Si3 0.659283 0.904956 0.479892
Si Si4 0.159588 0.051647 0.020836
Si Si5 0.857828 0.526361 0.672515
O O1 0.720573 0.324296 0.149763
O O2 0.885087 0.404416 0.074751
O O3 0.763634 0.346577 0.861212
O O4 0.748057 0.518843 0.019078
O O5 0.294834 0.820097 0.911107
O O6 0.097625 0.785071 0.875992
O O7 0.581636 0.883864 0.609668
O O8 0.610171 0.958815 0.338857
O O9 0.061129 0.120070 0.023619
O O10 0.239521 0.055195 0.153241
#
# Coordination Sequence:
#
# PCOD9541854 Si02
#       5
#     8   8   8   8   8
#     4  10  24  40  66  96 144 183 224 297 343 417
#     4  10  23  42  62 106 134 180 237 282 349 418
#     4  11  23  41  69  98 143 181 234 291 356 415
#     4  10  20  40  73 101 137 184 233 283 340 422
#     4  10  23  41  66 106 139 180 240 286 355 421
#
# _framework density 25.052768
#
# number of rings (size 3 to 8) (size 9 to 14) (size 15 to 20)
#    0.000    1.800    2.000    0.600    2.800    9.600 
#    0.000    0.000    0.000    0.600    0.000    0.000 
#    0.000    0.000    0.000    0.000    0.000    0.000 
#
# Total GULP energy -111433.608378 kJ/mol
# GULP energy per Si atom -5571.680419 kJ/mol
# Density = 2.499575 g / cm^3
# Si number density = 25.052768 Si / 1000 Ang^3
#
#
#
# Elastic Constant Matrix: (Units=GPa)
#
#
# Indices 1 2 3 4 5 6 
#
# 1 112.1821 17.2156 44.8341 0.0000 0.0000 -19.4053
# 2 17.2156 112.1821 44.8341 0.0000 0.0000 19.4053
# 3 44.8341 44.8341 159.2267 0.0000 0.0000 0.0000
# 4 0.0000 0.0000 0.0000 35.4776 0.0000 0.0000
# 5 0.0000 0.0000 0.0000 0.0000 35.4776 0.0000
# 6 -19.4053 19.4053 0.0000 0.0000 0.0000 27.3555
#
#
#
# Elastic Compliance Matrix: (Units=1/GPa)
#
#
# Indices 1 2 3 4 5 6 
#
# 1 0.012215 -0.002614 -0.002704 0.000000 0.000000 0.010519
# 2 -0.002614 0.012215 -0.002704 0.000000 0.000000 -0.010519
# 3 -0.002704 -0.002704 0.007803 0.000000 0.000000 0.000000
# 4 0.000000 0.000000 0.000000 0.028187 0.000000 0.000000
# 5 0.000000 0.000000 0.000000 0.000000 0.028187 0.000000
# 6 0.010519 -0.010519 0.000000 0.000000 0.000000 0.051480
#
#
# Mechanical properties :
#
#
# Convention : Reuss Voigt Hill
#
# Bulk Modulus (GPa) = 61.75964 66.37316 64.06640
# Shear Modulus (GPa) = 30.95478 38.10929 34.53203
#
# Velocity S-wave (km/s) = 3.51890 3.90444 3.71667
# Velocity P-wave (km/s) = 6.41993 6.84668 6.63674
#
# Compressibility (1/GPa) = 0.01619180
#
# Stress axis : x y z
#
# Youngs Moduli (GPa) = 81.86449 81.86449 128.15820
#
# Poissons Ratio (x) = 0.21397 0.34648
# Poissons Ratio (y) = 0.21397 0.34648
# Poissons Ratio (z) = 0.22133 0.22133
#
# Static dielectric constant tensor:
#      x y z
#    x 2.075890 0.000000 0.000000 
#    y 0.000000 2.075890 0.000000 
#    z 0.000000 0.000000 1.986990 
# 
# From -- ./inp_files/525.got.cif
#   From: 2010.05.17/outbox.cif.g08.bks.cpg/sg79_cif.got.tgz:525.got - 2010.06.03 18:47:27.
