data_PCOD9541148
_publ_section_title
;
Structure prediction by ZEFSAII (Michael W. Deem and Ramdas Pophale) SiO2 
 PCOD9541148
Probable space group: P 41
;
_chemical_formula_sum "Si O2"
_cell_formula_units_Z 32
_cell_length_a 9.687598
_cell_length_b 9.687598
_cell_length_c 18.168620
_cell_angle_alpha 90.000000
_cell_angle_beta 90.000000
_cell_angle_gamma 90.000000
_cell_volume 1705.116902
_symmetry_space_group_name_H-M "P 41"
_symmetry_group_IT_number 76
_symmetry_cell_setting 'tetragonal'
loop_
_space_group_symop_operation_xyz
x,y,z
-y,x,1/4+z
-x,-y,1/2+z
y,-x,3/4+z
loop_
_atom_site_type_symbol
_atom_site_label
_atom_site_fract_x
_atom_site_fract_y
_atom_site_fract_z
Si Si1 0.984362 0.360143 0.344300
Si Si2 0.855498 0.097244 0.854495
Si Si3 0.664436 0.662391 0.581482
Si Si4 0.432776 0.852902 0.422930
Si Si5 0.021115 0.896447 0.948207
Si Si6 0.619186 0.348319 0.167815
Si Si7 0.338353 0.922786 0.589510
Si Si8 0.081327 0.339840 0.186041
O O1 0.827962 0.328259 0.315463
O O2 0.976190 0.516221 0.373302
O O3 0.012141 0.244602 0.404652
O O4 0.085396 0.357436 0.274492
O O5 0.697813 0.137384 0.869405
O O6 0.870032 0.997509 0.784235
O O7 0.956850 0.226702 0.842617
O O8 0.914580 0.012791 0.923421
O O9 0.681855 0.588007 0.503521
O O10 0.516986 0.636804 0.618742
O O11 0.780690 0.628993 0.641019
O O12 0.513225 0.709087 0.417434
O O13 0.375200 0.880207 0.505568
O O14 0.551805 0.966744 0.409344
O O15 0.175751 0.943779 0.926818
O O16 0.699264 0.216083 0.133873
#
# Coordination Sequence:
#
# PCOD9541148 Si02
#       8
#     4   4   4   4   4   4   4   4
#     4   9  19  41  61  90 129 162 206 270 314 378
#     4  12  24  40  63  97 129 164 217 268 326 380
#     4  10  22  37  69  93 122 166 219 260 313 390
#     4  11  23  44  62  90 132 169 209 269 318 385
#     4  11  22  39  65  96 125 168 214 265 324 387
#     4  11  20  46  63  93 125 168 215 263 313 389
#     4  10  22  42  66  88 128 167 216 259 322 386
#     4  10  20  39  65  91 122 168 206 258 322 371
#
# _framework density 18.767043000000001
#
# number of rings (size 3 to 8) (size 9 to 14) (size 15 to 20)
#    0.000    1.500    6.250    0.750    0.000    3.000 
#    9.000    0.000    0.000    0.000    0.000    0.000 
#    0.000    0.000    0.000    0.000    0.000    0.000 
#
# Total GULP energy -178512.509887 kJ/mol
# GULP energy per Si atom -5578.515934 kJ/mol
# Density = 1.872433 g / cm^3
# Si number density = 18.767043 Si / 1000 Ang^3
#
#
#
# Elastic Constant Matrix: (Units=GPa)
#
#
# Indices 1 2 3 4 5 6 
#
# 1 91.9240 43.6132 39.1612 0.0000 0.0000 -6.1493
# 2 43.6132 91.9240 39.1612 0.0000 0.0000 6.1493
# 3 39.1612 39.1612 77.4660 0.0000 0.0000 0.0000
# 4 0.0000 0.0000 0.0000 29.4597 0.0000 0.0000
# 5 0.0000 0.0000 0.0000 0.0000 29.4597 0.0000
# 6 -6.1493 6.1493 0.0000 0.0000 0.0000 16.1706
#
#
#
# Elastic Compliance Matrix: (Units=1/GPa)
#
#
# Indices 1 2 3 4 5 6 
#
# 1 0.016670 -0.006248 -0.005269 0.000000 0.000000 0.008715
# 2 -0.006248 0.016670 -0.005269 0.000000 0.000000 -0.008715
# 3 -0.005269 -0.005269 0.018236 0.000000 0.000000 0.000000
# 4 0.000000 0.000000 0.000000 0.033945 0.000000 0.000000
# 5 0.000000 0.000000 0.000000 0.000000 0.033945 0.000000
# 6 0.008715 -0.008715 0.000000 0.000000 0.000000 0.068469
#
#
# Mechanical properties :
#
#
# Convention : Reuss Voigt Hill
#
# Bulk Modulus (GPa) = 55.53788 56.13167 55.83477
# Shear Modulus (GPa) = 21.97719 24.30987 23.14353
#
# Velocity S-wave (km/s) = 3.42578 3.60300 3.51551
# Velocity P-wave (km/s) = 6.73093 6.87630 6.80400
#
# Compressibility (1/GPa) = 0.01800573
#
# Stress axis : x y z
#
# Youngs Moduli (GPa) = 59.98651 59.98651 54.83610
#
# Poissons Ratio (x) = 0.37477 0.28893
# Poissons Ratio (y) = 0.37477 0.28893
# Poissons Ratio (z) = 0.31607 0.31607
#
# Static dielectric constant tensor:
#      x y z
#    x 1.651170 0.000000 0.000000 
#    y 0.000000 1.651170 0.000000 
#    z 0.000000 0.000000 1.647000 
# 
# From -- ./inp_files/1481.got.cif
#   From: 2010.05.17/outbox.cif.g08.bks.cpg/sg76_cif.got.tgz:1481.got - 2010.06.03 18:43:17.
