data_PCOD9541724
_publ_section_title
;
Structure prediction by ZEFSAII (Michael W. Deem and Ramdas Pophale) SiO2 
 PCOD9541724
Probable space group: P 43
;
_chemical_formula_sum "Si O2"
_cell_formula_units_Z 28
_cell_length_a 11.035674
_cell_length_b 11.035674
_cell_length_c 10.062544
_cell_angle_alpha 90.000000
_cell_angle_beta 90.000000
_cell_angle_gamma 90.000000
_cell_volume 1225.477996
_symmetry_space_group_name_H-M "P 43"
_symmetry_group_IT_number 78
_symmetry_cell_setting 'tetragonal'
loop_
_space_group_symop_operation_xyz
x,y,z
-y,x,3/4+z
-x,-y,1/2+z
y,-x,1/4+z
loop_
_atom_site_type_symbol
_atom_site_label
_atom_site_fract_x
_atom_site_fract_y
_atom_site_fract_z
Si Si1 0.293200 0.721110 0.213860
Si Si2 0.033863 0.255700 0.088025
Si Si3 0.594434 0.819601 0.715442
Si Si4 0.417485 0.232991 0.696428
Si Si5 0.961513 0.638245 0.864815
Si Si6 0.903378 0.034986 0.232957
Si Si7 0.486711 0.604759 0.839036
O O1 0.237768 0.854490 0.239367
O O2 0.255629 0.645908 0.342783
O O3 0.437969 0.741833 0.202090
O O4 0.239664 0.649002 0.088662
O O5 0.071476 0.344305 0.209642
O O6 0.986215 0.139038 0.165792
O O7 0.921900 0.312697 0.009995
O O8 0.469256 0.883242 0.675560
O O9 0.567237 0.723782 0.830693
O O10 0.362674 0.348386 0.620429
O O11 0.393974 0.103748 0.629314
O O12 0.943611 0.764058 0.943347
O O13 0.921946 0.049462 0.391954
O O14 0.484043 0.535747 0.700595
#
# Coordination Sequence:
#
# PCOD9541724 Si02
#       7
#     4   4   4   4   4   4   4
#     4  12  27  48  77 110 155 196 255 324 388 464
#     4  11  25  49  69 107 147 198 251 314 376 460
#     4  12  27  43  77 103 147 199 244 306 392 447
#     4  12  26  50  73 112 151 194 257 324 385 466
#     4  11  26  48  71 105 152 193 251 314 380 455
#     4  10  24  45  72 101 145 188 251 301 366 441
#     4  12  27  45  75 108 147 194 249 307 387 461
#
# _framework density 22.848226
#
# number of rings (size 3 to 8) (size 9 to 14) (size 15 to 20)
#    0.000    0.571    2.857    4.286   12.000    0.000 
#    0.000    0.000    0.000    0.000    0.000    0.000 
#    0.000    0.000    0.000    0.000    0.000    0.000 
#
# Total GULP energy -156761.552586 kJ/mol
# GULP energy per Si atom -5598.626878 kJ/mol
# Density = 2.279622 g / cm^3
# Si number density = 22.848226 Si / 1000 Ang^3
#
#
#
# Elastic Constant Matrix: (Units=GPa)
#
#
# Indices 1 2 3 4 5 6 
#
# 1 62.8678 1.7424 -2.1063 0.0000 0.0000 0.3975
# 2 1.7424 62.8678 -2.1063 0.0000 0.0000 -0.3975
# 3 -2.1063 -2.1063 60.6364 0.0000 0.0000 0.0000
# 4 0.0000 0.0000 0.0000 24.3926 0.0000 0.0000
# 5 0.0000 0.0000 0.0000 0.0000 24.3926 0.0000
# 6 0.3975 -0.3975 0.0000 0.0000 0.0000 23.4048
#
#
#
# Elastic Compliance Matrix: (Units=1/GPa)
#
#
# Indices 1 2 3 4 5 6 
#
# 1 0.015938 -0.000425 0.000539 0.000000 0.000000 -0.000278
# 2 -0.000425 0.015938 0.000539 0.000000 0.000000 0.000278
# 3 0.000539 0.000539 0.016529 0.000000 0.000000 0.000000
# 4 0.000000 0.000000 0.000000 0.040996 0.000000 0.000000
# 5 0.000000 0.000000 0.000000 0.000000 0.040996 0.000000
# 6 -0.000278 0.000278 0.000000 0.000000 0.000000 0.042736
#
#
# Mechanical properties :
#
#
# Convention : Reuss Voigt Hill
#
# Bulk Modulus (GPa) = 20.11675 20.15903 20.13789
# Shear Modulus (GPa) = 26.53952 27.02748 26.78350
#
# Velocity S-wave (km/s) = 3.41186 3.44308 3.42751
# Velocity P-wave (km/s) = 4.93403 4.96474 4.94941
#
# Compressibility (1/GPa) = 0.04970982
#
# Stress axis : x y z
#
# Youngs Moduli (GPa) = 62.74309 62.74309 60.49903
#
# Poissons Ratio (x) = 0.02669 -0.03260
# Poissons Ratio (y) = 0.02669 -0.03260
# Poissons Ratio (z) = -0.03381 -0.03381
#
# Static dielectric constant tensor:
#      x y z
#    x 1.862680 0.000000 0.000000 
#    y 0.000000 1.862680 0.000000 
#    z 0.000000 0.000000 1.873360 
# 
# From -- ./inp_files/640.got.cif
#   From: 2010.05.17/outbox.cif.g08.bks.cpg/sg78_cif.got.tgz:640.got - 2010.06.03 18:45:56.
