data_PCOD9541901
_publ_section_title
;
Structure prediction by ZEFSAII (Michael W. Deem and Ramdas Pophale) SiO2 
 PCOD9541901
Probable space group: I 4
;
_chemical_formula_sum "Si O2"
_cell_formula_units_Z 60
_cell_length_a 11.592430
_cell_length_b 11.592430
_cell_length_c 21.759225
_cell_angle_alpha 90.000000
_cell_angle_beta 90.000000
_cell_angle_gamma 90.000000
_cell_volume 2924.101121
_symmetry_space_group_name_H-M "I 4"
_symmetry_group_IT_number 79
_symmetry_cell_setting 'tetragonal'
loop_
_space_group_symop_operation_xyz
x,y,z
-y,x,z
-x,-y,z
y,-x,z
1/2+x,1/2+y,1/2+z
1/2-y,1/2+x,1/2+z
1/2-x,1/2-y,1/2+z
1/2+y,1/2-x,1/2+z
loop_
_atom_site_type_symbol
_atom_site_label
_atom_site_fract_x
_atom_site_fract_y
_atom_site_fract_z
Si Si1 0.670284 0.163594 0.514250
Si Si2 0.670979 0.959910 0.893148
Si Si3 0.133451 0.861385 0.425001
Si Si4 0.404522 0.669553 0.622095
Si Si5 0.314019 0.859717 0.717169
Si Si6 0.801744 0.759571 0.846367
Si Si7 0.000000 0.500000 0.793181
Si Si8 0.029711 0.191567 0.606926
O O1 0.577416 0.135326 0.461290
O O2 0.786374 0.196289 0.476732
O O3 0.627613 0.265008 0.558735
O O4 0.709820 0.057476 0.557211
O O5 0.781702 0.883861 0.875837
O O6 0.698078 0.091996 0.880404
O O7 0.577670 0.927315 0.840972
O O8 0.180998 0.809001 0.361958
O O9 0.997820 0.843753 0.430824
O O10 0.348077 0.542616 0.625698
O O11 0.356261 0.753100 0.675596
O O12 0.234514 0.821583 0.773945
O O13 0.248559 0.949499 0.673078
O O14 0.421157 0.921248 0.750460
O O15 0.908232 0.127505 0.599962
#
# Coordination Sequence:
#
# PCOD9541901 Si02
#       8
#     8   8   8   8   8   8   4   8
#     4  10  22  40  66  94 130 173 212 275 333 392
#     4  10  24  42  65  98 134 177 221 272 338 402
#     4  10  22  40  65  95 129 171 222 279 334 394
#     4  10  24  43  65  95 130 176 224 275 321 397
#     4  10  24  41  68  92 133 174 221 278 336 399
#     4  10  24  40  66  98 132 177 219 277 330 409
#     4  10  24  44  64  96 140 172 212 288 332 398
#     4  10  22  42  68  99 130 174 226 282 326 392
#
# _framework density 20.519127000000001
#
# number of rings (size 3 to 8) (size 9 to 14) (size 15 to 20)
#    0.000    2.000    0.000    0.800   16.800    2.400 
#    0.000    4.000    0.000    0.000    0.000    0.000 
#    0.000    0.000    0.000    0.000    0.000    0.000 
#
# Total GULP energy -167480.456589 kJ/mol
# GULP energy per Si atom -5582.681886 kJ/mol
# Density = 2.047242 g / cm^3
# Si number density = 20.519127 Si / 1000 Ang^3
#
#
#
# Elastic Constant Matrix: (Units=GPa)
#
#
# Indices 1 2 3 4 5 6 
#
# 1 62.3338 35.7992 28.7513 0.0000 0.0000 -1.2679
# 2 35.7992 62.3338 28.7513 0.0000 0.0000 1.2679
# 3 28.7513 28.7513 131.8311 0.0000 0.0000 0.0000
# 4 0.0000 0.0000 0.0000 29.0454 0.0000 0.0000
# 5 0.0000 0.0000 0.0000 0.0000 29.0454 0.0000
# 6 -1.2679 1.2679 0.0000 0.0000 0.0000 26.8407
#
#
#
# Elastic Compliance Matrix: (Units=1/GPa)
#
#
# Indices 1 2 3 4 5 6 
#
# 1 0.024770 -0.013087 -0.002548 0.000000 0.000000 0.001788
# 2 -0.013087 0.024770 -0.002548 0.000000 0.000000 -0.001788
# 3 -0.002548 -0.002548 0.008697 0.000000 0.000000 0.000000
# 4 0.000000 0.000000 0.000000 0.034429 0.000000 0.000000
# 5 0.000000 0.000000 0.000000 0.000000 0.034429 0.000000
# 6 0.001788 -0.001788 0.000000 0.000000 0.000000 0.037426
#
#
# Mechanical properties :
#
#
# Convention : Reuss Voigt Hill
#
# Bulk Modulus (GPa) = 45.72194 49.23363 47.47779
# Shear Modulus (GPa) = 24.01790 27.86610 25.94200
#
# Velocity S-wave (km/s) = 3.42499 3.68918 3.55953
# Velocity P-wave (km/s) = 6.16212 6.49560 6.33105
#
# Compressibility (1/GPa) = 0.02187134
#
# Stress axis : x y z
#
# Youngs Moduli (GPa) = 40.37072 40.37072 114.98383
#
# Poissons Ratio (x) = 0.52834 0.29298
# Poissons Ratio (y) = 0.52834 0.29298
# Poissons Ratio (z) = 0.10287 0.10287
#
# Static dielectric constant tensor:
#      x y z
#    x 1.754400 0.000000 0.000000 
#    y 0.000000 1.754400 0.000000 
#    z 0.000000 0.000000 1.744590 
# 
# From -- ./inp_files/1887.got.cif
#   From: 2010.05.17/outbox.cif.g08.bks.cpg/sg79_cif.got.tgz:1887.got - 2010.06.03 18:47:27.
