data_PCOD9541199
_publ_section_title
;
Structure prediction by ZEFSAII (Michael W. Deem and Ramdas Pophale) SiO2 
 PCOD9541199
Probable space group: P 41
;
_chemical_formula_sum "Si O2"
_cell_formula_units_Z 28
_cell_length_a 7.562143
_cell_length_b 7.562143
_cell_length_c 21.152626
_cell_angle_alpha 90.000000
_cell_angle_beta 90.000000
_cell_angle_gamma 90.000000
_cell_volume 1209.634213
_symmetry_space_group_name_H-M "P 41"
_symmetry_group_IT_number 76
_symmetry_cell_setting 'tetragonal'
loop_
_space_group_symop_operation_xyz
x,y,z
-y,x,1/4+z
-x,-y,1/2+z
y,-x,3/4+z
loop_
_atom_site_type_symbol
_atom_site_label
_atom_site_fract_x
_atom_site_fract_y
_atom_site_fract_z
Si Si1 0.922468 0.897026 0.353850
Si Si2 0.186901 0.193449 0.197097
Si Si3 0.757366 0.574896 0.411704
Si Si4 0.740310 0.101282 0.796231
Si Si5 0.047289 0.636895 0.506990
Si Si6 0.620952 0.458580 0.925233
Si Si7 0.500622 0.276708 0.535505
O O1 0.876516 0.692385 0.365838
O O2 0.825678 0.944752 0.288932
O O3 0.126130 0.957665 0.350751
O O4 0.825840 0.012129 0.406869
O O5 0.361590 0.235310 0.154148
O O6 0.172886 0.343698 0.250961
O O7 0.225134 0.010754 0.233345
O O8 0.557682 0.645417 0.407679
O O9 0.853683 0.605362 0.478570
O O10 0.529520 0.085222 0.803497
O O11 0.800892 0.303899 0.788946
O O12 0.200274 0.624629 0.453288
O O13 0.670280 0.548755 0.857714
O O14 0.542506 0.567358 0.984962
#
# Coordination Sequence:
#
# PCOD9541199 Si02
#       7
#     4   4   4   4   4   4   4
#     4  12  24  39  64  96 127 169 217 264 323 387
#     4  10  25  42  61  94 130 168 216 265 319 387
#     4  10  22  40  62  90 127 167 212 268 322 383
#     4  10  23  40  60  90 126 168 213 265 317 387
#     4  10  23  41  63  94 130 166 215 268 321 388
#     4  10  21  42  67  96 128 169 219 269 328 398
#     4  10  22  42  69  94 128 173 216 269 334 390
#
# _framework density 23.147496
#
# number of rings (size 3 to 8) (size 9 to 14) (size 15 to 20)
#    0.000    1.714    0.000    3.429    0.000   14.857 
#    0.000    2.857    0.000    0.000    0.000    0.000 
#    0.000    0.000    0.000    0.000    0.000    0.000 
#
# Total GULP energy -156066.844638 kJ/mol
# GULP energy per Si atom -5573.815880 kJ/mol
# Density = 2.309481 g / cm^3
# Si number density = 23.147496 Si / 1000 Ang^3
#
#
#
# Elastic Constant Matrix: (Units=GPa)
#
#
# Indices 1 2 3 4 5 6 
#
# 1 46.4898 22.6540 3.8356 0.0000 0.0000 5.5853
# 2 22.6540 46.4898 3.8356 0.0000 0.0000 -5.5853
# 3 3.8356 3.8356 70.2678 0.0000 0.0000 0.0000
# 4 0.0000 0.0000 0.0000 41.6676 0.0000 0.0000
# 5 0.0000 0.0000 0.0000 0.0000 41.6676 0.0000
# 6 5.5853 -5.5853 0.0000 0.0000 0.0000 20.2722
#
#
#
# Elastic Compliance Matrix: (Units=1/GPa)
#
#
# Indices 1 2 3 4 5 6 
#
# 1 0.031362 -0.016812 -0.000794 0.000000 0.000000 -0.013273
# 2 -0.016812 0.031362 -0.000794 0.000000 0.000000 0.013273
# 3 -0.000794 -0.000794 0.014318 0.000000 0.000000 0.000000
# 4 0.000000 0.000000 0.000000 0.023999 0.000000 0.000000
# 5 0.000000 0.000000 0.000000 0.000000 0.023999 0.000000
# 6 -0.013273 0.013273 0.000000 0.000000 0.000000 0.056642
#
#
# Mechanical properties :
#
#
# Convention : Reuss Voigt Hill
#
# Bulk Modulus (GPa) = 24.84942 24.87755 24.86349
# Shear Modulus (GPa) = 21.56121 29.58296 25.57208
#
# Velocity S-wave (km/s) = 3.05531 3.57882 3.32738
# Velocity P-wave (km/s) = 4.81717 5.27712 5.05238
#
# Compressibility (1/GPa) = 0.04024238
#
# Stress axis : x y z
#
# Youngs Moduli (GPa) = 31.88543 31.88543 69.84228
#
# Poissons Ratio (x) = 0.53604 0.05547
# Poissons Ratio (y) = 0.53604 0.05547
# Poissons Ratio (z) = 0.02533 0.02533
#
# Static dielectric constant tensor:
#      x y z
#    x 1.921800 0.000000 0.000000 
#    y 0.000000 1.921800 0.000000 
#    z 0.000000 0.000000 1.919040 
# 
# From -- ./inp_files/1302.got.cif
#   From: 2010.05.17/outbox.cif.g08.bks.cpg/sg76_cif.got.tgz:1302.got - 2010.06.03 18:43:17.
