data_PCOD9541157
_publ_section_title
;
Structure prediction by ZEFSAII (Michael W. Deem and Ramdas Pophale) SiO2 
 PCOD9541157
Probable space group: P 41
;
_chemical_formula_sum "Si O2"
_cell_formula_units_Z 24
_cell_length_a 10.949988
_cell_length_b 10.949988
_cell_length_c 7.919947
_cell_angle_alpha 90.000000
_cell_angle_beta 90.000000
_cell_angle_gamma 90.000000
_cell_volume 949.619364
_symmetry_space_group_name_H-M "P 41"
_symmetry_group_IT_number 76
_symmetry_cell_setting 'tetragonal'
loop_
_space_group_symop_operation_xyz
x,y,z
-y,x,1/4+z
-x,-y,1/2+z
y,-x,3/4+z
loop_
_atom_site_type_symbol
_atom_site_label
_atom_site_fract_x
_atom_site_fract_y
_atom_site_fract_z
Si Si1 0.476118 0.174388 0.889880
Si Si2 0.468959 0.348069 0.470548
Si Si3 0.565243 0.010246 0.639635
Si Si4 0.744637 0.654013 0.437094
Si Si5 0.955125 0.853209 0.424289
Si Si6 0.670574 0.895725 0.972948
O O1 0.569879 0.139582 0.739695
O O2 0.372911 0.273988 0.870256
O O3 0.556509 0.218176 0.046651
O O4 0.404237 0.051811 0.960156
O O5 0.540186 0.405768 0.625497
O O6 0.574944 0.287579 0.352603
O O7 0.367698 0.243765 0.498743
O O8 0.421752 0.029394 0.594442
O O9 0.631284 0.927298 0.780730
O O10 0.850177 0.754028 0.463196
O O11 0.030834 0.891845 0.587377
O O12 0.053279 0.799021 0.286580
#
# Coordination Sequence:
#
# PCOD9541157 Si02
#       6
#     4   4   4   4   4   4
#     4  11  23  42  75 105 152 194 248 305 386 451
#     4  12  27  47  72 114 158 201 253 305 389 466
#     4  10  20  42  72 102 135 192 254 290 373 454
#     4  12  23  46  76 107 153 196 238 324 379 451
#     4  12  29  50  75 109 148 200 263 314 381 447
#     4  11  22  47  72 105 146 195 250 316 372 459
#
# _framework density 25.273285999999999
#
# number of rings (size 3 to 8) (size 9 to 14) (size 15 to 20)
#    0.000    0.667    6.667    1.000    0.000    6.667 
#    3.000    0.000    0.000    0.000    0.000    0.000 
#    0.000    0.000    0.000    0.000    0.000    0.000 
#
# Total GULP energy -133971.421372 kJ/mol
# GULP energy per Si atom -5582.142557 kJ/mol
# Density = 2.521576 g / cm^3
# Si number density = 25.273286 Si / 1000 Ang^3
#
#
#
# Elastic Constant Matrix: (Units=GPa)
#
#
# Indices 1 2 3 4 5 6 
#
# 1 110.0927 69.4869 20.4472 0.0000 0.0000 -8.1077
# 2 69.4869 110.0927 20.4472 0.0000 0.0000 8.1077
# 3 20.4472 20.4472 78.7342 0.0000 0.0000 0.0000
# 4 0.0000 0.0000 0.0000 33.6709 0.0000 0.0000
# 5 0.0000 0.0000 0.0000 0.0000 33.6709 0.0000
# 6 -8.1077 8.1077 0.0000 0.0000 0.0000 39.7039
#
#
#
# Elastic Compliance Matrix: (Units=1/GPa)
#
#
# Indices 1 2 3 4 5 6 
#
# 1 0.016366 -0.010448 -0.001537 0.000000 0.000000 0.005475
# 2 -0.010448 0.016366 -0.001537 0.000000 0.000000 -0.005475
# 3 -0.001537 -0.001537 0.013499 0.000000 0.000000 0.000000
# 4 0.000000 0.000000 0.000000 0.029699 0.000000 0.000000
# 5 0.000000 0.000000 0.000000 0.000000 0.029699 0.000000
# 6 0.005475 -0.005475 0.000000 0.000000 0.000000 0.027423
#
#
# Mechanical properties :
#
#
# Convention : Reuss Voigt Hill
#
# Bulk Modulus (GPa) = 52.11521 57.74248 54.92884
# Shear Modulus (GPa) = 30.03149 33.97835 32.00492
#
# Velocity S-wave (km/s) = 3.45087 3.67063 3.56245
# Velocity P-wave (km/s) = 6.04512 6.39231 6.22113
#
# Compressibility (1/GPa) = 0.01918826
#
# Stress axis : x y z
#
# Youngs Moduli (GPa) = 61.10196 61.10196 74.07788
#
# Poissons Ratio (x) = 0.63836 0.11386
# Poissons Ratio (y) = 0.63836 0.11386
# Poissons Ratio (z) = 0.09392 0.09392
#
# Static dielectric constant tensor:
#      x y z
#    x 2.028440 0.000000 0.000000 
#    y 0.000000 2.028440 0.000000 
#    z 0.000000 0.000000 2.070250 
# 
# From -- ./inp_files/522.got.cif
#   From: 2010.05.17/outbox.cif.g08.bks.cpg/sg76_cif.got.tgz:522.got - 2010.06.03 18:43:17.
