data_PCOD9541997
_publ_section_title
;
Structure prediction by ZEFSAII (Michael W. Deem and Ramdas Pophale) SiO2 
 PCOD9541997
Probable space group: I 4
;
_chemical_formula_sum "Si O2"
_cell_formula_units_Z 44
_cell_length_a 8.115794
_cell_length_b 8.115794
_cell_length_c 30.442460
_cell_angle_alpha 90.000000
_cell_angle_beta 90.000000
_cell_angle_gamma 90.000000
_cell_volume 2005.126488
_symmetry_space_group_name_H-M "I 4"
_symmetry_group_IT_number 79
_symmetry_cell_setting 'tetragonal'
loop_
_space_group_symop_operation_xyz
x,y,z
-y,x,z
-x,-y,z
y,-x,z
1/2+x,1/2+y,1/2+z
1/2-y,1/2+x,1/2+z
1/2-x,1/2-y,1/2+z
1/2+y,1/2-x,1/2+z
loop_
_atom_site_type_symbol
_atom_site_label
_atom_site_fract_x
_atom_site_fract_y
_atom_site_fract_z
Si Si1 0.097506 0.261035 0.427400
Si Si2 0.000000 0.500000 0.683162
Si Si3 0.415625 0.236114 0.756629
Si Si4 0.737538 0.914254 0.111047
Si Si5 0.762506 0.587333 0.341808
Si Si6 0.239189 0.597983 0.025508
O O1 0.151345 0.377419 0.388145
O O2 0.124504 0.329836 0.476442
O O3 0.908134 0.202987 0.423747
O O4 0.883964 0.395082 0.715401
O O5 0.888373 0.609424 0.650863
O O6 0.602878 0.301264 0.754702
O O7 0.376696 0.142656 0.801660
O O8 0.652505 0.877951 0.064627
O O9 0.898277 0.800475 0.114319
O O10 0.599162 0.700840 0.338905
O O11 0.296498 0.408329 0.029044
#
# Coordination Sequence:
#
# PCOD9541997 Si02
#       6
#     8   4   8   8   8   8
#     4   9  19  37  62  91 124 167 216 262 315 382
#     4  12  24  42  66  90 120 156 204 260 318 384
#     4  11  24  43  68  95 124 162 209 261 321 393
#     4  11  24  41  63  93 128 166 210 261 321 392
#     4  11  24  40  59  90 132 172 214 266 321 378
#     4   9  19  38  63  92 128 169 215 267 323 385
#
# _framework density 21.943750000000001
#
# number of rings (size 3 to 8) (size 9 to 14) (size 15 to 20)
#    0.000    1.636    0.000    5.455    0.000    6.545 
#    0.000    5.455    0.000    2.182    0.000    0.000 
#    0.000    0.000    0.000    0.000    0.000    0.000 
#
# Total GULP energy -123216.974918 kJ/mol
# GULP energy per Si atom -5600.771587 kJ/mol
# Density = 2.189381 g / cm^3
# Si number density = 21.943750 Si / 1000 Ang^3
#
#
#
# Elastic Constant Matrix: (Units=GPa)
#
#
# Indices 1 2 3 4 5 6 
#
# 1 104.8633 53.9485 84.5363 0.0000 0.0000 -0.2198
# 2 53.9485 104.8633 84.5363 0.0000 0.0000 0.2198
# 3 84.5363 84.5363 224.6013 0.0000 0.0000 0.0000
# 4 0.0000 0.0000 0.0000 10.4743 0.0000 0.0000
# 5 0.0000 0.0000 0.0000 0.0000 10.4743 0.0000
# 6 -0.2198 0.2198 0.0000 0.0000 0.0000 36.2851
#
#
#
# Elastic Compliance Matrix: (Units=1/GPa)
#
#
# Indices 1 2 3 4 5 6 
#
# 1 0.015074 -0.004567 -0.003955 0.000000 0.000000 0.000119
# 2 -0.004567 0.015074 -0.003955 0.000000 0.000000 -0.000119
# 3 -0.003955 -0.003955 0.007429 0.000000 0.000000 0.000000
# 4 0.000000 0.000000 0.000000 0.095472 0.000000 0.000000
# 5 0.000000 0.000000 0.000000 0.000000 0.095472 0.000000
# 6 0.000119 -0.000119 0.000000 0.000000 0.000000 0.027561
#
#
# Mechanical properties :
#
#
# Convention : Reuss Voigt Hill
#
# Bulk Modulus (GPa) = 79.21083 97.81887 88.51485
# Shear Modulus (GPa) = 17.52885 25.53387 21.53136
#
# Velocity S-wave (km/s) = 2.82939 3.41487 3.13582
# Velocity P-wave (km/s) = 6.84467 7.76030 7.31682
#
# Compressibility (1/GPa) = 0.01262454
#
# Stress axis : x y z
#
# Youngs Moduli (GPa) = 66.33820 66.33820 134.60317
#
# Poissons Ratio (x) = 0.30299 0.53230
# Poissons Ratio (y) = 0.30299 0.53230
# Poissons Ratio (z) = 0.26234 0.26234
#
# Static dielectric constant tensor:
#      x y z
#    x 1.808720 0.000000 0.000000 
#    y 0.000000 1.808720 0.000000 
#    z 0.000000 0.000000 1.765210 
# 
# From -- ./inp_files/2099.got.cif
#   From: 2010.05.17/outbox.cif.g08.bks.cpg/sg79_cif.got.tgz:2099.got - 2010.06.03 18:47:27.
