data_PCOD9541307
_publ_section_title
;
Structure prediction by ZEFSAII (Michael W. Deem and Ramdas Pophale) SiO2 
 PCOD9541307
Probable space group: P 41
;
_chemical_formula_sum "Si O2"
_cell_formula_units_Z 28
_cell_length_a 14.243403
_cell_length_b 14.243403
_cell_length_c 5.644148
_cell_angle_alpha 90.000000
_cell_angle_beta 90.000000
_cell_angle_gamma 90.000000
_cell_volume 1145.053867
_symmetry_space_group_name_H-M "P 41"
_symmetry_group_IT_number 76
_symmetry_cell_setting 'tetragonal'
loop_
_space_group_symop_operation_xyz
x,y,z
-y,x,1/4+z
-x,-y,1/2+z
y,-x,3/4+z
loop_
_atom_site_type_symbol
_atom_site_label
_atom_site_fract_x
_atom_site_fract_y
_atom_site_fract_z
Si Si1 0.122788 0.940943 0.532960
Si Si2 0.775164 0.375216 0.313142
Si Si3 0.235558 0.224933 0.705345
Si Si4 0.395423 0.413728 0.305814
Si Si5 0.560317 0.224355 0.854914
Si Si6 0.268495 0.064915 0.308831
Si Si7 0.460106 0.967334 0.192160
O O1 0.189037 0.854887 0.606965
O O2 0.022534 0.897943 0.467522
O O3 0.178196 0.996029 0.318685
O O4 0.755117 0.340513 0.049673
O O5 0.683624 0.352129 0.464466
O O6 0.792440 0.486157 0.317259
O O7 0.861731 0.306533 0.364882
O O8 0.206514 0.330311 0.641116
O O9 0.249150 0.139917 0.519582
O O10 0.502487 0.394745 0.370169
O O11 0.330880 0.449742 0.519999
O O12 0.530984 0.144802 0.667472
O O13 0.359856 0.998170 0.304403
O O14 0.525889 0.994572 0.422053
#
# Coordination Sequence:
#
# PCOD9541307 Si02
#       7
#     4   4   4   4   4   4   4
#     4  10  24  45  72 102 143 186 248 314 379 460
#     4  12  25  43  75 101 145 195 240 312 383 458
#     4  11  24  47  67 107 143 189 250 305 382 454
#     4  12  26  46  71 106 146 195 251 308 377 462
#     4  12  24  45  71 108 147 191 252 312 380 457
#     4  11  24  47  66 105 147 189 248 312 377 456
#     4  12  27  47  74 111 149 199 251 313 388 457
#
# _framework density 24.452998000000001
#
# number of rings (size 3 to 8) (size 9 to 14) (size 15 to 20)
#    0.000    0.571    4.286    3.429    4.000    1.143 
#    0.000    0.000    0.000    0.000    0.000    0.000 
#    0.000    0.000    0.000    0.000    0.000    0.000 
#
# Total GULP energy -155945.716825 kJ/mol
# GULP energy per Si atom -5569.489887 kJ/mol
# Density = 2.439734 g / cm^3
# Si number density = 24.452998 Si / 1000 Ang^3
#
#
#
# Elastic Constant Matrix: (Units=GPa)
#
#
# Indices 1 2 3 4 5 6 
#
# 1 66.9296 60.6271 18.9515 0.0000 0.0000 35.9036
# 2 60.6271 66.9296 18.9515 0.0000 0.0000 -35.9036
# 3 18.9515 18.9515 33.9746 0.0000 0.0000 0.0000
# 4 0.0000 0.0000 0.0000 17.6521 0.0000 0.0000
# 5 0.0000 0.0000 0.0000 0.0000 17.6521 0.0000
# 6 35.9036 -35.9036 0.0000 0.0000 0.0000 10.6721
#
#
#
# Elastic Compliance Matrix: (Units=1/GPa)
#
#
# Indices 1 2 3 4 5 6 
#
# 1 0.002573 0.006824 -0.005242 0.000000 0.000000 0.014299
# 2 0.006824 0.002573 -0.005242 0.000000 0.000000 -0.014299
# 3 -0.005242 -0.005242 0.035282 0.000000 0.000000 0.000000
# 4 0.000000 0.000000 0.000000 0.056651 0.000000 0.000000
# 5 0.000000 0.000000 0.000000 0.000000 0.056651 0.000000
# 6 0.014299 -0.014299 0.000000 0.000000 0.000000 -0.002510
#
#
# Mechanical properties :
#
#
# Convention : Reuss Voigt Hill
#
# Bulk Modulus (GPa) = 30.20363 40.54380 35.37371
# Shear Modulus (GPa) = 29.48531 13.81551 21.65041
#
# Velocity S-wave (km/s) = 3.47622 2.37951 2.97878
# Velocity P-wave (km/s) = 5.33767 4.91587 5.13110
#
# Compressibility (1/GPa) = 0.03310861
#
# Stress axis : x y z
#
# Youngs Moduli (GPa) = 388.58429 388.58429 28.34325
#
# Poissons Ratio (x) = -2.65163 0.14857
# Poissons Ratio (y) = -2.65163 0.14857
# Poissons Ratio (z) = 2.03693 2.03693
#
# Static dielectric constant tensor:
#      x y z
#    x 1.989880 0.000000 0.000000 
#    y 0.000000 1.989880 0.000000 
#    z 0.000000 0.000000 2.057310 
# 
# From -- ./inp_files/266.got.cif
#   From: 2010.05.17/outbox.cif.g08.bks.cpg/sg76_cif.got.tgz:266.got - 2010.06.03 18:43:17.
