data_PCOD9541907
_publ_section_title
;
Structure prediction by ZEFSAII (Michael W. Deem and Ramdas Pophale) SiO2 
 PCOD9541907
Probable space group: I 4
;
_chemical_formula_sum "Si O2"
_cell_formula_units_Z 48
_cell_length_a 7.965106
_cell_length_b 7.965106
_cell_length_c 34.718749
_cell_angle_alpha 90.000000
_cell_angle_beta 90.000000
_cell_angle_gamma 90.000000
_cell_volume 2202.658593
_symmetry_space_group_name_H-M "I 4"
_symmetry_group_IT_number 79
_symmetry_cell_setting 'tetragonal'
loop_
_space_group_symop_operation_xyz
x,y,z
-y,x,z
-x,-y,z
y,-x,z
1/2+x,1/2+y,1/2+z
1/2-y,1/2+x,1/2+z
1/2-x,1/2-y,1/2+z
1/2+y,1/2-x,1/2+z
loop_
_atom_site_type_symbol
_atom_site_label
_atom_site_fract_x
_atom_site_fract_y
_atom_site_fract_z
Si Si1 0.594978 0.236378 0.567090
Si Si2 0.907723 0.263835 0.825869
Si Si3 0.500000 0.000000 0.263708
Si Si4 0.932897 0.270241 0.199130
Si Si5 0.740740 0.117636 0.489264
Si Si6 0.738471 0.109258 0.403439
Si Si7 0.500000 0.000000 0.625853
O O1 0.706078 0.402429 0.575092
O O2 0.622936 0.182829 0.523084
O O3 0.631313 0.075249 0.593711
O O4 0.879524 0.397145 0.792120
O O5 0.875659 0.338979 0.867953
O O6 0.099917 0.206061 0.821912
O O7 0.396924 0.110964 0.233435
O O8 0.805561 0.118408 0.203095
O O9 0.950702 0.357816 0.157706
O O10 0.669596 0.143553 0.446242
O O11 0.920257 0.213131 0.492633
O O12 0.914142 0.210385 0.400684
#
# Coordination Sequence:
#
# PCOD9541907 Si02
#       7
#     8   8   4   8   8   8   4
#     4  11  23  38  59  88 121 159 203 249 298 356
#     4  11  23  37  56  86 123 160 201 251 303 355
#     4  11  22  40  63  88 120 156 191 236 296 359
#     4  10  22  41  66  92 116 147 190 238 291 358
#     4   9  19  37  60  87 120 159 205 257 308 355
#     4   9  19  37  60  85 117 161 211 257 302 355
#     4  11  22  38  61  86 118 150 183 234 292 345
#
# _framework density 21.791848999999999
#
# number of rings (size 3 to 8) (size 9 to 14) (size 15 to 20)
#    0.000    1.833    0.000    5.000    0.000    2.667 
#    0.000    7.500    0.000   18.500    0.000    0.000 
#    0.000    0.000    0.000    0.000    0.000    0.000 
#
# Total GULP energy -133783.922400 kJ/mol
# GULP energy per Si atom -5574.330100 kJ/mol
# Density = 2.174225 g / cm^3
# Si number density = 21.791849 Si / 1000 Ang^3
#
#
#
# Elastic Constant Matrix: (Units=GPa)
#
#
# Indices 1 2 3 4 5 6 
#
# 1 0.2445 48.8732 24.3373 0.0000 0.0000 55.7860
# 2 48.8732 0.2445 24.3373 0.0000 0.0000 -55.7860
# 3 24.3373 24.3373 146.4190 0.0000 0.0000 0.0000
# 4 0.0000 0.0000 0.0000 21.8462 0.0000 0.0000
# 5 0.0000 0.0000 0.0000 0.0000 21.8462 0.0000
# 6 55.7860 -55.7860 0.0000 0.0000 0.0000 -55.5712
#
#
#
# Elastic Compliance Matrix: (Units=1/GPa)
#
#
# Indices 1 2 3 4 5 6 
#
# 1 0.020077 0.004297 -0.004051 0.000000 0.000000 0.015840
# 2 0.004297 0.020077 -0.004051 0.000000 0.000000 -0.015840
# 3 -0.004051 -0.004051 0.008177 0.000000 0.000000 0.000000
# 4 0.000000 0.000000 0.000000 0.045775 0.000000 0.000000
# 5 0.000000 0.000000 0.000000 0.000000 0.045775 0.000000
# 6 0.015840 -0.015840 0.000000 0.000000 0.000000 0.013808
#
#
# Mechanical properties :
#
#
# Convention : Reuss Voigt Hill
#
# Bulk Modulus (GPa) = 24.55846 38.00039 31.27943
# Shear Modulus (GPa) = 28.59258 0.91493 14.75375
#
# Velocity S-wave (km/s) = 3.62619 0.64866 2.60480
# Velocity P-wave (km/s) = 5.36902 4.24697 4.84062
#
# Compressibility (1/GPa) = 0.04071917
#
# Stress axis : x y z
#
# Youngs Moduli (GPa) = 49.80910 49.80910 122.30126
#
# Poissons Ratio (x) = -0.21405 0.49549
# Poissons Ratio (y) = -0.21405 0.49549
# Poissons Ratio (z) = 0.20180 0.20180
#
# Static dielectric constant tensor:
#      x y z
#    x 1.887500 0.000000 0.000000 
#    y 0.000000 1.887500 0.000000 
#    z 0.000000 0.000000 1.765460 
# 
# From -- ./inp_files/2160.got.cif
#   From: 2010.05.17/outbox.cif.g08.bks.cpg/sg79_cif.got.tgz:2160.got - 2010.06.03 18:47:27.
