data_PCOD9541583
_publ_section_title
;
Structure prediction by ZEFSAII (Michael W. Deem and Ramdas Pophale) SiO2 
 PCOD9541583
Probable space group: P 43
;
_chemical_formula_sum "Si O2"
_cell_formula_units_Z 32
_cell_length_a 7.457059
_cell_length_b 7.457059
_cell_length_c 22.763594
_cell_angle_alpha 90.000000
_cell_angle_beta 90.000000
_cell_angle_gamma 90.000000
_cell_volume 1265.831765
_symmetry_space_group_name_H-M "P 43"
_symmetry_group_IT_number 78
_symmetry_cell_setting 'tetragonal'
loop_
_space_group_symop_operation_xyz
x,y,z
-y,x,3/4+z
-x,-y,1/2+z
y,-x,1/4+z
loop_
_atom_site_type_symbol
_atom_site_label
_atom_site_fract_x
_atom_site_fract_y
_atom_site_fract_z
Si Si1 0.272751 0.686348 0.482170
Si Si2 0.734640 0.296826 0.731383
Si Si3 0.367988 0.161270 0.604911
Si Si4 0.299194 0.714962 0.357351
Si Si5 0.682127 0.733894 0.980809
Si Si6 0.295112 0.225032 0.855453
Si Si7 0.741926 0.305019 0.479368
Si Si8 0.237057 0.315625 0.357140
O O1 0.485210 0.735658 0.480674
O O2 0.202668 0.751655 0.419237
O O3 0.257724 0.472480 0.481668
O O4 0.209501 0.744093 0.546415
O O5 0.800690 0.245906 0.796360
O O6 0.825483 0.230703 0.671229
O O7 0.523265 0.244551 0.730795
O O8 0.265019 0.190198 0.543810
O O9 0.557921 0.263316 0.605008
O O10 0.257354 0.198274 0.663902
O O11 0.409461 0.953896 0.607545
O O12 0.491505 0.811791 0.356453
O O13 0.355258 0.499081 0.357351
O O14 0.467202 0.743661 0.980960
O O15 0.739395 0.797813 0.916247
O O16 0.234898 0.169240 0.789692
#
# Coordination Sequence:
#
# PCOD9541583 Si02
#       8
#     4   4   4   4   4   4   4   4
#     4   8  13  23  40  60  83 112 140 164 204 259
#     4   7  10  18  36  60  76  99 142 165 182 240
#     4  10  17  24  39  65  90 107 137 185 218 240
#     4   8  13  23  41  61  83 114 142 164 203 260
#     4   9  16  28  44  60  84 119 144 163 208 266
#     4   8  13  23  41  61  83 114 142 164 203 260
#     4   8  13  23  40  60  83 112 140 164 204 259
#     4  10  17  24  39  65  90 107 137 185 218 240
#
# _framework density 25.279824000000001
#
# number of rings (size 3 to 8) (size 9 to 14) (size 15 to 20)
#    0.000    3.500    0.000    5.250    0.000    0.000 
#    0.000    0.000    0.000   30.000    0.000    7.000 
#    0.000    0.000    0.000    0.000    0.000    0.000 
#
# Total GULP energy -178250.823803 kJ/mol
# GULP energy per Si atom -5570.338244 kJ/mol
# Density = 2.522229 g / cm^3
# Si number density = 25.279824 Si / 1000 Ang^3
#
#
#
# Elastic Constant Matrix: (Units=GPa)
#
#
# Indices 1 2 3 4 5 6 
#
# 1 47.0533 0.3837 17.8326 0.0000 0.0000 -5.4604
# 2 0.3837 47.0533 17.8326 0.0000 0.0000 5.4604
# 3 17.8326 17.8326 357.0650 0.0000 0.0000 0.0000
# 4 0.0000 0.0000 0.0000 -53.5887 0.0000 0.0000
# 5 0.0000 0.0000 0.0000 0.0000 -53.5887 0.0000
# 6 -5.4604 5.4604 0.0000 0.0000 0.0000 -3.7839
#
#
#
# Elastic Compliance Matrix: (Units=1/GPa)
#
#
# Indices 1 2 3 4 5 6 
#
# 1 0.018961 0.002942 -0.001094 0.000000 0.000000 -0.023115
# 2 0.002942 0.018961 -0.001094 0.000000 0.000000 0.023115
# 3 -0.001094 -0.001094 0.002910 0.000000 0.000000 0.000000
# 4 0.000000 0.000000 0.000000 -0.018661 0.000000 0.000000
# 5 0.000000 0.000000 0.000000 0.000000 -0.018661 0.000000
# 6 -0.023115 0.023115 0.000000 0.000000 0.000000 -0.197563
#
#
# Mechanical properties :
#
#
# Convention : Reuss Voigt Hill
#
# Bulk Modulus (GPa) = 23.61812 58.14102 40.87957
# Shear Modulus (GPa) = -27.55590 5.48257 -11.03666
#
# Velocity S-wave (km/s) = -3.30515 1.47427 -2.09172
# Velocity P-wave (km/s) = 2.28088 5.09381 3.22059
#
# Compressibility (1/GPa) = 0.04234037
#
# Stress axis : x y z
#
# Youngs Moduli (GPa) = 52.74101 52.74101 343.65770
#
# Poissons Ratio (x) = -0.15519 0.37592
# Poissons Ratio (y) = -0.15519 0.37592
# Poissons Ratio (z) = 0.05769 0.05769
#
# Static dielectric constant tensor:
#      x y z
#    x 1.967340 0.000000 0.000000 
#    y 0.000000 1.967340 0.000000 
#    z 0.000000 0.000000 2.149780 
# 
# From -- ./inp_files/1601.got.cif
#   From: 2010.05.17/outbox.cif.g08.bks.cpg/sg78_cif.got.tgz:1601.got - 2010.06.03 18:45:56.
