data_PCOD9542605
_publ_section_title
;
Structure prediction by ZEFSAII (Michael W. Deem and Ramdas Pophale) SiO2 
 PCOD9542605
Probable space group: P -4
;
_chemical_formula_sum "Si O2"
_cell_formula_units_Z 18
_cell_length_a 9.000000
_cell_length_b 9.000000
_cell_length_c 12.000000
_cell_angle_alpha 90.000000
_cell_angle_beta 90.000000
_cell_angle_gamma 90.000000
_cell_volume 972.000000
_symmetry_space_group_name_H-M "P -4"
_symmetry_group_IT_number 81
_symmetry_cell_setting 'tetragonal'
loop_
_space_group_symop_operation_xyz
x,y,z
y,-x,-z
-x,-y,z
-y,x,-z
loop_
_atom_site_type_symbol
_atom_site_label
_atom_site_fract_x
_atom_site_fract_y
_atom_site_fract_z
Si Si1 0.819094 0.729097 0.253239
Si Si2 0.604456 0.706028 0.461652
Si Si3 0.046425 0.790674 0.447359
Si Si4 0.924004 0.220655 0.964615
Si Si5 0.500000 0.000000 0.890194
O O1 0.683927 0.703194 0.340408
O O2 0.778901 0.848889 0.157393
O O3 0.879587 0.584661 0.187217
O O4 0.956430 0.779494 0.332857
O O5 0.675773 0.570586 0.533161
O O6 0.645790 0.861530 0.519673
O O7 0.925161 0.835378 0.541755
O O8 0.925143 0.375730 0.030472
O O9 0.094519 0.163920 0.964757
#
# Coordination Sequence:
#
# PCOD9542605 Si02
#       5
#     4   4   4   4   2
#     4  10  20  39  60  79 111 147 175 231 279 306
#     4  10  21  37  53  81 117 147 180 216 266 337
#     4   9  19  34  56  83 107 138 184 221 265 327
#     4   9  20  38  59  83 109 138 186 233 269 319
#     4  10  20  36  60  84 104 142 190 224 270 326
#
# _framework density 18.518519000000001
#
# number of rings (size 3 to 8) (size 9 to 14) (size 15 to 20)
#    0.000    2.444    0.000    1.333    0.000   16.889 
#    0.000   31.111    0.000    6.000    0.000    0.000 
#    0.000    0.000    0.000    0.000    0.000    0.000 
#
# Total GULP energy -100382.384246 kJ/mol
# GULP energy per Si atom -5576.799125 kJ/mol
# Density = 1.847637 g / cm^3
# Si number density = 18.518519 Si / 1000 Ang^3
#
#
#
# Elastic Constant Matrix: (Units=GPa)
#
#
# Indices 1 2 3 4 5 6 
#
# 1 90.9656 35.8016 60.4261 0.0000 0.0000 -2.6426
# 2 35.8016 90.9656 60.4261 0.0000 0.0000 2.6426
# 3 60.4261 60.4261 153.4012 0.0000 0.0000 0.0000
# 4 0.0000 0.0000 0.0000 31.5534 0.0000 0.0000
# 5 0.0000 0.0000 0.0000 0.0000 31.5534 0.0000
# 6 -2.6426 2.6426 0.0000 0.0000 0.0000 29.2966
#
#
#
# Elastic Compliance Matrix: (Units=1/GPa)
#
#
# Indices 1 2 3 4 5 6 
#
# 1 0.015459 -0.002827 -0.004976 0.000000 0.000000 0.001649
# 2 -0.002827 0.015459 -0.004976 0.000000 0.000000 -0.001649
# 3 -0.004976 -0.004976 0.010439 0.000000 0.000000 0.000000
# 4 0.000000 0.000000 0.000000 0.031692 0.000000 0.000000
# 5 0.000000 0.000000 0.000000 0.000000 0.031692 0.000000
# 6 0.001649 -0.001649 0.000000 0.000000 0.000000 0.034431
#
#
# Mechanical properties :
#
#
# Convention : Reuss Voigt Hill
#
# Bulk Modulus (GPa) = 63.29242 72.07111 67.68177
# Shear Modulus (GPa) = 29.41233 30.39260 29.90247
#
# Velocity S-wave (km/s) = 3.98963 4.05557 4.02273
# Velocity P-wave (km/s) = 7.44815 7.80596 7.62916
#
# Compressibility (1/GPa) = 0.01579968
#
# Stress axis : x y z
#
# Youngs Moduli (GPa) = 64.68716 64.68716 95.79456
#
# Poissons Ratio (x) = 0.18286 0.47667
# Poissons Ratio (y) = 0.18286 0.47667
# Poissons Ratio (z) = 0.32188 0.32188
#
# Static dielectric constant tensor:
#      x y z
#    x 1.675090 0.000000 0.000000 
#    y 0.000000 1.675090 0.000000 
#    z 0.000000 0.000000 1.618030 
# 
# From -- ./inp_files/1108.got.cif
#   From: 2010.05.17/outbox.ucp.g08.bks.cvg/sg81_cif.got.tgz:1108.got - 2010.06.11 10:34:33.
