data_PCOD9542614
_publ_section_title
;
Structure prediction by ZEFSAII (Michael W. Deem and Ramdas Pophale) SiO2 
 PCOD9542614
Probable space group: I -4 
;
_chemical_formula_sum "Si O2"
_cell_formula_units_Z 38
_cell_length_a 14.131172
_cell_length_b 14.131172
_cell_length_c 8.966890
_cell_angle_alpha 90.000000
_cell_angle_beta 90.000000
_cell_angle_gamma 90.000000
_cell_volume 1790.598462
_symmetry_space_group_name_H-M "I -4 "
_symmetry_group_IT_number 82
_symmetry_cell_setting 'tetragonal'
loop_
_space_group_symop_operation_xyz
x,y,z
y,-x,-z
-x,-y,z
-y,x,-z
1/2+x,1/2+y,1/2+z
1/2+y,1/2-x,1/2-z
1/2-x,1/2-y,1/2+z
1/2-y,1/2+x,1/2-z
loop_
_atom_site_type_symbol
_atom_site_label
_atom_site_fract_x
_atom_site_fract_y
_atom_site_fract_z
Si Si1 0.067829 0.119272 0.738154
Si Si2 0.000000 0.000000 0.000000
Si Si3 0.769090 0.872888 0.310043
Si Si4 0.000000 0.500000 0.250000
Si Si5 0.013704 0.606335 0.533576
Si Si6 0.730542 0.173392 0.430039
Si Si7 0.500000 0.500000 0.000000
O O1 0.964564 0.164238 0.704982
O O2 0.079483 0.040544 0.609358
O O3 0.062435 0.066878 0.894127
O O4 0.142763 0.199697 0.705584
O O5 0.804995 0.794882 0.427275
O O6 0.755555 0.830843 0.144750
O O7 0.669086 0.911520 0.376584
O O8 0.037613 0.582103 0.360359
O O9 0.915270 0.662774 0.536615
O O10 0.000000 0.500000 0.593694
#
# Coordination Sequence:
#
# PCOD9542614 Si02
#       7
#     8   2   8   2   8   8   2
#     4  10  22  42  62  94 121 171 202 268 320 379
#     4  10  24  38  72  90 124 166 220 250 324 406
#     4  11  25  40  64  94 130 166 213 270 315 374
#     4   8  20  40  70  80 116 172 210 252 296 412
#     4   9  23  41  64  92 126 172 209 258 324 382
#     4  11  25  40  64  94 130 166 213 270 315 374
#     4  10  16  42  64  78 124 158 208 246 340 370
#
# _framework density 21.221952999999999
#
# number of rings (size 3 to 8) (size 9 to 14) (size 15 to 20)
#    0.632    1.263    2.105    0.000   11.789    0.000 
#    0.000    4.211    0.000    0.000    0.000    0.000 
#    0.000    0.000    0.000    0.000    0.000    0.000 
#
# Total GULP energy -105981.450696 kJ/mol
# GULP energy per Si atom -5577.971089 kJ/mol
# Density = 2.117365 g / cm^3
# Si number density = 21.221953 Si / 1000 Ang^3
#
#
#
# Elastic Constant Matrix: (Units=GPa)
#
#
# Indices 1 2 3 4 5 6 
#
# 1 53.2803 3.0598 -4.2288 0.0000 0.0000 0.6177
# 2 3.0598 53.2803 -4.2288 0.0000 0.0000 -0.6177
# 3 -4.2288 -4.2288 85.3833 0.0000 0.0000 0.0000
# 4 0.0000 0.0000 0.0000 27.7558 0.0000 0.0000
# 5 0.0000 0.0000 0.0000 0.0000 27.7558 0.0000
# 6 0.6177 -0.6177 0.0000 0.0000 0.0000 23.7727
#
#
#
# Elastic Compliance Matrix: (Units=1/GPa)
#
#
# Indices 1 2 3 4 5 6 
#
# 1 0.018904 -0.001021 0.000886 0.000000 0.000000 -0.000518
# 2 -0.001021 0.018904 0.000886 0.000000 0.000000 0.000518
# 3 0.000886 0.000886 0.011800 0.000000 0.000000 0.000000
# 4 0.000000 0.000000 0.000000 0.036028 0.000000 0.000000
# 5 0.000000 0.000000 0.000000 0.000000 0.036028 0.000000
# 6 -0.000518 0.000518 0.000000 0.000000 0.000000 0.042092
#
#
# Mechanical properties :
#
#
# Convention : Reuss Voigt Hill
#
# Bulk Modulus (GPa) = 19.56685 20.12760 19.84723
# Shear Modulus (GPa) = 27.88756 29.01297 28.45027
#
# Velocity S-wave (km/s) = 3.62897 3.70147 3.66540
# Velocity P-wave (km/s) = 5.17681 5.26999 5.22361
#
# Compressibility (1/GPa) = 0.05110684
#
# Stress axis : x y z
#
# Youngs Moduli (GPa) = 52.89991 52.89991 84.74852
#
# Poissons Ratio (x) = 0.05403 -0.07506
# Poissons Ratio (y) = 0.05403 -0.07506
# Poissons Ratio (z) = -0.04685 -0.04685
#
# Static dielectric constant tensor:
#      x y z
#    x 1.769570 0.000000 0.000000 
#    y 0.000000 1.769570 0.000000 
#    z 0.000000 0.000000 1.785000 
# 
# From -- ./inp_files/916.got.cif
#   From: 2010.05.17/outbox.cif.g08.bks.cpg/sg82_1_cif.got.tgz:916.got - 2010.06.03 18:52:26.
