data_PCOD9542407
_publ_section_title
;
Structure prediction by ZEFSAII (Michael W. Deem and Ramdas Pophale) SiO2 
 PCOD9542407
Probable space group: P -4
;
_chemical_formula_sum "Si O2"
_cell_formula_units_Z 25
_cell_length_a 11.802758
_cell_length_b 11.802758
_cell_length_c 9.696152
_cell_angle_alpha 90.000000
_cell_angle_beta 90.000000
_cell_angle_gamma 90.000000
_cell_volume 1350.723389
_symmetry_space_group_name_H-M "P -4"
_symmetry_group_IT_number 81
_symmetry_cell_setting 'tetragonal'
loop_
_space_group_symop_operation_xyz
x,y,z
y,-x,-z
-x,-y,z
-y,x,-z
loop_
_atom_site_type_symbol
_atom_site_label
_atom_site_fract_x
_atom_site_fract_y
_atom_site_fract_z
Si Si1 0.504477 0.266305 0.110966
Si Si2 0.505470 0.132131 0.389567
Si Si3 0.285164 0.156199 0.565027
Si Si4 0.290329 0.889250 0.601220
Si Si5 0.737310 0.632237 0.160385
Si Si6 0.348504 0.593501 0.280757
Si Si7 0.500000 0.500000 0.500000
O O1 0.531402 0.193528 0.247056
O O2 0.370476 0.291675 0.115141
O O3 0.578151 0.378003 0.145932
O O4 0.559505 0.219136 0.971116
O O5 0.385709 0.170120 0.452601
O O6 0.598527 0.140348 0.509894
O O7 0.500000 0.000000 0.356600
O O8 0.169901 0.192061 0.488921
O O9 0.323979 0.243578 0.685274
O O10 0.282469 0.025186 0.610140
O O11 0.301377 0.830837 0.750983
O O12 0.691312 0.534932 0.262489
O O13 0.436234 0.591471 0.406946
#
# Coordination Sequence:
#
# PCOD9542407 Si02
#       7
#     4   4   4   4   4   4   1
#     4  12  22  37  55  85 132 161 195 239 304 385
#     4  10  21  38  59  85 113 154 201 253 313 371
#     4  11  22  39  63  90 118 156 213 268 314 370
#     4  11  23  40  64  87 119 158 213 269 320 368
#     4  12  23  36  55  93 129 164 195 248 308 388
#     4  12  21  32  54  87 124 156 194 244 303 377
#     4  12  20  28  58  92 120 164 202 236 316 368
#
# _framework density 18.508600000000001
#
# number of rings (size 3 to 8) (size 9 to 14) (size 15 to 20)
#    0.000    0.640    8.000    1.920    0.000    0.320 
#    2.880    0.000    0.000    0.000    0.000    0.000 
#    0.000    0.000    0.000    0.000    0.000    0.000 
#
# Total GULP energy -139486.231725 kJ/mol
# GULP energy per Si atom -5579.449269 kJ/mol
# Density = 1.846647 g / cm^3
# Si number density = 18.508600 Si / 1000 Ang^3
#
#
#
# Elastic Constant Matrix: (Units=GPa)
#
#
# Indices 1 2 3 4 5 6 
#
# 1 75.8243 10.3870 28.3971 0.0000 0.0000 -4.1460
# 2 10.3870 75.8243 28.3971 0.0000 0.0000 4.1460
# 3 28.3971 28.3971 92.8194 0.0000 0.0000 0.0000
# 4 0.0000 0.0000 0.0000 15.1543 0.0000 0.0000
# 5 0.0000 0.0000 0.0000 0.0000 15.1543 0.0000
# 6 -4.1460 4.1460 0.0000 0.0000 0.0000 20.9366
#
#
#
# Elastic Compliance Matrix: (Units=1/GPa)
#
#
# Indices 1 2 3 4 5 6 
#
# 1 0.015101 -0.000574 -0.004444 0.000000 0.000000 0.003104
# 2 -0.000574 0.015101 -0.004444 0.000000 0.000000 -0.003104
# 3 -0.004444 -0.004444 0.013493 0.000000 0.000000 0.000000
# 4 0.000000 0.000000 0.000000 0.065988 0.000000 0.000000
# 5 0.000000 0.000000 0.000000 0.000000 0.065988 0.000000
# 6 0.003104 -0.003104 0.000000 0.000000 0.000000 0.048993
#
#
# Mechanical properties :
#
#
# Convention : Reuss Voigt Hill
#
# Bulk Modulus (GPa) = 40.37169 42.09227 41.23198
# Shear Modulus (GPa) = 19.85337 22.06815 20.96076
#
# Velocity S-wave (km/s) = 3.27870 3.45674 3.36890
# Velocity P-wave (km/s) = 6.01605 6.22282 6.12031
#
# Compressibility (1/GPa) = 0.02476983
#
# Stress axis : x y z
#
# Youngs Moduli (GPa) = 66.21976 66.21976 74.11195
#
# Poissons Ratio (x) = 0.03800 0.32939
# Poissons Ratio (y) = 0.03800 0.32939
# Poissons Ratio (z) = 0.29431 0.29431
#
# Static dielectric constant tensor:
#      x y z
#    x 1.664920 0.000000 0.000000 
#    y 0.000000 1.664920 0.000000 
#    z 0.000000 0.000000 1.666770 
# 
# From -- ./inp_files/865.got.cif
#   From: 2010.05.17/outbox.cif.g08.bks.cpg/sg81_cif.got.tgz:865.got - 2010.06.03 18:51:07.
