data_PCOD9542515
_publ_section_title
;
Structure prediction by ZEFSAII (Michael W. Deem and Ramdas Pophale) SiO2 
 PCOD9542515
Probable space group: P -4
;
_chemical_formula_sum "Si O2"
_cell_formula_units_Z 16
_cell_length_a 7.633865
_cell_length_b 7.633865
_cell_length_c 9.512033
_cell_angle_alpha 90.000000
_cell_angle_beta 90.000000
_cell_angle_gamma 90.000000
_cell_volume 554.322235
_symmetry_space_group_name_H-M "P -4"
_symmetry_group_IT_number 81
_symmetry_cell_setting 'tetragonal'
loop_
_space_group_symop_operation_xyz
x,y,z
y,-x,-z
-x,-y,z
-y,x,-z
loop_
_atom_site_type_symbol
_atom_site_label
_atom_site_fract_x
_atom_site_fract_y
_atom_site_fract_z
Si Si1 0.436927 0.197400 0.554213
Si Si2 0.086911 0.190479 0.693723
Si Si3 0.803940 0.219181 0.017274
Si Si4 0.282461 0.627328 0.735789
O O1 0.225357 0.176198 0.569086
O O2 0.551340 0.257126 0.689179
O O3 0.494764 0.291455 0.406214
O O4 0.500000 0.000000 0.539309
O O5 0.211629 0.256310 0.822136
O O6 0.915341 0.307137 0.707561
O O7 0.000000 0.000000 0.717110
O O8 0.723552 0.356705 0.906464
O O9 0.016531 0.236332 0.027437
#
# Coordination Sequence:
#
# PCOD9542515 Si02
#       4
#     4   4   4   4
#     4  12  24  42  67 108 148 201 253 312 391 460
#     4  11  20  38  70 106 146 193 254 324 382 461
#     4   9  15  35  63  98 136 187 241 311 380 438
#     4  11  24  41  67 103 149 197 250 314 384 456
#
# _framework density 28.864075
#
# number of rings (size 3 to 8) (size 9 to 14) (size 15 to 20)
#    0.000    1.250    7.500    1.500    0.000    0.500 
#    0.000    8.750    0.000    0.000    0.000    0.000 
#    0.000    0.000    0.000    0.000    0.000    0.000 
#
# Total GULP energy -89145.455073 kJ/mol
# GULP energy per Si atom -5571.590942 kJ/mol
# Density = 2.879838 g / cm^3
# Si number density = 28.864075 Si / 1000 Ang^3
#
#
#
# Elastic Constant Matrix: (Units=GPa)
#
#
# Indices 1 2 3 4 5 6 
#
# 1 119.2819 12.2419 21.6202 0.0000 0.0000 -14.8195
# 2 12.2419 119.2819 21.6202 0.0000 0.0000 14.8195
# 3 21.6202 21.6202 152.7032 0.0000 0.0000 0.0000
# 4 0.0000 0.0000 0.0000 30.6649 0.0000 0.0000
# 5 0.0000 0.0000 0.0000 0.0000 30.6649 0.0000
# 6 -14.8195 14.8195 0.0000 0.0000 0.0000 7.2841
#
#
#
# Elastic Compliance Matrix: (Units=1/GPa)
#
#
# Indices 1 2 3 4 5 6 
#
# 1 0.014685 -0.006710 -0.001129 0.000000 0.000000 0.043528
# 2 -0.006710 0.014685 -0.001129 0.000000 0.000000 -0.043528
# 3 -0.001129 -0.001129 0.006868 0.000000 0.000000 0.000000
# 4 0.000000 0.000000 0.000000 0.032611 0.000000 0.000000
# 5 0.000000 0.000000 0.000000 0.000000 0.032611 0.000000
# 6 0.043528 -0.043528 0.000000 0.000000 0.000000 0.314402
#
#
# Mechanical properties :
#
#
# Convention : Reuss Voigt Hill
#
# Bulk Modulus (GPa) = 54.64197 55.80352 55.22274
# Shear Modulus (GPa) = 11.36626 36.10844 23.73735
#
# Velocity S-wave (km/s) = 1.98656 3.54076 2.87083
# Velocity P-wave (km/s) = 4.92278 6.00759 5.49204
#
# Compressibility (1/GPa) = 0.01830095
#
# Stress axis : x y z
#
# Youngs Moduli (GPa) = 68.09787 68.09787 145.59521
#
# Poissons Ratio (x) = 0.45696 0.16438
# Poissons Ratio (y) = 0.45696 0.16438
# Poissons Ratio (z) = 0.07689 0.07689
#
# Static dielectric constant tensor:
#      x y z
#    x 2.316900 0.000000 0.000000 
#    y 0.000000 2.316900 0.000000 
#    z 0.000000 0.000000 2.377510 
# 
# From -- ./inp_files/608.got.cif
#   From: 2010.05.17/outbox.cif.g08.bks.cpg/sg81_cif.got.tgz:608.got - 2010.06.03 18:51:07.
