data_PCOD9542225
_publ_section_title
;
Structure prediction by ZEFSAII (Michael W. Deem and Ramdas Pophale) SiO2 
 PCOD9542225
Probable space group: I 41
;
_chemical_formula_sum "Si O2"
_cell_formula_units_Z 56
_cell_length_a 15.334491
_cell_length_b 15.334491
_cell_length_c 9.236244
_cell_angle_alpha 90.000000
_cell_angle_beta 90.000000
_cell_angle_gamma 90.000000
_cell_volume 2171.871505
_symmetry_space_group_name_H-M "I 41"
_symmetry_group_IT_number 80
_symmetry_cell_setting 'tetragonal'
loop_
_space_group_symop_operation_xyz
x,y,z
-y,1/2+x,1/4+z
-x,-y,z
y,1/2-x,1/4+z
1/2+x,1/2+y,1/2+z
1/2-y,x,3/4+z
1/2-x,1/2-y,1/2+z
1/2+y,-x,3/4+z
loop_
_atom_site_type_symbol
_atom_site_label
_atom_site_fract_x
_atom_site_fract_y
_atom_site_fract_z
Si Si1 0.983929 0.100523 0.682630
Si Si2 0.585098 0.954392 0.117828
Si Si3 0.327241 0.301592 0.536991
Si Si4 0.786919 0.168050 0.177447
Si Si5 0.014085 0.284738 0.301172
Si Si6 0.200041 0.911434 0.764323
Si Si7 0.726795 0.552966 0.038819
O O1 0.893177 0.133133 0.747475
O O2 0.984723 0.093050 0.510892
O O3 0.051971 0.177945 0.714745
O O4 0.000000 0.000000 0.734819
O O5 0.680988 0.965097 0.048277
O O6 0.575051 0.855290 0.184651
O O7 0.500000 0.000000 0.042500
O O8 0.306552 0.256523 0.685710
O O9 0.345151 0.402251 0.575264
O O10 0.389570 0.246120 0.432786
O O11 0.803309 0.199415 0.340832
O O12 0.797751 0.065007 0.162196
O O13 0.854419 0.219315 0.070847
O O14 0.978997 0.309801 0.144821
O O15 0.208728 0.960530 0.613376
#
# Coordination Sequence:
#
# PCOD9542225 Si02
#       7
#     8   8   8   8   8   8   8
#     4  11  23  44  75 107 147 190 259 317 377 460
#     4  11  25  47  72 112 151 198 255 318 390 463
#     4  12  25  45  73 102 145 192 252 304 373 457
#     4  10  24  44  73 106 147 196 252 309 390 461
#     4  11  25  47  64 106 152 184 243 313 384 456
#     4  11  22  46  69 106 143 194 244 309 375 462
#     4  12  22  43  78 105 142 195 250 313 380 456
#
# _framework density 25.784213999999999
#
# number of rings (size 3 to 8) (size 9 to 14) (size 15 to 20)
#    0.000    0.857    4.286    4.286    2.000    2.286 
#    7.714    0.714    0.000    0.000    0.000    0.000 
#    0.000    0.000    0.000    0.000    0.000    0.000 
#
# Total GULP energy -156472.610151 kJ/mol
# GULP energy per Si atom -5588.307505 kJ/mol
# Density = 2.572553 g / cm^3
# Si number density = 25.784214 Si / 1000 Ang^3
#
#
#
# Elastic Constant Matrix: (Units=GPa)
#
#
# Indices 1 2 3 4 5 6 
#
# 1 134.8253 27.7192 11.9910 0.0000 0.0000 -5.5290
# 2 27.7192 134.8253 11.9910 0.0000 0.0000 5.5290
# 3 11.9910 11.9910 48.7636 0.0000 0.0000 0.0000
# 4 0.0000 0.0000 0.0000 29.0399 0.0000 0.0000
# 5 0.0000 0.0000 0.0000 0.0000 29.0399 0.0000
# 6 -5.5290 5.5290 0.0000 0.0000 0.0000 35.7160
#
#
#
# Elastic Compliance Matrix: (Units=1/GPa)
#
#
# Indices 1 2 3 4 5 6 
#
# 1 0.007936 -0.001552 -0.001570 0.000000 0.000000 0.001469
# 2 -0.001552 0.007936 -0.001570 0.000000 0.000000 -0.001469
# 3 -0.001570 -0.001570 0.021279 0.000000 0.000000 0.000000
# 4 0.000000 0.000000 0.000000 0.034435 0.000000 0.000000
# 5 0.000000 0.000000 0.000000 0.000000 0.034435 0.000000
# 6 0.001469 -0.001469 0.000000 0.000000 0.000000 0.028453
#
#
# Mechanical properties :
#
#
# Convention : Reuss Voigt Hill
#
# Bulk Modulus (GPa) = 36.01323 46.86851 41.44087
# Shear Modulus (GPa) = 32.65526 36.54002 34.59764
#
# Velocity S-wave (km/s) = 3.56263 3.76859 3.66705
# Velocity P-wave (km/s) = 5.56063 6.09532 5.83410
#
# Compressibility (1/GPa) = 0.02776757
#
# Stress axis : x y z
#
# Youngs Moduli (GPa) = 126.00847 126.00847 46.99440
#
# Poissons Ratio (x) = 0.19559 0.07377
# Poissons Ratio (y) = 0.19559 0.07377
# Poissons Ratio (z) = 0.19780 0.19780
#
# Static dielectric constant tensor:
#      x y z
#    x 2.176720 0.000000 0.000000 
#    y 0.000000 2.176720 0.000000 
#    z 0.000000 0.000000 1.976210 
# 
# From -- ./inp_files/1046.got.cif
#   From: 2010.05.17/outbox.cif.g08.bks.cpg/sg80_cif.got.tgz:1046.got - 2010.06.03 18:49:13.
