data_PCOD9542930
_publ_section_title
;
Structure prediction by ZEFSAII (Michael W. Deem and Ramdas Pophale) SiO2 
 PCOD9542930
Probable space group: I -4 
;
_chemical_formula_sum "Si O2"
_cell_formula_units_Z 48
_cell_length_a 19.078518
_cell_length_b 19.078518
_cell_length_c 5.312291
_cell_angle_alpha 90.000000
_cell_angle_beta 90.000000
_cell_angle_gamma 90.000000
_cell_volume 1933.619999
_symmetry_space_group_name_H-M "I -4 "
_symmetry_group_IT_number 82
_symmetry_cell_setting 'tetragonal'
loop_
_space_group_symop_operation_xyz
x,y,z
y,-x,-z
-x,-y,z
-y,x,-z
1/2+x,1/2+y,1/2+z
1/2+y,1/2-x,1/2-z
1/2-x,1/2-y,1/2+z
1/2-y,1/2+x,1/2-z
loop_
_atom_site_type_symbol
_atom_site_label
_atom_site_fract_x
_atom_site_fract_y
_atom_site_fract_z
Si Si1 0.644235 0.665995 0.130126
Si Si2 0.467868 0.239363 0.883030
Si Si3 0.209023 0.158932 0.139124
Si Si4 0.053433 0.895809 0.032224
Si Si5 0.369592 0.871151 0.434376
Si Si6 0.684414 0.007793 0.118728
O O1 0.573710 0.697806 0.013584
O O2 0.669076 0.695619 0.402669
O O3 0.631459 0.584607 0.201224
O O4 0.700981 0.686128 0.921291
O O5 0.410525 0.176628 0.859608
O O6 0.518508 0.211658 0.104514
O O7 0.493471 0.243363 0.598917
O O8 0.289257 0.147865 0.072079
O O9 0.160438 0.088544 0.152677
O O10 0.373712 0.047284 0.031281
O O11 0.971347 0.909607 0.016024
O O12 0.345342 0.916301 0.192564
#
# Coordination Sequence:
#
# PCOD9542930 Si02
#       6
#     8   8   8   8   8   8
#     4  10  23  42  65  99 128 178 221 282 332 405
#     4  10  24  41  69  95 134 171 226 275 345 396
#     4  10  24  39  69  92 132 172 227 275 339 399
#     4   9  22  42  64  98 136 179 223 274 335 405
#     4  10  26  44  67 101 133 179 230 278 351 406
#     4  10  25  42  69  96 137 175 224 283 337 414
#
# _framework density 24.823909
#
# number of rings (size 3 to 8) (size 9 to 14) (size 15 to 20)
#    2.000    0.167    0.000    1.000    7.000    3.000 
#    0.000    1.667    0.000    0.000    0.000    0.000 
#    0.000    0.000    0.000    0.000    0.000    0.000 
#
# Total GULP energy -133705.777119 kJ/mol
# GULP energy per Si atom -5571.074047 kJ/mol
# Density = 2.476741 g / cm^3
# Si number density = 24.823909 Si / 1000 Ang^3
#
#
#
# Elastic Constant Matrix: (Units=GPa)
#
#
# Indices 1 2 3 4 5 6 
#
# 1 88.5710 2.2520 13.9523 0.0000 0.0000 -4.4836
# 2 2.2520 88.5710 13.9523 0.0000 0.0000 4.4836
# 3 13.9523 13.9523 161.3226 0.0000 0.0000 0.0000
# 4 0.0000 0.0000 0.0000 21.4088 0.0000 0.0000
# 5 0.0000 0.0000 0.0000 0.0000 21.4088 0.0000
# 6 -4.4836 4.4836 0.0000 0.0000 0.0000 38.6203
#
#
#
# Elastic Compliance Matrix: (Units=1/GPa)
#
#
# Indices 1 2 3 4 5 6 
#
# 1 0.011519 -0.000208 -0.000978 0.000000 0.000000 0.001361
# 2 -0.000208 0.011519 -0.000978 0.000000 0.000000 -0.001361
# 3 -0.000978 -0.000978 0.006368 0.000000 0.000000 0.000000
# 4 0.000000 0.000000 0.000000 0.046710 0.000000 0.000000
# 5 0.000000 0.000000 0.000000 0.000000 0.046710 0.000000
# 6 0.001361 -0.001361 0.000000 0.000000 0.000000 0.026209
#
#
# Mechanical properties :
#
#
# Convention : Reuss Voigt Hill
#
# Bulk Modulus (GPa) = 39.87730 44.30866 42.09298
# Shear Modulus (GPa) = 30.91737 36.84144 33.87940
#
# Velocity S-wave (km/s) = 3.53295 3.85660 3.69831
# Velocity P-wave (km/s) = 5.72199 6.14158 5.93550
#
# Compressibility (1/GPa) = 0.02507692
#
# Stress axis : x y z
#
# Youngs Moduli (GPa) = 86.81554 86.81554 157.03590
#
# Poissons Ratio (x) = 0.01803 0.15362
# Poissons Ratio (y) = 0.01803 0.15362
# Poissons Ratio (z) = 0.08493 0.08493
#
# Static dielectric constant tensor:
#      x y z
#    x 2.010710 0.000000 0.000000 
#    y 0.000000 2.010710 0.000000 
#    z 0.000000 0.000000 2.029740 
# 
# From -- ./inp_files/362.got.cif
#   From: 2010.05.17/outbox.cif.g08.bks.cpg/sg82_1_cif.got.tgz:362.got - 2010.06.03 18:52:26.
