data_PCOD9542939
_publ_section_title
;
Structure prediction by ZEFSAII (Michael W. Deem and Ramdas Pophale) SiO2 
 PCOD9542939
Probable space group: I -4 
;
_chemical_formula_sum "Si O2"
_cell_formula_units_Z 52
_cell_length_a 15.985134
_cell_length_b 15.985134
_cell_length_c 8.759810
_cell_angle_alpha 90.000000
_cell_angle_beta 90.000000
_cell_angle_gamma 90.000000
_cell_volume 2238.346149
_symmetry_space_group_name_H-M "I -4 "
_symmetry_group_IT_number 82
_symmetry_cell_setting 'tetragonal'
loop_
_space_group_symop_operation_xyz
x,y,z
y,-x,-z
-x,-y,z
-y,x,-z
1/2+x,1/2+y,1/2+z
1/2+y,1/2-x,1/2-z
1/2-x,1/2-y,1/2+z
1/2-y,1/2+x,1/2-z
loop_
_atom_site_type_symbol
_atom_site_label
_atom_site_fract_x
_atom_site_fract_y
_atom_site_fract_z
Si Si1 0.362541 0.624327 0.030091
Si Si2 0.734566 0.928696 0.245117
Si Si3 0.000000 0.500000 0.250000
Si Si4 0.500000 0.500000 0.000000
Si Si5 0.869188 0.519963 0.024341
Si Si6 0.277038 0.420058 0.240937
Si Si7 0.162418 0.329616 0.473576
Si Si8 0.502955 0.642363 0.494046
O O1 0.393745 0.697777 0.138002
O O2 0.419002 0.544440 0.074818
O O3 0.381897 0.646394 0.853633
O O4 0.263332 0.626564 0.037994
O O5 0.655780 0.959003 0.348905
O O6 0.705668 0.855384 0.131762
O O7 0.788896 0.994513 0.141894
O O8 0.056294 0.445409 0.131378
O O9 0.788261 0.546623 0.119005
O O10 0.884620 0.420965 0.034353
O O11 0.229235 0.351717 0.343744
O O12 0.304785 0.494361 0.351841
O O13 0.582055 0.580059 0.500953
#
# Coordination Sequence:
#
# PCOD9542939 Si02
#       8
#     8   8   2   2   8   8   8   8
#     4  11  24  42  69 103 142 190 234 292 346 445
#     4  10  25  45  67 106 142 187 242 295 360 429
#     4  12  24  48  74  96 128 184 234 316 376 432
#     4  12  28  40  72 106 148 180 244 290 372 420
#     4  11  24  45  72  99 135 177 241 296 367 433
#     4  10  23  44  67 101 142 187 233 293 357 429
#     4  11  23  45  68 102 142 186 239 292 359 420
#     4  10  24  41  67 102 150 195 236 287 356 430
#
# _framework density 23.231435999999999
#
# number of rings (size 3 to 8) (size 9 to 14) (size 15 to 20)
#    0.000    1.385    1.538    2.769    8.615    1.231 
#    0.000    0.000    0.000    0.000    0.000    0.000 
#    0.000    0.000    0.000    0.000    0.000    0.000 
#
# Total GULP energy -145054.862762 kJ/mol
# GULP energy per Si atom -5579.033183 kJ/mol
# Density = 2.317856 g / cm^3
# Si number density = 23.231436 Si / 1000 Ang^3
#
#
#
# Elastic Constant Matrix: (Units=GPa)
#
#
# Indices 1 2 3 4 5 6 
#
# 1 91.6425 27.6913 36.6536 0.0000 0.0000 -9.8488
# 2 27.6913 91.6425 36.6536 0.0000 0.0000 9.8488
# 3 36.6536 36.6536 139.2834 0.0000 0.0000 0.0000
# 4 0.0000 0.0000 0.0000 22.5759 0.0000 0.0000
# 5 0.0000 0.0000 0.0000 0.0000 22.5759 0.0000
# 6 -9.8488 9.8488 0.0000 0.0000 0.0000 27.1234
#
#
#
# Elastic Compliance Matrix: (Units=1/GPa)
#
#
# Indices 1 2 3 4 5 6 
#
# 1 0.013801 -0.003805 -0.002630 0.000000 0.000000 0.006393
# 2 -0.003805 0.013801 -0.002630 0.000000 0.000000 -0.006393
# 3 -0.002630 -0.002630 0.008564 0.000000 0.000000 0.000000
# 4 0.000000 0.000000 0.000000 0.044295 0.000000 0.000000
# 5 0.000000 0.000000 0.000000 0.000000 0.044295 0.000000
# 6 0.006393 -0.006393 0.000000 0.000000 0.000000 0.041511
#
#
# Mechanical properties :
#
#
# Convention : Reuss Voigt Hill
#
# Bulk Modulus (GPa) = 55.45168 58.28502 56.86835
# Shear Modulus (GPa) = 26.25905 29.22635 27.74270
#
# Velocity S-wave (km/s) = 3.36568 3.55075 3.45945
# Velocity P-wave (km/s) = 6.24698 6.47717 6.36312
#
# Compressibility (1/GPa) = 0.01803372
#
# Stress axis : x y z
#
# Youngs Moduli (GPa) = 72.45912 72.45912 116.76696
#
# Poissons Ratio (x) = 0.27572 0.30715
# Poissons Ratio (y) = 0.27572 0.30715
# Poissons Ratio (z) = 0.19060 0.19060
#
# Static dielectric constant tensor:
#      x y z
#    x 1.950590 0.000000 0.000000 
#    y 0.000000 1.950590 0.000000 
#    z 0.000000 0.000000 1.909890 
# 
# From -- ./inp_files/1178.got.cif
#   From: 2010.05.17/outbox.cif.g08.bks.cpg/sg82_1_cif.got.tgz:1178.got - 2010.06.03 18:52:26.
