data_PCOD9542983
_publ_section_title
;
Structure prediction by ZEFSAII (Michael W. Deem and Ramdas Pophale) SiO2 
 PCOD9542983
Probable space group: I -4 
;
_chemical_formula_sum "Si O2"
_cell_formula_units_Z 52
_cell_length_a 17.136300
_cell_length_b 17.136300
_cell_length_c 7.116260
_cell_angle_alpha 90.000000
_cell_angle_beta 90.000000
_cell_angle_gamma 90.000000
_cell_volume 2089.709516
_symmetry_space_group_name_H-M "I -4 "
_symmetry_group_IT_number 82
_symmetry_cell_setting 'tetragonal'
loop_
_space_group_symop_operation_xyz
x,y,z
y,-x,-z
-x,-y,z
-y,x,-z
1/2+x,1/2+y,1/2+z
1/2+y,1/2-x,1/2-z
1/2-x,1/2-y,1/2+z
1/2-y,1/2+x,1/2-z
loop_
_atom_site_type_symbol
_atom_site_label
_atom_site_fract_x
_atom_site_fract_y
_atom_site_fract_z
Si Si1 0.066255 0.315386 0.883446
Si Si2 0.093646 0.606044 0.988953
Si Si3 0.165725 0.854839 0.152880
Si Si4 0.302557 0.153720 0.691260
Si Si5 0.115524 0.106811 0.239242
Si Si6 0.468859 0.686186 0.897735
Si Si7 0.500000 0.000000 0.750000
Si Si8 0.500000 0.500000 0.500000
O O1 0.081451 0.370441 0.706732
O O2 0.073962 0.224765 0.831019
O O3 0.137711 0.324801 0.029276
O O4 0.982996 0.340460 0.961893
O O5 0.154756 0.652315 0.113907
O O6 0.065609 0.533227 0.113235
O O7 0.302387 0.720950 0.766772
O O8 0.149025 0.839336 0.932132
O O9 0.083181 0.866940 0.255109
O O10 0.271580 0.065245 0.648838
O O11 0.165078 0.063084 0.397039
O O12 0.061200 0.045301 0.131316
O O13 0.057549 0.167454 0.346946
#
# Coordination Sequence:
#
# PCOD9542983 Si02
#       8
#     8   8   8   8   8   8   2   2
#     4  12  27  46  80 108 147 199 243 309 384 452
#     4  12  26  48  77 109 150 188 254 308 379 450
#     4  10  27  45  70 107 149 188 243 309 369 447
#     4  10  26  47  69 108 141 192 236 303 366 448
#     4  12  22  43  66 100 145 189 249 298 367 437
#     4  10  25  41  67 101 140 194 242 294 364 439
#     4  12  24  54  72 116 146 192 252 334 376 456
#     4  12  20  38  68  92 134 192 228 310 344 428
#
# _framework density 24.883842000000001
#
# number of rings (size 3 to 8) (size 9 to 14) (size 15 to 20)
#    0.923    0.000    3.077    2.769    4.308    2.462 
#    0.000    0.000    0.000    0.000    0.000    0.000 
#    0.000    0.000    0.000    0.000    0.000    0.000 
#
# Total GULP energy -145512.131695 kJ/mol
# GULP energy per Si atom -5596.620450 kJ/mol
# Density = 2.482720 g / cm^3
# Si number density = 24.883842 Si / 1000 Ang^3
#
#
#
# Elastic Constant Matrix: (Units=GPa)
#
#
# Indices 1 2 3 4 5 6 
#
# 1 61.5398 18.9607 46.6801 0.0000 0.0000 0.0894
# 2 18.9607 61.5398 46.6801 0.0000 0.0000 -0.0894
# 3 46.6801 46.6801 154.9332 0.0000 0.0000 0.0000
# 4 0.0000 0.0000 0.0000 31.1057 0.0000 0.0000
# 5 0.0000 0.0000 0.0000 0.0000 31.1057 0.0000
# 6 0.0894 -0.0894 0.0000 0.0000 0.0000 35.9505
#
#
#
# Elastic Compliance Matrix: (Units=1/GPa)
#
#
# Indices 1 2 3 4 5 6 
#
# 1 0.021290 -0.002196 -0.005753 0.000000 0.000000 -0.000058
# 2 -0.002196 0.021290 -0.005753 0.000000 0.000000 0.000058
# 3 -0.005753 -0.005753 0.009921 0.000000 0.000000 0.000000
# 4 0.000000 0.000000 0.000000 0.032148 0.000000 0.000000
# 5 0.000000 0.000000 0.000000 0.000000 0.032148 0.000000
# 6 -0.000058 0.000058 0.000000 0.000000 0.000000 0.027816
#
#
# Mechanical properties :
#
#
# Convention : Reuss Voigt Hill
#
# Bulk Modulus (GPa) = 39.84425 55.85050 47.84737
# Shear Modulus (GPa) = 27.71871 30.67854 29.19863
#
# Velocity S-wave (km/s) = 3.34117 3.51503 3.42920
# Velocity P-wave (km/s) = 5.56160 6.24237 5.91179
#
# Compressibility (1/GPa) = 0.02509773
#
# Stress axis : x y z
#
# Youngs Moduli (GPa) = 46.97027 46.97027 100.79623
#
# Poissons Ratio (x) = 0.10314 0.57987
# Poissons Ratio (y) = 0.10314 0.57987
# Poissons Ratio (z) = 0.27022 0.27022
#
# Static dielectric constant tensor:
#      x y z
#    x 2.014850 0.000000 0.000000 
#    y 0.000000 2.014850 0.000000 
#    z 0.000000 0.000000 1.951790 
# 
# From -- ./inp_files/414.got.cif
#   From: 2010.05.17/outbox.cif.g08.bks.cpg/sg82_1_cif.got.tgz:414.got - 2010.06.03 18:52:26.
