data_PCOD9542629
_publ_section_title
;
Structure prediction by ZEFSAII (Michael W. Deem and Ramdas Pophale) SiO2 
 PCOD9542629
Probable space group: I -4 
;
_chemical_formula_sum "Si O2"
_cell_formula_units_Z 48
_cell_length_a 22.471388
_cell_length_b 22.471388
_cell_length_c 5.497259
_cell_angle_alpha 90.000000
_cell_angle_beta 90.000000
_cell_angle_gamma 90.000000
_cell_volume 2775.913928
_symmetry_space_group_name_H-M "I -4 "
_symmetry_group_IT_number 82
_symmetry_cell_setting 'tetragonal'
loop_
_space_group_symop_operation_xyz
x,y,z
y,-x,-z
-x,-y,z
-y,x,-z
1/2+x,1/2+y,1/2+z
1/2+y,1/2-x,1/2-z
1/2-x,1/2-y,1/2+z
1/2-y,1/2+x,1/2-z
loop_
_atom_site_type_symbol
_atom_site_label
_atom_site_fract_x
_atom_site_fract_y
_atom_site_fract_z
Si Si1 0.224256 0.222578 0.315930
Si Si2 0.085560 0.500807 0.639282
Si Si3 0.269549 0.908873 0.690836
Si Si4 0.093468 0.633902 0.179449
Si Si5 0.707776 0.067517 0.190536
Si Si6 0.685284 0.872133 0.324173
O O1 0.248985 0.254841 0.558807
O O2 0.154663 0.237147 0.306497
O O3 0.249693 0.156111 0.342367
O O4 0.057361 0.457980 0.845211
O O5 0.091423 0.461120 0.397107
O O6 0.149454 0.527174 0.697315
O O7 0.342291 0.899468 0.688464
O O8 0.256231 0.939846 0.436783
O O9 0.257859 0.942489 0.940737
O O10 0.090972 0.669045 0.433130
O O11 0.097942 0.675093 0.937562
O O12 0.682231 0.136053 0.179444
#
# Coordination Sequence:
#
# PCOD9542629 Si02
#       6
#     8   8   8   8   8   8
#     4  12  16  26  50  70  84 104 120 156 252 314
#     4  11  22  36  48  60  78 124 172 202 236 267
#     4  10  18  32  46  65  85 100 128 183 238 290
#     4  10  19  33  44  58  85 104 141 192 225 266
#     4  10  19  33  44  58  85 104 141 192 225 266
#     4  10  18  32  46  65  85 100 128 183 238 290
#
# _framework density 17.291602000000001
#
# number of rings (size 3 to 8) (size 9 to 14) (size 15 to 20)
#    0.000    1.500   10.000    0.000    0.000    1.333 
#    0.000    0.000    0.000    0.000    0.000    0.000 
#    0.000    0.000    0.000    0.000    0.000    0.000 
#
# Total GULP energy -133748.876530 kJ/mol
# GULP energy per Si atom -5572.869855 kJ/mol
# Density = 1.725225 g / cm^3
# Si number density = 17.291602 Si / 1000 Ang^3
#
#
#
# Elastic Constant Matrix: (Units=GPa)
#
#
# Indices 1 2 3 4 5 6 
#
# 1 32.7767 29.1956 26.1242 0.0000 0.0000 -1.8578
# 2 29.1956 32.7767 26.1242 0.0000 0.0000 1.8578
# 3 26.1242 26.1242 177.4567 0.0000 0.0000 0.0000
# 4 0.0000 0.0000 0.0000 15.0829 0.0000 0.0000
# 5 0.0000 0.0000 0.0000 0.0000 15.0829 0.0000
# 6 -1.8578 1.8578 0.0000 0.0000 0.0000 31.2141
#
#
#
# Elastic Compliance Matrix: (Units=1/GPa)
#
#
# Indices 1 2 3 4 5 6 
#
# 1 0.158024 -0.139601 -0.002712 0.000000 0.000000 0.017714
# 2 -0.139601 0.158024 -0.002712 0.000000 0.000000 -0.017714
# 3 -0.002712 -0.002712 0.006434 0.000000 0.000000 0.000000
# 4 0.000000 0.000000 0.000000 0.066300 0.000000 0.000000
# 5 0.000000 0.000000 0.000000 0.000000 0.066300 0.000000
# 6 0.017714 -0.017714 0.000000 0.000000 0.000000 0.034145
#
#
# Mechanical properties :
#
#
# Convention : Reuss Voigt Hill
#
# Bulk Modulus (GPa) = 30.83482 45.09977 37.96730
# Shear Modulus (GPa) = 6.32842 23.04707 14.68774
#
# Velocity S-wave (km/s) = 1.91514 3.65478 2.91763
# Velocity P-wave (km/s) = 4.77088 6.62936 5.77537
#
# Compressibility (1/GPa) = 0.03243087
#
# Stress axis : x y z
#
# Youngs Moduli (GPa) = 6.32817 6.32817 155.43159
#
# Poissons Ratio (x) = 0.88342 0.42155
# Poissons Ratio (y) = 0.88342 0.42155
# Poissons Ratio (z) = 0.01716 0.01716
#
# Static dielectric constant tensor:
#      x y z
#    x 1.620110 0.000000 0.000000 
#    y 0.000000 1.620110 0.000000 
#    z 0.000000 0.000000 1.709520 
# 
# From -- ./inp_files/440.got.cif
#   From: 2010.05.17/outbox.cif.g08.bks.cpg/sg82_1_cif.got.tgz:440.got - 2010.06.03 18:52:26.
