data_PCOD9542757
_publ_section_title
;
Structure prediction by ZEFSAII (Michael W. Deem and Ramdas Pophale) SiO2 
 PCOD9542757
Probable space group: I -4 
;
_chemical_formula_sum "Si O2"
_cell_formula_units_Z 48
_cell_length_a 8.781040
_cell_length_b 8.781040
_cell_length_c 26.889446
_cell_angle_alpha 90.000000
_cell_angle_beta 90.000000
_cell_angle_gamma 90.000000
_cell_volume 2073.355464
_symmetry_space_group_name_H-M "I -4 "
_symmetry_group_IT_number 82
_symmetry_cell_setting 'tetragonal'
loop_
_space_group_symop_operation_xyz
x,y,z
y,-x,-z
-x,-y,z
-y,x,-z
1/2+x,1/2+y,1/2+z
1/2+y,1/2-x,1/2-z
1/2-x,1/2-y,1/2+z
1/2-y,1/2+x,1/2-z
loop_
_atom_site_type_symbol
_atom_site_label
_atom_site_fract_x
_atom_site_fract_y
_atom_site_fract_z
Si Si1 0.677440 0.526397 0.183433
Si Si2 0.000000 0.000000 0.000000
Si Si3 0.788101 0.891619 0.075671
Si Si4 0.500000 0.500000 0.337800
Si Si5 0.753378 0.063262 0.494705
Si Si6 0.716735 0.294004 0.724134
Si Si7 0.359835 0.061754 0.590586
Si Si8 0.000000 0.500000 0.750000
O O1 0.500000 0.500000 0.189696
O O2 0.723944 0.666960 0.218395
O O3 0.752875 0.369328 0.200634
O O4 0.715083 0.559664 0.126220
O O5 0.007129 0.145654 0.964810
O O6 0.879433 0.732751 0.072678
O O7 0.853370 0.953549 0.127944
O O8 0.623882 0.837931 0.053746
O O9 0.370988 0.427632 0.302988
O O10 0.894905 0.173871 0.508004
O O11 0.654527 0.051109 0.544355
O O12 0.867642 0.402116 0.721784
O O13 0.500000 0.000000 0.622313
#
# Coordination Sequence:
#
# PCOD9542757 Si02
#       8
#     8   2   8   4   8   8   8   2
#     4  12  28  45  73 102 142 192 237 297 364 432
#     4  10  20  40  60  92 128 184 220 292 338 404
#     4  10  22  38  70  92 140 178 233 287 355 422
#     4  11  24  45  72 108 142 188 243 304 367 444
#     4   9  20  41  66  97 137 183 225 295 352 419
#     4  12  26  49  72 105 148 188 244 304 370 441
#     4  11  24  40  66 101 136 180 239 287 350 429
#     4  12  24  48  76  96 140 196 244 304 368 444
#
# _framework density 23.150880999999998
#
# number of rings (size 3 to 8) (size 9 to 14) (size 15 to 20)
#    0.000    1.167    2.500    2.000   11.667    1.333 
#    0.000    0.000    7.333    0.000    0.000    0.000 
#    0.000    0.000    0.000    0.000    0.000    0.000 
#
# Total GULP energy -133896.482548 kJ/mol
# GULP energy per Si atom -5579.020106 kJ/mol
# Density = 2.309819 g / cm^3
# Si number density = 23.150881 Si / 1000 Ang^3
#
#
#
# Elastic Constant Matrix: (Units=GPa)
#
#
# Indices 1 2 3 4 5 6 
#
# 1 74.0145 18.2124 23.3062 0.0000 0.0000 0.6076
# 2 18.2124 74.0145 23.3062 0.0000 0.0000 -0.6076
# 3 23.3062 23.3062 81.2825 0.0000 0.0000 0.0000
# 4 0.0000 0.0000 0.0000 11.6948 0.0000 0.0000
# 5 0.0000 0.0000 0.0000 0.0000 11.6948 0.0000
# 6 0.6076 -0.6076 0.0000 0.0000 0.0000 39.4727
#
#
#
# Elastic Compliance Matrix: (Units=1/GPa)
#
#
# Indices 1 2 3 4 5 6 
#
# 1 0.015303 -0.002623 -0.003636 0.000000 0.000000 -0.000276
# 2 -0.002623 0.015303 -0.003636 0.000000 0.000000 0.000276
# 3 -0.003636 -0.003636 0.014388 0.000000 0.000000 0.000000
# 4 0.000000 0.000000 0.000000 0.085508 0.000000 0.000000
# 5 0.000000 0.000000 0.000000 0.000000 0.085508 0.000000
# 6 -0.000276 0.000276 0.000000 0.000000 0.000000 0.025342
#
#
# Mechanical properties :
#
#
# Convention : Reuss Voigt Hill
#
# Bulk Modulus (GPa) = 39.67442 39.88460 39.77951
# Shear Modulus (GPa) = 18.54980 23.53824 21.04402
#
# Velocity S-wave (km/s) = 2.83372 3.19208 3.01822
# Velocity P-wave (km/s) = 5.28026 5.55440 5.41906
#
# Compressibility (1/GPa) = 0.02520516
#
# Stress axis : x y z
#
# Youngs Moduli (GPa) = 65.34473 65.34473 69.50331
#
# Poissons Ratio (x) = 0.17140 0.25271
# Poissons Ratio (y) = 0.17140 0.25271
# Poissons Ratio (z) = 0.23759 0.23759
#
# Static dielectric constant tensor:
#      x y z
#    x 1.888520 0.000000 0.000000 
#    y 0.000000 1.888520 0.000000 
#    z 0.000000 0.000000 1.877790 
# 
# From -- ./inp_files/4109.got.cif
#   From: 2010.05.17/outbox.cif.g08.bks.cpg/sg82_3_cif.got.tgz:4109.got - 2010.06.03 18:52:26.
