data_PCOD9542755
_publ_section_title
;
Structure prediction by ZEFSAII (Michael W. Deem and Ramdas Pophale) SiO2 
 PCOD9542755
Probable space group: I -4 
;
_chemical_formula_sum "Si O2"
_cell_formula_units_Z 48
_cell_length_a 10.481354
_cell_length_b 10.481354
_cell_length_c 23.105669
_cell_angle_alpha 90.000000
_cell_angle_beta 90.000000
_cell_angle_gamma 90.000000
_cell_volume 2538.360646
_symmetry_space_group_name_H-M "I -4 "
_symmetry_group_IT_number 82
_symmetry_cell_setting 'tetragonal'
loop_
_space_group_symop_operation_xyz
x,y,z
y,-x,-z
-x,-y,z
-y,x,-z
1/2+x,1/2+y,1/2+z
1/2+y,1/2-x,1/2-z
1/2-x,1/2-y,1/2+z
1/2-y,1/2+x,1/2-z
loop_
_atom_site_type_symbol
_atom_site_label
_atom_site_fract_x
_atom_site_fract_y
_atom_site_fract_z
Si Si1 0.761745 0.808569 0.631131
Si Si2 0.702107 0.553651 0.012276
Si Si3 0.561835 0.298193 0.512404
Si Si4 0.561759 0.877243 0.072851
Si Si5 0.498235 0.654308 0.636286
Si Si6 0.939120 0.294576 0.251472
O O1 0.753359 0.899345 0.574775
O O2 0.885060 0.723126 0.618436
O O3 0.640366 0.714304 0.634634
O O4 0.767179 0.888813 0.689557
O O5 0.643412 0.411276 0.011043
O O6 0.815986 0.546995 0.967223
O O7 0.416943 0.347720 0.504048
O O8 0.590397 0.178863 0.471154
O O9 0.573814 0.282167 0.581494
O O10 0.500000 0.000000 0.101066
O O11 0.500000 0.500000 0.629657
O O12 0.439702 0.699770 0.697016
O O13 0.850495 0.418381 0.239897
#
# Coordination Sequence:
#
# PCOD9542755 Si02
#       6
#     8   8   8   8   8   8
#     4  10  20  40  59  84 121 153 200 250 289 359
#     4   9  20  38  57  85 124 158 199 245 297 356
#     4  11  20  36  58  89 118 152 189 246 307 358
#     4  11  22  33  58  91 125 156 193 241 306 370
#     4  11  20  37  61  87 121 150 195 250 306 358
#     4   9  21  39  62  89 114 154 206 253 295 347
#
# _framework density 18.909842000000001
#
# number of rings (size 3 to 8) (size 9 to 14) (size 15 to 20)
#    0.000    1.833    3.333    1.000    4.667    0.000 
#    6.000    0.000    7.333    0.000    0.000    0.000 
#    0.000    0.000    0.000    0.000    0.000    0.000 
#
# Total GULP energy -133955.506603 kJ/mol
# GULP energy per Si atom -5581.479442 kJ/mol
# Density = 1.886680 g / cm^3
# Si number density = 18.909842 Si / 1000 Ang^3
#
#
#
# Elastic Constant Matrix: (Units=GPa)
#
#
# Indices 1 2 3 4 5 6 
#
# 1 56.4515 17.6568 39.4545 0.0000 0.0000 -3.7990
# 2 17.6568 56.4515 39.4545 0.0000 0.0000 3.7990
# 3 39.4545 39.4545 140.8431 0.0000 0.0000 0.0000
# 4 0.0000 0.0000 0.0000 26.1640 0.0000 0.0000
# 5 0.0000 0.0000 0.0000 0.0000 26.1640 0.0000
# 6 -3.7990 3.7990 0.0000 0.0000 0.0000 14.9814
#
#
#
# Elastic Compliance Matrix: (Units=1/GPa)
#
#
# Indices 1 2 3 4 5 6 
#
# 1 0.023177 -0.003947 -0.005387 0.000000 0.000000 0.006878
# 2 -0.003947 0.023177 -0.005387 0.000000 0.000000 -0.006878
# 3 -0.005387 -0.005387 0.010118 0.000000 0.000000 0.000000
# 4 0.000000 0.000000 0.000000 0.038221 0.000000 0.000000
# 5 0.000000 0.000000 0.000000 0.000000 0.038221 0.000000
# 6 0.006878 -0.006878 0.000000 0.000000 0.000000 0.070238
#
#
# Mechanical properties :
#
#
# Convention : Reuss Voigt Hill
#
# Bulk Modulus (GPa) = 36.99593 49.65309 43.32451
# Shear Modulus (GPa) = 20.69521 23.94053 22.31787
#
# Velocity S-wave (km/s) = 3.31178 3.56200 3.43917
# Velocity P-wave (km/s) = 5.85070 6.57510 6.22345
#
# Compressibility (1/GPa) = 0.02703000
#
# Stress axis : x y z
#
# Youngs Moduli (GPa) = 43.14685 43.14685 98.83265
#
# Poissons Ratio (x) = 0.17031 0.53239
# Poissons Ratio (y) = 0.17031 0.53239
# Poissons Ratio (z) = 0.23242 0.23242
#
# Static dielectric constant tensor:
#      x y z
#    x 1.684020 0.000000 0.000000 
#    y 0.000000 1.684020 0.000000 
#    z 0.000000 0.000000 1.641490 
# 
# From -- ./inp_files/3060.got.cif
#   From: 2010.05.17/outbox.cif.g08.bks.cpg/sg82_2_cif.got.tgz:3060.got - 2010.06.03 18:52:26.
