data_PCOD9542206
_publ_section_title
;
Structure prediction by ZEFSAII (Michael W. Deem and Ramdas Pophale) SiO2 
 PCOD9542206
Probable space group: I 41
;
_chemical_formula_sum "Si O2"
_cell_formula_units_Z 40
_cell_length_a 10.645977
_cell_length_b 10.645977
_cell_length_c 14.978847
_cell_angle_alpha 90.000000
_cell_angle_beta 90.000000
_cell_angle_gamma 90.000000
_cell_volume 1697.654980
_symmetry_space_group_name_H-M "I 41"
_symmetry_group_IT_number 80
_symmetry_cell_setting 'tetragonal'
loop_
_space_group_symop_operation_xyz
x,y,z
-y,1/2+x,1/4+z
-x,-y,z
y,1/2-x,1/4+z
1/2+x,1/2+y,1/2+z
1/2-y,x,3/4+z
1/2-x,1/2-y,1/2+z
1/2+y,-x,3/4+z
loop_
_atom_site_type_symbol
_atom_site_label
_atom_site_fract_x
_atom_site_fract_y
_atom_site_fract_z
Si Si1 0.339856 0.355843 0.250000
Si Si2 0.500000 0.000000 0.043490
Si Si3 0.232172 0.910036 0.631195
Si Si4 0.000000 0.500000 0.187808
Si Si5 0.799839 0.079453 0.442056
Si Si6 0.096831 0.249019 0.201903
O O1 0.317830 0.477119 0.190466
O O2 0.471403 0.300564 0.217508
O O3 0.242013 0.244030 0.229406
O O4 0.297027 0.397837 0.349292
O O5 0.461600 0.888219 0.111922
O O6 0.621916 0.968162 0.982975
O O7 0.380981 0.945199 0.631607
O O8 0.147408 0.904262 0.541811
O O9 0.208046 0.774901 0.673555
O O10 0.958947 0.621917 0.245273
#
# Coordination Sequence:
#
# PCOD9542206 Si02
#       6
#     8   4   8   4   8   8
#     4  11  22  48  80 101 147 205 277 329 391 502
#     4  12  32  47  71 120 178 212 256 358 449 497
#     4  11  26  45  81 110 144 201 275 335 398 493
#     4  10  22  49  75 110 146 202 272 342 395 497
#     4  12  27  48  75 115 156 208 271 338 420 504
#     4  11  25  47  73 112 153 213 267 335 421 496
#
# _framework density 23.561913000000001
#
# number of rings (size 3 to 8) (size 9 to 14) (size 15 to 20)
#    0.000    0.800    4.000    3.000    5.600    4.800 
#    0.000    0.000    0.000    0.000    0.000    0.000 
#    0.000    0.000    0.000    0.000    0.000    0.000 
#
# Total GULP energy -111402.958438 kJ/mol
# GULP energy per Si atom -5570.147922 kJ/mol
# Density = 2.350829 g / cm^3
# Si number density = 23.561913 Si / 1000 Ang^3
#
#
#
# Elastic Constant Matrix: (Units=GPa)
#
#
# Indices 1 2 3 4 5 6 
#
# 1 295.0458 -122.0229 34.3976 0.0000 0.0000 -72.5914
# 2 -122.0229 295.0458 34.3976 0.0000 0.0000 72.5914
# 3 34.3976 34.3976 110.1422 0.0000 0.0000 0.0000
# 4 0.0000 0.0000 0.0000 23.6766 0.0000 0.0000
# 5 0.0000 0.0000 0.0000 0.0000 23.6766 0.0000
# 6 -72.5914 72.5914 0.0000 0.0000 0.0000 79.7524
#
#
#
# Elastic Compliance Matrix: (Units=1/GPa)
#
#
# Indices 1 2 3 4 5 6 
#
# 1 0.005054 0.001545 -0.002061 0.000000 0.000000 0.003195
# 2 0.001545 0.005054 -0.002061 0.000000 0.000000 -0.003195
# 3 -0.002061 -0.002061 0.010366 0.000000 0.000000 0.000000
# 4 0.000000 0.000000 0.000000 0.042236 0.000000 0.000000
# 5 0.000000 0.000000 0.000000 0.000000 0.042236 0.000000
# 6 0.003195 -0.003195 0.000000 0.000000 0.000000 0.018354
#
#
# Mechanical properties :
#
#
# Convention : Reuss Voigt Hill
#
# Bulk Modulus (GPa) = 65.27035 65.97537 65.62286
# Shear Modulus (GPa) = 37.43577 75.65191 56.54384
#
# Velocity S-wave (km/s) = 3.99033 5.67251 4.90409
# Velocity P-wave (km/s) = 6.99944 8.42406 7.74458
#
# Compressibility (1/GPa) = 0.01532089
#
# Stress axis : x y z
#
# Youngs Moduli (GPa) = 197.84868 197.84868 96.46553
#
# Poissons Ratio (x) = -0.30560 0.19880
# Poissons Ratio (y) = -0.30560 0.19880
# Poissons Ratio (z) = 0.40774 0.40774
#
# Static dielectric constant tensor:
#      x y z
#    x 1.965160 0.000000 0.000000 
#    y 0.000000 1.965160 0.000000 
#    z 0.000000 0.000000 2.108100 
# 
# From -- ./inp_files/1268.got.cif
#   From: 2010.05.17/outbox.cif.g08.bks.cpg/sg80_cif.got.tgz:1268.got - 2010.06.03 18:49:13.
