data_PCOD9542087
_publ_section_title
;
Structure prediction by ZEFSAII (Michael W. Deem and Ramdas Pophale) SiO2 
 PCOD9542087
Probable space group: I 41
;
_chemical_formula_sum "Si O2"
_cell_formula_units_Z 48
_cell_length_a 15.592776
_cell_length_b 15.592776
_cell_length_c 7.676794
_cell_angle_alpha 90.000000
_cell_angle_beta 90.000000
_cell_angle_gamma 90.000000
_cell_volume 1866.494725
_symmetry_space_group_name_H-M "I 41"
_symmetry_group_IT_number 80
_symmetry_cell_setting 'tetragonal'
loop_
_space_group_symop_operation_xyz
x,y,z
-y,1/2+x,1/4+z
-x,-y,z
y,1/2-x,1/4+z
1/2+x,1/2+y,1/2+z
1/2-y,x,3/4+z
1/2-x,1/2-y,1/2+z
1/2+y,-x,3/4+z
loop_
_atom_site_type_symbol
_atom_site_label
_atom_site_fract_x
_atom_site_fract_y
_atom_site_fract_z
Si Si1 0.080222 0.822369 0.864970
Si Si2 0.322172 0.509341 0.310145
Si Si3 0.684943 0.176546 0.143397
Si Si4 0.822369 0.919778 0.458593
Si Si5 0.509341 0.677828 0.013417
Si Si6 0.823454 0.684943 0.180166
O O1 0.137832 0.746629 0.771594
O O2 0.012190 0.847770 0.713811
O O3 0.133445 0.908157 0.889513
O O4 0.032964 0.778123 0.027103
O O5 0.347771 0.487810 0.109751
O O6 0.341547 0.421218 0.407968
O O7 0.783124 0.177280 0.205723
O O8 0.658453 0.078782 0.165595
O O9 0.746629 0.862169 0.551969
O O10 0.908157 0.866555 0.434050
O O11 0.778123 0.967036 0.296459
O O12 0.783124 0.677280 0.367840
#
# Coordination Sequence:
#
# PCOD9542087 Si02
#       6
#     8   8   8   8   8   8
#     4  10  19  35  56  86 119 151 203 263 299 355
#     4  10  19  34  56  89 116 154 201 256 313 347
#     4  10  20  39  60  86 125 158 204 256 310 368
#     4  10  19  35  56  86 119 151 203 263 299 355
#     4  10  19  34  56  89 116 154 201 256 313 347
#     4  10  20  39  60  86 125 158 204 256 310 368
#
# _framework density 25.716656
#
# number of rings (size 3 to 8) (size 9 to 14) (size 15 to 20)
#    0.000    2.000    6.667    0.000    0.000    0.667 
#    0.000    1.667    0.000    0.000    0.000    0.000 
#    0.000    0.000    0.000    0.000    0.000    0.000 
#
# Total GULP energy -134183.682846 kJ/mol
# GULP energy per Si atom -5590.986785 kJ/mol
# Density = 2.565812 g / cm^3
# Si number density = 25.716656 Si / 1000 Ang^3
#
#
#
# Elastic Constant Matrix: (Units=GPa)
#
#
# Indices 1 2 3 4 5 6 
#
# 1 180.8226 59.6353 24.2768 0.0000 0.0000 -5.4136
# 2 59.6353 180.8226 24.2768 0.0000 0.0000 5.4136
# 3 24.2768 24.2768 27.0557 0.0000 0.0000 0.0000
# 4 0.0000 0.0000 0.0000 30.8149 0.0000 0.0000
# 5 0.0000 0.0000 0.0000 0.0000 30.8149 0.0000
# 6 -5.4136 5.4136 0.0000 0.0000 0.0000 28.5628
#
#
#
# Elastic Compliance Matrix: (Units=1/GPa)
#
#
# Indices 1 2 3 4 5 6 
#
# 1 0.006736 -0.001657 -0.004557 0.000000 0.000000 0.001591
# 2 -0.001657 0.006736 -0.004557 0.000000 0.000000 -0.001591
# 3 -0.004557 -0.004557 0.045139 0.000000 0.000000 0.000000
# 4 0.000000 0.000000 0.000000 0.032452 0.000000 0.000000
# 5 0.000000 0.000000 0.000000 0.000000 0.032452 0.000000
# 6 0.001591 -0.001591 0.000000 0.000000 0.000000 0.035614
#
#
# Mechanical properties :
#
#
# Convention : Reuss Voigt Hill
#
# Bulk Modulus (GPa) = 26.97752 67.23097 47.10425
# Shear Modulus (GPa) = 25.90283 36.73933 31.32108
#
# Velocity S-wave (km/s) = 3.17715 3.78381 3.49367
# Velocity P-wave (km/s) = 4.89613 6.72974 5.88479
#
# Compressibility (1/GPa) = 0.03706789
#
# Stress axis : x y z
#
# Youngs Moduli (GPa) = 148.44762 148.44762 22.15373
#
# Poissons Ratio (x) = 0.24604 0.10096
# Poissons Ratio (y) = 0.24604 0.10096
# Poissons Ratio (z) = 0.67652 0.67652
#
# Static dielectric constant tensor:
#      x y z
#    x 2.080960 0.000000 0.000000 
#    y 0.000000 2.080960 0.000000 
#    z 0.000000 0.000000 2.116040 
# 
# From -- ./inp_files/1013.got.cif
#   From: 2010.05.17/outbox.cif.g08.bks.cpg/sg80_cif.got.tgz:1013.got - 2010.06.03 18:49:13.
