data_PCOD9542714
_publ_section_title
;
Structure prediction by ZEFSAII (Michael W. Deem and Ramdas Pophale) SiO2 
 PCOD9542714
Probable space group: I -4 
;
_chemical_formula_sum "Si O2"
_cell_formula_units_Z 46
_cell_length_a 9.246836
_cell_length_b 9.246836
_cell_length_c 30.268334
_cell_angle_alpha 90.000000
_cell_angle_beta 90.000000
_cell_angle_gamma 90.000000
_cell_volume 2588.062904
_symmetry_space_group_name_H-M "I -4 "
_symmetry_group_IT_number 82
_symmetry_cell_setting 'tetragonal'
loop_
_space_group_symop_operation_xyz
x,y,z
y,-x,-z
-x,-y,z
-y,x,-z
1/2+x,1/2+y,1/2+z
1/2+y,1/2-x,1/2-z
1/2-x,1/2-y,1/2+z
1/2-y,1/2+x,1/2-z
loop_
_atom_site_type_symbol
_atom_site_label
_atom_site_fract_x
_atom_site_fract_y
_atom_site_fract_z
Si Si1 0.500000 0.500000 0.704895
Si Si2 0.659736 0.358200 0.485812
Si Si3 0.926116 0.284957 0.259886
Si Si4 0.860577 0.396933 0.915897
Si Si5 0.078365 0.810010 0.519656
Si Si6 0.500000 0.000000 0.250000
Si Si7 0.782763 0.659229 0.681935
O O1 0.444450 0.634046 0.734564
O O2 0.636685 0.563881 0.678824
O O3 0.530001 0.336723 0.521251
O O4 0.629649 0.250338 0.445067
O O5 0.811084 0.313089 0.506539
O O6 0.846846 0.412474 0.231687
O O7 0.819122 0.259629 0.300865
O O8 0.730632 0.489831 0.937166
O O9 0.837673 0.359321 0.865107
O O10 0.000000 0.500000 0.920633
O O11 0.958691 0.832913 0.481247
O O12 0.585908 0.112784 0.281329
#
# Coordination Sequence:
#
# PCOD9542714 Si02
#       7
#     4   8   8   8   8   2   8
#     4  10  20  36  62  86 115 166 207 256 310 382
#     4  10  20  35  61  87 116 157 200 241 311 381
#     4   9  19  37  61  83 117 165 209 252 320 381
#     4  11  21  37  58  91 120 157 204 268 301 375
#     4   9  19  37  62  79 114 156 199 242 313 372
#     4  12  20  36  60  88 120 172 216 256 320 376
#     4  11  22  37  61  88 126 160 215 263 313 377
#
# _framework density 17.773910000000001
#
# number of rings (size 3 to 8) (size 9 to 14) (size 15 to 20)
#    0.000    1.913    4.348    0.000    0.000    1.391 
#    0.000    3.478    0.000   25.043    0.000    0.000 
#    0.000    0.000    0.000    0.000    0.000    0.000 
#
# Total GULP energy -128088.660333 kJ/mol
# GULP energy per Si atom -5569.072188 kJ/mol
# Density = 1.773346 g / cm^3
# Si number density = 17.773910 Si / 1000 Ang^3
#
#
#
# Elastic Constant Matrix: (Units=GPa)
#
#
# Indices 1 2 3 4 5 6 
#
# 1 103.4280 35.9495 52.1440 0.0000 0.0000 -1.6377
# 2 35.9495 103.4280 52.1440 0.0000 0.0000 1.6377
# 3 52.1440 52.1440 109.9470 0.0000 0.0000 0.0000
# 4 0.0000 0.0000 0.0000 20.3747 0.0000 0.0000
# 5 0.0000 0.0000 0.0000 0.0000 20.3747 0.0000
# 6 -1.6377 1.6377 0.0000 0.0000 0.0000 33.9627
#
#
#
# Elastic Compliance Matrix: (Units=1/GPa)
#
#
# Indices 1 2 3 4 5 6 
#
# 1 0.012988 -0.001866 -0.005274 0.000000 0.000000 0.000716
# 2 -0.001866 0.012988 -0.005274 0.000000 0.000000 -0.000716
# 3 -0.005274 -0.005274 0.014098 0.000000 0.000000 0.000000
# 4 0.000000 0.000000 0.000000 0.049081 0.000000 0.000000
# 5 0.000000 0.000000 0.000000 0.000000 0.049080 0.000000
# 6 0.000716 -0.000716 0.000000 0.000000 0.000000 0.029513
#
#
# Mechanical properties :
#
#
# Convention : Reuss Voigt Hill
#
# Bulk Modulus (GPa) = 65.60346 66.36423 65.98384
# Shear Modulus (GPa) = 25.29598 26.71345 26.00471
#
# Velocity S-wave (km/s) = 3.77664 3.88101 3.82918
# Velocity P-wave (km/s) = 7.48381 7.58301 7.53357
#
# Compressibility (1/GPa) = 0.01524310
#
# Stress axis : x y z
#
# Youngs Moduli (GPa) = 76.99528 76.99527 70.93069
#
# Poissons Ratio (x) = 0.14371 0.37412
# Poissons Ratio (y) = 0.14371 0.37412
# Poissons Ratio (z) = 0.40611 0.40611
#
# Static dielectric constant tensor:
#      x y z
#    x 1.645360 0.000000 0.000000 
#    y 0.000000 1.645360 0.000000 
#    z 0.000000 0.000000 1.556720 
# 
# From -- ./inp_files/3978.got.cif
#   From: 2010.05.17/outbox.cif.g08.bks.cpg/sg82_2_cif.got.tgz:3978.got - 2010.06.03 18:52:26.
