data_PCOD9542249
_publ_section_title
;
Structure prediction by ZEFSAII (Michael W. Deem and Ramdas Pophale) SiO2 
 PCOD9542249
Probable space group: I 41
;
_chemical_formula_sum "Si O2"
_cell_formula_units_Z 48
_cell_length_a 11.632948
_cell_length_b 11.632948
_cell_length_c 17.289506
_cell_angle_alpha 90.000000
_cell_angle_beta 90.000000
_cell_angle_gamma 90.000000
_cell_volume 2339.710684
_symmetry_space_group_name_H-M "I 41"
_symmetry_group_IT_number 80
_symmetry_cell_setting 'tetragonal'
loop_
_space_group_symop_operation_xyz
x,y,z
-y,1/2+x,1/4+z
-x,-y,z
y,1/2-x,1/4+z
1/2+x,1/2+y,1/2+z
1/2-y,x,3/4+z
1/2-x,1/2-y,1/2+z
1/2+y,-x,3/4+z
loop_
_atom_site_type_symbol
_atom_site_label
_atom_site_fract_x
_atom_site_fract_y
_atom_site_fract_z
Si Si1 0.083265 0.149045 0.792930
Si Si2 0.507875 0.635443 0.116412
Si Si3 0.229543 0.946777 0.817924
Si Si4 0.293813 0.187949 0.061103
Si Si5 0.590170 0.601906 0.660173
Si Si6 0.242647 0.877147 0.639838
O O1 0.205349 0.213237 0.785860
O O2 0.037383 0.128142 0.707259
O O3 0.992573 0.221009 0.843052
O O4 0.120155 0.029073 0.830503
O O5 0.500000 0.500000 0.087918
O O6 0.593749 0.735535 0.086374
O O7 0.376401 0.672261 0.108571
O O8 0.231567 0.908699 0.729344
O O9 0.214899 0.840089 0.873870
O O10 0.338702 0.018711 0.841706
O O11 0.221626 0.110533 0.123512
O O12 0.326015 0.108921 0.988573
O O13 0.500000 0.500000 0.680787
#
# Coordination Sequence:
#
# PCOD9542249 Si02
#       6
#     8   8   8   8   8   8
#     4  11  20  42  66 106 141 180 239 297 360 419
#     4  12  21  40  69 105 142 183 239 301 361 420
#     4  11  26  39  70 100 142 184 233 301 356 428
#     4  11  24  47  72 102 140 187 241 289 362 430
#     4  11  28  49  72  98 143 194 236 290 359 444
#     4  12  23  40  68 108 141 175 235 308 363 414
#
# _framework density 20.515357999999999
#
# number of rings (size 3 to 8) (size 9 to 14) (size 15 to 20)
#    0.000    0.667    6.667    0.500    9.333    1.333 
#    0.000    0.833    0.000    0.000    0.000    0.000 
#    0.000    0.000    0.000    0.000    0.000    0.000 
#
# Total GULP energy -133608.521134 kJ/mol
# GULP energy per Si atom -5567.021714 kJ/mol
# Density = 2.046866 g / cm^3
# Si number density = 20.515358 Si / 1000 Ang^3
#
#
#
# Elastic Constant Matrix: (Units=GPa)
#
#
# Indices 1 2 3 4 5 6 
#
# 1 70.3170 14.8380 15.4461 0.0000 0.0000 -0.2926
# 2 14.8380 70.3170 15.4461 0.0000 0.0000 0.2926
# 3 15.4461 15.4461 54.4683 0.0000 0.0000 0.0000
# 4 0.0000 0.0000 0.0000 14.7807 0.0000 0.0000
# 5 0.0000 0.0000 0.0000 0.0000 14.7807 0.0000
# 6 -0.2926 0.2926 0.0000 0.0000 0.0000 45.1201
#
#
#
# Elastic Compliance Matrix: (Units=1/GPa)
#
#
# Indices 1 2 3 4 5 6 
#
# 1 0.015558 -0.002468 -0.003712 0.000000 0.000000 0.000117
# 2 -0.002468 0.015558 -0.003712 0.000000 0.000000 -0.000117
# 3 -0.003712 -0.003712 0.020465 0.000000 0.000000 0.000000
# 4 0.000000 0.000000 0.000000 0.067656 0.000000 0.000000
# 5 0.000000 0.000000 0.000000 0.000000 0.067656 0.000000
# 6 0.000117 -0.000117 0.000000 0.000000 0.000000 0.022165
#
#
# Mechanical properties :
#
#
# Convention : Reuss Voigt Hill
#
# Bulk Modulus (GPa) = 31.45018 31.84031 31.64524
# Shear Modulus (GPa) = 20.88208 24.89445 22.88826
#
# Velocity S-wave (km/s) = 3.19388 3.48725 3.34378
# Velocity P-wave (km/s) = 5.38187 5.63635 5.51058
#
# Compressibility (1/GPa) = 0.03179632
#
# Stress axis : x y z
#
# Youngs Moduli (GPa) = 64.27559 64.27559 48.86477
#
# Poissons Ratio (x) = 0.15864 0.18139
# Poissons Ratio (y) = 0.15864 0.18139
# Poissons Ratio (z) = 0.23859 0.23859
#
# Static dielectric constant tensor:
#      x y z
#    x 1.814390 0.000000 0.000000 
#    y 0.000000 1.814390 0.000000 
#    z 0.000000 0.000000 1.688060 
# 
# From -- ./inp_files/1523.got.cif
#   From: 2010.05.17/outbox.cif.g08.bks.cpg/sg80_cif.got.tgz:1523.got - 2010.06.03 18:49:13.
