data_PCOD9542492
_publ_section_title
;
Structure prediction by ZEFSAII (Michael W. Deem and Ramdas Pophale) SiO2 
 PCOD9542492
Probable space group: P -4
;
_chemical_formula_sum "Si O2"
_cell_formula_units_Z 18
_cell_length_a 8.264241
_cell_length_b 8.264241
_cell_length_c 11.303335
_cell_angle_alpha 90.000000
_cell_angle_beta 90.000000
_cell_angle_gamma 90.000000
_cell_volume 771.991549
_symmetry_space_group_name_H-M "P -4"
_symmetry_group_IT_number 81
_symmetry_cell_setting 'tetragonal'
loop_
_space_group_symop_operation_xyz
x,y,z
y,-x,-z
-x,-y,z
-y,x,-z
loop_
_atom_site_type_symbol
_atom_site_label
_atom_site_fract_x
_atom_site_fract_y
_atom_site_fract_z
Si Si1 0.066651 0.684352 0.618729
Si Si2 0.685674 0.502703 0.731403
Si Si3 0.169708 0.744949 0.355206
Si Si4 0.570146 0.242660 0.019098
Si Si5 0.000000 0.500000 0.174181
O O1 0.239931 0.663939 0.683138
O O2 0.085309 0.724422 0.481027
O O3 0.000000 0.500000 0.627130
O O4 0.936110 0.808673 0.670869
O O5 0.500000 0.500000 0.774231
O O6 0.686757 0.643207 0.633471
O O7 0.794167 0.565570 0.841565
O O8 0.090483 0.629426 0.257568
O O9 0.388819 0.306667 0.996938
O O10 0.597641 0.112439 0.918190
#
# Coordination Sequence:
#
# PCOD9542492 Si02
#       5
#     4   4   4   4   2
#     4  10  25  41  70 101 146 186 244 304 367 432
#     4  11  23  41  72 106 140 188 258 298 355 432
#     4  11  24  45  64 105 143 191 235 305 373 438
#     4  11  22  42  66 102 135 184 240 303 349 422
#     4  12  24  40  80 100 148 194 246 292 380 444
#
# _framework density 23.316319
#
# number of rings (size 3 to 8) (size 9 to 14) (size 15 to 20)
#    0.000    1.111    5.556    0.000   10.889    2.222 
#    0.000    0.000    0.000    0.667    0.000    0.000 
#    0.000    0.000    0.000    0.000    0.000    0.000 
#
# Total GULP energy -100509.544888 kJ/mol
# GULP energy per Si atom -5583.863605 kJ/mol
# Density = 2.326325 g / cm^3
# Si number density = 23.316319 Si / 1000 Ang^3
#
#
#
# Elastic Constant Matrix: (Units=GPa)
#
#
# Indices 1 2 3 4 5 6 
#
# 1 82.9121 28.7336 29.2662 0.0000 0.0000 -11.2555
# 2 28.7336 82.9121 29.2662 0.0000 0.0000 11.2555
# 3 29.2662 29.2662 99.1239 0.0000 0.0000 0.0000
# 4 0.0000 0.0000 0.0000 33.4032 0.0000 0.0000
# 5 0.0000 0.0000 0.0000 0.0000 33.4032 0.0000
# 6 -11.2555 11.2555 0.0000 0.0000 0.0000 34.5689
#
#
#
# Elastic Compliance Matrix: (Units=1/GPa)
#
#
# Indices 1 2 3 4 5 6 
#
# 1 0.015971 -0.005374 -0.003129 0.000000 0.000000 0.006950
# 2 -0.005374 0.015971 -0.003129 0.000000 0.000000 -0.006950
# 3 -0.003129 -0.003129 0.011936 0.000000 0.000000 0.000000
# 4 0.000000 0.000000 0.000000 0.029937 0.000000 0.000000
# 5 0.000000 0.000000 0.000000 0.000000 0.029937 0.000000
# 6 0.006950 -0.006950 0.000000 0.000000 0.000000 0.033453
#
#
# Mechanical properties :
#
#
# Convention : Reuss Voigt Hill
#
# Bulk Modulus (GPa) = 48.50802 48.83114 48.66958
# Shear Modulus (GPa) = 29.87908 32.12054 30.99981
#
# Velocity S-wave (km/s) = 3.58364 3.71563 3.65023
# Velocity P-wave (km/s) = 6.16221 6.27664 6.21969
#
# Compressibility (1/GPa) = 0.02061515
#
# Stress axis : x y z
#
# Youngs Moduli (GPa) = 62.61270 62.61270 83.78047
#
# Poissons Ratio (x) = 0.33648 0.26213
# Poissons Ratio (y) = 0.33648 0.26213
# Poissons Ratio (z) = 0.19590 0.19590
#
# Static dielectric constant tensor:
#      x y z
#    x 1.942800 0.000000 0.000000 
#    y 0.000000 1.942800 0.000000 
#    z 0.000000 0.000000 1.873450 
# 
# From -- ./inp_files/1248.got.cif
#   From: 2010.05.17/outbox.cif.g08.bks.cpg/sg81_cif.got.tgz:1248.got - 2010.06.03 18:51:07.
