data_PCOD9542165
_publ_section_title
;
Structure prediction by ZEFSAII (Michael W. Deem and Ramdas Pophale) SiO2 
 PCOD9542165
Probable space group: I 41
;
_chemical_formula_sum "Si O2"
_cell_formula_units_Z 40
_cell_length_a 8.064583
_cell_length_b 8.064583
_cell_length_c 29.723670
_cell_angle_alpha 90.000000
_cell_angle_beta 90.000000
_cell_angle_gamma 90.000000
_cell_volume 1933.153157
_symmetry_space_group_name_H-M "I 41"
_symmetry_group_IT_number 80
_symmetry_cell_setting 'tetragonal'
loop_
_space_group_symop_operation_xyz
x,y,z
-y,1/2+x,1/4+z
-x,-y,z
y,1/2-x,1/4+z
1/2+x,1/2+y,1/2+z
1/2-y,x,3/4+z
1/2-x,1/2-y,1/2+z
1/2+y,-x,3/4+z
loop_
_atom_site_type_symbol
_atom_site_label
_atom_site_fract_x
_atom_site_fract_y
_atom_site_fract_z
Si Si1 0.264718 0.783964 0.675400
Si Si2 0.040821 0.805570 0.755039
Si Si3 0.000000 0.000000 0.194051
Si Si4 0.000000 0.000000 0.989619
Si Si5 0.820539 0.677398 0.523664
Si Si6 0.406414 0.676068 0.079803
O O1 0.113917 0.739288 0.708510
O O2 0.399910 0.640148 0.668253
O O3 0.181799 0.817549 0.627811
O O4 0.359674 0.926425 0.705174
O O5 0.169097 0.739814 0.792562
O O6 0.865799 0.730213 0.767452
O O7 0.000000 0.000000 0.753100
O O8 0.126058 0.085719 0.228406
O O9 0.848648 0.931372 0.020553
O O10 0.955795 0.687115 0.564334
O O11 0.500000 0.500000 0.079352
#
# Coordination Sequence:
#
# PCOD9542165 Si02
#       6
#     8   8   4   4   8   8
#     4  11  22  42  68  97 132 182 226 279 340 409
#     4  11  21  40  68  92 130 180 223 273 343 399
#     4  10  22  42  67  92 136 174 218 277 348 398
#     4  10  22  38  71  96 136 182 224 279 348 402
#     4  10  21  42  66  96 132 178 221 281 338 409
#     4  10  23  40  66  99 130 173 235 279 328 419
#
# _framework density 20.691582
#
# number of rings (size 3 to 8) (size 9 to 14) (size 15 to 20)
#    0.000    1.600    4.000    0.600    1.400    0.000 
#    0.000    5.000    0.000    0.000    0.000    0.000 
#    0.000    0.000    0.000    0.000    0.000    0.000 
#
# Total GULP energy -111423.337467 kJ/mol
# GULP energy per Si atom -5571.166873 kJ/mol
# Density = 2.064449 g / cm^3
# Si number density = 20.691582 Si / 1000 Ang^3
#
#
#
# Elastic Constant Matrix: (Units=GPa)
#
#
# Indices 1 2 3 4 5 6 
#
# 1 95.0504 51.1230 34.9446 0.0000 0.0000 12.2552
# 2 51.1230 95.0504 34.9446 0.0000 0.0000 -12.2552
# 3 34.9446 34.9446 112.7648 0.0000 0.0000 0.0000
# 4 0.0000 0.0000 0.0000 19.3794 0.0000 0.0000
# 5 0.0000 0.0000 0.0000 0.0000 19.3794 0.0000
# 6 12.2552 -12.2552 0.0000 0.0000 0.0000 14.0426
#
#
#
# Elastic Compliance Matrix: (Units=1/GPa)
#
#
# Indices 1 2 3 4 5 6 
#
# 1 0.026202 -0.018171 -0.002489 0.000000 0.000000 -0.038725
# 2 -0.018171 0.026202 -0.002489 0.000000 0.000000 0.038725
# 3 -0.002489 -0.002489 0.010410 0.000000 0.000000 0.000000
# 4 0.000000 0.000000 0.000000 0.051601 0.000000 0.000000
# 5 0.000000 0.000000 0.000000 0.000000 0.051601 0.000000
# 6 -0.038725 0.038725 0.000000 0.000000 0.000000 0.138803
#
#
# Mechanical properties :
#
#
# Convention : Reuss Voigt Hill
#
# Bulk Modulus (GPa) = 60.54104 60.54330 60.54217
# Shear Modulus (GPa) = 14.02046 22.68384 18.35215
#
# Velocity S-wave (km/s) = 2.60588 3.31461 2.98138
# Velocity P-wave (km/s) = 6.19488 6.63116 6.41673
#
# Compressibility (1/GPa) = 0.01651772
#
# Stress axis : x y z
#
# Youngs Moduli (GPa) = 38.16546 38.16546 96.05692
#
# Poissons Ratio (x) = 0.69349 0.23906
# Poissons Ratio (y) = 0.69349 0.23906
# Poissons Ratio (z) = 0.09498 0.09498
#
# Static dielectric constant tensor:
#      x y z
#    x 1.789760 0.000000 0.000000 
#    y 0.000000 1.789760 0.000000 
#    z 0.000000 0.000000 1.698300 
# 
# From -- ./inp_files/2031.got.cif
#   From: 2010.05.17/outbox.cif.g08.bks.cpg/sg80_cif.got.tgz:2031.got - 2010.06.03 18:49:13.
