data_PCOD9542153
_publ_section_title
;
Structure prediction by ZEFSAII (Michael W. Deem and Ramdas Pophale) SiO2 
 PCOD9542153
Probable space group: I 41
;
_chemical_formula_sum "Si O2"
_cell_formula_units_Z 48
_cell_length_a 14.906201
_cell_length_b 14.906201
_cell_length_c 11.424144
_cell_angle_alpha 90.000000
_cell_angle_beta 90.000000
_cell_angle_gamma 90.000000
_cell_volume 2538.385714
_symmetry_space_group_name_H-M "I 41"
_symmetry_group_IT_number 80
_symmetry_cell_setting 'tetragonal'
loop_
_space_group_symop_operation_xyz
x,y,z
-y,1/2+x,1/4+z
-x,-y,z
y,1/2-x,1/4+z
1/2+x,1/2+y,1/2+z
1/2-y,x,3/4+z
1/2-x,1/2-y,1/2+z
1/2+y,-x,3/4+z
loop_
_atom_site_type_symbol
_atom_site_label
_atom_site_fract_x
_atom_site_fract_y
_atom_site_fract_z
Si Si1 0.494804 0.872071 0.038820
Si Si2 0.500000 0.000000 0.690100
Si Si3 0.627929 0.005196 0.907411
Si Si4 0.441187 0.185593 0.594079
Si Si5 0.558813 0.685592 0.102152
Si Si6 0.000000 0.000000 0.506131
Si Si7 0.119041 0.250000 0.848115
O O1 0.510601 0.767031 0.037620
O O2 0.493010 0.914511 0.168868
O O3 0.576196 0.923804 0.973115
O O4 0.406185 0.906185 0.973116
O O5 0.414511 0.993008 0.777363
O O6 0.487027 0.090353 0.616891
O O7 0.732969 0.989399 0.908611
O O8 0.336935 0.176973 0.634160
O O9 0.436601 0.213131 0.457783
O O10 0.663065 0.676971 0.062070
O O11 0.563399 0.713130 0.238448
O O12 0.512971 0.590353 0.079340
#
# Coordination Sequence:
#
# PCOD9542153 Si02
#       7
#     8   4   8   8   8   4   8
#     4   9  21  37  59  96 129 172 207 256 329 387
#     4  10  21  39  64  88 126 176 204 272 316 390
#     4   9  21  37  59  96 129 172 207 256 329 387
#     4  11  21  41  59  97 130 158 227 257 336 378
#     4  11  21  41  59  97 130 158 227 257 336 378
#     4  10  21  39  64  88 126 176 204 272 316 390
#     4  10  24  34  64  96 122 172 200 284 336 370
#
# _framework density 18.909656999999999
#
# number of rings (size 3 to 8) (size 9 to 14) (size 15 to 20)
#    0.000    2.333    3.333    0.000    4.667    8.000 
#    0.000    0.000    0.000    4.000    0.000    0.000 
#    0.000    0.000    0.000    0.000    0.000    0.000 
#
# Total GULP energy -133890.356396 kJ/mol
# GULP energy per Si atom -5578.764850 kJ/mol
# Density = 1.886662 g / cm^3
# Si number density = 18.909657 Si / 1000 Ang^3
#
#
#
# Elastic Constant Matrix: (Units=GPa)
#
#
# Indices 1 2 3 4 5 6 
#
# 1 147.7811 80.0431 50.4258 0.0000 0.0000 -0.0001
# 2 80.0431 147.7811 50.4258 0.0000 0.0000 0.0001
# 3 50.4258 50.4258 102.0813 0.0000 0.0000 0.0000
# 4 0.0000 0.0000 0.0000 11.9664 0.0000 0.0000
# 5 0.0000 0.0000 0.0000 0.0000 11.9664 0.0000
# 6 -0.0001 0.0001 0.0000 0.0000 0.0000 27.9877
#
#
#
# Elastic Compliance Matrix: (Units=1/GPa)
#
#
# Indices 1 2 3 4 5 6 
#
# 1 0.010190 -0.004572 -0.002775 0.000000 0.000000 0.000000
# 2 -0.004572 0.010190 -0.002775 0.000000 0.000000 0.000000
# 3 -0.002775 -0.002775 0.012538 0.000000 0.000000 0.000000
# 4 0.000000 0.000000 0.000000 0.083567 0.000000 0.000000
# 5 0.000000 0.000000 0.000000 0.000000 0.083567 0.000000
# 6 0.000000 0.000000 0.000000 0.000000 0.000000 0.035730
#
#
# Mechanical properties :
#
#
# Convention : Reuss Voigt Hill
#
# Bulk Modulus (GPa) = 78.90733 84.38143 81.64438
# Shear Modulus (GPa) = 19.21209 24.83400 22.02305
#
# Velocity S-wave (km/s) = 3.19092 3.62788 3.41639
# Velocity P-wave (km/s) = 7.44279 7.89107 7.67021
#
# Compressibility (1/GPa) = 0.01267309
#
# Stress axis : x y z
#
# Youngs Moduli (GPa) = 98.13269 98.13269 79.75915
#
# Poissons Ratio (x) = 0.44871 0.22134
# Poissons Ratio (y) = 0.44871 0.22134
# Poissons Ratio (z) = 0.27232 0.27232
#
# Static dielectric constant tensor:
#      x y z
#    x 1.655750 0.000000 0.000000 
#    y 0.000000 1.655750 0.000000 
#    z 0.000000 0.000000 1.726690 
# 
# From -- ./inp_files/1028.got.cif
#   From: 2010.05.17/outbox.cif.g08.bks.cpg/sg80_cif.got.tgz:1028.got - 2010.06.03 18:49:13.
