data_PCOD9542790
_publ_section_title
;
Structure prediction by ZEFSAII (Michael W. Deem and Ramdas Pophale) SiO2 
 PCOD9542790
Probable space group: I -4 
;
_chemical_formula_sum "Si O2"
_cell_formula_units_Z 42
_cell_length_a 10.173467
_cell_length_b 10.173467
_cell_length_c 18.575696
_cell_angle_alpha 90.000000
_cell_angle_beta 90.000000
_cell_angle_gamma 90.000000
_cell_volume 1922.573963
_symmetry_space_group_name_H-M "I -4 "
_symmetry_group_IT_number 82
_symmetry_cell_setting 'tetragonal'
loop_
_space_group_symop_operation_xyz
x,y,z
y,-x,-z
-x,-y,z
-y,x,-z
1/2+x,1/2+y,1/2+z
1/2+y,1/2-x,1/2-z
1/2-x,1/2-y,1/2+z
1/2-y,1/2+x,1/2-z
loop_
_atom_site_type_symbol
_atom_site_label
_atom_site_fract_x
_atom_site_fract_y
_atom_site_fract_z
Si Si1 0.375262 0.687351 0.000922
Si Si2 0.361727 0.293838 0.604610
Si Si3 0.852924 0.730234 0.705000
Si Si4 0.008923 0.159510 0.242576
Si Si5 0.500000 0.500000 0.500000
Si Si6 0.358369 0.758008 0.158207
O O1 0.321542 0.749329 0.075649
O O2 0.535088 0.675227 0.002198
O O3 0.319775 0.783545 0.938697
O O4 0.249939 0.351131 0.658166
O O5 0.472855 0.268621 0.665784
O O6 0.419993 0.398111 0.549432
O O7 0.872008 0.682592 0.786713
O O8 0.985062 0.739430 0.661315
O O9 0.799984 0.877093 0.717144
O O10 0.127651 0.183292 0.297919
O O11 0.000000 0.000000 0.230343
#
# Coordination Sequence:
#
# PCOD9542790 Si02
#       6
#     8   8   8   8   2   8
#     4  11  23  40  69 102 134 170 216 271 344 394
#     4  11  23  42  67  96 135 175 223 270 330 407
#     4  10  21  40  65  96 126 171 224 268 325 385
#     4   9  19  38  66  94 126 175 223 264 326 390
#     4  12  28  44  68  92 136 188 222 260 352 396
#     4  10  21  36  66  94 130 168 218 271 320 393
#
# _framework density 21.845713
#
# number of rings (size 3 to 8) (size 9 to 14) (size 15 to 20)
#    0.000    1.714    2.857    1.143    8.000    0.381 
#    0.000    0.952    8.381    5.143    0.000    0.000 
#    0.000    0.000    0.000    0.000    0.000    0.000 
#
# Total GULP energy -117040.041136 kJ/mol
# GULP energy per Si atom -5573.335292 kJ/mol
# Density = 2.179599 g / cm^3
# Si number density = 21.845713 Si / 1000 Ang^3
#
#
#
# Elastic Constant Matrix: (Units=GPa)
#
#
# Indices 1 2 3 4 5 6 
#
# 1 29.0591 33.9394 22.5600 0.0000 0.0000 1.6359
# 2 33.9394 29.0591 22.5600 0.0000 0.0000 -1.6359
# 3 22.5600 22.5600 169.8635 0.0000 0.0000 0.0000
# 4 0.0000 0.0000 0.0000 16.8373 0.0000 0.0000
# 5 0.0000 0.0000 0.0000 0.0000 16.8373 0.0000
# 6 1.6359 -1.6359 0.0000 0.0000 0.0000 28.6756
#
#
#
# Elastic Compliance Matrix: (Units=1/GPa)
#
#
# Indices 1 2 3 4 5 6 
#
# 1 -0.089907 0.107449 -0.002330 0.000000 0.000000 0.011259
# 2 0.107449 -0.089907 -0.002330 0.000000 0.000000 -0.011259
# 3 -0.002330 -0.002330 0.006506 0.000000 0.000000 0.000000
# 4 0.000000 0.000000 0.000000 0.059392 0.000000 0.000000
# 5 0.000000 0.000000 0.000000 0.000000 0.059392 0.000000
# 6 0.011259 -0.011259 0.000000 0.000000 0.000000 0.033588
#
#
# Mechanical properties :
#
#
# Convention : Reuss Voigt Hill
#
# Bulk Modulus (GPa) = 30.98780 42.90008 36.94394
# Shear Modulus (GPa) = -23.17432 22.39817 -0.38807
#
# Velocity S-wave (km/s) = -3.26055 3.20549 -0.42193
# Velocity P-wave (km/s) = 0.20173 5.77759 4.08786
#
# Compressibility (1/GPa) = 0.03227077
#
# Stress axis : x y z
#
# Youngs Moduli (GPa) = -11.12265 -11.12265 153.70582
#
# Poissons Ratio (x) = 1.19511 0.35810
# Poissons Ratio (y) = 1.19511 0.35810
# Poissons Ratio (z) = -0.02591 -0.02591
#
# Static dielectric constant tensor:
#      x y z
#    x 1.854190 0.000000 0.000000 
#    y 0.000000 1.854190 0.000000 
#    z 0.000000 0.000000 1.810750 
# 
# From -- ./inp_files/2592.got.cif
#   From: 2010.05.17/outbox.cif.g08.bks.cpg/sg82_2_cif.got.tgz:2592.got - 2010.06.03 18:52:26.
