data_PCOD9542625
_publ_section_title
;
Structure prediction by ZEFSAII (Michael W. Deem and Ramdas Pophale) SiO2 
 PCOD9542625
Probable space group: I -4 
;
_chemical_formula_sum "Si O2"
_cell_formula_units_Z 42
_cell_length_a 10.003316
_cell_length_b 10.003316
_cell_length_c 24.391492
_cell_angle_alpha 90.000000
_cell_angle_beta 90.000000
_cell_angle_gamma 90.000000
_cell_volume 2440.767112
_symmetry_space_group_name_H-M "I -4 "
_symmetry_group_IT_number 82
_symmetry_cell_setting 'tetragonal'
loop_
_space_group_symop_operation_xyz
x,y,z
y,-x,-z
-x,-y,z
-y,x,-z
1/2+x,1/2+y,1/2+z
1/2+y,1/2-x,1/2-z
1/2-x,1/2-y,1/2+z
1/2-y,1/2+x,1/2-z
loop_
_atom_site_type_symbol
_atom_site_label
_atom_site_fract_x
_atom_site_fract_y
_atom_site_fract_z
Si Si1 0.948134 0.144548 0.248025
Si Si2 0.707421 0.408964 0.557326
Si Si3 0.791342 0.079441 0.936939
Si Si4 0.807675 0.749395 0.179070
Si Si5 0.052889 0.287882 0.828221
Si Si6 0.500000 0.000000 0.250000
O O1 0.867590 0.219147 0.295478
O O2 0.070595 0.224911 0.221371
O O3 0.845512 0.113764 0.198166
O O4 0.000000 0.000000 0.267020
O O5 0.643206 0.558704 0.559814
O O6 0.767925 0.389503 0.497007
O O7 0.580094 0.312633 0.566318
O O8 0.802862 0.401425 0.609501
O O9 0.724542 0.135806 0.882149
O O10 0.729694 0.891743 0.174905
O O11 0.090026 0.410314 0.789438
#
# Coordination Sequence:
#
# PCOD9542625 Si02
#       6
#     8   8   8   8   8   2
#     4  10  20  32  49  71 104 136 165 201 248 300
#     4   8  13  24  43  73 100 124 157 201 253 292
#     4   8  13  23  46  72  98 125 156 203 251 292
#     4  10  18  31  49  71 103 131 166 204 249 297
#     4  10  18  30  46  72 104 130 160 207 249 297
#     4  12  20  28  48  72 104 132 164 202 248 292
#
# _framework density 17.207705000000001
#
# number of rings (size 3 to 8) (size 9 to 14) (size 15 to 20)
#    0.000    2.667    3.810    1.143    0.000    0.381 
#    0.000    0.000    0.000    2.286    0.000    0.000 
#    5.714    0.000    0.000    0.000    0.000    0.000 
#
# Total GULP energy -116950.240002 kJ/mol
# GULP energy per Si atom -5569.059048 kJ/mol
# Density = 1.716854 g / cm^3
# Si number density = 17.207705 Si / 1000 Ang^3
#
#
#
# Elastic Constant Matrix: (Units=GPa)
#
#
# Indices 1 2 3 4 5 6 
#
# 1 38.4333 23.8555 45.5687 0.0000 0.0000 -1.4781
# 2 23.8555 38.4333 45.5687 0.0000 0.0000 1.4781
# 3 45.5687 45.5687 184.3650 0.0000 0.0000 0.0000
# 4 0.0000 0.0000 0.0000 20.0883 0.0000 0.0000
# 5 0.0000 0.0000 0.0000 0.0000 20.0883 0.0000
# 6 -1.4781 1.4781 0.0000 0.0000 0.0000 21.1004
#
#
#
# Elastic Compliance Matrix: (Units=1/GPa)
#
#
# Indices 1 2 3 4 5 6 
#
# 1 0.047367 -0.022218 -0.006216 0.000000 0.000000 0.004875
# 2 -0.022218 0.047367 -0.006216 0.000000 0.000000 -0.004875
# 3 -0.006216 -0.006216 0.008497 0.000000 0.000000 0.000000
# 4 0.000000 0.000000 0.000000 0.049780 0.000000 0.000000
# 5 0.000000 0.000000 0.000000 0.000000 0.049780 0.000000
# 6 0.004875 -0.004875 0.000000 0.000000 0.000000 0.048075
#
#
# Mechanical properties :
#
#
# Convention : Reuss Voigt Hill
#
# Bulk Modulus (GPa) = 29.47151 54.57971 42.02561
# Shear Modulus (GPa) = 15.08394 22.00465 18.54430
#
# Velocity S-wave (km/s) = 2.96392 3.57987 3.28636
# Velocity P-wave (km/s) = 5.37375 6.99101 6.23504
#
# Compressibility (1/GPa) = 0.03393107
#
# Stress axis : x y z
#
# Youngs Moduli (GPa) = 21.11158 21.11157 117.69159
#
# Poissons Ratio (x) = 0.46906 0.73157
# Poissons Ratio (y) = 0.46906 0.73157
# Poissons Ratio (z) = 0.13123 0.13123
#
# Static dielectric constant tensor:
#      x y z
#    x 1.585370 0.000000 0.000000 
#    y 0.000000 1.585370 0.000000 
#    z 0.000000 0.000000 1.620160 
# 
# From -- ./inp_files/3040.got.cif
#   From: 2010.05.17/outbox.cif.g08.bks.cpg/sg82_2_cif.got.tgz:3040.got - 2010.06.03 18:52:26.
