data_PCOD9542073
_publ_section_title
;
Structure prediction by ZEFSAII (Michael W. Deem and Ramdas Pophale) SiO2 
 PCOD9542073
Probable space group: I 41
;
_chemical_formula_sum "Si O2"
_cell_formula_units_Z 56
_cell_length_a 24.428372
_cell_length_b 24.428372
_cell_length_c 5.322686
_cell_angle_alpha 90.000000
_cell_angle_beta 90.000000
_cell_angle_gamma 90.000000
_cell_volume 3176.288166
_symmetry_space_group_name_H-M "I 41"
_symmetry_group_IT_number 80
_symmetry_cell_setting 'tetragonal'
loop_
_space_group_symop_operation_xyz
x,y,z
-y,1/2+x,1/4+z
-x,-y,z
y,1/2-x,1/4+z
1/2+x,1/2+y,1/2+z
1/2-y,x,3/4+z
1/2-x,1/2-y,1/2+z
1/2+y,-x,3/4+z
loop_
_atom_site_type_symbol
_atom_site_label
_atom_site_fract_x
_atom_site_fract_y
_atom_site_fract_z
Si Si1 0.668875 0.751307 0.614150
Si Si2 0.541410 0.771593 0.534149
Si Si3 0.831412 0.961149 0.300128
Si Si4 0.873448 0.845469 0.397224
Si Si5 0.652586 0.945788 0.647404
Si Si6 0.440287 0.971105 0.466584
Si Si7 0.027353 0.560300 0.460375
O O1 0.709735 0.800234 0.677808
O O2 0.608389 0.770154 0.533434
O O3 0.656392 0.712045 0.852753
O O4 0.526261 0.792304 0.813099
O O5 0.525492 0.711137 0.438713
O O6 0.518704 0.811429 0.320701
O O7 0.834066 0.895873 0.336962
O O8 0.892529 0.983400 0.258331
O O9 0.902056 0.846331 0.668331
O O10 0.917429 0.853662 0.169948
O O11 0.604203 0.985787 0.563051
O O12 0.445853 0.928305 0.691905
O O13 0.500000 0.000000 0.437327
O O14 0.431328 0.945269 0.193641
O O15 0.000000 0.500000 0.434463
#
# Coordination Sequence:
#
# PCOD9542073 Si02
#       7
#     8   8   8   8   8   8   8
#     4  11  25  37  51  69  94 137 194 255 283 320
#     4  11  25  39  52  77  99 149 180 222 297 333
#     4  12  22  39  55  76 105 134 179 226 285 352
#     4  11  22  36  52  70  93 137 174 241 286 326
#     4  11  22  37  56  76 108 132 180 226 285 348
#     4  10  18  33  54  82 100 127 164 223 284 326
#     4  10  20  33  55  80 101 124 165 223 285 325
#
# _framework density 17.630642999999999
#
# number of rings (size 3 to 8) (size 9 to 14) (size 15 to 20)
#    0.000    1.143    1.429    7.714    4.000    0.000 
#    0.000    0.000    0.000    0.000    0.000    0.000 
#    0.000    0.000    0.000    0.000    0.000   40.000 
#
# Total GULP energy -156192.709126 kJ/mol
# GULP energy per Si atom -5578.311040 kJ/mol
# Density = 1.759051 g / cm^3
# Si number density = 17.630643 Si / 1000 Ang^3
#
#
#
# Elastic Constant Matrix: (Units=GPa)
#
#
# Indices 1 2 3 4 5 6 
#
# 1 40.5811 15.1979 10.5835 0.0000 0.0000 0.4440
# 2 15.1979 40.5811 10.5835 0.0000 0.0000 -0.4440
# 3 10.5835 10.5835 86.0255 0.0000 0.0000 0.0000
# 4 0.0000 0.0000 0.0000 24.1484 0.0000 0.0000
# 5 0.0000 0.0000 0.0000 0.0000 24.1484 0.0000
# 6 0.4440 -0.4440 0.0000 0.0000 0.0000 22.8710
#
#
#
# Elastic Compliance Matrix: (Units=1/GPa)
#
#
# Indices 1 2 3 4 5 6 
#
# 1 0.029114 -0.010309 -0.002314 0.000000 0.000000 -0.000765
# 2 -0.010309 0.029114 -0.002314 0.000000 0.000000 0.000765
# 3 -0.002314 -0.002314 0.012194 0.000000 0.000000 0.000000
# 4 0.000000 0.000000 0.000000 0.041411 0.000000 0.000000
# 5 0.000000 0.000000 0.000000 0.000000 0.041411 0.000000
# 6 -0.000765 0.000765 0.000000 0.000000 0.000000 0.043753
#
#
# Mechanical properties :
#
#
# Convention : Reuss Voigt Hill
#
# Bulk Modulus (GPa) = 24.66034 26.65749 25.65892
# Shear Modulus (GPa) = 20.79991 22.95507 21.87749
#
# Velocity S-wave (km/s) = 3.43849 3.61224 3.52643
# Velocity P-wave (km/s) = 5.45727 5.70530 5.58267
#
# Compressibility (1/GPa) = 0.04055094
#
# Stress axis : x y z
#
# Youngs Moduli (GPa) = 34.34728 34.34728 82.00926
#
# Poissons Ratio (x) = 0.35407 0.18974
# Poissons Ratio (y) = 0.35407 0.18974
# Poissons Ratio (z) = 0.07947 0.07947
#
# Static dielectric constant tensor:
#      x y z
#    x 1.598800 0.000000 0.000000 
#    y 0.000000 1.598800 0.000000 
#    z 0.000000 0.000000 1.724500 
# 
# From -- ./inp_files/400.got.cif
#   From: 2010.05.17/outbox.cif.g08.bks.cpg/sg80_cif.got.tgz:400.got - 2010.06.03 18:49:13.
