data_PCOD9542267
_publ_section_title
;
Structure prediction by ZEFSAII (Michael W. Deem and Ramdas Pophale) SiO2 
 PCOD9542267
Probable space group: I 41
;
_chemical_formula_sum "Si O2"
_cell_formula_units_Z 40
_cell_length_a 12.776415
_cell_length_b 12.776415
_cell_length_c 11.044944
_cell_angle_alpha 90.000000
_cell_angle_beta 90.000000
_cell_angle_gamma 90.000000
_cell_volume 1802.941097
_symmetry_space_group_name_H-M "I 41"
_symmetry_group_IT_number 80
_symmetry_cell_setting 'tetragonal'
loop_
_space_group_symop_operation_xyz
x,y,z
-y,1/2+x,1/4+z
-x,-y,z
y,1/2-x,1/4+z
1/2+x,1/2+y,1/2+z
1/2-y,x,3/4+z
1/2-x,1/2-y,1/2+z
1/2+y,-x,3/4+z
loop_
_atom_site_type_symbol
_atom_site_label
_atom_site_fract_x
_atom_site_fract_y
_atom_site_fract_z
Si Si1 0.829600 0.014842 0.303490
Si Si2 0.186510 0.703758 0.874514
Si Si3 0.000000 0.000000 0.485460
Si Si4 0.114270 0.162199 0.656257
Si Si5 0.032295 0.192978 0.912162
Si Si6 0.500000 0.500000 0.594344
O O1 0.733902 0.093964 0.328561
O O2 0.726162 0.223293 0.511149
O O3 0.777332 0.906491 0.350019
O O4 0.894541 0.007677 0.178406
O O5 0.054710 0.582009 0.646093
O O6 0.064444 0.727571 0.892511
O O7 0.933153 0.919793 0.562268
O O8 0.233947 0.133092 0.684273
O O9 0.051874 0.144948 0.780459
O O10 0.009856 0.103590 0.010513
#
# Coordination Sequence:
#
# PCOD9542267 Si02
#       6
#     8   8   4   8   8   4
#     4  11  24  48  77 102 153 196 255 299 382 456
#     4  12  24  44  76 116 145 201 256 320 377 465
#     4  11  23  46  74 104 137 197 250 298 366 459
#     4  12  23  46  72 108 142 200 246 307 367 462
#     4  12  28  45  76 109 155 192 253 310 390 446
#     4  11  29  54  72 118 153 201 242 338 374 455
#
# _framework density 22.185972
#
# number of rings (size 3 to 8) (size 9 to 14) (size 15 to 20)
#    0.000    0.400    4.000    4.200    2.800    1.600 
#   10.800    0.000    0.000    0.000    0.000    0.000 
#    0.000    0.000    0.000    0.000    0.000    0.000 
#
# Total GULP energy -111542.437638 kJ/mol
# GULP energy per Si atom -5577.121882 kJ/mol
# Density = 2.213548 g / cm^3
# Si number density = 22.185972 Si / 1000 Ang^3
#
#
#
# Elastic Constant Matrix: (Units=GPa)
#
#
# Indices 1 2 3 4 5 6 
#
# 1 110.1700 47.7202 56.8289 0.0000 0.0000 -10.3505
# 2 47.7202 110.1700 56.8289 0.0000 0.0000 10.3505
# 3 56.8289 56.8289 148.0756 0.0000 0.0000 0.0000
# 4 0.0000 0.0000 0.0000 24.9314 0.0000 0.0000
# 5 0.0000 0.0000 0.0000 0.0000 24.9314 0.0000
# 6 -10.3505 10.3505 0.0000 0.0000 0.0000 33.5393
#
#
#
# Elastic Compliance Matrix: (Units=1/GPa)
#
#
# Indices 1 2 3 4 5 6 
#
# 1 0.013294 -0.004543 -0.003359 0.000000 0.000000 0.005505
# 2 -0.004543 0.013294 -0.003359 0.000000 0.000000 -0.005505
# 3 -0.003359 -0.003359 0.009331 0.000000 0.000000 0.000000
# 4 0.000000 0.000000 0.000000 0.040110 0.000000 0.000000
# 5 0.000000 0.000000 0.000000 0.000000 0.040110 0.000000
# 6 0.005505 -0.005505 0.000000 0.000000 0.000000 0.033213
#
#
# Mechanical properties :
#
#
# Convention : Reuss Voigt Hill
#
# Bulk Modulus (GPa) = 74.63039 76.79684 75.71362
# Shear Modulus (GPa) = 28.35421 30.48294 29.41858
#
# Velocity S-wave (km/s) = 3.57882 3.71074 3.64538
# Velocity P-wave (km/s) = 7.12663 7.28352 7.20550
#
# Compressibility (1/GPa) = 0.01339937
#
# Stress axis : x y z
#
# Youngs Moduli (GPa) = 75.21964 75.21964 107.16716
#
# Poissons Ratio (x) = 0.34174 0.35993
# Poissons Ratio (y) = 0.34174 0.35993
# Poissons Ratio (z) = 0.25263 0.25263
#
# Static dielectric constant tensor:
#      x y z
#    x 1.898450 0.000000 0.000000 
#    y 0.000000 1.898450 0.000000 
#    z 0.000000 0.000000 1.812200 
# 
# From -- ./inp_files/625.got.cif
#   From: 2010.05.17/outbox.cif.g08.bks.cpg/sg80_cif.got.tgz:625.got - 2010.06.03 18:49:13.
