data_PCOD9542581
_publ_section_title
;
Structure prediction by ZEFSAII (Michael W. Deem and Ramdas Pophale) SiO2 
 PCOD9542581
Probable space group: P -4
;
_chemical_formula_sum "Si O2"
_cell_formula_units_Z 17
_cell_length_a 8.552695
_cell_length_b 8.552695
_cell_length_c 8.907541
_cell_angle_alpha 90.000000
_cell_angle_beta 90.000000
_cell_angle_gamma 90.000000
_cell_volume 651.574080
_symmetry_space_group_name_H-M "P -4"
_symmetry_group_IT_number 81
_symmetry_cell_setting 'tetragonal'
loop_
_space_group_symop_operation_xyz
x,y,z
y,-x,-z
-x,-y,z
-y,x,-z
loop_
_atom_site_type_symbol
_atom_site_label
_atom_site_fract_x
_atom_site_fract_y
_atom_site_fract_z
Si Si1 0.602411 0.288572 0.439918
Si Si2 0.264053 0.929165 0.668408
Si Si3 0.724095 0.793603 0.861992
Si Si4 0.000000 0.000000 0.500000
Si Si5 0.329401 0.067105 0.158554
O O1 0.420273 0.322260 0.452484
O O2 0.631631 0.130608 0.532898
O O3 0.671117 0.311952 0.272550
O O4 0.143531 0.054173 0.596931
O O5 0.155216 0.789657 0.729951
O O6 0.328038 0.036097 0.799095
O O7 0.910145 0.766502 0.890156
O O8 0.646047 0.804517 0.025979
O O9 0.500000 0.000000 0.208326
#
# Coordination Sequence:
#
# PCOD9542581 Si02
#       5
#     4   4   4   1   4
#     4  11  27  48  71 104 147 194 244 302 370 447
#     4  12  22  42  69 100 141 181 237 295 358 428
#     4  12  25  44  70 104 145 185 242 304 360 435
#     4  12  20  36  70 104 128 180 226 300 348 404
#     4  12  26  43  69 107 143 190 235 302 374 438
#
# _framework density 26.090665999999999
#
# number of rings (size 3 to 8) (size 9 to 14) (size 15 to 20)
#    0.000    0.235    7.059    1.412    3.294    0.000 
#    0.000    0.000    0.000    2.824    0.000    0.000 
#    0.000    0.000    0.000    0.000    0.000    0.000 
#
# Total GULP energy -94865.301321 kJ/mol
# GULP energy per Si atom -5580.311842 kJ/mol
# Density = 2.603128 g / cm^3
# Si number density = 26.090666 Si / 1000 Ang^3
#
#
#
# Elastic Constant Matrix: (Units=GPa)
#
#
# Indices 1 2 3 4 5 6 
#
# 1 84.7856 15.8388 28.6940 0.0000 0.0000 -16.6765
# 2 15.8388 84.7856 28.6940 0.0000 0.0000 16.6765
# 3 28.6940 28.6940 126.6387 0.0000 0.0000 0.0000
# 4 0.0000 0.0000 0.0000 30.6374 0.0000 0.0000
# 5 0.0000 0.0000 0.0000 0.0000 30.6374 0.0000
# 6 -16.6765 16.6765 0.0000 0.0000 0.0000 49.8660
#
#
#
# Elastic Compliance Matrix: (Units=1/GPa)
#
#
# Indices 1 2 3 4 5 6 
#
# 1 0.014358 -0.002945 -0.002586 0.000000 0.000000 0.005787
# 2 -0.002945 0.014358 -0.002586 0.000000 0.000000 -0.005787
# 3 -0.002586 -0.002586 0.009068 0.000000 0.000000 0.000000
# 4 0.000000 0.000000 0.000000 0.032640 0.000000 0.000000
# 5 0.000000 0.000000 0.000000 0.000000 0.032640 0.000000
# 6 0.005787 -0.005787 0.000000 0.000000 0.000000 0.023924
#
#
# Mechanical properties :
#
#
# Convention : Reuss Voigt Hill
#
# Bulk Modulus (GPa) = 46.40342 49.18486 47.79414
# Shear Modulus (GPa) = 33.24342 37.09371 35.16857
#
# Velocity S-wave (km/s) = 3.57340 3.77467 3.67541
# Velocity P-wave (km/s) = 5.90336 6.15548 6.03073
#
# Compressibility (1/GPa) = 0.02155013
#
# Stress axis : x y z
#
# Youngs Moduli (GPa) = 69.64764 69.64764 110.27397
#
# Poissons Ratio (x) = 0.20513 0.28516
# Poissons Ratio (y) = 0.20513 0.28516
# Poissons Ratio (z) = 0.18010 0.18010
#
# Static dielectric constant tensor:
#      x y z
#    x 2.109850 0.000000 0.000000 
#    y 0.000000 2.109850 0.000000 
#    z 0.000000 0.000000 2.055520 
# 
# From -- ./inp_files/632.got.cif
#   From: 2010.05.17/outbox.cif.g08.bks.cpg/sg81_cif.got.tgz:632.got - 2010.06.03 18:51:07.
