data_PCOD9542616
_publ_section_title
;
Structure prediction by ZEFSAII (Michael W. Deem and Ramdas Pophale) SiO2 
 PCOD9542616
Probable space group: I -4 
;
_chemical_formula_sum "Si O2"
_cell_formula_units_Z 56
_cell_length_a 11.022306
_cell_length_b 11.022306
_cell_length_c 24.866844
_cell_angle_alpha 90.000000
_cell_angle_beta 90.000000
_cell_angle_gamma 90.000000
_cell_volume 3021.103453
_symmetry_space_group_name_H-M "I -4 "
_symmetry_group_IT_number 82
_symmetry_cell_setting 'tetragonal'
loop_
_space_group_symop_operation_xyz
x,y,z
y,-x,-z
-x,-y,z
-y,x,-z
1/2+x,1/2+y,1/2+z
1/2+y,1/2-x,1/2-z
1/2-x,1/2-y,1/2+z
1/2-y,1/2+x,1/2-z
loop_
_atom_site_type_symbol
_atom_site_label
_atom_site_fract_x
_atom_site_fract_y
_atom_site_fract_z
Si Si1 0.812465 0.724533 0.359563
Si Si2 0.046871 0.868335 0.584762
Si Si3 0.827937 0.806530 0.519746
Si Si4 0.918851 0.684014 0.246390
Si Si5 0.033660 0.219396 0.132907
Si Si6 0.041955 0.622106 0.425611
Si Si7 0.856580 0.895077 0.027153
O O1 0.791227 0.860972 0.379354
O O2 0.846492 0.732745 0.297282
O O3 0.718359 0.613835 0.369235
O O4 0.933374 0.680990 0.391819
O O5 0.128227 0.887738 0.531155
O O6 0.925934 0.800360 0.566775
O O7 0.000000 0.000000 0.605280
O O8 0.717643 0.893411 0.536612
O O9 0.764983 0.677065 0.512137
O O10 0.853295 0.554858 0.234693
O O11 0.928105 0.775185 0.195713
O O12 0.074663 0.353568 0.114130
O O13 0.097723 0.132630 0.088500
O O14 0.000000 0.500000 0.455168
O O15 0.964698 0.846355 0.988556
#
# Coordination Sequence:
#
# PCOD9542616 Si02
#       7
#     8   8   8   8   8   8   8
#     4  10  17  27  47  75 115 145 178 219 280 345
#     4  12  20  31  46  74 112 150 171 210 275 342
#     4  11  20  33  51  74 107 148 180 221 274 346
#     4   9  15  26  47  78 113 146 185 234 286 337
#     4   9  17  30  51  79 102 142 186 233 279 332
#     4   9  16  27  45  72 104 141 181 219 265 323
#     4  10  22  39  58  76 103 144 191 241 290 334
#
# _framework density 18.536273999999999
#
# number of rings (size 3 to 8) (size 9 to 14) (size 15 to 20)
#    0.000    2.000    4.286    0.857    0.000    2.286 
#    0.000    0.000    3.143    0.000    3.714    0.000 
#    0.000    0.000    0.000    0.857    0.000    0.000 
#
# Total GULP energy -155955.165094 kJ/mol
# GULP energy per Si atom -5569.827325 kJ/mol
# Density = 1.849409 g / cm^3
# Si number density = 18.536274 Si / 1000 Ang^3
#
#
#
# Elastic Constant Matrix: (Units=GPa)
#
#
# Indices 1 2 3 4 5 6 
#
# 1 54.6970 11.0807 8.0304 0.0000 0.0000 2.8828
# 2 11.0807 54.6970 8.0304 0.0000 0.0000 -2.8828
# 3 8.0304 8.0304 72.6075 0.0000 0.0000 0.0000
# 4 0.0000 0.0000 0.0000 17.6463 0.0000 0.0000
# 5 0.0000 0.0000 0.0000 0.0000 17.6463 0.0000
# 6 2.8828 -2.8828 0.0000 0.0000 0.0000 28.5912
#
#
#
# Elastic Compliance Matrix: (Units=1/GPa)
#
#
# Indices 1 2 3 4 5 6 
#
# 1 0.019431 -0.003806 -0.001728 0.000000 0.000000 -0.002343
# 2 -0.003806 0.019431 -0.001728 0.000000 0.000000 0.002343
# 3 -0.001728 -0.001728 0.014155 0.000000 0.000000 0.000000
# 4 0.000000 0.000000 0.000000 0.056669 0.000000 0.000000
# 5 0.000000 0.000000 0.000000 0.000000 0.056669 0.000000
# 6 -0.002343 0.002343 0.000000 0.000000 0.000000 0.035448
#
#
# Mechanical properties :
#
#
# Convention : Reuss Voigt Hill
#
# Bulk Modulus (GPa) = 25.97947 26.25382 26.11664
# Shear Modulus (GPa) = 21.81898 23.10075 22.45987
#
# Velocity S-wave (km/s) = 3.43461 3.53405 3.48468
# Velocity P-wave (km/s) = 5.45661 5.55400 5.50552
#
# Compressibility (1/GPa) = 0.03849193
#
# Stress axis : x y z
#
# Youngs Moduli (GPa) = 51.46470 51.46470 70.64679
#
# Poissons Ratio (x) = 0.19588 0.12208
# Poissons Ratio (y) = 0.19588 0.12208
# Poissons Ratio (z) = 0.08894 0.08894
#
# Static dielectric constant tensor:
#      x y z
#    x 1.685460 0.000000 0.000000 
#    y 0.000000 1.685460 0.000000 
#    z 0.000000 0.000000 1.688130 
# 
# From -- ./inp_files/3524.got.cif
#   From: 2010.05.17/outbox.cif.g08.bks.cpg/sg82_2_cif.got.tgz:3524.got - 2010.06.03 18:52:26.
