data_PCOD9542510
_publ_section_title
;
Structure prediction by ZEFSAII (Michael W. Deem and Ramdas Pophale) SiO2 
 PCOD9542510
Probable space group: P -4
;
_chemical_formula_sum "Si O2"
_cell_formula_units_Z 18
_cell_length_a 12.574038
_cell_length_b 12.574038
_cell_length_c 5.065495
_cell_angle_alpha 90.000000
_cell_angle_beta 90.000000
_cell_angle_gamma 90.000000
_cell_volume 800.887339
_symmetry_space_group_name_H-M "P -4"
_symmetry_group_IT_number 81
_symmetry_cell_setting 'tetragonal'
loop_
_space_group_symop_operation_xyz
x,y,z
y,-x,-z
-x,-y,z
-y,x,-z
loop_
_atom_site_type_symbol
_atom_site_label
_atom_site_fract_x
_atom_site_fract_y
_atom_site_fract_z
Si Si1 0.975114 0.167863 0.026073
Si Si2 0.000000 0.500000 0.611150
Si Si3 0.680678 0.681619 0.248547
Si Si4 0.081699 0.714945 0.543068
Si Si5 0.761671 0.555403 0.756090
O O1 0.927603 0.209648 0.295650
O O2 0.989248 0.252507 0.794752
O O3 0.082361 0.106555 0.091310
O O4 0.037272 0.601824 0.446891
O O5 0.111645 0.471622 0.757838
O O6 0.711340 0.799400 0.346190
O O7 0.721848 0.602493 0.476706
O O8 0.553702 0.694597 0.203755
O O9 0.733618 0.640892 0.980084
#
# Coordination Sequence:
#
# PCOD9542510 Si02
#       5
#     4   2   4   4   4
#     4  11  25  43  68 102 136 174 232 284 349 422
#     4  10  28  46  70 102 144 182 238 288 354 414
#     4  11  25  43  71 102 139 179 240 280 356 414
#     4  11  25  44  70 102 135 189 227 285 347 418
#     4  11  25  46  70 103 139 183 230 295 346 424
#
# _framework density 22.475071
#
# number of rings (size 3 to 8) (size 9 to 14) (size 15 to 20)
#    0.000    1.111    0.000    4.000    9.333   11.556 
#    0.000    0.000    0.000    0.000    0.000    0.000 
#    0.000    0.000    0.000    0.000    0.000    0.000 
#
# Total GULP energy -100631.145196 kJ/mol
# GULP energy per Si atom -5590.619178 kJ/mol
# Density = 2.242392 g / cm^3
# Si number density = 22.475071 Si / 1000 Ang^3
#
#
#
# Elastic Constant Matrix: (Units=GPa)
#
#
# Indices 1 2 3 4 5 6 
#
# 1 75.1157 57.3303 6.7924 0.0000 0.0000 4.4682
# 2 57.3303 75.1157 6.7924 0.0000 0.0000 -4.4682
# 3 6.7924 6.7924 84.5936 0.0000 0.0000 0.0000
# 4 0.0000 0.0000 0.0000 42.8468 0.0000 0.0000
# 5 0.0000 0.0000 0.0000 0.0000 42.8468 0.0000
# 6 4.4682 -4.4682 0.0000 0.0000 0.0000 33.5820
#
#
#
# Elastic Compliance Matrix: (Units=1/GPa)
#
#
# Indices 1 2 3 4 5 6 
#
# 1 0.033934 -0.026321 -0.000611 0.000000 0.000000 -0.008017
# 2 -0.026321 0.033934 -0.000611 0.000000 0.000000 0.008017
# 3 -0.000611 -0.000611 0.011919 0.000000 0.000000 0.000000
# 4 0.000000 0.000000 0.000000 0.023339 0.000000 0.000000
# 5 0.000000 0.000000 0.000000 0.000000 0.023339 0.000000
# 6 -0.008017 0.008017 0.000000 0.000000 0.000000 0.031911
#
#
# Mechanical properties :
#
#
# Convention : Reuss Voigt Hill
#
# Bulk Modulus (GPa) = 40.48557 41.85060 41.16809
# Shear Modulus (GPa) = 22.55346 34.78242 28.66794
#
# Velocity S-wave (km/s) = 3.17122 3.93822 3.57535
# Velocity P-wave (km/s) = 5.60906 6.27222 5.94989
#
# Compressibility (1/GPa) = 0.02470016
#
# Stress axis : x y z
#
# Youngs Moduli (GPa) = 29.46936 29.46936 83.89695
#
# Poissons Ratio (x) = 0.77565 0.05128
# Poissons Ratio (y) = 0.77565 0.05128
# Poissons Ratio (z) = 0.01801 0.01801
#
# Static dielectric constant tensor:
#      x y z
#    x 1.833160 0.000000 0.000000 
#    y 0.000000 1.833160 0.000000 
#    z 0.000000 0.000000 1.765160 
# 
# From -- ./inp_files/183.got.cif
#   From: 2010.05.17/outbox.cif.g08.bks.cpg/sg81_cif.got.tgz:183.got - 2010.06.03 18:51:07.
