data_PCOD9542278
_publ_section_title
;
Structure prediction by ZEFSAII (Michael W. Deem and Ramdas Pophale) SiO2 
 PCOD9542278
Probable space group: I 41
;
_chemical_formula_sum "Si O2"
_cell_formula_units_Z 52
_cell_length_a 20.782428
_cell_length_b 20.782428
_cell_length_c 5.464773
_cell_angle_alpha 90.000000
_cell_angle_beta 90.000000
_cell_angle_gamma 90.000000
_cell_volume 2360.286355
_symmetry_space_group_name_H-M "I 41"
_symmetry_group_IT_number 80
_symmetry_cell_setting 'tetragonal'
loop_
_space_group_symop_operation_xyz
x,y,z
-y,1/2+x,1/4+z
-x,-y,z
y,1/2-x,1/4+z
1/2+x,1/2+y,1/2+z
1/2-y,x,3/4+z
1/2-x,1/2-y,1/2+z
1/2+y,-x,3/4+z
loop_
_atom_site_type_symbol
_atom_site_label
_atom_site_fract_x
_atom_site_fract_y
_atom_site_fract_z
Si Si1 0.113544 0.709947 0.565680
Si Si2 0.057855 0.393993 0.278242
Si Si3 0.819992 0.378123 0.211593
Si Si4 0.242290 0.023462 0.197407
Si Si5 0.813574 0.531540 0.212712
Si Si6 0.555241 0.107918 0.403254
Si Si7 0.000000 0.500000 0.640221
O O1 0.172488 0.673380 0.431930
O O2 0.133837 0.760357 0.777091
O O3 0.069841 0.652538 0.674824
O O4 0.055538 0.742985 0.412451
O O5 0.056338 0.327126 0.421518
O O6 0.123807 0.424590 0.187030
O O7 0.028921 0.446472 0.464301
O O8 0.010495 0.383224 0.048278
O O9 0.824773 0.454948 0.251441
O O10 0.887809 0.369413 0.076253
O O11 0.271997 0.035398 0.464648
O O12 0.280867 0.051411 0.967272
O O13 0.553206 0.034592 0.309736
#
# Coordination Sequence:
#
# PCOD9542278 Si02
#       7
#     8   8   8   8   8   8   4
#     4  11  25  42  72  99 146 197 252 303 380 442
#     4  12  24  43  69 108 151 183 247 307 385 455
#     4  11  25  43  68 106 140 200 246 314 369 443
#     4  11  25  46  69 107 147 196 232 307 374 453
#     4  11  27  43  73 109 147 193 248 297 380 454
#     4  12  23  43  71 103 145 183 243 319 383 441
#     4  12  24  36  68 114 136 184 236 320 388 438
#
# _framework density 22.031224999999999
#
# number of rings (size 3 to 8) (size 9 to 14) (size 15 to 20)
#    0.000    0.615    3.077    5.077   10.769    0.000 
#    0.000    0.000    3.385    3.692    0.000    0.000 
#    0.000    0.000    0.000    0.000    0.000    0.000 
#
# Total GULP energy -145263.821585 kJ/mol
# GULP energy per Si atom -5587.070061 kJ/mol
# Density = 2.198108 g / cm^3
# Si number density = 22.031225 Si / 1000 Ang^3
#
#
#
# Elastic Constant Matrix: (Units=GPa)
#
#
# Indices 1 2 3 4 5 6 
#
# 1 111.2865 60.0847 54.1812 0.0000 0.0000 -14.4635
# 2 60.0847 111.2865 54.1812 0.0000 0.0000 14.4635
# 3 54.1812 54.1812 94.9254 0.0000 0.0000 0.0000
# 4 0.0000 0.0000 0.0000 121.9027 0.0000 0.0000
# 5 0.0000 0.0000 0.0000 0.0000 121.9027 0.0000
# 6 -14.4635 14.4635 0.0000 0.0000 0.0000 7.7890
#
#
#
# Elastic Compliance Matrix: (Units=1/GPa)
#
#
# Indices 1 2 3 4 5 6 
#
# 1 -0.194394 0.203525 -0.005212 0.000000 0.000000 -0.738899
# 2 0.203525 -0.194394 -0.005212 0.000000 0.000000 0.738899
# 3 -0.005212 -0.005212 0.016484 0.000000 0.000000 0.000000
# 4 0.000000 0.000000 0.000000 0.008203 0.000000 0.000000
# 5 0.000000 0.000000 0.000000 0.000000 0.008203 0.000000
# 6 -0.738899 0.738899 0.000000 0.000000 0.000000 -2.615752
#
#
# Mechanical properties :
#
#
# Convention : Reuss Voigt Hill
#
# Bulk Modulus (GPa) = 71.94791 72.71028 72.32909
# Shear Modulus (GPa) = -1.49110 60.25562 29.38226
#
# Velocity S-wave (km/s) = -0.82358 5.23541 3.65590
# Velocity P-wave (km/s) = 5.64126 8.34391 7.12196
#
# Compressibility (1/GPa) = 0.01389894
#
# Stress axis : x y z
#
# Youngs Moduli (GPa) = -5.14419 -5.14419 60.66525
#
# Poissons Ratio (x) = 1.04697 0.31616
# Poissons Ratio (y) = 1.04697 0.31616
# Poissons Ratio (z) = -0.02681 -0.02681
#
# Static dielectric constant tensor:
#      x y z
#    x 1.801240 0.000000 0.000000 
#    y 0.000000 1.801240 0.000000 
#    z 0.000000 0.000000 2.011570 
# 
# From -- ./inp_files/316.got.cif
#   From: 2010.05.17/outbox.cif.g08.bks.cpg/sg80_cif.got.tgz:316.got - 2010.06.03 18:49:13.
