data_PCOD9542992
_publ_section_title
;
Structure prediction by ZEFSAII (Michael W. Deem and Ramdas Pophale) SiO2 
 PCOD9542992
Probable space group: I -4 
;
_chemical_formula_sum "Si O2"
_cell_formula_units_Z 52
_cell_length_a 15.554386
_cell_length_b 15.554386
_cell_length_c 7.853043
_cell_angle_alpha 90.000000
_cell_angle_beta 90.000000
_cell_angle_gamma 90.000000
_cell_volume 1899.956772
_symmetry_space_group_name_H-M "I -4 "
_symmetry_group_IT_number 82
_symmetry_cell_setting 'tetragonal'
loop_
_space_group_symop_operation_xyz
x,y,z
y,-x,-z
-x,-y,z
-y,x,-z
1/2+x,1/2+y,1/2+z
1/2+y,1/2-x,1/2-z
1/2-x,1/2-y,1/2+z
1/2-y,1/2+x,1/2-z
loop_
_atom_site_type_symbol
_atom_site_label
_atom_site_fract_x
_atom_site_fract_y
_atom_site_fract_z
Si Si1 0.136116 0.249301 0.277551
Si Si2 0.253952 0.456411 0.051773
Si Si3 0.192112 0.507595 0.699288
Si Si4 0.000000 0.500000 0.750000
Si Si5 0.139014 0.898246 0.300083
Si Si6 0.003033 0.376522 0.198464
Si Si7 0.500000 0.500000 0.000000
Si Si8 0.860742 0.226427 0.010531
O O1 0.176026 0.117088 0.564019
O O2 0.055093 0.217462 0.397266
O O3 0.209007 0.294230 0.395012
O O4 0.182672 0.182651 0.154250
O O5 0.188709 0.442340 0.202301
O O6 0.350993 0.395211 0.370540
O O7 0.205056 0.457169 0.876257
O O8 0.264373 0.579625 0.738631
O O9 0.186695 0.581501 0.351494
O O10 0.218911 0.441843 0.553278
O O11 0.092081 0.526270 0.667728
O O12 0.079561 0.975747 0.372729
O O13 0.931946 0.447890 0.146668
#
# Coordination Sequence:
#
# PCOD9542992 Si02
#       8
#     8   8   8   2   8   8   2   8
#     4  10  27  49  77 120 168 234 294 390 449 558
#     4  10  25  50  81 123 170 229 301 372 474 539
#     4  12  30  57  87 126 184 246 306 401 473 579
#     4  12  32  64  84 130 180 240 320 394 484 552
#     4  12  29  53  87 135 179 248 308 383 482 573
#     4   9  20  41  71 109 157 216 284 360 447 534
#     4  12  28  56 102 120 212 250 300 404 484 590
#     4  12  30  51  84 125 179 236 322 375 473 570
#
# _framework density 27.369043999999999
#
# number of rings (size 3 to 8) (size 9 to 14) (size 15 to 20)
#    0.923    0.154    1.538    1.846   10.769    2.462 
#    2.769    0.000    0.000    0.000    0.000    0.000 
#    0.000    0.000    0.000    0.000    0.000    0.000 
#
# Total GULP energy -144862.128001 kJ/mol
# GULP energy per Si atom -5571.620308 kJ/mol
# Density = 2.730675 g / cm^3
# Si number density = 27.369044 Si / 1000 Ang^3
#
#
#
# Elastic Constant Matrix: (Units=GPa)
#
#
# Indices 1 2 3 4 5 6 
#
# 1 145.6927 71.4167 33.2842 0.0000 0.0000 -0.4759
# 2 71.4167 145.6927 33.2842 0.0000 0.0000 0.4759
# 3 33.2842 33.2842 120.0344 0.0000 0.0000 0.0000
# 4 0.0000 0.0000 0.0000 46.0720 0.0000 0.0000
# 5 0.0000 0.0000 0.0000 0.0000 46.0720 0.0000
# 6 -0.4759 0.4759 0.0000 0.0000 0.0000 62.2789
#
#
#
# Elastic Compliance Matrix: (Units=1/GPa)
#
#
# Indices 1 2 3 4 5 6 
#
# 1 0.009249 -0.004215 -0.001396 0.000000 0.000000 0.000103
# 2 -0.004215 0.009249 -0.001396 0.000000 0.000000 -0.000103
# 3 -0.001396 -0.001396 0.009105 0.000000 0.000000 0.000000
# 4 0.000000 0.000000 0.000000 0.021705 0.000000 0.000000
# 5 0.000000 0.000000 0.000000 0.000000 0.021705 0.000000
# 6 0.000103 -0.000103 0.000000 0.000000 0.000000 0.016058
#
#
# Mechanical properties :
#
#
# Convention : Reuss Voigt Hill
#
# Bulk Modulus (GPa) = 73.58606 76.37670 74.98138
# Shear Modulus (GPa) = 47.34118 49.11355 48.22737
#
# Velocity S-wave (km/s) = 4.16352 4.24074 4.20231
# Velocity P-wave (km/s) = 7.07518 7.20731 7.14155
#
# Compressibility (1/GPa) = 0.01358953
#
# Stress axis : x y z
#
# Youngs Moduli (GPa) = 108.11645 108.11645 109.82903
#
# Poissons Ratio (x) = 0.45575 0.15331
# Poissons Ratio (y) = 0.45575 0.15331
# Poissons Ratio (z) = 0.15092 0.15092
#
# Static dielectric constant tensor:
#      x y z
#    x 2.186460 0.000000 0.000000 
#    y 0.000000 2.186460 0.000000 
#    z 0.000000 0.000000 2.306740 
# 
# From -- ./inp_files/1145.got.cif
#   From: 2010.05.17/outbox.cif.g08.bks.cpg/sg82_1_cif.got.tgz:1145.got - 2010.06.03 18:52:26.
