data_PCOD9542722
_publ_section_title
;
Structure prediction by ZEFSAII (Michael W. Deem and Ramdas Pophale) SiO2 
 PCOD9542722
Probable space group: I -4 
;
_chemical_formula_sum "Si O2"
_cell_formula_units_Z 36
_cell_length_a 12.720299
_cell_length_b 12.720299
_cell_length_c 11.937134
_cell_angle_alpha 90.000000
_cell_angle_beta 90.000000
_cell_angle_gamma 90.000000
_cell_volume 1931.499983
_symmetry_space_group_name_H-M "I -4 "
_symmetry_group_IT_number 82
_symmetry_cell_setting 'tetragonal'
loop_
_space_group_symop_operation_xyz
x,y,z
y,-x,-z
-x,-y,z
-y,x,-z
1/2+x,1/2+y,1/2+z
1/2+y,1/2-x,1/2-z
1/2-x,1/2-y,1/2+z
1/2-y,1/2+x,1/2-z
loop_
_atom_site_type_symbol
_atom_site_label
_atom_site_fract_x
_atom_site_fract_y
_atom_site_fract_z
Si Si1 0.208113 0.050846 0.108350
Si Si2 0.079222 0.348732 0.235344
Si Si3 0.000000 0.000000 0.000000
Si Si4 0.500000 0.500000 0.000000
Si Si5 0.225730 0.657717 0.500553
Si Si6 0.862391 0.157852 0.650867
O O1 0.202320 0.157352 0.033221
O O2 0.206570 0.083227 0.237776
O O3 0.096574 0.998356 0.082301
O O4 0.279689 0.954781 0.065913
O O5 0.128947 0.455679 0.284137
O O6 0.135743 0.328270 0.117815
O O7 0.098796 0.244176 0.308215
O O8 0.579442 0.563588 0.918902
O O9 0.170412 0.746355 0.572195
#
# Coordination Sequence:
#
# PCOD9542722 Si02
#       6
#     8   8   2   2   8   8
#     4   9  19  34  57  83 111 148 191 234 283 345
#     4  10  21  39  61  84 115 158 204 244 289 348
#     4   8  14  32  56  78 104 140 186 228 268 330
#     4  12  26  40  56  86 116 148 194 244 304 362
#     4  10  20  37  59  86 116 153 196 241 292 348
#     4  11  23  37  59  87 119 153 189 243 299 353
#
# _framework density 18.638365
#
# number of rings (size 3 to 8) (size 9 to 14) (size 15 to 20)
#    0.000    2.000    0.000    3.333    0.000    8.889 
#    0.000    4.444    0.000    0.000    0.000    0.000 
#    0.000    0.000    0.000    0.000    0.000    0.000 
#
# Total GULP energy -100272.068694 kJ/mol
# GULP energy per Si atom -5570.670483 kJ/mol
# Density = 1.859594 g / cm^3
# Si number density = 18.638365 Si / 1000 Ang^3
#
#
#
# Elastic Constant Matrix: (Units=GPa)
#
#
# Indices 1 2 3 4 5 6 
#
# 1 76.6891 40.9213 63.2367 0.0000 0.0000 4.3744
# 2 40.9213 76.6891 63.2367 0.0000 0.0000 -4.3744
# 3 63.2367 63.2367 134.4179 0.0000 0.0000 0.0000
# 4 0.0000 0.0000 0.0000 23.1722 0.0000 0.0000
# 5 0.0000 0.0000 0.0000 0.0000 23.1722 0.0000
# 6 4.3744 -4.3744 0.0000 0.0000 0.0000 31.9425
#
#
#
# Elastic Compliance Matrix: (Units=1/GPa)
#
#
# Indices 1 2 3 4 5 6 
#
# 1 0.023068 -0.005859 -0.008096 0.000000 0.000000 -0.003961
# 2 -0.005859 0.023068 -0.008096 0.000000 0.000000 0.003961
# 3 -0.008096 -0.008096 0.015057 0.000000 0.000000 0.000000
# 4 0.000000 0.000000 0.000000 0.043155 0.000000 0.000000
# 5 0.000000 0.000000 0.000000 0.000000 0.043155 0.000000
# 6 -0.003961 0.003961 0.000000 0.000000 0.000000 0.032391
#
#
# Mechanical properties :
#
#
# Convention : Reuss Voigt Hill
#
# Bulk Modulus (GPa) = 58.51097 69.17617 63.84357
# Shear Modulus (GPa) = 21.76827 23.68414 22.72621
#
# Velocity S-wave (km/s) = 3.42120 3.56858 3.49567
# Velocity P-wave (km/s) = 6.86055 7.36038 7.11485
#
# Compressibility (1/GPa) = 0.01709081
#
# Stress axis : x y z
#
# Youngs Moduli (GPa) = 43.35056 43.35056 66.41563
#
# Poissons Ratio (x) = 0.25401 0.53768
# Poissons Ratio (y) = 0.25401 0.53768
# Poissons Ratio (z) = 0.35095 0.35095
#
# Static dielectric constant tensor:
#      x y z
#    x 1.678060 0.000000 0.000000 
#    y 0.000000 1.678060 0.000000 
#    z 0.000000 0.000000 1.663500 
# 
# From -- ./inp_files/895.got.cif
#   From: 2010.05.17/outbox.cif.g08.bks.cpg/sg82_1_cif.got.tgz:895.got - 2010.06.03 18:52:26.
