data_PCOD9542806
_publ_section_title
;
Structure prediction by ZEFSAII (Michael W. Deem and Ramdas Pophale) SiO2 
 PCOD9542806
Probable space group: I -4 
;
_chemical_formula_sum "Si O2"
_cell_formula_units_Z 48
_cell_length_a 10.421953
_cell_length_b 10.421953
_cell_length_c 18.431715
_cell_angle_alpha 90.000000
_cell_angle_beta 90.000000
_cell_angle_gamma 90.000000
_cell_volume 2001.999511
_symmetry_space_group_name_H-M "I -4 "
_symmetry_group_IT_number 82
_symmetry_cell_setting 'tetragonal'
loop_
_space_group_symop_operation_xyz
x,y,z
y,-x,-z
-x,-y,z
-y,x,-z
1/2+x,1/2+y,1/2+z
1/2+y,1/2-x,1/2-z
1/2-x,1/2-y,1/2+z
1/2-y,1/2+x,1/2-z
loop_
_atom_site_type_symbol
_atom_site_label
_atom_site_fract_x
_atom_site_fract_y
_atom_site_fract_z
Si Si1 0.141559 0.766884 0.070089
Si Si2 0.000000 0.000000 0.207928
Si Si3 0.339463 0.860239 0.351961
Si Si4 0.000000 0.500000 0.250000
Si Si5 0.734776 0.092675 0.195084
Si Si6 0.776166 0.410556 0.353312
Si Si7 0.000000 0.000000 0.000000
Si Si8 0.684043 0.420308 0.978093
O O1 0.217018 0.789462 0.145852
O O2 0.099840 0.907896 0.041641
O O3 0.006831 0.693529 0.081765
O O4 0.225767 0.680802 0.018538
O O5 0.138028 0.961177 0.237378
O O6 0.960079 0.866562 0.169221
O O7 0.347411 0.873579 0.264654
O O8 0.489980 0.826283 0.361377
O O9 0.250683 0.736452 0.367023
O O10 0.265788 0.958313 0.405257
O O11 0.887203 0.433351 0.295727
O O12 0.545257 0.349861 0.973023
#
# Coordination Sequence:
#
# PCOD9542806 Si02
#       8
#     8   4   8   2   8   8   2   8
#     4  11  22  44  73 101 140 191 245 303 383 455
#     4   8  17  38  58  91 131 185 220 270 369 444
#     4  11  24  45  69 104 144 188 249 310 386 465
#     4  12  24  36  60 112 140 160 232 314 372 420
#     4  10  22  40  70 103 137 183 239 311 378 448
#     4  10  21  38  65  97 138 178 232 299 368 452
#     4  12  22  44  76 108 140 182 250 304 370 492
#     4  11  28  50  70 102 151 211 262 315 389 469
#
# _framework density 23.976026999999998
#
# number of rings (size 3 to 8) (size 9 to 14) (size 15 to 20)
#    0.000    1.500    0.000    7.000    4.667    1.667 
#    6.000    3.333    0.000    0.000    0.000    0.000 
#    0.000    0.000    0.000    0.000    0.000    0.000 
#
# Total GULP energy -133655.995531 kJ/mol
# GULP energy per Si atom -5568.999814 kJ/mol
# Density = 2.392146 g / cm^3
# Si number density = 23.976027 Si / 1000 Ang^3
#
#
#
# Elastic Constant Matrix: (Units=GPa)
#
#
# Indices 1 2 3 4 5 6 
#
# 1 78.4980 12.6496 14.4363 0.0000 0.0000 -0.1123
# 2 12.6496 78.4980 14.4363 0.0000 0.0000 0.1123
# 3 14.4363 14.4363 83.0365 0.0000 0.0000 0.0000
# 4 0.0000 0.0000 0.0000 226.6793 0.0000 0.0000
# 5 0.0000 0.0000 0.0000 0.0000 226.6793 0.0000
# 6 -0.1123 0.1123 0.0000 0.0000 0.0000 31.3958
#
#
#
# Elastic Compliance Matrix: (Units=1/GPa)
#
#
# Indices 1 2 3 4 5 6 
#
# 1 0.013399 -0.001788 -0.002019 0.000000 0.000000 0.000054
# 2 -0.001788 0.013399 -0.002019 0.000000 0.000000 -0.000054
# 3 -0.002019 -0.002019 0.012745 0.000000 0.000000 0.000000
# 4 0.000000 0.000000 0.000000 0.004412 0.000000 0.000000
# 5 0.000000 0.000000 0.000000 0.000000 0.004412 0.000000
# 6 0.000054 -0.000054 0.000000 0.000000 0.000000 0.031852
#
#
# Mechanical properties :
#
#
# Convention : Reuss Voigt Hill
#
# Bulk Modulus (GPa) = 35.85285 35.89742 35.87514
# Shear Modulus (GPa) = 49.42456 110.18488 79.80472
#
# Velocity S-wave (km/s) = 4.54521 6.78646 5.77559
# Velocity P-wave (km/s) = 6.52160 8.74144 7.71181
#
# Compressibility (1/GPa) = 0.02789178
#
# Stress axis : x y z
#
# Youngs Moduli (GPa) = 74.63461 74.63461 78.46352
#
# Poissons Ratio (x) = 0.13344 0.15838
# Poissons Ratio (y) = 0.13344 0.15838
# Poissons Ratio (z) = 0.15066 0.15066
#
# Static dielectric constant tensor:
#      x y z
#    x 1.011800 0.000000 0.000000 
#    y 0.000000 1.011800 0.000000 
#    z 0.000000 0.000000 2.001430 
# 
# From -- ./inp_files/2691.got.cif
#   From: 2010.05.17/outbox.cif.g08.bks.cpg/sg82_2_cif.got.tgz:2691.got - 2010.06.03 18:52:26.
