data_PCOD9542725
_publ_section_title
;
Structure prediction by ZEFSAII (Michael W. Deem and Ramdas Pophale) SiO2 
 PCOD9542725
Probable space group: I -4 
;
_chemical_formula_sum "Si O2"
_cell_formula_units_Z 48
_cell_length_a 12.042411
_cell_length_b 12.042411
_cell_length_c 16.779000
_cell_angle_alpha 90.000000
_cell_angle_beta 90.000000
_cell_angle_gamma 90.000000
_cell_volume 2433.284920
_symmetry_space_group_name_H-M "I -4 "
_symmetry_group_IT_number 82
_symmetry_cell_setting 'tetragonal'
loop_
_space_group_symop_operation_xyz
x,y,z
y,-x,-z
-x,-y,z
-y,x,-z
1/2+x,1/2+y,1/2+z
1/2+y,1/2-x,1/2-z
1/2-x,1/2-y,1/2+z
1/2-y,1/2+x,1/2-z
loop_
_atom_site_type_symbol
_atom_site_label
_atom_site_fract_x
_atom_site_fract_y
_atom_site_fract_z
Si Si1 0.325071 0.673971 0.525131
Si Si2 0.172415 0.215707 0.233361
Si Si3 0.860163 0.395360 0.411412
Si Si4 0.105364 0.344901 0.387973
Si Si5 0.369091 0.911392 0.221280
Si Si6 0.823115 0.983281 0.127204
O O1 0.214765 0.617191 0.489647
O O2 0.299469 0.795972 0.557099
O O3 0.376686 0.598218 0.596071
O O4 0.408221 0.678856 0.451258
O O5 0.169185 0.298408 0.159027
O O6 0.109444 0.275390 0.305953
O O7 0.299403 0.195572 0.259470
O O8 0.131733 0.095824 0.198236
O O9 0.867359 0.523110 0.381559
O O10 0.982245 0.346271 0.423317
O O11 0.497285 0.877840 0.207363
O O12 0.298794 0.977716 0.156163
#
# Coordination Sequence:
#
# PCOD9542725 Si02
#       6
#     8   8   8   8   8   8
#     4  11  21  41  60  94 132 160 210 268 324 382
#     4  10  20  37  62  89 125 156 209 261 314 371
#     4  10  23  40  61  93 117 172 216 260 317 372
#     4  11  21  41  64  86 125 167 217 264 308 388
#     4   9  18  36  59  91 122 161 208 258 309 373
#     4  10  21  38  59  92 128 164 200 257 323 377
#
# _framework density 19.726420999999998
#
# number of rings (size 3 to 8) (size 9 to 14) (size 15 to 20)
#    0.000    1.833    3.333    1.000    0.000    1.667 
#   15.000    0.000    0.000    4.500    0.000    0.000 
#    0.000    0.000    0.000    0.000    0.000    0.000 
#
# Total GULP energy -133680.256550 kJ/mol
# GULP energy per Si atom -5570.010690 kJ/mol
# Density = 1.968152 g / cm^3
# Si number density = 19.726421 Si / 1000 Ang^3
#
#
#
# Elastic Constant Matrix: (Units=GPa)
#
#
# Indices 1 2 3 4 5 6 
#
# 1 92.1500 38.6072 30.8557 0.0000 0.0000 -0.7508
# 2 38.6072 92.1500 30.8557 0.0000 0.0000 0.7508
# 3 30.8557 30.8557 52.7917 0.0000 0.0000 0.0000
# 4 0.0000 0.0000 0.0000 28.7339 0.0000 0.0000
# 5 0.0000 0.0000 0.0000 0.0000 28.7339 0.0000
# 6 -0.7508 0.7508 0.0000 0.0000 0.0000 26.5886
#
#
#
# Elastic Compliance Matrix: (Units=1/GPa)
#
#
# Indices 1 2 3 4 5 6 
#
# 1 0.014626 -0.004065 -0.006173 0.000000 0.000000 0.000528
# 2 -0.004065 0.014626 -0.006173 0.000000 0.000000 -0.000528
# 3 -0.006173 -0.006173 0.026158 0.000000 0.000000 0.000000
# 4 0.000000 0.000000 0.000000 0.034802 0.000000 0.000000
# 5 0.000000 0.000000 0.000000 0.000000 0.034802 0.000000
# 6 0.000528 -0.000528 0.000000 0.000000 0.000000 0.037640
#
#
# Mechanical properties :
#
#
# Convention : Reuss Voigt Hill
#
# Bulk Modulus (GPa) = 44.26887 48.63653 46.45270
# Shear Modulus (GPa) = 24.62988 25.92949 25.27968
#
# Velocity S-wave (km/s) = 3.53735 3.62947 3.58371
# Velocity P-wave (km/s) = 6.25891 6.50178 6.38150
#
# Compressibility (1/GPa) = 0.02258924
#
# Stress axis : x y z
#
# Youngs Moduli (GPa) = 68.37046 68.37046 38.22921
#
# Poissons Ratio (x) = 0.27794 0.23598
# Poissons Ratio (y) = 0.27794 0.23598
# Poissons Ratio (z) = 0.42203 0.42203
#
# Static dielectric constant tensor:
#      x y z
#    x 1.741370 0.000000 0.000000 
#    y 0.000000 1.741370 0.000000 
#    z 0.000000 0.000000 1.710820 
# 
# From -- ./inp_files/2624.got.cif
#   From: 2010.05.17/outbox.cif.g08.bks.cpg/sg82_2_cif.got.tgz:2624.got - 2010.06.03 18:52:26.
