data_PCOD9542026
_publ_section_title
;
Structure prediction by ZEFSAII (Michael W. Deem and Ramdas Pophale) SiO2 
 PCOD9542026
Probable space group: I 4
;
_chemical_formula_sum "Si O2"
_cell_formula_units_Z 50
_cell_length_a 9.099409
_cell_length_b 9.099409
_cell_length_c 28.192541
_cell_angle_alpha 90.000000
_cell_angle_beta 90.000000
_cell_angle_gamma 90.000000
_cell_volume 2334.321085
_symmetry_space_group_name_H-M "I 4"
_symmetry_group_IT_number 79
_symmetry_cell_setting 'tetragonal'
loop_
_space_group_symop_operation_xyz
x,y,z
-y,x,z
-x,-y,z
y,-x,z
1/2+x,1/2+y,1/2+z
1/2-y,1/2+x,1/2+z
1/2-x,1/2-y,1/2+z
1/2+y,1/2-x,1/2+z
loop_
_atom_site_type_symbol
_atom_site_label
_atom_site_fract_x
_atom_site_fract_y
_atom_site_fract_z
Si Si1 0.500000 0.500000 0.934841
Si Si2 0.200387 0.134717 0.845018
Si Si3 0.160193 0.525383 0.514667
Si Si4 0.880474 0.783438 0.266448
Si Si5 0.282771 0.597315 0.613877
Si Si6 0.724252 0.606038 0.184220
Si Si7 0.244915 0.730896 0.948426
O O1 0.344729 0.592384 0.936689
O O2 0.327640 0.217942 0.816606
O O3 0.219627 0.162264 0.900814
O O4 0.038229 0.197028 0.832629
O O5 0.260926 0.581993 0.557533
O O6 0.157232 0.641798 0.472057
O O7 0.203444 0.375763 0.488925
O O8 0.000000 0.500000 0.536348
O O9 0.818449 0.670838 0.227582
O O10 0.054797 0.807695 0.261813
O O11 0.313004 0.429071 0.628682
O O12 0.149006 0.681922 0.637908
O O13 0.566396 0.688179 0.185601
#
# Coordination Sequence:
#
# PCOD9542026 Si02
#       7
#     2   8   8   8   8   8   8
#     4  12  28  44  64 100 136 192 236 300 356 432
#     4  11  25  43  70 104 141 186 239 292 350 426
#     4  12  25  43  70 102 139 192 239 301 361 419
#     4  11  26  46  73 105 143 183 234 294 358 426
#     4  11  25  42  69 103 135 178 239 294 348 421
#     4  11  26  48  72 103 144 186 231 292 362 435
#     4  12  25  45  69  99 144 192 245 298 355 426
#
# _framework density 21.419505999999998
#
# number of rings (size 3 to 8) (size 9 to 14) (size 15 to 20)
#    0.000    0.640    4.800    1.920    4.480    6.720 
#    0.000    0.000    0.000    0.000    0.000    0.000 
#    0.000    0.000    0.000    0.000    0.000    0.000 
#
# Total GULP energy -139478.375147 kJ/mol
# GULP energy per Si atom -5579.135006 kJ/mol
# Density = 2.137075 g / cm^3
# Si number density = 21.419506 Si / 1000 Ang^3
#
#
#
# Elastic Constant Matrix: (Units=GPa)
#
#
# Indices 1 2 3 4 5 6 
#
# 1 57.8863 15.9187 8.9222 0.0000 0.0000 3.4179
# 2 15.9187 57.8863 8.9222 0.0000 0.0000 -3.4179
# 3 8.9222 8.9222 66.2624 0.0000 0.0000 0.0000
# 4 0.0000 0.0000 0.0000 -230.1090 0.0002 0.0000
# 5 0.0000 0.0000 0.0000 0.0002 -230.1091 0.0000
# 6 3.4179 -3.4179 0.0000 0.0000 0.0000 33.4905
#
#
#
# Elastic Compliance Matrix: (Units=1/GPa)
#
#
# Indices 1 2 3 4 5 6 
#
# 1 0.019118 -0.005113 -0.001886 0.000000 0.000000 -0.002473
# 2 -0.005113 0.019118 -0.001886 0.000000 0.000000 0.002473
# 3 -0.001886 -0.001886 0.015599 0.000000 0.000000 0.000000
# 4 0.000000 0.000000 0.000000 -0.004346 0.000000 0.000000
# 5 0.000000 0.000000 0.000000 0.000000 -0.004346 0.000000
# 6 -0.002473 0.002473 0.000000 0.000000 0.000000 0.030364
#
#
# Mechanical properties :
#
#
# Convention : Reuss Voigt Hill
#
# Bulk Modulus (GPa) = 27.72652 27.72900 27.72776
# Shear Modulus (GPa) = 47.48412 -75.46071 -13.98829
#
# Velocity S-wave (km/s) = 4.71347 -5.94192 -2.55828
# Velocity P-wave (km/s) = 6.52648 5.83964 2.06077
#
# Compressibility (1/GPa) = 0.03606655
#
# Stress axis : x y z
#
# Youngs Moduli (GPa) = 52.30699 52.30699 64.10519
#
# Poissons Ratio (x) = 0.26743 0.12089
# Poissons Ratio (y) = 0.26743 0.12089
# Poissons Ratio (z) = 0.09864 0.09864
#
# Static dielectric constant tensor:
#      x y z
#    x 1.785480 0.000000 0.000000 
#    y 0.000000 1.785480 0.000000 
#    z 0.000000 0.000000 1.779550 
# 
# From -- ./inp_files/2140.got.cif
#   From: 2010.05.17/outbox.cif.g08.bks.cpg/sg79_cif.got.tgz:2140.got - 2010.06.03 18:47:27.
