data_PCOD9542522
_publ_section_title
;
Structure prediction by ZEFSAII (Michael W. Deem and Ramdas Pophale) SiO2 
 PCOD9542522
Probable space group: P -4
;
_chemical_formula_sum "Si O2"
_cell_formula_units_Z 23
_cell_length_a 8.634767
_cell_length_b 8.634767
_cell_length_c 14.556063
_cell_angle_alpha 90.000000
_cell_angle_beta 90.000000
_cell_angle_gamma 90.000000
_cell_volume 1085.288429
_symmetry_space_group_name_H-M "P -4"
_symmetry_group_IT_number 81
_symmetry_cell_setting 'tetragonal'
loop_
_space_group_symop_operation_xyz
x,y,z
y,-x,-z
-x,-y,z
-y,x,-z
loop_
_atom_site_type_symbol
_atom_site_label
_atom_site_fract_x
_atom_site_fract_y
_atom_site_fract_z
Si Si1 0.244986 0.919789 0.975968
Si Si2 0.549633 0.158643 0.599584
Si Si3 0.747395 0.048183 0.260219
Si Si4 0.758365 0.047811 0.762453
Si Si5 0.000000 0.500000 0.895936
Si Si6 0.259500 0.780660 0.428560
Si Si7 0.000000 0.000000 0.500000
O O1 0.272119 0.906374 0.867516
O O2 0.097343 0.812897 0.003201
O O3 0.403817 0.891233 0.032187
O O4 0.625121 0.102581 0.694064
O O5 0.665149 0.236421 0.528306
O O6 0.391270 0.249732 0.611568
O O7 0.500000 0.000000 0.549353
O O8 0.638947 0.988330 0.178542
O O9 0.663371 0.110779 0.351201
O O10 0.867934 0.187096 0.234486
O O11 0.857836 0.903713 0.277323
O O12 0.093591 0.866662 0.444970
#
# Coordination Sequence:
#
# PCOD9542522 Si02
#       7
#     4   4   4   4   2   4   1
#     4  11  21  44  69  98 133 168 220 295 342 398
#     4  12  26  42  67 102 134 191 222 286 345 406
#     4  11  22  39  68 102 128 170 227 290 328 402
#     4  11  22  43  69  99 135 166 234 291 338 398
#     4  12  24  36  68 104 128 172 218 274 360 396
#     4  12  25  43  66  98 143 176 236 278 345 405
#     4  12  20  40  72 100 120 174 240 304 308 384
#
# _framework density 21.192523999999999
#
# number of rings (size 3 to 8) (size 9 to 14) (size 15 to 20)
#    0.000    0.522    6.957    3.130    2.435    0.348 
#    0.000    0.000    0.000    2.609    0.000    0.000 
#    0.000    0.000    0.000    0.000    0.000    0.000 
#
# Total GULP energy -128072.883396 kJ/mol
# GULP energy per Si atom -5568.386235 kJ/mol
# Density = 2.114429 g / cm^3
# Si number density = 21.192524 Si / 1000 Ang^3
#
#
#
# Elastic Constant Matrix: (Units=GPa)
#
#
# Indices 1 2 3 4 5 6 
#
# 1 86.7665 26.5760 50.2320 0.0000 0.0000 4.2930
# 2 26.5760 86.7665 50.2320 0.0000 0.0000 -4.2930
# 3 50.2320 50.2320 144.6068 0.0000 0.0000 0.0000
# 4 0.0000 0.0000 0.0000 26.9448 0.0000 0.0000
# 5 0.0000 0.0000 0.0000 0.0000 26.9448 0.0000
# 6 4.2930 -4.2930 0.0000 0.0000 0.0000 9.4424
#
#
#
# Elastic Compliance Matrix: (Units=1/GPa)
#
#
# Indices 1 2 3 4 5 6 
#
# 1 0.015257 -0.002509 -0.004428 0.000000 0.000000 -0.008077
# 2 -0.002509 0.015257 -0.004428 0.000000 0.000000 0.008077
# 3 -0.004428 -0.004428 0.009992 0.000000 0.000000 0.000000
# 4 0.000000 0.000000 0.000000 0.037113 0.000000 0.000000
# 5 0.000000 0.000000 0.000000 0.000000 0.037113 0.000000
# 6 -0.008077 0.008077 0.000000 0.000000 0.000000 0.113250
#
#
# Mechanical properties :
#
#
# Convention : Reuss Voigt Hill
#
# Bulk Modulus (GPa) = 56.25994 63.57997 59.91996
# Shear Modulus (GPa) = 19.48269 25.40636 22.44452
#
# Velocity S-wave (km/s) = 3.03532 3.46618 3.25788
# Velocity P-wave (km/s) = 6.23610 6.78863 6.51822
#
# Compressibility (1/GPa) = 0.01777464
#
# Stress axis : x y z
#
# Youngs Moduli (GPa) = 65.54364 65.54364 100.08234
#
# Poissons Ratio (x) = 0.16446 0.44319
# Poissons Ratio (y) = 0.16446 0.44319
# Poissons Ratio (z) = 0.29024 0.29024
#
# Static dielectric constant tensor:
#      x y z
#    x 1.823820 0.000000 0.000000 
#    y 0.000000 1.823820 0.000000 
#    z 0.000000 0.000000 1.833960 
# 
# From -- ./inp_files/1648.got.cif
#   From: 2010.05.17/outbox.cif.g08.bks.cpg/sg81_cif.got.tgz:1648.got - 2010.06.03 18:51:07.
