data_PCOD9542182
_publ_section_title
;
Structure prediction by ZEFSAII (Michael W. Deem and Ramdas Pophale) SiO2 
 PCOD9542182
Probable space group: I 41
;
_chemical_formula_sum "Si O2"
_cell_formula_units_Z 48
_cell_length_a 8.646368
_cell_length_b 8.646368
_cell_length_c 26.137244
_cell_angle_alpha 90.000000
_cell_angle_beta 90.000000
_cell_angle_gamma 90.000000
_cell_volume 1954.011987
_symmetry_space_group_name_H-M "I 41"
_symmetry_group_IT_number 80
_symmetry_cell_setting 'tetragonal'
loop_
_space_group_symop_operation_xyz
x,y,z
-y,1/2+x,1/4+z
-x,-y,z
y,1/2-x,1/4+z
1/2+x,1/2+y,1/2+z
1/2-y,x,3/4+z
1/2-x,1/2-y,1/2+z
1/2+y,-x,3/4+z
loop_
_atom_site_type_symbol
_atom_site_label
_atom_site_fract_x
_atom_site_fract_y
_atom_site_fract_z
Si Si1 0.204588 0.890247 0.770030
Si Si2 0.182697 0.874582 0.438238
Si Si3 0.158189 0.067901 0.923775
Si Si4 0.213767 0.400384 0.068291
Si Si5 0.379793 0.858992 0.860062
Si Si6 0.614887 0.715525 0.983064
O O1 0.172804 0.849601 0.711359
O O2 0.361466 0.850849 0.799145
O O3 0.077548 0.789412 0.801303
O O4 0.168029 0.066220 0.786362
O O5 0.121856 0.813481 0.383629
O O6 0.065706 0.771099 0.472889
O O7 0.160446 0.055482 0.452224
O O8 0.120749 0.188977 0.877927
O O9 0.279732 0.147953 0.961219
O O10 0.235001 0.930714 0.891055
O O11 0.000000 0.000000 0.946703
O O12 0.356116 0.315423 0.042584
O O13 0.500000 0.000000 0.870024
#
# Coordination Sequence:
#
# PCOD9542182 Si02
#       6
#     8   8   8   8   8   8
#     4   9  19  37  60  83 116 159 202 257 309 368
#     4  10  22  40  59  88 126 162 209 259 320 389
#     4  11  21  40  62  90 124 163 208 263 319 377
#     4   9  18  37  60  85 116 152 210 258 301 375
#     4  11  21  40  60  88 129 161 201 262 322 378
#     4  10  22  39  62  88 121 167 207 261 320 383
#
# _framework density 24.564844999999998
#
# number of rings (size 3 to 8) (size 9 to 14) (size 15 to 20)
#    0.000    2.000    5.000    0.000    2.333    1.333 
#    6.000    0.000    3.667    0.000    0.000    0.000 
#    0.000    0.000    0.000    0.000    0.000    0.000 
#
# Total GULP energy -133748.402883 kJ/mol
# GULP energy per Si atom -5572.850120 kJ/mol
# Density = 2.450893 g / cm^3
# Si number density = 24.564845 Si / 1000 Ang^3
#
#
#
# Elastic Constant Matrix: (Units=GPa)
#
#
# Indices 1 2 3 4 5 6 
#
# 1 50.9103 4.0109 8.6770 0.0000 0.0000 -1.8602
# 2 4.0109 50.9103 8.6770 0.0000 0.0000 1.8602
# 3 8.6770 8.6770 48.4874 0.0000 0.0000 0.0000
# 4 0.0000 0.0000 0.0000 32.4016 0.0000 0.0000
# 5 0.0000 0.0000 0.0000 0.0000 32.4016 0.0000
# 6 -1.8602 1.8602 0.0000 0.0000 0.0000 33.2773
#
#
#
# Elastic Compliance Matrix: (Units=1/GPa)
#
#
# Indices 1 2 3 4 5 6 
#
# 1 0.020358 -0.001059 -0.003454 0.000000 0.000000 0.001197
# 2 -0.001059 0.020358 -0.003454 0.000000 0.000000 -0.001197
# 3 -0.003454 -0.003454 0.021860 0.000000 0.000000 0.000000
# 4 0.000000 0.000000 0.000000 0.030863 0.000000 0.000000
# 5 0.000000 0.000000 0.000000 0.000000 0.030863 0.000000
# 6 0.001197 -0.001197 0.000000 0.000000 0.000000 0.030184
#
#
# Mechanical properties :
#
#
# Convention : Reuss Voigt Hill
#
# Bulk Modulus (GPa) = 21.43912 21.44866 21.44389
# Shear Modulus (GPa) = 26.88653 28.21230 27.54942
#
# Velocity S-wave (km/s) = 3.31193 3.39260 3.35251
# Velocity P-wave (km/s) = 4.83443 4.90884 4.87178
#
# Compressibility (1/GPa) = 0.04664370
#
# Stress axis : x y z
#
# Youngs Moduli (GPa) = 49.12029 49.12030 45.74564
#
# Poissons Ratio (x) = 0.05202 0.15799
# Poissons Ratio (y) = 0.05202 0.15799
# Poissons Ratio (z) = 0.16964 0.16964
#
# Static dielectric constant tensor:
#      x y z
#    x 2.022240 0.000000 0.000000 
#    y 0.000000 2.022240 0.000000 
#    z 0.000000 0.000000 2.005700 
# 
# From -- ./inp_files/2611.got.cif
#   From: 2010.05.17/outbox.cif.g08.bks.cpg/sg80_cif.got.tgz:2611.got - 2010.06.03 18:49:13.
