data_PCOD9542541
_publ_section_title
;
Structure prediction by ZEFSAII (Michael W. Deem and Ramdas Pophale) SiO2 
 PCOD9542541
Probable space group: P -4
;
_chemical_formula_sum "Si O2"
_cell_formula_units_Z 22
_cell_length_a 7.926096
_cell_length_b 7.926096
_cell_length_c 15.667145
_cell_angle_alpha 90.000000
_cell_angle_beta 90.000000
_cell_angle_gamma 90.000000
_cell_volume 984.257016
_symmetry_space_group_name_H-M "P -4"
_symmetry_group_IT_number 81
_symmetry_cell_setting 'tetragonal'
loop_
_space_group_symop_operation_xyz
x,y,z
y,-x,-z
-x,-y,z
-y,x,-z
loop_
_atom_site_type_symbol
_atom_site_label
_atom_site_fract_x
_atom_site_fract_y
_atom_site_fract_z
Si Si1 0.000000 0.500000 0.017593
Si Si2 0.238043 0.405669 0.691830
Si Si3 0.233326 0.397362 0.505848
Si Si4 0.277421 0.927939 0.843835
Si Si5 0.741425 0.073885 0.140119
Si Si6 0.775529 0.600709 0.321437
O O1 0.038233 0.356035 0.947100
O O2 0.128821 0.421603 0.089687
O O3 0.153959 0.368272 0.598893
O O4 0.135977 0.361621 0.776961
O O5 0.410476 0.295088 0.690093
O O6 0.291374 0.602356 0.690706
O O7 0.292441 0.592249 0.500064
O O8 0.147391 0.365153 0.415205
O O9 0.347811 0.907379 0.749753
O O10 0.106395 0.823091 0.842179
O O11 0.214240 0.112904 0.872124
#
# Coordination Sequence:
#
# PCOD9542541 Si02
#       6
#     2   4   4   4   4   4
#     4  12  24  42  64  80 104 144 192 236 296 374
#     4   9  17  33  60  93 127 164 204 241 279 334
#     4   7  12  26  52  87 126 165 202 238 276 323
#     4  11  24  41  61  87 119 153 191 244 307 361
#     4  11  24  41  61  87 119 153 191 244 307 361
#     4   9  17  33  60  93 127 164 204 241 279 334
#
# _framework density 22.351887999999999
#
# number of rings (size 3 to 8) (size 9 to 14) (size 15 to 20)
#    0.000    2.364    0.000    5.455    0.000    1.455 
#    0.000    1.818    0.000   16.364    0.000    0.000 
#    0.000    0.000    0.000    0.000    0.000    0.000 
#
# Total GULP energy -122470.112000 kJ/mol
# GULP energy per Si atom -5566.823273 kJ/mol
# Density = 2.230101 g / cm^3
# Si number density = 22.351888 Si / 1000 Ang^3
#
#
#
# Elastic Constant Matrix: (Units=GPa)
#
#
# Indices 1 2 3 4 5 6 
#
# 1 71.8807 12.0522 49.8097 0.0000 0.0000 5.4252
# 2 12.0522 71.8807 49.8097 0.0000 0.0000 -5.4252
# 3 49.8097 49.8097 178.9331 0.0000 0.0000 0.0000
# 4 0.0000 0.0000 0.0000 46.8898 0.0000 0.0000
# 5 0.0000 0.0000 0.0000 0.0000 46.8898 0.0000
# 6 5.4252 -5.4252 0.0000 0.0000 0.0000 28.9498
#
#
#
# Elastic Compliance Matrix: (Units=1/GPa)
#
#
# Indices 1 2 3 4 5 6 
#
# 1 0.017548 0.000245 -0.004953 0.000000 0.000000 -0.003242
# 2 0.000245 0.017548 -0.004953 0.000000 0.000000 0.003242
# 3 -0.004953 -0.004953 0.008346 0.000000 0.000000 0.000000
# 4 0.000000 0.000000 0.000000 0.021327 0.000000 0.000000
# 5 0.000000 0.000000 0.000000 0.000000 0.021327 0.000000
# 6 -0.003242 0.003242 0.000000 0.000000 0.000000 0.035758
#
#
# Mechanical properties :
#
#
# Convention : Reuss Voigt Hill
#
# Bulk Modulus (GPa) = 41.45922 60.67084 51.06503
# Shear Modulus (GPa) = 33.50881 38.61408 36.06144
#
# Velocity S-wave (km/s) = 3.87608 4.16089 4.02101
# Velocity P-wave (km/s) = 6.21456 7.09130 6.66735
#
# Compressibility (1/GPa) = 0.02412009
#
# Stress axis : x y z
#
# Youngs Moduli (GPa) = 56.98734 56.98734 119.81434
#
# Poissons Ratio (x) = -0.01398 0.59345
# Poissons Ratio (y) = -0.01398 0.59345
# Poissons Ratio (z) = 0.28226 0.28226
#
# Static dielectric constant tensor:
#      x y z
#    x 1.859920 0.000000 0.000000 
#    y 0.000000 1.859920 0.000000 
#    z 0.000000 0.000000 1.847770 
# 
# From -- ./inp_files/1625.got.cif
#   From: 2010.05.17/outbox.cif.g08.bks.cpg/sg81_cif.got.tgz:1625.got - 2010.06.03 18:51:07.
