data_PCOD9542566
_publ_section_title
;
Structure prediction by ZEFSAII (Michael W. Deem and Ramdas Pophale) SiO2 
 PCOD9542566
Probable space group: P -4
;
_chemical_formula_sum "Si O2"
_cell_formula_units_Z 15
_cell_length_a 8.505031
_cell_length_b 8.505031
_cell_length_c 8.873540
_cell_angle_alpha 90.000000
_cell_angle_beta 90.000000
_cell_angle_gamma 90.000000
_cell_volume 641.872417
_symmetry_space_group_name_H-M "P -4"
_symmetry_group_IT_number 81
_symmetry_cell_setting 'tetragonal'
loop_
_space_group_symop_operation_xyz
x,y,z
y,-x,-z
-x,-y,z
-y,x,-z
loop_
_atom_site_type_symbol
_atom_site_label
_atom_site_fract_x
_atom_site_fract_y
_atom_site_fract_z
Si Si1 0.007639 0.679890 0.672442
Si Si2 0.592681 0.737890 0.503647
Si Si3 0.000000 0.000000 0.500000
Si Si4 0.942028 0.743203 0.999666
Si Si5 0.500000 0.000000 0.744516
O O1 0.193696 0.692110 0.637202
O O2 0.932927 0.666155 0.835571
O O3 0.000000 0.500000 0.608918
O O4 0.953190 0.845167 0.597639
O O5 0.683471 0.579795 0.550614
O O6 0.575450 0.860277 0.642864
O O7 0.820047 0.884888 0.004307
O O8 0.931195 0.629814 0.141199
#
# Coordination Sequence:
#
# PCOD9542566 Si02
#       5
#     4   4   1   4   2
#     4  12  25  45  73 110 144 194 253 320 377 464
#     4  11  26  46  70 104 144 190 254 319 381 456
#     4  12  28  44  82 112 148 204 262 316 396 460
#     4  11  26  44  68 102 146 189 242 304 383 463
#     4  12  26  44  72 104 142 198 242 314 388 464
#
# _framework density 23.369128
#
# number of rings (size 3 to 8) (size 9 to 14) (size 15 to 20)
#    0.000    0.533    2.667    4.800   11.200    0.000 
#    0.000    0.000    0.000    3.200    0.000    0.000 
#    0.000    0.000    0.000    0.000    0.000    0.000 
#
# Total GULP energy -83633.124631 kJ/mol
# GULP energy per Si atom -5575.541642 kJ/mol
# Density = 2.331594 g / cm^3
# Si number density = 23.369128 Si / 1000 Ang^3
#
#
#
# Elastic Constant Matrix: (Units=GPa)
#
#
# Indices 1 2 3 4 5 6 
#
# 1 97.9085 10.4930 36.5059 0.0000 0.0000 -12.0655
# 2 10.4930 97.9085 36.5059 0.0000 0.0000 12.0655
# 3 36.5059 36.5059 127.3885 0.0000 0.0000 0.0000
# 4 0.0000 0.0000 0.0000 31.2956 0.0000 0.0000
# 5 0.0000 0.0000 0.0000 0.0000 31.2956 0.0000
# 6 -12.0655 12.0655 0.0000 0.0000 0.0000 -6.5635
#
#
#
# Elastic Compliance Matrix: (Units=1/GPa)
#
#
# Indices 1 2 3 4 5 6 
#
# 1 0.009510 0.001921 -0.003276 0.000000 0.000000 -0.013950
# 2 0.001921 0.009510 -0.003276 0.000000 0.000000 0.013950
# 3 -0.003276 -0.003276 0.009728 0.000000 0.000000 0.000000
# 4 0.000000 0.000000 0.000000 0.031953 0.000000 0.000000
# 5 0.000000 0.000000 0.000000 0.000000 0.031953 0.000000
# 6 -0.013950 0.013950 0.000000 0.000000 0.000000 -0.101069
#
#
# Mechanical properties :
#
#
# Convention : Reuss Voigt Hill
#
# Bulk Modulus (GPa) = 51.31703 54.46836 52.89269
# Shear Modulus (GPa) = 681.03186 27.18558 354.10872
#
# Velocity S-wave (km/s) = 17.08966 3.41444 12.32304
# Velocity P-wave (km/s) = 20.28338 6.23722 15.00531
#
# Compressibility (1/GPa) = 0.01948671
#
# Stress axis : x y z
#
# Youngs Moduli (GPa) = 105.15185 105.15185 102.80052
#
# Poissons Ratio (x) = -0.20203 0.33677
# Poissons Ratio (y) = -0.20203 0.33677
# Poissons Ratio (z) = 0.34447 0.34447
#
# Static dielectric constant tensor:
#      x y z
#    x 2.096570 0.000000 0.000000 
#    y 0.000000 2.096570 0.000000 
#    z 0.000000 0.000000 1.931950 
# 
# From -- ./inp_files/530.got.cif
#   From: 2010.05.17/outbox.cif.g08.bks.cpg/sg81_cif.got.tgz:530.got - 2010.06.03 18:51:07.
