data_PCOD9542216
_publ_section_title
;
Structure prediction by ZEFSAII (Michael W. Deem and Ramdas Pophale) SiO2 
 PCOD9542216
Probable space group: I 41
;
_chemical_formula_sum "Si O2"
_cell_formula_units_Z 40
_cell_length_a 15.944886
_cell_length_b 15.944886
_cell_length_c 6.855819
_cell_angle_alpha 90.000000
_cell_angle_beta 90.000000
_cell_angle_gamma 90.000000
_cell_volume 1743.019237
_symmetry_space_group_name_H-M "I 41"
_symmetry_group_IT_number 80
_symmetry_cell_setting 'tetragonal'
loop_
_space_group_symop_operation_xyz
x,y,z
-y,1/2+x,1/4+z
-x,-y,z
y,1/2-x,1/4+z
1/2+x,1/2+y,1/2+z
1/2-y,x,3/4+z
1/2-x,1/2-y,1/2+z
1/2+y,-x,3/4+z
loop_
_atom_site_type_symbol
_atom_site_label
_atom_site_fract_x
_atom_site_fract_y
_atom_site_fract_z
Si Si1 0.139682 0.253358 0.442560
Si Si2 0.636293 0.004807 0.128108
Si Si3 0.581063 0.586481 0.496690
Si Si4 0.418651 0.590672 0.271558
Si Si5 0.750149 0.357150 0.455568
O O1 0.181830 0.298095 0.621336
O O2 0.055862 0.202758 0.483981
O O3 0.126902 0.326895 0.278557
O O4 0.698942 0.060077 0.998447
O O5 0.581645 0.952807 0.970779
O O6 0.588280 0.057714 0.293179
O O7 0.502686 0.627295 0.378268
O O8 0.592315 0.498697 0.382332
O O9 0.329321 0.635362 0.308887
O O10 0.707675 0.320989 0.645732
#
# Coordination Sequence:
#
# PCOD9542216 Si02
#       5
#     8   8   8   8   8
#     4  10  23  43  73 107 142 187 234 309 361 435
#     4  11  24  46  71 108 148 189 246 301 374 438
#     4  10  23  47  68 104 151 179 247 302 358 445
#     4  11  24  43  74 105 138 201 235 299 372 424
#     4  12  24  46  70 105 147 192 246 305 362 441
#
# _framework density 22.948685999999999
#
# number of rings (size 3 to 8) (size 9 to 14) (size 15 to 20)
#    0.000    1.200    4.000    1.200    2.800    3.200 
#    0.000    8.000    0.000    0.000    0.000    0.000 
#    0.000    0.000    0.000    0.000    0.000    0.000 
#
# Total GULP energy -111481.394066 kJ/mol
# GULP energy per Si atom -5574.069703 kJ/mol
# Density = 2.289645 g / cm^3
# Si number density = 22.948686 Si / 1000 Ang^3
#
#
#
# Elastic Constant Matrix: (Units=GPa)
#
#
# Indices 1 2 3 4 5 6 
#
# 1 77.3422 -9.8180 6.3264 0.0000 0.0000 11.9120
# 2 -9.8180 77.3422 6.3264 0.0000 0.0000 -11.9120
# 3 6.3264 6.3264 76.6163 0.0000 0.0000 0.0000
# 4 0.0000 0.0000 0.0000 -257.4137 0.0000 0.0000
# 5 0.0000 0.0000 0.0000 0.0000 -257.4137 0.0000
# 6 11.9120 -11.9120 0.0000 0.0000 0.0000 39.8082
#
#
#
# Elastic Compliance Matrix: (Units=1/GPa)
#
#
# Indices 1 2 3 4 5 6 
#
# 1 0.013769 0.001274 -0.001242 0.000000 0.000000 -0.003739
# 2 0.001274 0.013769 -0.001242 0.000000 0.000000 0.003739
# 3 -0.001242 -0.001242 0.013257 0.000000 0.000000 0.000000
# 4 0.000000 0.000000 0.000000 -0.003885 0.000000 0.000000
# 5 0.000000 0.000000 0.000000 0.000000 -0.003885 0.000000
# 6 -0.003739 0.003739 0.000000 0.000000 0.000000 0.027358
#
#
# Mechanical properties :
#
#
# Convention : Reuss Voigt Hill
#
# Bulk Modulus (GPa) = 26.05977 26.33006 26.19492
# Shear Modulus (GPa) = 66.14154 -79.77281 -6.81563
#
# Velocity S-wave (km/s) = 5.37439 -5.90227 -1.72522
# Velocity P-wave (km/s) = 7.06346 5.91192 2.73328
#
# Compressibility (1/GPa) = 0.03837333
#
# Stress axis : x y z
#
# Youngs Moduli (GPa) = 72.62856 72.62856 75.43088
#
# Poissons Ratio (x) = -0.09250 0.09369
# Poissons Ratio (y) = -0.09250 0.09369
# Poissons Ratio (z) = 0.09021 0.09021
#
# Static dielectric constant tensor:
#      x y z
#    x 2.261510 0.000000 0.000000 
#    y 0.000000 2.261510 0.000000 
#    z 0.000000 0.000000 1.868150 
# 
# From -- ./inp_files/637.got.cif
#   From: 2010.05.17/outbox.cif.g08.bks.cpg/sg80_cif.got.tgz:637.got - 2010.06.03 18:49:13.
