data_PCOD9542355
_publ_section_title
;
Structure prediction by ZEFSAII (Michael W. Deem and Ramdas Pophale) SiO2 
 PCOD9542355
Probable space group: P -4
;
_chemical_formula_sum "Si O2"
_cell_formula_units_Z 21
_cell_length_a 8.370656
_cell_length_b 8.370656
_cell_length_c 14.153927
_cell_angle_alpha 90.000000
_cell_angle_beta 90.000000
_cell_angle_gamma 90.000000
_cell_volume 991.735685
_symmetry_space_group_name_H-M "P -4"
_symmetry_group_IT_number 81
_symmetry_cell_setting 'tetragonal'
loop_
_space_group_symop_operation_xyz
x,y,z
y,-x,-z
-x,-y,z
-y,x,-z
loop_
_atom_site_type_symbol
_atom_site_label
_atom_site_fract_x
_atom_site_fract_y
_atom_site_fract_z
Si Si1 0.168396 0.155539 0.330441
Si Si2 0.805903 0.853078 0.756584
Si Si3 0.000000 0.000000 0.500000
Si Si4 0.191648 0.506537 0.752481
Si Si5 0.534460 0.259955 0.032212
Si Si6 0.017393 0.223420 0.042704
O O1 0.336526 0.240344 0.307714
O O2 0.005369 0.249887 0.305209
O O3 0.163480 0.996507 0.263907
O O4 0.133475 0.083021 0.433855
O O5 0.744061 0.674295 0.733231
O O6 0.775186 0.914293 0.862773
O O7 0.228949 0.529296 0.863212
O O8 0.000000 0.500000 0.739875
O O9 0.398294 0.332102 0.966213
O O10 0.618844 0.108570 0.986636
O O11 0.908631 0.158444 0.956740
#
# Coordination Sequence:
#
# PCOD9542355 Si02
#       6
#     4   4   1   4   4   4
#     4   9  17  31  55  84 126 145 187 272 328 379
#     4   9  17  30  48  86 118 155 202 252 321 363
#     4   8  16  32  56  92 114 144 204 260 340 416
#     4  10  20  33  54  81 117 160 202 259 326 360
#     4  11  25  37  46  74 118 173 227 263 312 369
#     4  11  20  31  54  78 113 159 221 274 291 348
#
# _framework density 21.174997999999999
#
# number of rings (size 3 to 8) (size 9 to 14) (size 15 to 20)
#    0.000    2.286    1.905    3.429    5.333    0.000 
#    0.000    0.000    0.000    0.000    0.000  160.000 
#    0.000    0.000    0.000    0.000    0.000    0.000 
#
# Total GULP energy -116972.475903 kJ/mol
# GULP energy per Si atom -5570.117900 kJ/mol
# Density = 2.112680 g / cm^3
# Si number density = 21.174998 Si / 1000 Ang^3
#
#
#
# Elastic Constant Matrix: (Units=GPa)
#
#
# Indices 1 2 3 4 5 6 
#
# 1 94.8741 74.5457 40.9388 0.0000 0.0000 11.3574
# 2 74.5457 94.8741 40.9388 0.0000 0.0000 -11.3574
# 3 40.9388 40.9388 105.8214 0.0000 0.0000 0.0000
# 4 0.0000 0.0000 0.0000 -5.9685 0.0000 0.0000
# 5 0.0000 0.0000 0.0000 0.0000 -5.9685 0.0000
# 6 11.3574 -11.3574 0.0000 0.0000 0.0000 26.4844
#
#
#
# Elastic Compliance Matrix: (Units=1/GPa)
#
#
# Indices 1 2 3 4 5 6 
#
# 1 0.050856 -0.043596 -0.002809 0.000000 0.000000 -0.040504
# 2 -0.043596 0.050856 -0.002809 0.000000 0.000000 0.040504
# 3 -0.002809 -0.002809 0.011623 0.000000 0.000000 0.000000
# 4 0.000000 0.000000 0.000000 -0.167547 0.000000 0.000000
# 5 0.000000 0.000000 0.000000 0.000000 -0.167547 0.000000
# 6 -0.040504 0.040504 0.000000 0.000000 0.000000 0.072497
#
#
# Mechanical properties :
#
#
# Convention : Reuss Voigt Hill
#
# Bulk Modulus (GPa) = 67.07674 67.60181 67.33928
# Shear Modulus (GPa) = -109.01195 12.18589 -48.41303
#
# Velocity S-wave (km/s) = -7.18284 2.40153 -4.78675
# Velocity P-wave (km/s) = 6.08645 6.29956 1.14882
#
# Compressibility (1/GPa) = 0.01490830
#
# Stress axis : x y z
#
# Youngs Moduli (GPa) = 19.66345 19.66345 86.03635
#
# Poissons Ratio (x) = 0.85725 0.24164
# Poissons Ratio (y) = 0.85725 0.24164
# Poissons Ratio (z) = 0.05523 0.05523
#
# Static dielectric constant tensor:
#      x y z
#    x 1.903010 0.000000 0.000000 
#    y 0.000000 1.903010 0.000000 
#    z 0.000000 0.000000 1.755910 
# 
# From -- ./inp_files/1529.got.cif
#   From: 2010.05.17/outbox.cif.g08.bks.cpg/sg81_cif.got.tgz:1529.got - 2010.06.03 18:51:07.
