data_PCOD9542532
_publ_section_title
;
Structure prediction by ZEFSAII (Michael W. Deem and Ramdas Pophale) SiO2 
 PCOD9542532
Probable space group: P -4
;
_chemical_formula_sum "Si O2"
_cell_formula_units_Z 18
_cell_length_a 9.587291
_cell_length_b 9.587291
_cell_length_c 10.444213
_cell_angle_alpha 90.000000
_cell_angle_beta 90.000000
_cell_angle_gamma 90.000000
_cell_volume 959.991835
_symmetry_space_group_name_H-M "P -4"
_symmetry_group_IT_number 81
_symmetry_cell_setting 'tetragonal'
loop_
_space_group_symop_operation_xyz
x,y,z
y,-x,-z
-x,-y,z
-y,x,-z
loop_
_atom_site_type_symbol
_atom_site_label
_atom_site_fract_x
_atom_site_fract_y
_atom_site_fract_z
Si Si1 0.725366 0.505936 0.534597
Si Si2 0.500000 0.000000 0.037024
Si Si3 0.500000 0.500000 0.000000
Si Si4 0.388534 0.256371 0.186846
Si Si5 0.500000 0.000000 0.636281
Si Si6 0.276815 0.930826 0.836797
Si Si7 0.000000 0.000000 0.000000
O O1 0.638975 0.373168 0.483444
O O2 0.743294 0.478217 0.684536
O O3 0.866239 0.518404 0.454074
O O4 0.417092 0.111904 0.117245
O O5 0.610903 0.080073 0.950248
O O6 0.433245 0.382459 0.092815
O O7 0.224572 0.259301 0.217053
O O8 0.362570 0.016090 0.727864
O O9 0.135474 0.986755 0.905239
#
# Coordination Sequence:
#
# PCOD9542532 Si02
#       7
#     4   2   1   4   2   4   1
#     4  11  24  44  68  95 131 178 227 271 327 397
#     4  11  23  38  66  94 129 167 212 264 336 397
#     4  12  24  36  70 100 128 160 216 278 340 392
#     4  12  23  41  65 100 128 169 217 276 333 393
#     4  11  25  48  66  98 137 179 224 274 334 389
#     4  11  24  42  67  96 137 173 212 276 334 396
#     4  12  24  44  68 106 136 176 224 270 344 400
#
# _framework density 18.750160000000001
#
# number of rings (size 3 to 8) (size 9 to 14) (size 15 to 20)
#    0.000    0.667    6.667    2.000    0.000    1.778 
#    4.000    0.000    0.000    0.000    0.000    0.000 
#    0.000    0.000    0.000    0.000    0.000    0.000 
#
# Total GULP energy -100461.659290 kJ/mol
# GULP energy per Si atom -5581.203294 kJ/mol
# Density = 1.870748 g / cm^3
# Si number density = 18.750160 Si / 1000 Ang^3
#
#
#
# Elastic Constant Matrix: (Units=GPa)
#
#
# Indices 1 2 3 4 5 6 
#
# 1 87.9025 3.9105 17.6112 0.0000 0.0000 0.5037
# 2 3.9105 87.9025 17.6112 0.0000 0.0000 -0.5037
# 3 17.6112 17.6112 96.3189 0.0000 0.0000 0.0000
# 4 0.0000 0.0000 0.0000 88.1072 0.0000 0.0000
# 5 0.0000 0.0000 0.0000 0.0000 88.1072 0.0000
# 6 0.5037 -0.5037 0.0000 0.0000 0.0000 11.8242
#
#
#
# Elastic Compliance Matrix: (Units=1/GPa)
#
#
# Indices 1 2 3 4 5 6 
#
# 1 0.011813 -0.000099 -0.002142 0.000000 0.000000 -0.000507
# 2 -0.000099 0.011813 -0.002142 0.000000 0.000000 0.000507
# 3 -0.002142 -0.002142 0.011165 0.000000 0.000000 0.000000
# 4 0.000000 0.000000 0.000000 0.011350 0.000000 0.000000
# 5 0.000000 0.000000 0.000000 0.000000 0.011350 0.000000
# 6 -0.000507 0.000507 0.000000 0.000000 0.000000 0.084616
#
#
# Mechanical properties :
#
#
# Convention : Reuss Voigt Hill
#
# Bulk Modulus (GPa) = 38.42423 38.93218 38.67820
# Shear Modulus (GPa) = 31.33882 53.14044 42.23963
#
# Velocity S-wave (km/s) = 4.09270 5.32943 4.75148
# Velocity P-wave (km/s) = 6.54758 7.66023 7.12566
#
# Compressibility (1/GPa) = 0.02602524
#
# Stress axis : x y z
#
# Youngs Moduli (GPa) = 84.65496 84.65496 89.56263
#
# Poissons Ratio (x) = 0.00841 0.19182
# Poissons Ratio (y) = 0.00841 0.19182
# Poissons Ratio (z) = 0.18131 0.18131
#
# Static dielectric constant tensor:
#      x y z
#    x 1.634720 0.000000 0.000000 
#    y 0.000000 1.634720 0.000000 
#    z 0.000000 0.000000 1.668600 
# 
# From -- ./inp_files/1186.got.cif
#   From: 2010.05.17/outbox.cif.g08.bks.cpg/sg81_cif.got.tgz:1186.got - 2010.06.03 18:51:07.
