data_PCOD9542019
_publ_section_title
;
Structure prediction by ZEFSAII (Michael W. Deem and Ramdas Pophale) SiO2 
 PCOD9542019
Probable space group: I 4
;
_chemical_formula_sum "Si O2"
_cell_formula_units_Z 40
_cell_length_a 8.265488
_cell_length_b 8.265488
_cell_length_c 25.255788
_cell_angle_alpha 90.000000
_cell_angle_beta 90.000000
_cell_angle_gamma 90.000000
_cell_volume 1725.432296
_symmetry_space_group_name_H-M "I 4"
_symmetry_group_IT_number 79
_symmetry_cell_setting 'tetragonal'
loop_
_space_group_symop_operation_xyz
x,y,z
-y,x,z
-x,-y,z
y,-x,z
1/2+x,1/2+y,1/2+z
1/2-y,1/2+x,1/2+z
1/2-x,1/2-y,1/2+z
1/2+y,1/2-x,1/2+z
loop_
_atom_site_type_symbol
_atom_site_label
_atom_site_fract_x
_atom_site_fract_y
_atom_site_fract_z
Si Si1 0.919828 0.262357 0.052260
Si Si2 0.500000 0.000000 0.739807
Si Si3 0.000000 0.000000 0.923933
Si Si4 0.000000 0.000000 0.453921
Si Si5 0.924583 0.737716 0.327420
Si Si6 0.804415 0.694046 0.439201
Si Si7 0.261192 0.920493 0.651523
O O1 0.861738 0.377770 0.099119
O O2 0.101528 0.194042 0.055986
O O3 0.891380 0.339320 0.995088
O O4 0.598137 0.882167 0.778669
O O5 0.378826 0.902639 0.701666
O O6 0.884570 0.839515 0.927207
O O7 0.117061 0.840671 0.450926
O O8 0.807951 0.893621 0.324851
O O9 0.891888 0.656624 0.383751
O O10 0.103881 0.805643 0.652327
#
# Coordination Sequence:
#
# PCOD9542019 Si02
#       7
#     8   4   2   2   8   8   8
#     4  11  24  46  75 107 151 195 242 301 380 468
#     4  12  26  48  74 100 136 200 250 324 386 462
#     4  12  28  48  80 108 178 200 268 316 388 474
#     4  12  28  44  84 108 182 200 260 316 396 470
#     4  11  25  46  73 107 150 195 251 312 386 471
#     4  12  24  51  71 124 153 213 246 321 381 480
#     4  11  26  47  70 105 141 183 250 316 382 457
#
# _framework density 23.182597999999999
#
# number of rings (size 3 to 8) (size 9 to 14) (size 15 to 20)
#    0.000    0.600    4.000    2.400    5.600    0.800 
#    0.000    2.000    0.000    0.000    0.000    0.000 
#    0.000    0.000    0.000    0.000    0.000    0.000 
#
# Total GULP energy -111412.905070 kJ/mol
# GULP energy per Si atom -5570.645254 kJ/mol
# Density = 2.312983 g / cm^3
# Si number density = 23.182598 Si / 1000 Ang^3
#
#
#
# Elastic Constant Matrix: (Units=GPa)
#
#
# Indices 1 2 3 4 5 6 
#
# 1 93.2426 48.2664 55.1152 0.0000 0.0000 4.3915
# 2 48.2664 93.2426 55.1152 0.0000 0.0000 -4.3915
# 3 55.1152 55.1152 205.2248 0.0000 0.0000 0.0000
# 4 0.0000 0.0000 0.0000 34.2764 0.0000 0.0000
# 5 0.0000 0.0000 0.0000 0.0000 34.2764 0.0000
# 6 4.3915 -4.3915 0.0000 0.0000 0.0000 56.5578
#
#
#
# Elastic Compliance Matrix: (Units=1/GPa)
#
#
# Indices 1 2 3 4 5 6 
#
# 1 0.015756 -0.006820 -0.002400 0.000000 0.000000 -0.001753
# 2 -0.006820 0.015756 -0.002400 0.000000 0.000000 0.001753
# 3 -0.002400 -0.002400 0.006162 0.000000 0.000000 0.000000
# 4 0.000000 0.000000 0.000000 0.029175 0.000000 0.000000
# 5 0.000000 0.000000 0.000000 0.000000 0.029175 0.000000
# 6 -0.001753 0.001753 0.000000 0.000000 0.000000 0.017953
#
#
# Mechanical properties :
#
#
# Convention : Reuss Voigt Hill
#
# Bulk Modulus (GPa) = 69.27884 78.74485 74.01185
# Shear Modulus (GPa) = 35.20440 40.56969 37.88704
#
# Velocity S-wave (km/s) = 3.90111 4.18785 4.04702
# Velocity P-wave (km/s) = 7.08805 7.57793 7.33708
#
# Compressibility (1/GPa) = 0.01443442
#
# Stress axis : x y z
#
# Youngs Moduli (GPa) = 63.46706 63.46705 162.29197
#
# Poissons Ratio (x) = 0.43285 0.38948
# Poissons Ratio (y) = 0.43285 0.38948
# Poissons Ratio (z) = 0.15231 0.15231
#
# Static dielectric constant tensor:
#      x y z
#    x 1.893780 0.000000 0.000000 
#    y 0.000000 1.893780 0.000000 
#    z 0.000000 0.000000 1.855510 
# 
# From -- ./inp_files/1931.got.cif
#   From: 2010.05.17/outbox.cif.g08.bks.cpg/sg79_cif.got.tgz:1931.got - 2010.06.03 18:47:27.
