data_PCOD9542745
_publ_section_title
;
Structure prediction by ZEFSAII (Michael W. Deem and Ramdas Pophale) SiO2 
 PCOD9542745
Probable space group: I -4 
;
_chemical_formula_sum "Si O2"
_cell_formula_units_Z 24
_cell_length_a 7.681139
_cell_length_b 7.681139
_cell_length_c 19.528924
_cell_angle_alpha 90.000000
_cell_angle_beta 90.000000
_cell_angle_gamma 90.000000
_cell_volume 1152.204492
_symmetry_space_group_name_H-M "I -4 "
_symmetry_group_IT_number 82
_symmetry_cell_setting 'tetragonal'
loop_
_space_group_symop_operation_xyz
x,y,z
y,-x,-z
-x,-y,z
-y,x,-z
1/2+x,1/2+y,1/2+z
1/2+y,1/2-x,1/2-z
1/2-x,1/2-y,1/2+z
1/2-y,1/2+x,1/2-z
loop_
_atom_site_type_symbol
_atom_site_label
_atom_site_fract_x
_atom_site_fract_y
_atom_site_fract_z
Si Si1 0.500000 0.500000 0.663112
Si Si2 0.741840 0.231985 0.085743
Si Si3 0.500000 0.000000 0.989275
Si Si4 0.236712 0.112809 0.266920
O O1 0.350860 0.570624 0.615120
O O2 0.581968 0.644420 0.713555
O O3 0.651381 0.306909 0.154454
O O4 0.880430 0.365552 0.053616
O O5 0.605073 0.143052 0.034382
O O6 0.409629 0.214168 0.243386
#
# Coordination Sequence:
#
# PCOD9542745 Si02
#       4
#     4   8   4   8
#     4  10  20  39  64  87 120 162 208 262 312 362
#     4  11  24  41  62  91 126 165 210 250 310 370
#     4  12  26  42  64  90 130 172 204 250 300 380
#     4   9  19  37  63  89 117 155 204 264 316 359
#
# _framework density 20.829633999999999
#
# number of rings (size 3 to 8) (size 9 to 14) (size 15 to 20)
#    0.000    1.667    0.000    6.000    0.000    8.667 
#    0.000    0.000    0.000    0.000    0.000    0.000 
#    0.000    0.000    0.000    0.000    0.000    0.000 
#
# Total GULP energy -66939.109310 kJ/mol
# GULP energy per Si atom -5578.259109 kJ/mol
# Density = 2.078222 g / cm^3
# Si number density = 20.829634 Si / 1000 Ang^3
#
#
#
# Elastic Constant Matrix: (Units=GPa)
#
#
# Indices 1 2 3 4 5 6 
#
# 1 69.5654 6.3776 41.7181 0.0000 0.0000 -1.4976
# 2 6.3776 69.5654 41.7181 0.0000 0.0000 1.4976
# 3 41.7181 41.7181 138.2496 0.0000 0.0000 0.0000
# 4 0.0000 0.0000 0.0000 39.4264 0.0000 0.0000
# 5 0.0000 0.0000 0.0000 0.0000 39.4264 0.0000
# 6 -1.4976 1.4976 0.0000 0.0000 0.0000 36.0598
#
#
#
# Elastic Compliance Matrix: (Units=1/GPa)
#
#
# Indices 1 2 3 4 5 6 
#
# 1 0.017778 0.001921 -0.005944 0.000000 0.000000 0.000659
# 2 0.001921 0.017778 -0.005944 0.000000 0.000000 -0.000659
# 3 -0.005944 -0.005944 0.010821 0.000000 0.000000 0.000000
# 4 0.000000 0.000000 0.000000 0.025364 0.000000 0.000000
# 5 0.000000 0.000000 0.000000 0.000000 0.025364 0.000000
# 6 0.000659 -0.000659 0.000000 0.000000 0.000000 0.027786
#
#
# Mechanical properties :
#
#
# Convention : Reuss Voigt Hill
#
# Bulk Modulus (GPa) = 37.82018 50.77868 44.29943
# Shear Modulus (GPa) = 32.54379 35.48697 34.01538
#
# Velocity S-wave (km/s) = 3.95698 4.13204 4.04546
# Velocity P-wave (km/s) = 6.25086 6.86994 6.56770
#
# Compressibility (1/GPa) = 0.02644091
#
# Stress axis : x y z
#
# Youngs Moduli (GPa) = 56.24999 56.24999 92.41514
#
# Poissons Ratio (x) = -0.10804 0.54934
# Poissons Ratio (y) = -0.10804 0.54934
# Poissons Ratio (z) = 0.33436 0.33436
#
# Static dielectric constant tensor:
#      x y z
#    x 1.786540 0.000000 0.000000 
#    y 0.000000 1.786540 0.000000 
#    z 0.000000 0.000000 1.756070 
# 
# From -- ./inp_files/2029.got.cif
#   From: 2010.05.17/outbox.cif.g08.bks.cpg/sg82_2_cif.got.tgz:2029.got - 2010.06.03 18:52:26.
