data_PCOD9542396
_publ_section_title
;
Structure prediction by ZEFSAII (Michael W. Deem and Ramdas Pophale) SiO2 
 PCOD9542396
Probable space group: P -4
;
_chemical_formula_sum "Si O2"
_cell_formula_units_Z 25
_cell_length_a 12.675098
_cell_length_b 12.675098
_cell_length_c 7.678744
_cell_angle_alpha 90.000000
_cell_angle_beta 90.000000
_cell_angle_gamma 90.000000
_cell_volume 1233.652493
_symmetry_space_group_name_H-M "P -4"
_symmetry_group_IT_number 81
_symmetry_cell_setting 'tetragonal'
loop_
_space_group_symop_operation_xyz
x,y,z
y,-x,-z
-x,-y,z
-y,x,-z
loop_
_atom_site_type_symbol
_atom_site_label
_atom_site_fract_x
_atom_site_fract_y
_atom_site_fract_z
Si Si1 0.500000 0.500000 0.000000
Si Si2 0.326625 0.709698 0.506417
Si Si3 0.475871 0.879827 0.006478
Si Si4 0.110471 0.873008 0.962349
Si Si5 0.703833 0.093926 0.726678
Si Si6 0.484992 0.305183 0.261953
Si Si7 0.318377 0.146136 0.778706
O O1 0.495669 0.398304 0.123128
O O2 0.329544 0.829282 0.573078
O O3 0.299494 0.633768 0.667835
O O4 0.438337 0.676754 0.425436
O O5 0.238344 0.695624 0.359178
O O6 0.477344 0.801120 0.167227
O O7 0.500000 0.000000 0.059803
O O8 0.368717 0.880460 0.895244
O O9 0.570009 0.845256 0.876498
O O10 0.176702 0.881590 0.785460
O O11 0.146484 0.774175 0.077252
O O12 0.984318 0.867015 0.940313
O O13 0.688254 0.970067 0.691917
#
# Coordination Sequence:
#
# PCOD9542396 Si02
#       7
#     1   4   4   4   4   4   4
#     4  12  24  42  64  80 104 146 192 228 264 326
#     4  12  24  37  56  85 118 144 174 226 286 332
#     4  10  21  39  61  81 106 146 192 228 262 319
#     4   9  18  35  58  81 108 147 192 228 260 313
#     4  10  21  37  57  82 113 146 183 227 272 322
#     4  12  24  39  60  83 111 145 183 227 275 329
#     4  10  21  37  57  82 113 146 183 227 272 322
#
# _framework density 20.265027
#
# number of rings (size 3 to 8) (size 9 to 14) (size 15 to 20)
#    0.000    1.440    0.000    5.760    0.000    2.560 
#    0.000    0.000    0.000    0.000    0.000    0.000 
#    0.000    0.000    0.000    0.000    0.000    0.000 
#
# Total GULP energy -139812.408808 kJ/mol
# GULP energy per Si atom -5592.496352 kJ/mol
# Density = 2.021890 g / cm^3
# Si number density = 20.265027 Si / 1000 Ang^3
#
#
#
# Elastic Constant Matrix: (Units=GPa)
#
#
# Indices 1 2 3 4 5 6 
#
# 1 52.0460 -2.0875 -2.0099 0.0000 0.0000 3.5607
# 2 -2.0875 52.0460 -2.0099 0.0000 0.0000 -3.5607
# 3 -2.0099 -2.0099 13.2644 0.0000 0.0000 0.0000
# 4 0.0000 0.0000 0.0000 -4.9207 0.0000 0.0000
# 5 0.0000 0.0000 0.0000 0.0000 -4.9207 0.0000
# 6 3.5607 -3.5607 0.0000 0.0000 0.0000 20.2027
#
#
#
# Elastic Compliance Matrix: (Units=1/GPa)
#
#
# Indices 1 2 3 4 5 6 
#
# 1 0.019588 0.000676 0.003071 0.000000 0.000000 -0.003333
# 2 0.000676 0.019588 0.003071 0.000000 0.000000 0.003333
# 3 0.003071 0.003071 0.076320 0.000000 0.000000 0.000000
# 4 0.000000 0.000000 0.000000 -0.203223 0.000000 0.000000
# 5 0.000000 0.000000 0.000000 0.000000 -0.203223 0.000000
# 6 -0.003333 0.003333 0.000000 0.000000 0.000000 0.050673
#
#
# Mechanical properties :
#
#
# Convention : Reuss Voigt Hill
#
# Bulk Modulus (GPa) = 7.74414 11.68240 9.71327
# Shear Modulus (GPa) = -23.71150 10.30316 -6.70417
#
# Velocity S-wave (km/s) = -3.42434 2.25727 -1.82083
# Velocity P-wave (km/s) = 3.43585 3.54556 0.61883
#
# Compressibility (1/GPa) = 0.12912991
#
# Stress axis : x y z
#
# Youngs Moduli (GPa) = 51.05292 51.05292 13.10265
#
# Poissons Ratio (x) = -0.03452 -0.04023
# Poissons Ratio (y) = -0.03452 -0.04023
# Poissons Ratio (z) = -0.15676 -0.15676
#
# Static dielectric constant tensor:
#      x y z
#    x 1.711630 0.000000 0.000000 
#    y 0.000000 1.711630 0.000000 
#    z 0.000000 0.000000 1.680930 
# 
# From -- ./inp_files/877.got.cif
#   From: 2010.05.17/outbox.cif.g08.bks.cpg/sg81_cif.got.tgz:877.got - 2010.06.03 18:51:07.
