data_PCOD9542659
_publ_section_title
;
Structure prediction by ZEFSAII (Michael W. Deem and Ramdas Pophale) SiO2 
 PCOD9542659
Probable space group: I -4 
;
_chemical_formula_sum "Si O2"
_cell_formula_units_Z 64
_cell_length_a 17.987850
_cell_length_b 17.987850
_cell_length_c 11.215234
_cell_angle_alpha 90.000000
_cell_angle_beta 90.000000
_cell_angle_gamma 90.000000
_cell_volume 3628.831928
_symmetry_space_group_name_H-M "I -4 "
_symmetry_group_IT_number 82
_symmetry_cell_setting 'tetragonal'
loop_
_space_group_symop_operation_xyz
x,y,z
y,-x,-z
-x,-y,z
-y,x,-z
1/2+x,1/2+y,1/2+z
1/2+y,1/2-x,1/2-z
1/2-x,1/2-y,1/2+z
1/2-y,1/2+x,1/2-z
loop_
_atom_site_type_symbol
_atom_site_label
_atom_site_fract_x
_atom_site_fract_y
_atom_site_fract_z
Si Si1 0.182616 0.927320 0.885894
Si Si2 0.930764 0.281650 0.600688
Si Si3 0.692396 0.329778 0.165265
Si Si4 0.726956 0.315457 0.727060
Si Si5 0.595109 0.316658 0.551003
Si Si6 0.674913 0.929625 0.119003
Si Si7 0.776043 0.398475 0.948620
Si Si8 0.325497 0.906045 0.036111
O O1 0.168449 0.892610 0.757329
O O2 0.168732 0.014202 0.897176
O O3 0.130403 0.885178 0.979967
O O4 0.268473 0.912331 0.925776
O O5 0.876579 0.210243 0.599695
O O6 0.933601 0.308151 0.739826
O O7 0.892629 0.348034 0.525269
O O8 0.013467 0.265534 0.557217
O O9 0.729696 0.262100 0.239021
O O10 0.751896 0.362787 0.073301
O O11 0.651112 0.299339 0.658490
O O12 0.724276 0.357621 0.851123
O O13 0.775513 0.369086 0.640971
O O14 0.588013 0.249775 0.455762
O O15 0.620768 0.861034 0.088717
O O16 0.649984 0.011448 0.075382
#
# Coordination Sequence:
#
# PCOD9542659 Si02
#       8
#     8   8   8   8   8   8   8   8
#     4  10  21  38  58  86 114 150 200 243 300 328
#     4  11  21  36  57  86 121 154 190 240 293 353
#     4  11  23  38  59  84 122 156 194 246 285 357
#     4  10  19  35  57  84 112 152 197 236 291 344
#     4  10  20  35  62  84 113 147 195 254 284 347
#     4  11  17  36  58  88 116 146 191 247 289 343
#     4  12  23  36  60  89 117 157 195 233 303 354
#     4   9  20  34  57  86 114 152 186 243 291 343
#
# _framework density 17.636528999999999
#
# number of rings (size 3 to 8) (size 9 to 14) (size 15 to 20)
#    0.000    1.500    6.250    0.000    3.500    1.750 
#    0.000    1.250    0.000    1.875    0.000    1.750 
#    0.000    0.000    0.000    0.000    0.000    0.000 
#
# Total GULP energy -178546.054309 kJ/mol
# GULP energy per Si atom -5579.564197 kJ/mol
# Density = 1.759639 g / cm^3
# Si number density = 17.636529 Si / 1000 Ang^3
#
#
#
# Elastic Constant Matrix: (Units=GPa)
#
#
# Indices 1 2 3 4 5 6 
#
# 1 93.5989 24.0355 13.9630 0.0000 0.0000 -5.0597
# 2 24.0355 93.5989 13.9630 0.0000 0.0000 5.0597
# 3 13.9630 13.9630 19.4349 0.0000 0.0000 0.0000
# 4 0.0000 0.0000 0.0000 19.9489 0.0000 0.0000
# 5 0.0000 0.0000 0.0000 0.0000 19.9489 0.0000
# 6 -5.0597 5.0597 0.0000 0.0000 0.0000 17.3337
#
#
#
# Elastic Compliance Matrix: (Units=1/GPa)
#
#
# Indices 1 2 3 4 5 6 
#
# 1 0.012631 -0.002382 -0.007363 0.000000 0.000000 0.004382
# 2 -0.002382 0.012631 -0.007363 0.000000 0.000000 -0.004382
# 3 -0.007363 -0.007363 0.062034 0.000000 0.000000 0.000000
# 4 0.000000 0.000000 0.000000 0.050128 0.000000 0.000000
# 5 0.000000 0.000000 0.000000 0.000000 0.050128 0.000000
# 6 0.004382 -0.004382 0.000000 0.000000 0.000000 0.060249
#
#
# Mechanical properties :
#
#
# Convention : Reuss Voigt Hill
#
# Bulk Modulus (GPa) = 18.83994 34.50621 26.67308
# Shear Modulus (GPa) = 16.68267 21.75770 19.22019
#
# Velocity S-wave (km/s) = 3.07891 3.51618 3.30478
# Velocity P-wave (km/s) = 4.83168 6.00769 5.45149
#
# Compressibility (1/GPa) = 0.05307872
#
# Stress axis : x y z
#
# Youngs Moduli (GPa) = 79.17087 79.17087 16.12010
#
# Poissons Ratio (x) = 0.18858 0.11870
# Poissons Ratio (y) = 0.18858 0.11870
# Poissons Ratio (z) = 0.58297 0.58297
#
# Static dielectric constant tensor:
#      x y z
#    x 1.597070 0.000000 0.000000 
#    y 0.000000 1.597070 0.000000 
#    z 0.000000 0.000000 1.593440 
# 
# From -- ./inp_files/1895.got.cif
#   From: 2010.05.17/outbox.cif.g08.bks.cpg/sg82_1_cif.got.tgz:1895.got - 2010.06.03 18:52:26.
