data_PCOD9542472
_publ_section_title
;
Structure prediction by ZEFSAII (Michael W. Deem and Ramdas Pophale) SiO2 
 PCOD9542472
Probable space group: P -4
;
_chemical_formula_sum "Si O2"
_cell_formula_units_Z 23
_cell_length_a 8.706606
_cell_length_b 8.706606
_cell_length_c 13.242480
_cell_angle_alpha 90.000000
_cell_angle_beta 90.000000
_cell_angle_gamma 90.000000
_cell_volume 1003.846038
_symmetry_space_group_name_H-M "P -4"
_symmetry_group_IT_number 81
_symmetry_cell_setting 'tetragonal'
loop_
_space_group_symop_operation_xyz
x,y,z
y,-x,-z
-x,-y,z
-y,x,-z
loop_
_atom_site_type_symbol
_atom_site_label
_atom_site_fract_x
_atom_site_fract_y
_atom_site_fract_z
Si Si1 0.287435 0.257908 0.904364
Si Si2 0.076740 0.715486 0.900374
Si Si3 0.613543 0.725042 0.291440
Si Si4 0.912685 0.337646 0.512438
Si Si5 0.500000 0.500000 0.000000
Si Si6 0.000000 0.000000 0.000000
Si Si7 0.000000 0.000000 0.500000
Si Si8 0.617243 0.735549 0.697298
O O1 0.385270 0.410179 0.926270
O O2 0.323795 0.181572 0.797675
O O3 0.106981 0.300980 0.900171
O O4 0.343055 0.150812 0.996099
O O5 0.162794 0.656833 0.801439
O O6 0.098833 0.897678 0.923611
O O7 0.669527 0.792902 0.396748
O O8 0.695723 0.560737 0.283504
O O9 0.430442 0.701115 0.302016
O O10 0.829984 0.351196 0.403596
O O11 0.000000 0.500000 0.525244
O O12 0.014171 0.183787 0.527008
#
# Coordination Sequence:
#
# PCOD9542472 Si02
#       8
#     4   4   4   4   1   1   1   4
#     4  11  24  45  69 104 145 194 250 309 387 457
#     4  10  23  43  71 103 142 195 248 309 383 459
#     4  11  24  44  78 105 148 198 250 318 384 466
#     4  12  28  52  75 114 153 202 258 317 399 463
#     4  12  24  44  64 104 150 184 256 308 368 482
#     4   8  20  46  64 104 150 188 242 324 380 450
#     4  12  28  50  80 112 154 208 258 332 380 482
#     4  11  24  46  71 110 149 196 252 317 385 462
#
# _framework density 22.911881999999999
#
# number of rings (size 3 to 8) (size 9 to 14) (size 15 to 20)
#    0.000    1.043    0.000    6.261    4.870    4.174 
#   18.783    0.000    0.000    0.000    0.000    0.000 
#    0.000    0.000    0.000    0.000    0.000    0.000 
#
# Total GULP energy -128370.758096 kJ/mol
# GULP energy per Si atom -5581.337309 kJ/mol
# Density = 2.285973 g / cm^3
# Si number density = 22.911882 Si / 1000 Ang^3
#
#
#
# Elastic Constant Matrix: (Units=GPa)
#
#
# Indices 1 2 3 4 5 6 
#
# 1 78.8898 15.8591 24.1394 0.0000 0.0000 1.9252
# 2 15.8591 78.8898 24.1394 0.0000 0.0000 -1.9252
# 3 24.1394 24.1394 147.9063 0.0000 0.0000 0.0000
# 4 0.0000 0.0000 0.0000 28.7302 0.0000 0.0000
# 5 0.0000 0.0000 0.0000 0.0000 28.7302 0.0000
# 6 1.9252 -1.9252 0.0000 0.0000 0.0000 38.8557
#
#
#
# Elastic Compliance Matrix: (Units=1/GPa)
#
#
# Indices 1 2 3 4 5 6 
#
# 1 0.013712 -0.002201 -0.001879 0.000000 0.000000 -0.000788
# 2 -0.002201 0.013712 -0.001879 0.000000 0.000000 0.000788
# 3 -0.001879 -0.001879 0.007374 0.000000 0.000000 0.000000
# 4 0.000000 0.000000 0.000000 0.034807 0.000000 0.000000
# 5 0.000000 0.000000 0.000000 0.000000 0.034807 0.000000
# 6 -0.000788 0.000788 0.000000 0.000000 0.000000 0.025814
#
#
# Mechanical properties :
#
#
# Convention : Reuss Voigt Hill
#
# Bulk Modulus (GPa) = 43.70192 48.21795 45.95994
# Shear Modulus (GPa) = 33.38428 35.36644 34.37536
#
# Velocity S-wave (km/s) = 3.82130 3.93311 3.87761
# Velocity P-wave (km/s) = 6.21169 6.45883 6.33647
#
# Compressibility (1/GPa) = 0.02288229
#
# Stress axis : x y z
#
# Youngs Moduli (GPa) = 72.92629 72.92629 135.60623
#
# Poissons Ratio (x) = 0.16051 0.25477
# Poissons Ratio (y) = 0.16051 0.25477
# Poissons Ratio (z) = 0.13701 0.13701
#
# Static dielectric constant tensor:
#      x y z
#    x 1.947390 0.000000 0.000000 
#    y 0.000000 1.947390 0.000000 
#    z 0.000000 0.000000 1.843930 
# 
# From -- ./inp_files/1656.got.cif
#   From: 2010.05.17/outbox.cif.g08.bks.cpg/sg81_cif.got.tgz:1656.got - 2010.06.03 18:51:07.
