data_PCOD9542378
_publ_section_title
;
Structure prediction by ZEFSAII (Michael W. Deem and Ramdas Pophale) SiO2 
 PCOD9542378
Probable space group: P -4
;
_chemical_formula_sum "Si O2"
_cell_formula_units_Z 26
_cell_length_a 11.627858
_cell_length_b 11.627858
_cell_length_c 9.363036
_cell_angle_alpha 90.000000
_cell_angle_beta 90.000000
_cell_angle_gamma 90.000000
_cell_volume 1265.948773
_symmetry_space_group_name_H-M "P -4"
_symmetry_group_IT_number 81
_symmetry_cell_setting 'tetragonal'
loop_
_space_group_symop_operation_xyz
x,y,z
y,-x,-z
-x,-y,z
-y,x,-z
loop_
_atom_site_type_symbol
_atom_site_label
_atom_site_fract_x
_atom_site_fract_y
_atom_site_fract_z
Si Si1 0.370867 0.963379 0.625231
Si Si2 0.699530 0.002969 0.300184
Si Si3 0.235100 0.178497 0.713167
Si Si4 0.594295 0.401447 0.797410
Si Si5 0.500000 0.000000 0.073184
Si Si6 0.724742 0.746768 0.392151
Si Si7 0.236126 0.576460 0.067888
O O1 0.359435 0.978282 0.454096
O O2 0.328948 0.834770 0.648518
O O3 0.500000 0.000000 0.666147
O O4 0.279191 0.048138 0.699465
O O5 0.799187 0.098533 0.282827
O O6 0.607987 0.024943 0.176162
O O7 0.734864 0.869255 0.310769
O O8 0.276035 0.233278 0.561942
O O9 0.302970 0.231250 0.847306
O O10 0.500000 0.500000 0.783207
O O11 0.677842 0.385564 0.663112
O O12 0.517819 0.289671 0.827950
O O13 0.678068 0.418683 0.932922
O O14 0.463969 0.111126 0.983085
#
# Coordination Sequence:
#
# PCOD9542378 Si02
#       7
#     4   4   4   4   2   4   4
#     4  10  20  40  67  99 137 171 222 288 335 403
#     4  10  21  42  67  95 131 180 228 271 338 417
#     4  10  24  41  66 103 132 172 229 284 341 406
#     4  12  24  45  64  94 138 178 225 281 340 416
#     4  12  24  40  72  90 134 190 222 276 342 410
#     4  10  23  43  70  97 135 178 224 281 346 406
#     4  12  24  43  65  96 133 178 228 280 345 403
#
# _framework density 20.537953999999999
#
# number of rings (size 3 to 8) (size 9 to 14) (size 15 to 20)
#    0.000    1.231    3.846    1.846    3.231    0.615 
#    5.538    3.846    0.000    0.000    0.000    0.000 
#    0.000    0.000    0.000    0.000    0.000    0.000 
#
# Total GULP energy -145234.086081 kJ/mol
# GULP energy per Si atom -5585.926388 kJ/mol
# Density = 2.049121 g / cm^3
# Si number density = 20.537954 Si / 1000 Ang^3
#
#
#
# Elastic Constant Matrix: (Units=GPa)
#
#
# Indices 1 2 3 4 5 6 
#
# 1 118.1526 59.5219 38.8719 0.0000 0.0000 -2.6717
# 2 59.5219 118.1526 38.8719 0.0000 0.0000 2.6717
# 3 38.8719 38.8719 47.2379 0.0000 0.0000 0.0000
# 4 0.0000 0.0000 0.0000 6.3169 0.0000 0.0000
# 5 0.0000 0.0000 0.0000 0.0000 6.3169 0.0000
# 6 -2.6717 2.6717 0.0000 0.0000 0.0000 33.7212
#
#
#
# Elastic Compliance Matrix: (Units=1/GPa)
#
#
# Indices 1 2 3 4 5 6 
#
# 1 0.012988 -0.004192 -0.007237 0.000000 0.000000 0.001361
# 2 -0.004192 0.012988 -0.007237 0.000000 0.000000 -0.001361
# 3 -0.007237 -0.007237 0.033081 0.000000 0.000000 0.000000
# 4 0.000000 0.000000 0.000000 0.158304 0.000000 0.000000
# 5 0.000000 0.000000 0.000000 0.000000 0.158304 0.000000
# 6 0.001361 -0.001361 0.000000 0.000000 0.000000 0.029871
#
#
# Mechanical properties :
#
#
# Convention : Reuss Voigt Hill
#
# Bulk Modulus (GPa) = 46.03804 62.00827 54.02315
# Shear Modulus (GPa) = 11.10839 19.02284 15.06562
#
# Velocity S-wave (km/s) = 2.32819 3.04670 2.71135
# Velocity P-wave (km/s) = 5.44904 6.52948 6.01357
#
# Compressibility (1/GPa) = 0.02172117
#
# Stress axis : x y z
#
# Youngs Moduli (GPa) = 76.99686 76.99686 30.22903
#
# Poissons Ratio (x) = 0.32280 0.21878
# Poissons Ratio (y) = 0.32280 0.21878
# Poissons Ratio (z) = 0.55726 0.55726
#
# Static dielectric constant tensor:
#      x y z
#    x 1.764530 0.000000 0.000000 
#    y 0.000000 1.764530 0.000000 
#    z 0.000000 0.000000 1.756500 
# 
# From -- ./inp_files/873.got.cif
#   From: 2010.05.17/outbox.cif.g08.bks.cpg/sg81_cif.got.tgz:873.got - 2010.06.03 18:51:07.
