data_PCOD9542852
_publ_section_title
;
Structure prediction by ZEFSAII (Michael W. Deem and Ramdas Pophale) SiO2 
 PCOD9542852
Probable space group: I -4 
;
_chemical_formula_sum "Si O2"
_cell_formula_units_Z 32
_cell_length_a 15.711757
_cell_length_b 15.711757
_cell_length_c 6.880370
_cell_angle_alpha 90.000000
_cell_angle_beta 90.000000
_cell_angle_gamma 90.000000
_cell_volume 1698.483377
_symmetry_space_group_name_H-M "I -4 "
_symmetry_group_IT_number 82
_symmetry_cell_setting 'tetragonal'
loop_
_space_group_symop_operation_xyz
x,y,z
y,-x,-z
-x,-y,z
-y,x,-z
1/2+x,1/2+y,1/2+z
1/2+y,1/2-x,1/2-z
1/2-x,1/2-y,1/2+z
1/2-y,1/2+x,1/2-z
loop_
_atom_site_type_symbol
_atom_site_label
_atom_site_fract_x
_atom_site_fract_y
_atom_site_fract_z
Si Si1 0.051434 0.231198 0.586970
Si Si2 0.340236 0.248429 0.475249
Si Si3 0.373775 0.939306 0.727081
Si Si4 0.819286 0.858806 0.328875
O O1 0.106300 0.234704 0.782376
O O2 0.057419 0.320584 0.471956
O O3 0.093703 0.162691 0.441529
O O4 0.954473 0.209679 0.635679
O O5 0.390303 0.182900 0.614787
O O6 0.251058 0.205722 0.417085
O O7 0.326994 0.332945 0.603445
O O8 0.464316 0.893005 0.706261
#
# Coordination Sequence:
#
# PCOD9542852 Si02
#       4
#     8   8   8   8
#     4  11  25  42  68  93 134 173 223 273 323 402
#     4  11  23  40  67  93 131 175 216 269 332 400
#     4  10  22  38  63 102 135 166 213 276 344 407
#     4  11  24  44  65  96 128 175 218 269 334 389
#
# _framework density 18.840339
#
# number of rings (size 3 to 8) (size 9 to 14) (size 15 to 20)
#    0.000    1.250    5.000    0.000    3.500    4.500 
#    0.000    2.500    0.000    0.000    0.000    0.000 
#    0.000    0.000    0.000    0.000    0.000    0.000 
#
# Total GULP energy -89439.167181 kJ/mol
# GULP energy per Si atom -5589.947949 kJ/mol
# Density = 1.879746 g / cm^3
# Si number density = 18.840339 Si / 1000 Ang^3
#
#
#
# Elastic Constant Matrix: (Units=GPa)
#
#
# Indices 1 2 3 4 5 6 
#
# 1 82.8862 17.4452 48.7663 0.0000 0.0000 7.0347
# 2 17.4452 82.8862 48.7663 0.0000 0.0000 -7.0347
# 3 48.7663 48.7663 126.2274 0.0000 0.0000 0.0000
# 4 0.0000 0.0000 0.0000 26.1839 0.0000 0.0000
# 5 0.0000 0.0000 0.0000 0.0000 26.1839 0.0000
# 6 7.0347 -7.0347 0.0000 0.0000 0.0000 24.9338
#
#
#
# Elastic Compliance Matrix: (Units=1/GPa)
#
#
# Indices 1 2 3 4 5 6 
#
# 1 0.016115 -0.000153 -0.006167 0.000000 0.000000 -0.004590
# 2 -0.000153 0.016115 -0.006167 0.000000 0.000000 0.004590
# 3 -0.006167 -0.006167 0.012687 0.000000 0.000000 0.000000
# 4 0.000000 0.000000 0.000000 0.038191 0.000000 0.000000
# 5 0.000000 0.000000 0.000000 0.000000 0.038191 0.000000
# 6 -0.004590 0.004590 0.000000 0.000000 0.000000 0.042696
#
#
# Mechanical properties :
#
#
# Convention : Reuss Voigt Hill
#
# Bulk Modulus (GPa) = 50.14086 57.99505 54.06795
# Shear Modulus (GPa) = 25.56040 27.26178 26.41109
#
# Velocity S-wave (km/s) = 3.68732 3.80806 3.74817
# Velocity P-wave (km/s) = 6.69326 7.08409 6.89145
#
# Compressibility (1/GPa) = 0.01994381
#
# Stress axis : x y z
#
# Youngs Moduli (GPa) = 62.05565 62.05565 78.82144
#
# Poissons Ratio (x) = 0.00950 0.48605
# Poissons Ratio (y) = 0.00950 0.48605
# Poissons Ratio (z) = 0.38267 0.38267
#
# Static dielectric constant tensor:
#      x y z
#    x 1.636680 0.000000 0.000000 
#    y 0.000000 1.636680 0.000000 
#    z 0.000000 0.000000 1.637970 
# 
# From -- ./inp_files/179.got.cif
#   From: 2010.05.17/outbox.cif.g08.bks.cpg/sg82_1_cif.got.tgz:179.got - 2010.06.03 18:52:26.
