data_PCOD9542780
_publ_section_title
;
Structure prediction by ZEFSAII (Michael W. Deem and Ramdas Pophale) SiO2 
 PCOD9542780
Probable space group: I -4 
;
_chemical_formula_sum "Si O2"
_cell_formula_units_Z 48
_cell_length_a 19.910863
_cell_length_b 19.910863
_cell_length_c 5.597027
_cell_angle_alpha 90.000000
_cell_angle_beta 90.000000
_cell_angle_gamma 90.000000
_cell_volume 2218.899183
_symmetry_space_group_name_H-M "I -4 "
_symmetry_group_IT_number 82
_symmetry_cell_setting 'tetragonal'
loop_
_space_group_symop_operation_xyz
x,y,z
y,-x,-z
-x,-y,z
-y,x,-z
1/2+x,1/2+y,1/2+z
1/2+y,1/2-x,1/2-z
1/2-x,1/2-y,1/2+z
1/2-y,1/2+x,1/2-z
loop_
_atom_site_type_symbol
_atom_site_label
_atom_site_fract_x
_atom_site_fract_y
_atom_site_fract_z
Si Si1 0.326761 0.605163 0.420333
Si Si2 0.399942 0.013002 0.829270
Si Si3 0.884848 0.755123 0.594421
Si Si4 0.054043 0.811724 0.067992
Si Si5 0.226662 0.469465 0.038309
Si Si6 0.672192 0.890994 0.151247
O O1 0.290547 0.636043 0.656784
O O2 0.322685 0.525162 0.453720
O O3 0.402720 0.630264 0.450350
O O4 0.294564 0.622779 0.159820
O O5 0.445208 0.058096 0.650181
O O6 0.326104 0.999337 0.727831
O O7 0.386059 0.059001 0.058095
O O8 0.847265 0.683934 0.586417
O O9 0.965279 0.741333 0.619604
O O10 0.058555 0.795193 0.350941
O O11 0.085434 0.742949 0.961739
O O12 0.186925 0.407672 0.924707
#
# Coordination Sequence:
#
# PCOD9542780 Si02
#       6
#     8   8   8   8   8   8
#     4  11  26  47  73 102 136 176 227 288 350 417
#     4  10  21  34  55  92 134 182 240 283 330 396
#     4  11  25  43  69  99 139 179 227 275 342 410
#     4  10  25  45  70  99 136 175 228 286 350 410
#     4  10  22  39  63  94 136 183 229 280 341 400
#     4  11  23  38  65  92 138 187 223 280 338 407
#
# _framework density 21.632349999999999
#
# number of rings (size 3 to 8) (size 9 to 14) (size 15 to 20)
#    0.000    1.500    3.333    0.000    9.333    1.667 
#    0.000    1.667    0.000    2.000    0.000    0.000 
#    0.000    0.000    0.000    0.000    0.000    0.000 
#
# Total GULP energy -133687.283830 kJ/mol
# GULP energy per Si atom -5570.303493 kJ/mol
# Density = 2.158311 g / cm^3
# Si number density = 21.632350 Si / 1000 Ang^3
#
#
#
# Elastic Constant Matrix: (Units=GPa)
#
#
# Indices 1 2 3 4 5 6 
#
# 1 65.1605 44.6428 36.9670 0.0000 0.0000 -2.8377
# 2 44.6428 65.1605 36.9670 0.0000 0.0000 2.8377
# 3 36.9670 36.9670 74.0053 0.0000 0.0000 0.0000
# 4 0.0000 0.0000 0.0000 22.8426 0.0000 0.0000
# 5 0.0000 0.0000 0.0000 0.0000 22.8426 0.0000
# 6 -2.8377 2.8377 0.0000 0.0000 0.0000 33.7970
#
#
#
# Elastic Compliance Matrix: (Units=1/GPa)
#
#
# Indices 1 2 3 4 5 6 
#
# 1 0.031810 -0.018087 -0.006855 0.000000 0.000000 0.004189
# 2 -0.018087 0.031810 -0.006855 0.000000 0.000000 -0.004189
# 3 -0.006855 -0.006855 0.020361 0.000000 0.000000 0.000000
# 4 0.000000 0.000000 0.000000 0.043778 0.000000 0.000000
# 5 0.000000 0.000000 0.000000 0.000000 0.043778 0.000000
# 6 0.004189 -0.004189 0.000000 0.000000 0.000000 0.030292
#
#
# Mechanical properties :
#
#
# Convention : Reuss Voigt Hill
#
# Bulk Modulus (GPa) = 49.05055 49.05331 49.05193
# Shear Modulus (GPa) = 18.36767 21.61308 19.99038
#
# Velocity S-wave (km/s) = 2.91707 3.16430 3.04319
# Velocity P-wave (km/s) = 5.83691 6.00629 5.92221
#
# Compressibility (1/GPa) = 0.02038713
#
# Stress axis : x y z
#
# Youngs Moduli (GPa) = 31.43669 31.43669 49.11433
#
# Poissons Ratio (x) = 0.56860 0.33667
# Poissons Ratio (y) = 0.56860 0.33667
# Poissons Ratio (z) = 0.21549 0.21549
#
# Static dielectric constant tensor:
#      x y z
#    x 1.773800 0.000000 0.000000 
#    y 0.000000 1.773800 0.000000 
#    z 0.000000 0.000000 2.022180 
# 
# From -- ./inp_files/373.got.cif
#   From: 2010.05.17/outbox.cif.g08.bks.cpg/sg82_1_cif.got.tgz:373.got - 2010.06.03 18:52:26.
