data_PCOD9542122
_publ_section_title
;
Structure prediction by ZEFSAII (Michael W. Deem and Ramdas Pophale) SiO2 
 PCOD9542122
Probable space group: I 41
;
_chemical_formula_sum "Si O2"
_cell_formula_units_Z 52
_cell_length_a 18.120377
_cell_length_b 18.120377
_cell_length_c 7.069393
_cell_angle_alpha 90.000000
_cell_angle_beta 90.000000
_cell_angle_gamma 90.000000
_cell_volume 2321.221495
_symmetry_space_group_name_H-M "I 41"
_symmetry_group_IT_number 80
_symmetry_cell_setting 'tetragonal'
loop_
_space_group_symop_operation_xyz
x,y,z
-y,1/2+x,1/4+z
-x,-y,z
y,1/2-x,1/4+z
1/2+x,1/2+y,1/2+z
1/2-y,x,3/4+z
1/2-x,1/2-y,1/2+z
1/2+y,-x,3/4+z
loop_
_atom_site_type_symbol
_atom_site_label
_atom_site_fract_x
_atom_site_fract_y
_atom_site_fract_z
Si Si1 0.776985 0.155755 0.297340
Si Si2 0.951151 0.798724 0.868886
Si Si3 0.301501 0.336671 0.034601
Si Si4 0.650541 0.070668 0.860574
Si Si5 0.369560 0.398923 0.679978
Si Si6 0.000000 0.000000 0.153887
Si Si7 0.496665 0.274083 0.972191
O O1 0.807123 0.202004 0.473194
O O2 0.843039 0.160983 0.141648
O O3 0.764238 0.068852 0.314528
O O4 0.901741 0.853992 0.999726
O O5 0.032173 0.799236 0.956185
O O6 0.915602 0.717315 0.873950
O O7 0.959500 0.817862 0.646965
O O8 0.223136 0.316155 0.940755
O O9 0.353460 0.343407 0.852508
O O10 0.675449 0.029354 0.055288
O O11 0.567130 0.045630 0.807239
O O12 0.432574 0.455932 0.747830
O O13 0.292962 0.443687 0.652170
#
# Coordination Sequence:
#
# PCOD9542122 Si02
#       7
#     8   8   8   8   8   4   8
#     4  10  22  40  67  96 132 179 227 290 342 393
#     4  10  24  38  67  94 132 172 222 268 338 415
#     4  11  24  40  66  99 134 173 221 273 338 413
#     4  10  22  42  65  92 134 176 220 283 343 399
#     4  10  22  40  66  90 136 171 220 272 335 407
#     4  10  20  40  66  86 128 174 214 266 338 398
#     4  10  22  43  65  97 132 174 227 281 342 406
#
# _framework density 22.402000000000001
#
# number of rings (size 3 to 8) (size 9 to 14) (size 15 to 20)
#    0.000    1.846    1.538    0.923   12.923    0.000 
#    0.000    3.077    0.000    0.000    0.000    0.000 
#    0.000    0.000    0.000    0.000    0.000    0.000 
#
# Total GULP energy -144931.823985 kJ/mol
# GULP energy per Si atom -5574.300923 kJ/mol
# Density = 2.235101 g / cm^3
# Si number density = 22.402000 Si / 1000 Ang^3
#
#
#
# Elastic Constant Matrix: (Units=GPa)
#
#
# Indices 1 2 3 4 5 6 
#
# 1 54.2787 40.3632 19.5562 0.0000 0.0000 2.0333
# 2 40.3632 54.2787 19.5562 0.0000 0.0000 -2.0333
# 3 19.5562 19.5562 84.9187 0.0000 0.0000 0.0000
# 4 0.0000 0.0000 0.0000 25.4249 0.0000 0.0000
# 5 0.0000 0.0000 0.0000 0.0000 25.4249 0.0000
# 6 2.0333 -2.0333 0.0000 0.0000 0.0000 43.0985
#
#
#
# Elastic Compliance Matrix: (Units=1/GPa)
#
#
# Indices 1 2 3 4 5 6 
#
# 1 0.042272 -0.030595 -0.002689 0.000000 0.000000 -0.003438
# 2 -0.030595 0.042272 -0.002689 0.000000 0.000000 0.003438
# 3 -0.002689 -0.002689 0.013015 0.000000 0.000000 0.000000
# 4 0.000000 0.000000 0.000000 0.039331 0.000000 0.000000
# 5 0.000000 0.000000 0.000000 0.000000 0.039331 0.000000
# 6 -0.003438 0.003438 0.000000 0.000000 0.000000 0.023527
#
#
# Mechanical properties :
#
#
# Convention : Reuss Voigt Hill
#
# Bulk Modulus (GPa) = 39.04323 39.15859 39.10091
# Shear Modulus (GPa) = 17.84229 26.38970 22.11600
#
# Velocity S-wave (km/s) = 2.82522 3.43593 3.14544
# Velocity P-wave (km/s) = 5.30177 5.76704 5.53929
#
# Compressibility (1/GPa) = 0.02561264
#
# Stress axis : x y z
#
# Youngs Moduli (GPa) = 23.65620 23.65620 76.83673
#
# Poissons Ratio (x) = 0.72375 0.20663
# Poissons Ratio (y) = 0.72375 0.20663
# Poissons Ratio (z) = 0.06362 0.06362
#
# Static dielectric constant tensor:
#      x y z
#    x 1.909960 0.000000 0.000000 
#    y 0.000000 1.909960 0.000000 
#    z 0.000000 0.000000 1.835940 
# 
# From -- ./inp_files/339.got.cif
#   From: 2010.05.17/outbox.cif.g08.bks.cpg/sg80_cif.got.tgz:339.got - 2010.06.03 18:49:13.
