data_PCOD9542538
_publ_section_title
;
Structure prediction by ZEFSAII (Michael W. Deem and Ramdas Pophale) SiO2 
 PCOD9542538
Probable space group: P -4
;
_chemical_formula_sum "Si O2"
_cell_formula_units_Z 19
_cell_length_a 9.564144
_cell_length_b 9.564144
_cell_length_c 8.080145
_cell_angle_alpha 90.000000
_cell_angle_beta 90.000000
_cell_angle_gamma 90.000000
_cell_volume 739.113895
_symmetry_space_group_name_H-M "P -4"
_symmetry_group_IT_number 81
_symmetry_cell_setting 'tetragonal'
loop_
_space_group_symop_operation_xyz
x,y,z
y,-x,-z
-x,-y,z
-y,x,-z
loop_
_atom_site_type_symbol
_atom_site_label
_atom_site_fract_x
_atom_site_fract_y
_atom_site_fract_z
Si Si1 0.000000 0.000000 0.500000
Si Si2 0.732187 0.688011 0.080497
Si Si3 0.661825 0.008424 0.128359
Si Si4 0.840821 0.732291 0.546673
Si Si5 0.581237 0.710142 0.747541
Si Si6 0.000000 0.500000 0.335443
O O1 0.877603 0.117731 0.542126
O O2 0.678360 0.582914 0.222813
O O3 0.708791 0.849477 0.115915
O O4 0.895411 0.672257 0.034950
O O5 0.655672 0.647822 0.909091
O O6 0.744284 0.093669 0.269036
O O7 0.500000 0.000000 0.177423
O O8 0.678906 0.691451 0.586854
O O9 0.917022 0.609133 0.449841
O O10 0.579873 0.878834 0.761722
#
# Coordination Sequence:
#
# PCOD9542538 Si02
#       6
#     1   4   4   4   4   2
#     4  12  24  48  72 110 140 188 260 320 378 472
#     4  11  24  45  74 106 148 203 256 316 392 450
#     4  11  23  45  69 106 153 195 259 332 378 470
#     4  11  26  45  73 107 149 199 255 318 398 464
#     4  11  25  44  73 107 148 200 252 315 384 466
#     4  12  24  48  76 108 158 200 250 330 390 464
#
# _framework density 25.706457
#
# number of rings (size 3 to 8) (size 9 to 14) (size 15 to 20)
#    0.000    0.842    5.263    1.263    2.947    4.211 
#    0.000    0.000    0.000    0.000    0.000    0.000 
#    0.000    0.000    0.000    0.000    0.000    0.000 
#
# Total GULP energy -106024.935414 kJ/mol
# GULP energy per Si atom -5580.259759 kJ/mol
# Density = 2.564795 g / cm^3
# Si number density = 25.706457 Si / 1000 Ang^3
#
#
#
# Elastic Constant Matrix: (Units=GPa)
#
#
# Indices 1 2 3 4 5 6 
#
# 1 131.4394 38.8846 37.2649 0.0000 0.0000 2.3013
# 2 38.8846 131.4394 37.2649 0.0000 0.0000 -2.3013
# 3 37.2649 37.2649 67.0630 0.0000 0.0000 0.0000
# 4 0.0000 0.0000 0.0000 36.6551 0.0000 0.0000
# 5 0.0000 0.0000 0.0000 0.0000 36.6551 0.0000
# 6 2.3013 -2.3013 0.0000 0.0000 0.0000 33.4976
#
#
#
# Elastic Compliance Matrix: (Units=1/GPa)
#
#
# Indices 1 2 3 4 5 6 
#
# 1 0.009299 -0.001542 -0.004311 0.000000 0.000000 -0.000745
# 2 -0.001542 0.009299 -0.004311 0.000000 0.000000 0.000745
# 3 -0.004311 -0.004311 0.019702 0.000000 0.000000 0.000000
# 4 0.000000 0.000000 0.000000 0.027281 0.000000 0.000000
# 5 0.000000 0.000000 0.000000 0.000000 0.027281 0.000000
# 6 -0.000745 0.000745 0.000000 0.000000 0.000000 0.029955
#
#
# Mechanical properties :
#
#
# Convention : Reuss Voigt Hill
#
# Bulk Modulus (GPa) = 55.63468 61.86341 58.74905
# Shear Modulus (GPa) = 33.52638 35.79670 34.66154
#
# Velocity S-wave (km/s) = 3.61529 3.73569 3.67598
# Velocity P-wave (km/s) = 6.25431 6.53642 6.39692
#
# Compressibility (1/GPa) = 0.01797440
#
# Stress axis : x y z
#
# Youngs Moduli (GPa) = 107.53380 107.53380 50.75672
#
# Poissons Ratio (x) = 0.16582 0.21879
# Poissons Ratio (y) = 0.16582 0.21879
# Poissons Ratio (z) = 0.46353 0.46353
#
# Static dielectric constant tensor:
#      x y z
#    x 2.072380 0.000000 0.000000 
#    y 0.000000 2.072380 0.000000 
#    z 0.000000 0.000000 2.190900 
# 
# From -- ./inp_files/1273.got.cif
#   From: 2010.05.17/outbox.cif.g08.bks.cpg/sg81_cif.got.tgz:1273.got - 2010.06.03 18:51:07.
