data_PCOD9542990
_publ_section_title
;
Structure prediction by ZEFSAII (Michael W. Deem and Ramdas Pophale) SiO2 
 PCOD9542990
Probable space group: I -4 
;
_chemical_formula_sum "Si O2"
_cell_formula_units_Z 36
_cell_length_a 8.464621
_cell_length_b 8.464621
_cell_length_c 25.283794
_cell_angle_alpha 90.000000
_cell_angle_beta 90.000000
_cell_angle_gamma 90.000000
_cell_volume 1811.579003
_symmetry_space_group_name_H-M "I -4 "
_symmetry_group_IT_number 82
_symmetry_cell_setting 'tetragonal'
loop_
_space_group_symop_operation_xyz
x,y,z
y,-x,-z
-x,-y,z
-y,x,-z
1/2+x,1/2+y,1/2+z
1/2+y,1/2-x,1/2-z
1/2-x,1/2-y,1/2+z
1/2-y,1/2+x,1/2-z
loop_
_atom_site_type_symbol
_atom_site_label
_atom_site_fract_x
_atom_site_fract_y
_atom_site_fract_z
Si Si1 0.750659 0.076496 0.753937
Si Si2 0.065253 0.321056 0.564928
Si Si3 0.500000 0.000000 0.250000
Si Si4 0.663978 0.556923 0.640586
Si Si5 0.228467 0.392359 0.829328
Si Si6 0.000000 0.000000 0.500000
O O1 0.599981 0.189765 0.748780
O O2 0.839315 0.116037 0.808274
O O3 0.845131 0.115120 0.700683
O O4 0.229006 0.358787 0.596119
O O5 0.000000 0.500000 0.548266
O O6 0.956544 0.257782 0.612607
O O7 0.060414 0.168905 0.526273
O O8 0.515737 0.852999 0.211084
O O9 0.500000 0.500000 0.615674
O O10 0.757521 0.405383 0.663793
#
# Coordination Sequence:
#
# PCOD9542990 Si02
#       6
#     8   8   2   8   8   2
#     4  11  23  33  51  98 146 184 229 268 335 419
#     4  10  25  48  72 103 132 178 245 298 374 430
#     4  12  16  32  64  92 132 172 216 256 320 426
#     4  11  21  38  63  94 136 184 228 279 348 424
#     4  11  19  36  60  90 136 179 222 276 329 420
#     4  12  28  56  80 104 136 180 248 332 368 430
#
# _framework density 19.872167000000001
#
# number of rings (size 3 to 8) (size 9 to 14) (size 15 to 20)
#    0.000    1.111    7.778    0.000    3.111    0.000 
#    8.000    0.000    0.000    0.000    0.000    0.000 
#    0.000    0.000    0.000    0.000    0.000    0.000 
#
# Total GULP energy -100238.043818 kJ/mol
# GULP energy per Si atom -5568.780212 kJ/mol
# Density = 1.982694 g / cm^3
# Si number density = 19.872167 Si / 1000 Ang^3
#
#
#
# Elastic Constant Matrix: (Units=GPa)
#
#
# Indices 1 2 3 4 5 6 
#
# 1 85.3723 63.3508 40.8111 0.0000 0.0000 -4.4709
# 2 63.3508 85.3723 40.8111 0.0000 0.0000 4.4709
# 3 40.8111 40.8111 59.6645 0.0000 0.0000 0.0000
# 4 0.0000 0.0000 0.0000 16.1301 0.0000 0.0000
# 5 0.0000 0.0000 0.0000 0.0000 16.1301 0.0000
# 6 -4.4709 4.4709 0.0000 0.0000 0.0000 27.0559
#
#
#
# Elastic Compliance Matrix: (Units=1/GPa)
#
#
# Indices 1 2 3 4 5 6 
#
# 1 0.029721 -0.018956 -0.007363 0.000000 0.000000 0.008044
# 2 -0.018956 0.029721 -0.007363 0.000000 0.000000 -0.008044
# 3 -0.007363 -0.007363 0.026834 0.000000 0.000000 0.000000
# 4 0.000000 0.000000 0.000000 0.061996 0.000000 0.000000
# 5 0.000000 0.000000 0.000000 0.000000 0.061996 0.000000
# 6 0.008044 -0.008044 0.000000 0.000000 0.000000 0.039619
#
#
# Mechanical properties :
#
#
# Convention : Reuss Voigt Hill
#
# Bulk Modulus (GPa) = 52.88156 57.81721 55.34938
# Shear Modulus (GPa) = 15.45336 17.55896 16.50616
#
# Velocity S-wave (km/s) = 2.79164 2.97576 2.88517
# Velocity P-wave (km/s) = 6.08766 6.40036 6.24597
#
# Compressibility (1/GPa) = 0.01891018
#
# Stress axis : x y z
#
# Youngs Moduli (GPa) = 33.64659 33.64659 37.26649
#
# Poissons Ratio (x) = 0.63779 0.27441
# Poissons Ratio (y) = 0.63779 0.27441
# Poissons Ratio (z) = 0.24776 0.24776
#
# Static dielectric constant tensor:
#      x y z
#    x 1.799070 0.000000 0.000000 
#    y 0.000000 1.799070 0.000000 
#    z 0.000000 0.000000 1.683960 
# 
# From -- ./inp_files/3004.got.cif
#   From: 2010.05.17/outbox.cif.g08.bks.cpg/sg82_2_cif.got.tgz:3004.got - 2010.06.03 18:52:26.
