data_PCOD9542944
_publ_section_title
;
Structure prediction by ZEFSAII (Michael W. Deem and Ramdas Pophale) SiO2 
 PCOD9542944
Probable space group: I -4 
;
_chemical_formula_sum "Si O2"
_cell_formula_units_Z 60
_cell_length_a 11.505640
_cell_length_b 11.505640
_cell_length_c 20.742693
_cell_angle_alpha 90.000000
_cell_angle_beta 90.000000
_cell_angle_gamma 90.000000
_cell_volume 2745.912551
_symmetry_space_group_name_H-M "I -4 "
_symmetry_group_IT_number 82
_symmetry_cell_setting 'tetragonal'
loop_
_space_group_symop_operation_xyz
x,y,z
y,-x,-z
-x,-y,z
-y,x,-z
1/2+x,1/2+y,1/2+z
1/2+y,1/2-x,1/2-z
1/2-x,1/2-y,1/2+z
1/2-y,1/2+x,1/2-z
loop_
_atom_site_type_symbol
_atom_site_label
_atom_site_fract_x
_atom_site_fract_y
_atom_site_fract_z
Si Si1 0.914980 0.897096 0.214940
Si Si2 0.176758 0.502467 0.216925
Si Si3 0.680891 0.233312 0.370792
Si Si4 0.618738 0.058535 0.097090
Si Si5 0.500000 0.500000 0.895776
Si Si6 0.735500 0.503478 0.820339
Si Si7 0.518700 0.749469 0.931531
Si Si8 0.234064 0.300883 0.991809
O O1 0.984982 0.809472 0.260881
O O2 0.860642 0.820079 0.159097
O O3 0.801984 0.950973 0.250836
O O4 0.000000 0.000000 0.195152
O O5 0.112449 0.395215 0.253142
O O6 0.185786 0.500906 0.137906
O O7 0.550824 0.185494 0.374374
O O8 0.735792 0.246890 0.441202
O O9 0.745908 0.134361 0.329054
O O10 0.571344 0.156109 0.147777
O O11 0.500000 0.000000 0.069317
O O12 0.713969 0.121290 0.052072
O O13 0.616603 0.530229 0.858089
O O14 0.470846 0.617297 0.931374
O O15 0.436580 0.792490 0.989175
O O16 0.652887 0.735075 0.950547
#
# Coordination Sequence:
#
# PCOD9542944 Si02
#       8
#     8   8   8   8   4   8   8   8
#     4  12  26  43  72 101 134 180 233 299 344 416
#     4  11  26  47  68 107 145 189 233 286 363 432
#     4  11  27  45  64  99 140 184 235 276 347 435
#     4  10  23  45  63  98 138 177 232 277 346 424
#     4  12  18  37  66 110 132 160 223 300 362 396
#     4  11  21  42  70 101 136 169 226 295 361 412
#     4  12  22  40  74 106 141 174 234 308 364 415
#     4  12  23  43  70 104 134 186 229 298 357 410
#
# _framework density 21.850657999999999
#
# number of rings (size 3 to 8) (size 9 to 14) (size 15 to 20)
#    0.000    0.667    4.667    3.200    3.733    1.067 
#   14.400    0.000    0.000    0.000    0.000    0.000 
#    0.000    0.000    0.000    0.000    0.000    0.000 
#
# Total GULP energy -167286.285489 kJ/mol
# GULP energy per Si atom -5576.209516 kJ/mol
# Density = 2.180092 g / cm^3
# Si number density = 21.850658 Si / 1000 Ang^3
#
#
#
# Elastic Constant Matrix: (Units=GPa)
#
#
# Indices 1 2 3 4 5 6 
#
# 1 80.8631 9.9839 20.3509 0.0000 0.0000 -1.0905
# 2 9.9839 80.8631 20.3509 0.0000 0.0000 1.0905
# 3 20.3509 20.3509 67.1593 0.0000 0.0000 0.0000
# 4 0.0000 0.0000 0.0000 20.1884 0.0000 0.0000
# 5 0.0000 0.0000 0.0000 0.0000 20.1884 0.0000
# 6 -1.0905 1.0905 0.0000 0.0000 0.0000 17.8944
#
#
#
# Elastic Compliance Matrix: (Units=1/GPa)
#
#
# Indices 1 2 3 4 5 6 
#
# 1 0.013436 -0.000699 -0.003860 0.000000 0.000000 0.000861
# 2 -0.000699 0.013436 -0.003860 0.000000 0.000000 -0.000861
# 3 -0.003860 -0.003860 0.017229 0.000000 0.000000 0.000000
# 4 0.000000 0.000000 0.000000 0.049533 0.000000 0.000000
# 5 0.000000 0.000000 0.000000 0.000000 0.049533 0.000000
# 6 0.000861 -0.000861 0.000000 0.000000 0.000000 0.055989
#
#
# Mechanical properties :
#
#
# Convention : Reuss Voigt Hill
#
# Bulk Modulus (GPa) = 36.67800 36.69521 36.68661
# Shear Modulus (GPa) = 22.21429 23.53423 22.87426
#
# Velocity S-wave (km/s) = 3.19194 3.28540 3.23901
# Velocity P-wave (km/s) = 5.51424 5.58766 5.55107
#
# Compressibility (1/GPa) = 0.02726430
#
# Stress axis : x y z
#
# Youngs Moduli (GPa) = 74.42772 74.42772 58.04156
#
# Poissons Ratio (x) = 0.05204 0.22401
# Poissons Ratio (y) = 0.05204 0.22401
# Poissons Ratio (z) = 0.28726 0.28726
#
# Static dielectric constant tensor:
#      x y z
#    x 1.827010 0.000000 0.000000 
#    y 0.000000 1.827010 0.000000 
#    z 0.000000 0.000000 1.882970 
# 
# From -- ./inp_files/3187.got.cif
#   From: 2010.05.17/outbox.cif.g08.bks.cpg/sg82_2_cif.got.tgz:3187.got - 2010.06.03 18:52:26.
