data_PCOD9542375
_publ_section_title
;
Structure prediction by ZEFSAII (Michael W. Deem and Ramdas Pophale) SiO2 
 PCOD9542375
Probable space group: P -4
;
_chemical_formula_sum "Si O2"
_cell_formula_units_Z 26
_cell_length_a 13.021636
_cell_length_b 13.021636
_cell_length_c 7.244213
_cell_angle_alpha 90.000000
_cell_angle_beta 90.000000
_cell_angle_gamma 90.000000
_cell_volume 1228.350519
_symmetry_space_group_name_H-M "P -4"
_symmetry_group_IT_number 81
_symmetry_cell_setting 'tetragonal'
loop_
_space_group_symop_operation_xyz
x,y,z
y,-x,-z
-x,-y,z
-y,x,-z
loop_
_atom_site_type_symbol
_atom_site_label
_atom_site_fract_x
_atom_site_fract_y
_atom_site_fract_z
Si Si1 0.500000 0.500000 0.000000
Si Si2 0.551433 0.840036 0.538420
Si Si3 0.372535 0.249521 0.180629
Si Si4 0.753227 0.951918 0.112810
Si Si5 0.052951 0.342829 0.538361
Si Si6 0.713588 0.529295 0.118790
Si Si7 0.054283 0.172850 0.258888
Si Si8 0.000000 0.000000 0.500000
O O1 0.487276 0.402757 0.867845
O O2 0.608155 0.763791 0.397876
O O3 0.444020 0.878588 0.450937
O O4 0.520113 0.787410 0.729477
O O5 0.621154 0.942602 0.547349
O O6 0.321107 0.146124 0.104773
O O7 0.301897 0.348417 0.136104
O O8 0.482590 0.257234 0.079370
O O9 0.858924 0.905132 0.189976
O O10 0.705687 0.029378 0.262808
O O11 0.774420 0.003153 0.917028
O O12 0.096563 0.258460 0.398285
O O13 0.978263 0.099913 0.375925
#
# Coordination Sequence:
#
# PCOD9542375 Si02
#       8
#     1   4   4   4   4   4   4   1
#     4   8  20  36  58  88 132 158 212 260 306 376
#     4  10  22  41  66  90 123 163 206 257 318 368
#     4  10  23  40  61  95 126 159 214 253 306 383
#     4  11  24  40  64  92 124 169 206 256 319 367
#     4  10  23  42  62  93 125 159 209 263 307 377
#     4  10  20  40  61  90 125 165 201 257 311 364
#     4  12  23  42  63  90 127 166 209 255 313 370
#     4  12  24  42  60  96 126 160 212 262 300 376
#
# _framework density 21.166596999999999
#
# number of rings (size 3 to 8) (size 9 to 14) (size 15 to 20)
#    0.000    1.538    1.538    2.769    0.000    6.154 
#    0.000    3.846    0.000    0.000    0.000    0.000 
#    0.000    0.000    0.000    0.000    0.000    0.000 
#
# Total GULP energy -145217.216898 kJ/mol
# GULP energy per Si atom -5585.277573 kJ/mol
# Density = 2.111842 g / cm^3
# Si number density = 21.166597 Si / 1000 Ang^3
#
#
#
# Elastic Constant Matrix: (Units=GPa)
#
#
# Indices 1 2 3 4 5 6 
#
# 1 45.6214 -12.7339 16.6863 0.0000 0.0000 5.3816
# 2 -12.7339 45.6214 16.6863 0.0000 0.0000 -5.3816
# 3 16.6863 16.6863 74.2060 0.0000 0.0000 0.0000
# 4 0.0000 0.0000 0.0000 30.5780 0.0000 0.0000
# 5 0.0000 0.0000 0.0000 0.0000 30.5780 0.0000
# 6 5.3816 -5.3816 0.0000 0.0000 0.0000 21.5956
#
#
#
# Elastic Compliance Matrix: (Units=1/GPa)
#
#
# Indices 1 2 3 4 5 6 
#
# 1 0.028679 0.010717 -0.008859 0.000000 0.000000 -0.004476
# 2 0.010717 0.028679 -0.008859 0.000000 0.000000 0.004476
# 3 -0.008859 -0.008859 0.017460 0.000000 0.000000 0.000000
# 4 0.000000 0.000000 0.000000 0.032703 0.000000 0.000000
# 5 0.000000 0.000000 0.000000 0.000000 0.032703 0.000000
# 6 -0.004476 0.004476 0.000000 0.000000 0.000000 0.048537
#
#
# Mechanical properties :
#
#
# Convention : Reuss Voigt Hill
#
# Bulk Modulus (GPa) = 16.44272 22.96958 19.70615
# Shear Modulus (GPa) = 22.41804 26.20433 24.31118
#
# Velocity S-wave (km/s) = 3.25795 3.52235 3.39272
# Velocity P-wave (km/s) = 4.68374 5.23621 4.96766
#
# Compressibility (1/GPa) = 0.06081718
#
# Stress axis : x y z
#
# Youngs Moduli (GPa) = 34.86862 34.86862 57.27361
#
# Poissons Ratio (x) = -0.37369 0.50738
# Poissons Ratio (y) = -0.37369 0.50738
# Poissons Ratio (z) = 0.30889 0.30889
#
# Static dielectric constant tensor:
#      x y z
#    x 1.783670 0.000000 0.000000 
#    y 0.000000 1.783670 0.000000 
#    z 0.000000 0.000000 1.765660 
# 
# From -- ./inp_files/364.got.cif
#   From: 2010.05.17/outbox.cif.g08.bks.cpg/sg81_cif.got.tgz:364.got - 2010.06.03 18:51:07.
