data_PCOD9542999
_publ_section_title
;
Structure prediction by ZEFSAII (Michael W. Deem and Ramdas Pophale) SiO2 
 PCOD9542999
Probable space group: I -4 
;
_chemical_formula_sum "Si O2"
_cell_formula_units_Z 20
_cell_length_a 5.236058
_cell_length_b 5.236058
_cell_length_c 31.633013
_cell_angle_alpha 90.000000
_cell_angle_beta 90.000000
_cell_angle_gamma 90.000000
_cell_volume 867.260281
_symmetry_space_group_name_H-M "I -4 "
_symmetry_group_IT_number 82
_symmetry_cell_setting 'tetragonal'
loop_
_space_group_symop_operation_xyz
x,y,z
y,-x,-z
-x,-y,z
-y,x,-z
1/2+x,1/2+y,1/2+z
1/2+y,1/2-x,1/2-z
1/2-x,1/2-y,1/2+z
1/2-y,1/2+x,1/2-z
loop_
_atom_site_type_symbol
_atom_site_label
_atom_site_fract_x
_atom_site_fract_y
_atom_site_fract_z
Si Si1 0.500000 0.500000 0.109738
Si Si2 0.500000 0.000000 0.444548
Si Si3 0.500000 0.000000 0.250000
Si Si4 0.749901 0.349909 0.192429
Si Si5 0.500000 0.500000 0.500000
O O1 0.425079 0.254089 0.082181
O O2 0.709683 0.374879 0.141851
O O3 0.437044 0.249762 0.472240
O O4 0.284312 0.916141 0.216049
O O5 0.500000 0.500000 0.207742
O O6 0.000000 0.500000 0.203667
#
# Coordination Sequence:
#
# PCOD9542999 Si02
#       5
#     4   4   2   8   2
#     4  10  26  47  76 101 150 192 252 297 374 437
#     4  12  25  46  76 107 148 188 234 307 360 466
#     4  12  26  48  72 108 160 204 264 328 376 444
#     4  10  27  43  72 106 144 201 255 315 371 443
#     4  12  28  44  76 114 144 184 236 290 392 440
#
# _framework density 23.061126000000002
#
# number of rings (size 3 to 8) (size 9 to 14) (size 15 to 20)
#    1.200    0.000    0.000    3.600   11.200    0.000 
#    0.000    0.000    0.000    0.000    0.000    0.000 
#    0.000    0.000    0.000    0.000    0.000    0.000 
#
# Total GULP energy -55736.243504 kJ/mol
# GULP energy per Si atom -5573.624350 kJ/mol
# Density = 2.300864 g / cm^3
# Si number density = 23.061126 Si / 1000 Ang^3
#
#
#
# Elastic Constant Matrix: (Units=GPa)
#
#
# Indices 1 2 3 4 5 6 
#
# 1 123.8285 8.5771 35.9768 0.0000 0.0000 6.5862
# 2 8.5771 123.8285 35.9768 0.0000 0.0000 -6.5862
# 3 35.9768 35.9768 119.6550 0.0000 0.0000 0.0000
# 4 0.0000 0.0000 0.0000 47.1090 0.0000 0.0000
# 5 0.0000 0.0000 0.0000 0.0000 47.1090 0.0000
# 6 6.5862 -6.5862 0.0000 0.0000 0.0000 38.5251
#
#
#
# Elastic Compliance Matrix: (Units=1/GPa)
#
#
# Indices 1 2 3 4 5 6 
#
# 1 0.008939 0.000089 -0.002714 0.000000 0.000000 -0.001513
# 2 0.000089 0.008939 -0.002714 0.000000 0.000000 0.001513
# 3 -0.002714 -0.002714 0.009990 0.000000 0.000000 0.000000
# 4 0.000000 0.000000 0.000000 0.021227 0.000000 0.000000
# 5 0.000000 0.000000 0.000000 0.000000 0.021227 0.000000
# 6 -0.001513 0.001513 0.000000 0.000000 0.000000 0.026474
#
#
# Mechanical properties :
#
#
# Convention : Reuss Voigt Hill
#
# Bulk Modulus (GPa) = 58.18190 58.70813 58.44501
# Shear Modulus (GPa) = 44.16787 45.66737 44.91762
#
# Velocity S-wave (km/s) = 4.38111 4.45486 4.41814
# Velocity P-wave (km/s) = 7.13276 7.20929 7.17113
#
# Compressibility (1/GPa) = 0.01718748
#
# Stress axis : x y z
#
# Youngs Moduli (GPa) = 111.87421 111.87421 100.10404
#
# Poissons Ratio (x) = -0.00996 0.27172
# Poissons Ratio (y) = -0.00996 0.27172
# Poissons Ratio (z) = 0.30366 0.30366
#
# Static dielectric constant tensor:
#      x y z
#    x 1.774520 0.000000 0.000000 
#    y 0.000000 1.774520 0.000000 
#    z 0.000000 0.000000 1.908620 
# 
# From -- ./inp_files/3602.got.cif
#   From: 2010.05.17/outbox.cif.g08.bks.cpg/sg82_2_cif.got.tgz:3602.got - 2010.06.03 18:52:26.
