data_PCOD9542902
_publ_section_title
;
Structure prediction by ZEFSAII (Michael W. Deem and Ramdas Pophale) SiO2 
 PCOD9542902
Probable space group: I -4 
;
_chemical_formula_sum "Si O2"
_cell_formula_units_Z 40
_cell_length_a 8.265453
_cell_length_b 8.265453
_cell_length_c 23.942527
_cell_angle_alpha 90.000000
_cell_angle_beta 90.000000
_cell_angle_gamma 90.000000
_cell_volume 1635.698695
_symmetry_space_group_name_H-M "I -4 "
_symmetry_group_IT_number 82
_symmetry_cell_setting 'tetragonal'
loop_
_space_group_symop_operation_xyz
x,y,z
y,-x,-z
-x,-y,z
-y,x,-z
1/2+x,1/2+y,1/2+z
1/2+y,1/2-x,1/2-z
1/2-x,1/2-y,1/2+z
1/2-y,1/2+x,1/2-z
loop_
_atom_site_type_symbol
_atom_site_label
_atom_site_fract_x
_atom_site_fract_y
_atom_site_fract_z
Si Si1 0.500000 0.000000 0.250000
Si Si2 0.685573 0.946245 0.927243
Si Si3 0.490426 0.193958 0.688218
Si Si4 0.210484 0.630646 0.837906
Si Si5 0.294836 0.229090 0.043817
Si Si6 0.500000 0.500000 0.000000
Si Si7 0.500000 0.500000 0.227029
O O1 0.369129 0.066465 0.206875
O O2 0.734530 0.893557 0.864816
O O3 0.784198 0.106741 0.942629
O O4 0.500000 0.000000 0.921899
O O5 0.692301 0.837277 0.981507
O O6 0.307501 0.212325 0.666253
O O7 0.509526 0.334143 0.735412
O O8 0.500000 0.000000 0.698703
O O9 0.159881 0.610185 0.902349
O O10 0.342572 0.506014 0.813248
O O11 0.369173 0.408438 0.037977
#
# Coordination Sequence:
#
# PCOD9542902 Si02
#       7
#     2   8   8   8   8   2   4
#     4  12  24  48  68 104 152 188 252 320 382 480
#     4  10  22  44  67 103 139 184 243 304 377 443
#     4  10  25  46  74 103 148 196 255 322 376 466
#     4  11  26  45  69 106 145 195 252 311 393 464
#     4  11  24  43  71 101 140 185 240 306 377 458
#     4  12  22  40  68 104 132 182 232 288 366 452
#     4  12  25  46  72 108 144 201 250 306 394 464
#
# _framework density 24.45438
#
# number of rings (size 3 to 8) (size 9 to 14) (size 15 to 20)
#    0.000    1.200    4.000    0.600    4.200    3.600 
#    3.600    0.000    0.000    0.000    0.000    0.000 
#    0.000    0.000    0.000    0.000    0.000    0.000 
#
# Total GULP energy -111527.284044 kJ/mol
# GULP energy per Si atom -5576.364202 kJ/mol
# Density = 2.439872 g / cm^3
# Si number density = 24.454380 Si / 1000 Ang^3
#
#
#
# Elastic Constant Matrix: (Units=GPa)
#
#
# Indices 1 2 3 4 5 6 
#
# 1 65.5496 17.9734 42.7461 0.0000 0.0000 -3.5901
# 2 17.9734 65.5496 42.7461 0.0000 0.0000 3.5901
# 3 42.7461 42.7461 198.9028 0.0000 0.0000 0.0000
# 4 0.0000 0.0000 0.0000 29.4383 0.0000 0.0000
# 5 0.0000 0.0000 0.0000 0.0000 29.4383 0.0000
# 6 -3.5901 3.5901 0.0000 0.0000 0.0000 28.9798
#
#
#
# Elastic Compliance Matrix: (Units=1/GPa)
#
#
# Indices 1 2 3 4 5 6 
#
# 1 0.018384 -0.003035 -0.003299 0.000000 0.000000 0.002654
# 2 -0.003035 0.018384 -0.003299 0.000000 0.000000 -0.002654
# 3 -0.003299 -0.003299 0.006445 0.000000 0.000000 0.000000
# 4 0.000000 0.000000 0.000000 0.033969 0.000000 0.000000
# 5 0.000000 0.000000 0.000000 0.000000 0.033969 0.000000
# 6 0.002654 -0.002654 0.000000 0.000000 0.000000 0.035164
#
#
# Mechanical properties :
#
#
# Convention : Reuss Voigt Hill
#
# Bulk Modulus (GPa) = 41.75523 59.65924 50.70724
# Shear Modulus (GPa) = 28.80763 32.67368 30.74066
#
# Velocity S-wave (km/s) = 3.43595 3.65925 3.54935
# Velocity P-wave (km/s) = 5.73173 6.50404 6.13006
#
# Compressibility (1/GPa) = 0.02394910
#
# Stress axis : x y z
#
# Youngs Moduli (GPa) = 54.39419 54.39419 155.14886
#
# Poissons Ratio (x) = 0.16509 0.51179
# Poissons Ratio (y) = 0.16509 0.51179
# Poissons Ratio (z) = 0.17943 0.17943
#
# Static dielectric constant tensor:
#      x y z
#    x 2.054030 0.000000 0.000000 
#    y 0.000000 2.054030 0.000000 
#    z 0.000000 0.000000 2.104930 
# 
# From -- ./inp_files/3432.got.cif
#   From: 2010.05.17/outbox.cif.g08.bks.cpg/sg82_2_cif.got.tgz:3432.got - 2010.06.03 18:52:26.
