data_PCOD9542049
_publ_section_title
;
Structure prediction by ZEFSAII (Michael W. Deem and Ramdas Pophale) SiO2 
 PCOD9542049
Probable space group: I 4
;
_chemical_formula_sum "Si O2"
_cell_formula_units_Z 26
_cell_length_a 12.791557
_cell_length_b 12.791557
_cell_length_c 7.080037
_cell_angle_alpha 90.000000
_cell_angle_beta 90.000000
_cell_angle_gamma 90.000000
_cell_volume 1158.463482
_symmetry_space_group_name_H-M "I 4"
_symmetry_group_IT_number 79
_symmetry_cell_setting 'tetragonal'
loop_
_space_group_symop_operation_xyz
x,y,z
-y,x,z
-x,-y,z
y,-x,z
1/2+x,1/2+y,1/2+z
1/2-y,1/2+x,1/2+z
1/2-x,1/2-y,1/2+z
1/2+y,1/2-x,1/2+z
loop_
_atom_site_type_symbol
_atom_site_label
_atom_site_fract_x
_atom_site_fract_y
_atom_site_fract_z
Si Si1 0.000000 0.000000 0.597451
Si Si2 0.114679 0.218393 0.688621
Si Si3 0.625876 0.010453 0.406487
Si Si4 0.797775 0.349447 0.560069
O O1 0.113504 0.935865 0.604378
O O2 0.063725 0.318843 0.586767
O O3 0.238228 0.226008 0.649414
O O4 0.100972 0.214496 0.916464
O O5 0.500000 0.000000 0.415766
O O6 0.669086 0.894255 0.418787
O O7 0.663821 0.073222 0.223728
#
# Coordination Sequence:
#
# PCOD9542049 Si02
#       4
#     2   8   8   8
#     4  12  28  52  70 112 168 194 248 320 382 464
#     4  12  26  48  77 109 153 205 251 319 383 457
#     4  12  26  47  77 114 150 195 262 323 372 453
#     4  12  25  45  78 111 151 203 256 312 389 454
#
# _framework density 22.443518999999998
#
# number of rings (size 3 to 8) (size 9 to 14) (size 15 to 20)
#    0.000    0.000    6.154    4.615    0.000    3.692 
#    0.000    1.538    0.000    0.000    0.000    0.000 
#    0.000    0.000    0.000    0.000    0.000    0.000 
#
# Total GULP energy -72408.457014 kJ/mol
# GULP energy per Si atom -5569.881309 kJ/mol
# Density = 2.239244 g / cm^3
# Si number density = 22.443519 Si / 1000 Ang^3
#
#
#
# Elastic Constant Matrix: (Units=GPa)
#
#
# Indices 1 2 3 4 5 6 
#
# 1 63.0013 26.4113 26.1833 0.0000 0.0000 -6.4834
# 2 26.4113 63.0013 26.1833 0.0000 0.0000 6.4834
# 3 26.1833 26.1833 106.2612 0.0000 0.0000 0.0000
# 4 0.0000 0.0000 0.0000 32.1727 0.0000 0.0000
# 5 0.0000 0.0000 0.0000 0.0000 32.1727 0.0000
# 6 -6.4834 6.4834 0.0000 0.0000 0.0000 55.0354
#
#
#
# Elastic Compliance Matrix: (Units=1/GPa)
#
#
# Indices 1 2 3 4 5 6 
#
# 1 0.020795 -0.007725 -0.003221 0.000000 0.000000 0.003360
# 2 -0.007725 0.020795 -0.003221 0.000000 0.000000 -0.003360
# 3 -0.003221 -0.003221 0.010998 0.000000 0.000000 0.000000
# 4 0.000000 0.000000 0.000000 0.031082 0.000000 0.000000
# 5 0.000000 0.000000 0.000000 0.000000 0.031082 0.000000
# 6 0.003360 -0.003360 0.000000 0.000000 0.000000 0.018962
#
#
# Mechanical properties :
#
#
# Convention : Reuss Voigt Hill
#
# Bulk Modulus (GPa) = 41.22659 43.31328 42.26993
# Shear Modulus (GPa) = 29.38877 34.10856 31.74866
#
# Velocity S-wave (km/s) = 3.62256 3.90263 3.76520
# Velocity P-wave (km/s) = 5.99218 6.29667 6.14631
#
# Compressibility (1/GPa) = 0.02425619
#
# Stress axis : x y z
#
# Youngs Moduli (GPa) = 48.08744 48.08744 90.92636
#
# Poissons Ratio (x) = 0.37148 0.29284
# Poissons Ratio (y) = 0.37148 0.29284
# Poissons Ratio (z) = 0.15487 0.15487
#
# Static dielectric constant tensor:
#      x y z
#    x 1.864830 0.000000 0.000000 
#    y 0.000000 1.864830 0.000000 
#    z 0.000000 0.000000 1.947930 
# 
# From -- ./inp_files/71.got.cif
#   From: 2010.05.17/outbox.cif.g08.bks.cpg/sg79_cif.got.tgz:71.got - 2010.06.03 18:47:27.
