data_PCOD9542275
_publ_section_title
;
Structure prediction by ZEFSAII (Michael W. Deem and Ramdas Pophale) SiO2 
 PCOD9542275
Probable space group: I 41
;
_chemical_formula_sum "Si O2"
_cell_formula_units_Z 32
_cell_length_a 11.709795
_cell_length_b 11.709795
_cell_length_c 8.846288
_cell_angle_alpha 90.000000
_cell_angle_beta 90.000000
_cell_angle_gamma 90.000000
_cell_volume 1212.996809
_symmetry_space_group_name_H-M "I 41"
_symmetry_group_IT_number 80
_symmetry_cell_setting 'tetragonal'
loop_
_space_group_symop_operation_xyz
x,y,z
-y,1/2+x,1/4+z
-x,-y,z
y,1/2-x,1/4+z
1/2+x,1/2+y,1/2+z
1/2-y,x,3/4+z
1/2-x,1/2-y,1/2+z
1/2+y,-x,3/4+z
loop_
_atom_site_type_symbol
_atom_site_label
_atom_site_fract_x
_atom_site_fract_y
_atom_site_fract_z
Si Si1 0.009529 0.812864 0.437710
Si Si2 0.390885 0.271811 0.496313
Si Si3 0.171619 0.025363 0.452853
Si Si4 0.828646 0.357598 0.278855
O O1 0.994245 0.786594 0.613786
O O2 0.903257 0.084639 0.422648
O O3 0.063612 0.703258 0.360133
O O4 0.005364 0.843694 0.037401
O O5 0.389820 0.363396 0.883331
O O6 0.452802 0.186059 0.378309
O O7 0.299243 0.335937 0.385665
O O8 0.711509 0.326251 0.370060
#
# Coordination Sequence:
#
# PCOD9542275 Si02
#       4
#     8   8   8   8
#     4  11  24  48  81 128 168 231 282 351 429 515
#     4  12  30  57  85 122 176 226 295 365 441 518
#     4  11  24  47  88 120 170 230 282 353 434 511
#     4  12  28  53  86 129 176 223 298 354 432 526
#
# _framework density 26.380942999999998
#
# number of rings (size 3 to 8) (size 9 to 14) (size 15 to 20)
#    0.000    0.500    5.000    1.500    3.500    3.000 
#    9.000    0.000    0.000    0.000    0.000    0.000 
#    0.000    0.000    0.000    0.000    0.000    0.000 
#
# Total GULP energy -89531.487855 kJ/mol
# GULP energy per Si atom -5595.717991 kJ/mol
# Density = 2.632090 g / cm^3
# Si number density = 26.380943 Si / 1000 Ang^3
#
#
#
# Elastic Constant Matrix: (Units=GPa)
#
#
# Indices 1 2 3 4 5 6 
#
# 1 82.1966 88.7104 58.9822 0.0000 0.0000 21.3675
# 2 88.7104 82.1966 58.9822 0.0000 0.0000 -21.3675
# 3 58.9822 58.9822 121.8298 0.0000 0.0000 0.0000
# 4 0.0000 0.0000 0.0000 40.4546 0.0000 0.0000
# 5 0.0000 0.0000 0.0000 0.0000 40.4546 0.0000
# 6 21.3675 -21.3675 0.0000 0.0000 0.0000 35.8067
#
#
#
# Elastic Compliance Matrix: (Units=1/GPa)
#
#
# Indices 1 2 3 4 5 6 
#
# 1 -0.011224 0.020011 -0.004254 0.000000 0.000000 0.018639
# 2 0.020011 -0.011224 -0.004254 0.000000 0.000000 -0.018639
# 3 -0.004254 -0.004254 0.012328 0.000000 0.000000 0.000000
# 4 0.000000 0.000000 0.000000 0.024719 0.000000 0.000000
# 5 0.000000 0.000000 0.000000 0.000000 0.024719 0.000000
# 6 0.018639 -0.018639 0.000000 0.000000 0.000000 0.005682
#
#
# Mechanical properties :
#
#
# Convention : Reuss Voigt Hill
#
# Bulk Modulus (GPa) = 77.60826 77.73031 77.66928
# Shear Modulus (GPa) = 190.17728 28.64639 109.41183
#
# Velocity S-wave (km/s) = 8.49973 3.29884 6.44700
# Velocity P-wave (km/s) = 11.21648 6.63613 9.21541
#
# Compressibility (1/GPa) = 0.01288523
#
# Stress axis : x y z
#
# Youngs Moduli (GPa) = -89.09867 -89.09867 81.11874
#
# Poissons Ratio (x) = 1.78297 0.34511
# Poissons Ratio (y) = 1.78297 0.34511
# Poissons Ratio (z) = -0.37906 -0.37906
#
# Static dielectric constant tensor:
#      x y z
#    x 2.110710 0.000000 0.000000 
#    y 0.000000 2.110710 0.000000 
#    z 0.000000 0.000000 2.108100 
# 
# From -- ./inp_files/528.got.cif
#   From: 2010.05.17/outbox.cif.g08.bks.cpg/sg80_cif.got.tgz:528.got - 2010.06.03 18:49:13.
