data_PCOD9542460
_publ_section_title
;
Structure prediction by ZEFSAII (Michael W. Deem and Ramdas Pophale) SiO2 
 PCOD9542460
Probable space group: P -4
;
_chemical_formula_sum "Si O2"
_cell_formula_units_Z 22
_cell_length_a 9.148118
_cell_length_b 9.148118
_cell_length_c 13.676797
_cell_angle_alpha 90.000000
_cell_angle_beta 90.000000
_cell_angle_gamma 90.000000
_cell_volume 1144.584648
_symmetry_space_group_name_H-M "P -4"
_symmetry_group_IT_number 81
_symmetry_cell_setting 'tetragonal'
loop_
_space_group_symop_operation_xyz
x,y,z
y,-x,-z
-x,-y,z
-y,x,-z
loop_
_atom_site_type_symbol
_atom_site_label
_atom_site_fract_x
_atom_site_fract_y
_atom_site_fract_z
Si Si1 0.072208 0.216671 0.971586
Si Si2 0.340111 0.426095 0.628989
Si Si3 0.176393 0.987561 0.614111
Si Si4 0.808562 0.316203 0.544523
Si Si5 0.718974 0.807386 0.788683
Si Si6 0.000000 0.500000 0.091670
O O1 0.156723 0.219568 0.869442
O O2 0.906411 0.156605 0.964200
O O3 0.067313 0.371790 0.024947
O O4 0.500000 0.500000 0.629601
O O5 0.334798 0.313967 0.538613
O O6 0.207720 0.538300 0.607621
O O7 0.317821 0.337258 0.728237
O O8 0.263537 0.052352 0.519550
O O9 0.224678 0.076612 0.708572
O O10 0.219622 0.818896 0.616316
O O11 0.000000 0.000000 0.605849
O O12 0.579473 0.878302 0.842149
#
# Coordination Sequence:
#
# PCOD9542460 Si02
#       6
#     4   4   4   4   4   2
#     4   9  20  45  72  93 126 161 203 266 325 381
#     4  11  23  42  59  90 135 168 214 252 307 378
#     4  11  23  40  63  95 126 161 227 261 296 367
#     4  11  20  42  62  84 132 176 203 257 314 352
#     4  10  25  42  65  99 120 166 218 259 308 377
#     4  10  22  44  72  92 124 168 202 256 340 378
#
# _framework density 19.220949000000001
#
# number of rings (size 3 to 8) (size 9 to 14) (size 15 to 20)
#    0.000    1.636    3.636    0.000    7.636    0.727 
#    9.818    0.000    0.000    0.000    0.000    0.000 
#    0.000    0.000    0.000    0.000    0.000    0.000 
#
# Total GULP energy -122771.365039 kJ/mol
# GULP energy per Si atom -5580.516593 kJ/mol
# Density = 1.917720 g / cm^3
# Si number density = 19.220949 Si / 1000 Ang^3
#
#
#
# Elastic Constant Matrix: (Units=GPa)
#
#
# Indices 1 2 3 4 5 6 
#
# 1 92.8920 24.1335 56.2003 0.0000 0.0000 3.3107
# 2 24.1335 92.8920 56.2003 0.0000 0.0000 -3.3107
# 3 56.2003 56.2003 107.8308 0.0000 0.0000 0.0000
# 4 0.0000 0.0000 0.0000 22.3316 0.0000 0.0000
# 5 0.0000 0.0000 0.0000 0.0000 22.3316 0.0000
# 6 3.3107 -3.3107 0.0000 0.0000 0.0000 22.3242
#
#
#
# Elastic Compliance Matrix: (Units=1/GPa)
#
#
# Indices 1 2 3 4 5 6 
#
# 1 0.015932 0.001178 -0.008918 0.000000 0.000000 -0.002188
# 2 0.001178 0.015932 -0.008918 0.000000 0.000000 0.002188
# 3 -0.008918 -0.008918 0.018570 0.000000 0.000000 0.000000
# 4 0.000000 0.000000 0.000000 0.044780 0.000000 0.000000
# 5 0.000000 0.000000 0.000000 0.000000 0.044780 0.000000
# 6 -0.002188 0.002188 0.000000 0.000000 0.000000 0.045444
#
#
# Mechanical properties :
#
#
# Convention : Reuss Voigt Hill
#
# Bulk Modulus (GPa) = 58.41363 62.96479 60.68921
# Shear Modulus (GPa) = 22.27580 23.86952 23.07266
#
# Velocity S-wave (km/s) = 3.40800 3.52781 3.46843
# Velocity P-wave (km/s) = 6.77810 7.03018 6.90529
#
# Compressibility (1/GPa) = 0.01711929
#
# Stress axis : x y z
#
# Youngs Moduli (GPa) = 62.76496 62.76496 53.85160
#
# Poissons Ratio (x) = -0.07394 0.48024
# Poissons Ratio (y) = -0.07394 0.48024
# Poissons Ratio (z) = 0.55973 0.55973
#
# Static dielectric constant tensor:
#      x y z
#    x 1.692490 0.000000 0.000000 
#    y 0.000000 1.692490 0.000000 
#    z 0.000000 0.000000 1.657670 
# 
# From -- ./inp_files/1594.got.cif
#   From: 2010.05.17/outbox.cif.g08.bks.cpg/sg81_cif.got.tgz:1594.got - 2010.06.03 18:51:07.
