data_PCOD9542297
_publ_section_title
;
Structure prediction by ZEFSAII (Michael W. Deem and Ramdas Pophale) SiO2 
 PCOD9542297
Probable space group: I 41
;
_chemical_formula_sum "Si O2"
_cell_formula_units_Z 32
_cell_length_a 7.848664
_cell_length_b 7.848664
_cell_length_c 19.297420
_cell_angle_alpha 90.000000
_cell_angle_beta 90.000000
_cell_angle_gamma 90.000000
_cell_volume 1188.750531
_symmetry_space_group_name_H-M "I 41"
_symmetry_group_IT_number 80
_symmetry_cell_setting 'tetragonal'
loop_
_space_group_symop_operation_xyz
x,y,z
-y,1/2+x,1/4+z
-x,-y,z
y,1/2-x,1/4+z
1/2+x,1/2+y,1/2+z
1/2-y,x,3/4+z
1/2-x,1/2-y,1/2+z
1/2+y,-x,3/4+z
loop_
_atom_site_type_symbol
_atom_site_label
_atom_site_fract_x
_atom_site_fract_y
_atom_site_fract_z
Si Si1 0.501252 0.314819 0.726800
Si Si2 0.844721 0.217930 0.779394
Si Si3 0.857982 0.765037 0.081750
Si Si4 0.000528 0.711482 0.640578
O O1 0.500000 0.500000 0.760723
O O2 0.690445 0.248092 0.725416
O O3 0.414112 0.343945 0.654288
O O4 0.398042 0.182290 0.772172
O O5 0.996861 0.242472 0.723515
O O6 0.793395 0.349956 0.841395
O O7 0.833091 0.028545 0.809878
O O8 0.669248 0.704510 0.105378
O O9 0.000000 0.500000 0.643568
#
# Coordination Sequence:
#
# PCOD9542297 Si02
#       4
#     8   8   8   8
#     4  12  22  44  82 122 168 229 287 358 448 526
#     4  12  24  50  82 124 174 231 290 359 451 528
#     4  12  26  47  83 126 173 225 292 371 433 527
#     4  12  26  47  87 129 177 235 300 366 447 532
#
# _framework density 26.919021000000001
#
# number of rings (size 3 to 8) (size 9 to 14) (size 15 to 20)
#    0.000    0.000    7.500    3.750    0.000    0.000 
#    4.500    1.250    0.000    0.000    0.000    0.000 
#    0.000    0.000    0.000    0.000    0.000    0.000 
#
# Total GULP energy -89328.300761 kJ/mol
# GULP energy per Si atom -5583.018798 kJ/mol
# Density = 2.685775 g / cm^3
# Si number density = 26.919021 Si / 1000 Ang^3
#
#
#
# Elastic Constant Matrix: (Units=GPa)
#
#
# Indices 1 2 3 4 5 6 
#
# 1 158.7893 15.5142 42.4092 0.0000 0.0000 -21.4194
# 2 15.5142 158.7893 42.4092 0.0000 0.0000 21.4194
# 3 42.4092 42.4092 169.8075 0.0000 0.0000 0.0000
# 4 0.0000 0.0000 0.0000 -78.8766 0.0000 0.0000
# 5 0.0000 0.0000 0.0000 0.0000 -78.8766 0.0000
# 6 -21.4194 21.4194 0.0000 0.0000 0.0000 0.6357
#
#
#
# Elastic Compliance Matrix: (Units=1/GPa)
#
#
# Indices 1 2 3 4 5 6 
#
# 1 0.002881 0.003650 -0.001631 0.000000 0.000000 -0.025916
# 2 0.003650 0.002881 -0.001631 0.000000 0.000000 0.025916
# 3 -0.001631 -0.001631 0.006704 0.000000 0.000000 0.000000
# 4 0.000000 0.000000 0.000000 -0.012678 0.000000 0.000000
# 5 0.000000 0.000000 0.000000 0.000000 -0.012678 0.000000
# 6 -0.025916 0.025916 0.000000 0.000000 0.000000 -0.173352
#
#
# Mechanical properties :
#
#
# Convention : Reuss Voigt Hill
#
# Bulk Modulus (GPa) = 75.52235 76.45015 75.98625
# Shear Modulus (GPa) = -27.38160 -5.61991 -16.50076
#
# Velocity S-wave (km/s) = -3.19279 -1.44646 -2.47852
# Velocity P-wave (km/s) = 3.81109 5.06676 4.48310
#
# Compressibility (1/GPa) = 0.01324111
#
# Stress axis : x y z
#
# Youngs Moduli (GPa) = 347.12383 347.12382 149.17061
#
# Poissons Ratio (x) = -1.26700 0.24331
# Poissons Ratio (y) = -1.26700 0.24331
# Poissons Ratio (z) = 0.56618 0.56618
#
# Static dielectric constant tensor:
#      x y z
#    x 2.357550 0.000000 0.000000 
#    y 0.000000 2.357550 0.000000 
#    z 0.000000 0.000000 2.084010 
# 
# From -- ./inp_files/1674.got.cif
#   From: 2010.05.17/outbox.cif.g08.bks.cpg/sg80_cif.got.tgz:1674.got - 2010.06.03 18:49:13.
