data_PCOD9542444
_publ_section_title
;
Structure prediction by ZEFSAII (Michael W. Deem and Ramdas Pophale) SiO2 
 PCOD9542444
Probable space group: P -4
;
_chemical_formula_sum "Si O2"
_cell_formula_units_Z 10
_cell_length_a 8.885547
_cell_length_b 8.885547
_cell_length_c 4.015246
_cell_angle_alpha 90.000000
_cell_angle_beta 90.000000
_cell_angle_gamma 90.000000
_cell_volume 317.015499
_symmetry_space_group_name_H-M "P -4"
_symmetry_group_IT_number 81
_symmetry_cell_setting 'tetragonal'
loop_
_space_group_symop_operation_xyz
x,y,z
y,-x,-z
-x,-y,z
-y,x,-z
loop_
_atom_site_type_symbol
_atom_site_label
_atom_site_fract_x
_atom_site_fract_y
_atom_site_fract_z
Si Si1 0.612515 0.698512 0.963002
Si Si2 0.899508 0.787882 0.512331
Si Si3 0.500000 0.000000 0.922659
O O1 0.756666 0.739703 0.738666
O O2 0.559981 0.855911 0.123987
O O3 0.651388 0.552066 0.183293
O O4 0.058408 0.843616 0.669480
O O5 0.946447 0.644881 0.289232
#
# Coordination Sequence:
#
# PCOD9542444 Si02
#       3
#     4   4   2
#     4  10  23  38  59  96 133 166 214 277 330 374
#     4   9  20  41  66  91 127 180 225 259 319 407
#     4  10  22  40  66  94 132 178 222 264 326 404
#
# _framework density 31.544198000000002
#
# number of rings (size 3 to 8) (size 9 to 14) (size 15 to 20)
#    0.000    2.400    0.000    0.000    0.000   17.600 
#    0.000    0.000    0.000    0.000    0.000    0.000 
#    0.000    0.000    0.000    0.000    0.000    0.000 
#
# Total GULP energy -55808.976307 kJ/mol
# GULP energy per Si atom -5580.897631 kJ/mol
# Density = 3.147240 g / cm^3
# Si number density = 31.544198 Si / 1000 Ang^3
#
#
#
# Elastic Constant Matrix: (Units=GPa)
#
#
# Indices 1 2 3 4 5 6 
#
# 1 383.7312 63.3688 86.2179 0.0000 0.0000 86.0543
# 2 63.3688 383.7312 86.2179 0.0000 0.0000 -86.0543
# 3 86.2179 86.2179 69.0309 0.0000 0.0000 0.0000
# 4 0.0000 0.0000 0.0000 77.9927 0.0000 0.0000
# 5 0.0000 0.0000 0.0000 0.0000 77.9927 0.0000
# 6 86.0543 -86.0543 0.0000 0.0000 0.0000 106.4582
#
#
#
# Elastic Compliance Matrix: (Units=1/GPa)
#
#
# Indices 1 2 3 4 5 6 
#
# 1 0.004916 -0.000601 -0.005390 0.000000 0.000000 -0.004460
# 2 -0.000601 0.004916 -0.005390 0.000000 0.000000 0.004460
# 3 -0.005390 -0.005390 0.027950 0.000000 0.000000 0.000000
# 4 0.000000 0.000000 0.000000 0.012822 0.000000 0.000000
# 5 0.000000 0.000000 0.000000 0.000000 0.012822 0.000000
# 6 -0.004460 0.004460 0.000000 0.000000 0.000000 0.016604
#
#
# Mechanical properties :
#
#
# Convention : Reuss Voigt Hill
#
# Bulk Modulus (GPa) = 66.57226 145.34474 105.95850
# Shear Modulus (GPa) = 46.38306 92.53462 69.45884
#
# Velocity S-wave (km/s) = 3.83876 5.42205 4.69759
# Velocity P-wave (km/s) = 6.38736 9.23984 7.94270
#
# Compressibility (1/GPa) = 0.01502127
#
# Stress axis : x y z
#
# Youngs Moduli (GPa) = 203.39949 203.39949 35.77869
#
# Poissons Ratio (x) = 0.12226 0.19284
# Poissons Ratio (y) = 0.12226 0.19284
# Poissons Ratio (z) = 1.09627 1.09627
#
# Static dielectric constant tensor:
#      x y z
#    x 2.412560 0.000000 0.000000 
#    y 0.000000 2.412560 0.000000 
#    z 0.000000 0.000000 2.534700 
# 
# From -- ./inp_files/32.got.cif
#   From: 2010.05.17/outbox.cif.g08.bks.cpg/sg81_cif.got.tgz:32.got - 2010.06.03 18:51:07.
