data_PCOD9542035
_publ_section_title
;
Structure prediction by ZEFSAII (Michael W. Deem and Ramdas Pophale) SiO2 
 PCOD9542035
Probable space group: I 4
;
_chemical_formula_sum "Si O2"
_cell_formula_units_Z 50
_cell_length_a 8.222004
_cell_length_b 8.222004
_cell_length_c 31.823258
_cell_angle_alpha 90.000000
_cell_angle_beta 90.000000
_cell_angle_gamma 90.000000
_cell_volume 2151.295195
_symmetry_space_group_name_H-M "I 4"
_symmetry_group_IT_number 79
_symmetry_cell_setting 'tetragonal'
loop_
_space_group_symop_operation_xyz
x,y,z
-y,x,z
-x,-y,z
y,-x,z
1/2+x,1/2+y,1/2+z
1/2-y,1/2+x,1/2+z
1/2-x,1/2-y,1/2+z
1/2+y,1/2-x,1/2+z
loop_
_atom_site_type_symbol
_atom_site_label
_atom_site_fract_x
_atom_site_fract_y
_atom_site_fract_z
Si Si1 0.574653 0.238988 0.254840
Si Si2 0.500000 0.500000 0.107240
Si Si3 0.889309 0.746863 0.334517
Si Si4 0.766004 0.148390 0.425009
Si Si5 0.245326 0.575473 0.682130
Si Si6 0.122867 0.642037 0.590500
Si Si7 0.792548 0.187176 0.514343
O O1 0.692564 0.394870 0.255274
O O2 0.626796 0.145411 0.296665
O O3 0.606382 0.139255 0.212646
O O4 0.521126 0.301250 0.104884
O O5 0.829479 0.680663 0.380165
O O6 0.079496 0.795817 0.332071
O O7 0.705651 0.217860 0.469626
O O8 0.952049 0.213679 0.425446
O O9 0.306371 0.396125 0.691775
O O10 0.204065 0.581448 0.633201
O O11 0.249017 0.702823 0.554390
O O12 0.000000 0.500000 0.575403
O O13 0.990131 0.216310 0.516185
#
# Coordination Sequence:
#
# PCOD9542035 Si02
#       7
#     8   2   8   8   8   8   8
#     4  11  26  41  62  87 117 160 211 262 328 409
#     4  12  24  44  64  92 132 176 216 280 332 392
#     4   9  17  34  60  91 122 156 197 254 318 382
#     4   7  12  24  52  86 118 157 200 247 309 371
#     4  11  27  46  63  90 122 158 209 275 334 401
#     4  12  24  38  66  97 128 177 222 272 336 407
#     4   9  15  30  56  88 124 166 210 261 316 377
#
# _framework density 23.241811999999999
#
# number of rings (size 3 to 8) (size 9 to 14) (size 15 to 20)
#    0.000    2.080    1.600    3.840    4.480    3.200 
#    0.000    0.000   10.560    0.000    0.000    2.240 
#    0.000    0.000    0.000    0.000    0.000    0.000 
#
# Total GULP energy -139249.896077 kJ/mol
# GULP energy per Si atom -5569.995843 kJ/mol
# Density = 2.318891 g / cm^3
# Si number density = 23.241812 Si / 1000 Ang^3
#
#
#
# Elastic Constant Matrix: (Units=GPa)
#
#
# Indices 1 2 3 4 5 6 
#
# 1 54.2982 17.2267 6.5160 0.0000 0.0000 -4.7814
# 2 17.2267 54.2981 6.5160 0.0000 0.0000 4.7814
# 3 6.5160 6.5160 144.2456 0.0000 0.0000 0.0000
# 4 0.0000 0.0000 0.0000 9.1700 0.0000 0.0000
# 5 0.0000 0.0000 0.0000 0.0000 9.1700 0.0000
# 6 -4.7814 4.7814 0.0000 0.0000 0.0000 17.3352
#
#
#
# Elastic Compliance Matrix: (Units=1/GPa)
#
#
# Indices 1 2 3 4 5 6 
#
# 1 0.021569 -0.007472 -0.000637 0.000000 0.000000 0.008010
# 2 -0.007472 0.021569 -0.000637 0.000000 0.000000 -0.008010
# 3 -0.000637 -0.000637 0.006990 0.000000 0.000000 0.000000
# 4 0.000000 0.000000 0.000000 0.109051 0.000000 0.000000
# 5 0.000000 0.000000 0.000000 0.000000 0.109051 0.000000
# 6 0.008010 -0.008010 0.000000 0.000000 0.000000 0.062105
#
#
# Mechanical properties :
#
#
# Convention : Reuss Voigt Hill
#
# Bulk Modulus (GPa) = 30.63981 34.81769 32.72875
# Shear Modulus (GPa) = 13.93899 21.97392 17.95645
#
# Velocity S-wave (km/s) = 2.45161 3.07815 2.78257
# Velocity P-wave (km/s) = 4.60712 5.25799 4.94328
#
# Compressibility (1/GPa) = 0.03263728
#
# Stress axis : x y z
#
# Youngs Moduli (GPa) = 46.36245 46.36243 143.05836
#
# Poissons Ratio (x) = 0.34642 0.09110
# Poissons Ratio (y) = 0.34642 0.09110
# Poissons Ratio (z) = 0.02952 0.02952
#
# Static dielectric constant tensor:
#      x y z
#    x 1.885120 0.000000 0.000000 
#    y 0.000000 1.885120 0.000000 
#    z 0.000000 0.000000 2.011470 
# 
# From -- ./inp_files/2163.got.cif
#   From: 2010.05.17/outbox.cif.g08.bks.cpg/sg79_cif.got.tgz:2163.got - 2010.06.03 18:47:27.
