data_PCOD9542417
_publ_section_title
;
Structure prediction by ZEFSAII (Michael W. Deem and Ramdas Pophale) SiO2 
 PCOD9542417
Probable space group: P -4
;
_chemical_formula_sum "Si O2"
_cell_formula_units_Z 21
_cell_length_a 8.617069
_cell_length_b 8.617069
_cell_length_c 13.682655
_cell_angle_alpha 90.000000
_cell_angle_beta 90.000000
_cell_angle_gamma 90.000000
_cell_volume 1015.990197
_symmetry_space_group_name_H-M "P -4"
_symmetry_group_IT_number 81
_symmetry_cell_setting 'tetragonal'
loop_
_space_group_symop_operation_xyz
x,y,z
y,-x,-z
-x,-y,z
-y,x,-z
loop_
_atom_site_type_symbol
_atom_site_label
_atom_site_fract_x
_atom_site_fract_y
_atom_site_fract_z
Si Si1 0.000000 0.000000 0.500000
Si Si2 0.795323 0.930591 0.050975
Si Si3 0.500000 0.000000 0.949146
Si Si4 0.739260 0.765402 0.553624
Si Si5 0.500000 0.000000 0.645934
Si Si6 0.444731 0.323776 0.362783
Si Si7 0.691833 0.192141 0.794198
O O1 0.108686 0.126211 0.554712
O O2 0.828739 0.858452 0.155563
O O3 0.620267 0.916629 0.019718
O O4 0.893213 0.845647 0.965368
O O5 0.421706 0.866186 0.882011
O O6 0.592136 0.865746 0.590284
O O7 0.683731 0.720803 0.444054
O O8 0.765281 0.606842 0.615283
O O9 0.364904 0.924016 0.710947
O O10 0.500000 0.500000 0.378687
O O11 0.360922 0.314382 0.257221
#
# Coordination Sequence:
#
# PCOD9542417 Si02
#       7
#     1   4   2   4   2   4   4
#     4  12  28  40  64  92 132 192 254 276 348 416
#     4   9  19  42  69  92 131 178 217 273 361 429
#     4   9  20  42  67  96 140 172 219 292 354 419
#     4  12  23  44  66  95 141 192 229 289 353 411
#     4  11  22  42  71  96 150 174 235 288 338 427
#     4  12  21  42  71  98 133 184 237 284 349 411
#     4  10  21  40  65 100 129 177 227 281 346 419
#
# _framework density 20.66949
#
# number of rings (size 3 to 8) (size 9 to 14) (size 15 to 20)
#    0.000    1.333    3.810    2.286    0.000    0.000 
#    6.857   25.714    0.000    0.000    0.000    0.000 
#    0.000    0.000    0.000    0.000    0.000    0.000 
#
# Total GULP energy -116964.321196 kJ/mol
# GULP energy per Si atom -5569.729581 kJ/mol
# Density = 2.062245 g / cm^3
# Si number density = 20.669490 Si / 1000 Ang^3
#
#
#
# Elastic Constant Matrix: (Units=GPa)
#
#
# Indices 1 2 3 4 5 6 
#
# 1 109.7254 34.6661 44.1400 0.0000 0.0000 -6.0458
# 2 34.6661 109.7254 44.1400 0.0000 0.0000 6.0458
# 3 44.1400 44.1400 74.3811 0.0000 0.0000 0.0000
# 4 0.0000 0.0000 0.0000 18.6668 0.0000 0.0000
# 5 0.0000 0.0000 0.0000 0.0000 18.6668 0.0000
# 6 -6.0458 6.0458 0.0000 0.0000 0.0000 34.7911
#
#
#
# Elastic Compliance Matrix: (Units=1/GPa)
#
#
# Indices 1 2 3 4 5 6 
#
# 1 0.012288 -0.001419 -0.006450 0.000000 0.000000 0.002382
# 2 -0.001419 0.012288 -0.006450 0.000000 0.000000 -0.002382
# 3 -0.006450 -0.006450 0.021100 0.000000 0.000000 0.000000
# 4 0.000000 0.000000 0.000000 0.053571 0.000000 0.000000
# 5 0.000000 0.000000 0.000000 0.000000 0.053571 0.000000
# 6 0.002382 -0.002382 0.000000 0.000000 0.000000 0.029571
#
#
# Mechanical properties :
#
#
# Convention : Reuss Voigt Hill
#
# Bulk Modulus (GPa) = 58.69374 59.96935 59.33155
# Shear Modulus (GPa) = 23.07286 25.81735 24.44510
#
# Velocity S-wave (km/s) = 3.34470 3.53803 3.44272
# Velocity P-wave (km/s) = 6.58589 6.76511 6.67610
#
# Compressibility (1/GPa) = 0.01703759
#
# Stress axis : x y z
#
# Youngs Moduli (GPa) = 81.38136 81.38136 47.39424
#
# Poissons Ratio (x) = 0.11545 0.30570
# Poissons Ratio (y) = 0.11545 0.30570
# Poissons Ratio (z) = 0.52492 0.52492
#
# Static dielectric constant tensor:
#      x y z
#    x 1.792130 0.000000 0.000000 
#    y 0.000000 1.792130 0.000000 
#    z 0.000000 0.000000 1.729960 
# 
# From -- ./inp_files/1545.got.cif
#   From: 2010.05.17/outbox.cif.g08.bks.cpg/sg81_cif.got.tgz:1545.got - 2010.06.03 18:51:07.
