data_PCOD9542146
_publ_section_title
;
Structure prediction by ZEFSAII (Michael W. Deem and Ramdas Pophale) SiO2 
 PCOD9542146
Probable space group: I 41
;
_chemical_formula_sum "Si O2"
_cell_formula_units_Z 44
_cell_length_a 20.217879
_cell_length_b 20.217879
_cell_length_c 5.314099
_cell_angle_alpha 90.000000
_cell_angle_beta 90.000000
_cell_angle_gamma 90.000000
_cell_volume 2172.205090
_symmetry_space_group_name_H-M "I 41"
_symmetry_group_IT_number 80
_symmetry_cell_setting 'tetragonal'
loop_
_space_group_symop_operation_xyz
x,y,z
-y,1/2+x,1/4+z
-x,-y,z
y,1/2-x,1/4+z
1/2+x,1/2+y,1/2+z
1/2-y,x,3/4+z
1/2-x,1/2-y,1/2+z
1/2+y,-x,3/4+z
loop_
_atom_site_type_symbol
_atom_site_label
_atom_site_fract_x
_atom_site_fract_y
_atom_site_fract_z
Si Si1 0.504570 0.355285 0.368220
Si Si2 0.610677 0.147455 0.508098
Si Si3 0.154971 0.759444 0.299056
Si Si4 0.022475 0.642525 0.509254
Si Si5 0.784227 0.499655 0.632166
Si Si6 0.000000 0.000000 0.099836
O O1 0.583223 0.346232 0.321935
O O2 0.481416 0.310265 0.603727
O O3 0.498111 0.432518 0.437508
O O4 0.476158 0.334276 0.098571
O O5 0.649393 0.215097 0.547247
O O6 0.560189 0.146329 0.742798
O O7 0.569414 0.145627 0.252685
O O8 0.183512 0.707174 0.497656
O O9 0.081274 0.783608 0.364122
O O10 0.981023 0.710660 0.481778
O O11 0.995671 0.567636 0.510072
#
# Coordination Sequence:
#
# PCOD9542146 Si02
#       6
#     8   8   8   8   8   4
#     4  11  22  39  60  79 114 150 206 251 314 347
#     4  10  21  37  50  77 109 155 201 259 280 335
#     4  11  24  33  50  80 114 174 222 251 280 350
#     4  10  22  38  61  80 114 150 206 250 314 347
#     4  11  23  39  55  82 117 155 195 266 301 348
#     4  10  24  44  64  90 112 170 212 258 302 400
#
# _framework density 20.255911999999999
#
# number of rings (size 3 to 8) (size 9 to 14) (size 15 to 20)
#    0.000    1.455    1.818    4.364    5.091    6.545 
#    0.000    0.000    0.000    0.000    0.000    0.000 
#    0.000    2.909    0.000    0.182    0.000    0.000 
#
# Total GULP energy -122657.448772 kJ/mol
# GULP energy per Si atom -5575.338581 kJ/mol
# Density = 2.020981 g / cm^3
# Si number density = 20.255912 Si / 1000 Ang^3
#
#
#
# Elastic Constant Matrix: (Units=GPa)
#
#
# Indices 1 2 3 4 5 6 
#
# 1 59.2017 0.0787 38.0293 0.0000 0.0000 -3.7544
# 2 0.0787 59.2017 38.0293 0.0000 0.0000 3.7544
# 3 38.0293 38.0293 149.9509 0.0000 0.0000 0.0000
# 4 0.0000 0.0000 0.0000 20.8455 0.0000 0.0000
# 5 0.0000 0.0000 0.0000 0.0000 20.8455 0.0000
# 6 -3.7544 3.7544 0.0000 0.0000 0.0000 24.8699
#
#
#
# Elastic Compliance Matrix: (Units=1/GPa)
#
#
# Indices 1 2 3 4 5 6 
#
# 1 0.021125 0.003881 -0.006342 0.000000 0.000000 0.002603
# 2 0.003881 0.021125 -0.006342 0.000000 0.000000 -0.002603
# 3 -0.006342 -0.006342 0.009886 0.000000 0.000000 0.000000
# 4 0.000000 0.000000 0.000000 0.047972 0.000000 0.000000
# 5 0.000000 0.000000 0.000000 0.000000 0.047972 0.000000
# 6 0.002603 -0.002603 0.000000 0.000000 0.000000 0.040995
#
#
# Mechanical properties :
#
#
# Convention : Reuss Voigt Hill
#
# Bulk Modulus (GPa) = 28.96044 46.73653 37.84848
# Shear Modulus (GPa) = 22.91574 26.12664 24.52119
#
# Velocity S-wave (km/s) = 3.36715 3.59531 3.48310
# Velocity P-wave (km/s) = 5.42634 6.35281 5.90776
#
# Compressibility (1/GPa) = 0.03452987
#
# Stress axis : x y z
#
# Youngs Moduli (GPa) = 47.33716 47.33716 101.15818
#
# Poissons Ratio (x) = -0.18369 0.64152
# Poissons Ratio (y) = -0.18369 0.64152
# Poissons Ratio (z) = 0.30020 0.30020
#
# Static dielectric constant tensor:
#      x y z
#    x 1.787880 0.000000 0.000000 
#    y 0.000000 1.787880 0.000000 
#    z 0.000000 0.000000 1.798290 
# 
# From -- ./inp_files/261.got.cif
#   From: 2010.05.17/outbox.cif.g08.bks.cpg/sg80_cif.got.tgz:261.got - 2010.06.03 18:49:13.
