data_PCOD9542315
_publ_section_title
;
Structure prediction by ZEFSAII (Michael W. Deem and Ramdas Pophale) SiO2 
 PCOD9542315
Probable space group: I 41
;
_chemical_formula_sum "Si O2"
_cell_formula_units_Z 26
_cell_length_a 18.000000
_cell_length_b 18.000000
_cell_length_c 9.000000
_cell_angle_alpha 90.000000
_cell_angle_beta 90.000000
_cell_angle_gamma 90.000000
_cell_volume 2916.000000
_symmetry_space_group_name_H-M "I 41"
_symmetry_group_IT_number 80
_symmetry_cell_setting 'tetragonal'
loop_
_space_group_symop_operation_xyz
x,y,z
-y,1/2+x,1/4+z
-x,-y,z
y,1/2-x,1/4+z
1/2+x,1/2+y,1/2+z
1/2-y,x,3/4+z
1/2-x,1/2-y,1/2+z
1/2+y,-x,3/4+z
loop_
_atom_site_type_symbol
_atom_site_label
_atom_site_fract_x
_atom_site_fract_y
_atom_site_fract_z
Si Si1 0.220359 0.946850 0.418940
Si Si2 0.047426 0.181248 0.271352
Si Si3 0.500000 0.500000 0.164344
Si Si4 0.870401 0.421208 0.742848
Si Si5 0.909302 0.613076 0.109031
Si Si6 0.043388 0.241348 0.955833
Si Si7 0.834241 0.938482 0.172135
O O1 0.300581 0.927159 0.352898
O O2 0.163087 0.879857 0.440510
O O3 0.235140 0.986881 0.576837
O O4 0.179309 0.999832 0.297696
O O5 0.079059 0.251371 0.363449
O O6 0.115487 0.125994 0.241406
O O7 0.981264 0.144659 0.364179
O O8 0.014209 0.208614 0.113167
O O9 0.553860 0.447761 0.068275
O O10 0.452662 0.445524 0.266849
O O11 0.824512 0.594630 0.145300
O O12 0.954312 0.625013 0.263918
O O13 0.913306 0.686061 0.008840
#
# Coordination Sequence:
#
# PCOD9542315 Si02
#       7
#     8   8   4   8   8   8   8
#     4  11  22  41  61  87 118 156 200 255 298 358
#     4   9  20  38  58  87 122 161 197 244 299 361
#     4  12  20  34  68  90 110 154 210 244 306 360
#     4  11  23  39  63  88 117 155 202 251 306 361
#     4  10  21  37  58  91 119 160 199 244 301 358
#     4  10  20  38  59  87 126 154 199 245 296 361
#     4   9  20  36  58  85 127 154 197 246 295 361
#
# _framework density 8.9163239999999995
#
# number of rings (size 3 to 8) (size 9 to 14) (size 15 to 20)
#    0.000    1.846    3.077    0.923    0.000    2.462 
#    0.000   13.846    0.000    0.000    0.000    0.000 
#    0.000    0.000    0.000    0.000    0.000    0.000 
#
# Total GULP energy -144858.701967 kJ/mol
# GULP energy per Si atom -5571.488537 kJ/mol
# Density = 0.889603 g / cm^3
# Si number density = 8.916324 Si / 1000 Ang^3
#
#
#
# Elastic Constant Matrix: (Units=GPa)
#
#
# Indices 1 2 3 4 5 6 
#
# 1 67.6216 39.0184 46.7830 0.0000 0.0000 -2.5831
# 2 39.0184 67.6216 46.7830 0.0000 0.0000 2.5831
# 3 46.7830 46.7830 93.7759 0.0000 0.0000 0.0000
# 4 0.0000 0.0000 0.0000 12.6982 0.0000 0.0000
# 5 0.0000 0.0000 0.0000 0.0000 12.6982 0.0000
# 6 -2.5831 2.5831 0.0000 0.0000 0.0000 15.5281
#
#
#
# Elastic Compliance Matrix: (Units=1/GPa)
#
#
# Indices 1 2 3 4 5 6 
#
# 1 0.026361 -0.009683 -0.008320 0.000000 0.000000 0.005996
# 2 -0.009683 0.026361 -0.008320 0.000000 0.000000 -0.005996
# 3 -0.008320 -0.008320 0.018965 0.000000 0.000000 0.000000
# 4 0.000000 0.000000 0.000000 0.078751 0.000000 0.000000
# 5 0.000000 0.000000 0.000000 0.000000 0.078751 0.000000
# 6 0.005996 -0.005996 0.000000 0.000000 0.000000 0.066394
#
#
# Mechanical properties :
#
#
# Convention : Reuss Voigt Hill
#
# Bulk Modulus (GPa) = 52.52171 54.90977 53.71574
# Shear Modulus (GPa) = 14.10132 14.61387 14.35759
#
# Velocity S-wave (km/s) = 2.81509 2.86580 2.84056
# Velocity P-wave (km/s) = 6.33110 6.46598 6.39890
#
# Compressibility (1/GPa) = 0.01903974
#
# Stress axis : x y z
#
# Youngs Moduli (GPa) = 37.93517 37.93517 52.72846
#
# Poissons Ratio (x) = 0.36734 0.43870
# Poissons Ratio (y) = 0.36734 0.43870
# Poissons Ratio (z) = 0.31562 0.31562
#
# Static dielectric constant tensor:
#      x y z
#    x 1.601080 0.000000 0.000000 
#    y 0.000000 1.601080 0.000000 
#    z 0.000000 0.000000 1.634020 
# 
# From -- ./inp_files/696.got.cif
#   From: 2010.05.17/outbox.ucp.g08.bks.cvg/sg80_cif.got.tgz:696.got - 2010.06.11 10:34:24.
