data_PCOD9542243
_publ_section_title
;
Structure prediction by ZEFSAII (Michael W. Deem and Ramdas Pophale) SiO2 
 PCOD9542243
Probable space group: I 41
;
_chemical_formula_sum "Si O2"
_cell_formula_units_Z 40
_cell_length_a 15.163990
_cell_length_b 15.163990
_cell_length_c 7.731386
_cell_angle_alpha 90.000000
_cell_angle_beta 90.000000
_cell_angle_gamma 90.000000
_cell_volume 1777.805868
_symmetry_space_group_name_H-M "I 41"
_symmetry_group_IT_number 80
_symmetry_cell_setting 'tetragonal'
loop_
_space_group_symop_operation_xyz
x,y,z
-y,1/2+x,1/4+z
-x,-y,z
y,1/2-x,1/4+z
1/2+x,1/2+y,1/2+z
1/2-y,x,3/4+z
1/2-x,1/2-y,1/2+z
1/2+y,-x,3/4+z
loop_
_atom_site_type_symbol
_atom_site_label
_atom_site_fract_x
_atom_site_fract_y
_atom_site_fract_z
Si Si1 0.210481 0.149854 0.950190
Si Si2 0.454307 0.268700 0.019632
Si Si3 0.038792 0.408453 0.753205
Si Si4 0.136190 0.723300 0.343166
Si Si5 0.399489 0.521094 0.367883
O O1 0.263062 0.164568 0.773540
O O2 0.149059 0.066920 0.927577
O O3 0.266242 0.118530 0.116696
O O4 0.435643 0.366815 0.090606
O O5 0.550477 0.264995 0.933846
O O6 0.451455 0.179719 0.136560
O O7 0.000000 0.500000 0.668179
O O8 0.973276 0.387434 0.911596
O O9 0.202546 0.683577 0.481483
O O10 0.101220 0.644525 0.219546
O O11 0.500000 0.500000 0.407553
#
# Coordination Sequence:
#
# PCOD9542243 Si02
#       5
#     8   8   8   8   8
#     4  11  25  40  67 103 140 185 230 289 349 419
#     4  11  24  44  71 104 146 182 237 289 360 430
#     4  11  25  45  71 107 143 190 235 298 362 426
#     4  11  27  47  74 101 137 188 240 296 348 420
#     4  10  27  44  69 102 143 184 232 290 358 419
#
# _framework density 22.499644
#
# number of rings (size 3 to 8) (size 9 to 14) (size 15 to 20)
#    0.000    1.200    2.000    1.200   11.200    9.600 
#    0.000    0.000    0.000    0.000    0.000    0.000 
#    0.000    0.000    0.000    0.000    0.000    0.000 
#
# Total GULP energy -111724.073367 kJ/mol
# GULP energy per Si atom -5586.203668 kJ/mol
# Density = 2.244843 g / cm^3
# Si number density = 22.499644 Si / 1000 Ang^3
#
#
#
# Elastic Constant Matrix: (Units=GPa)
#
#
# Indices 1 2 3 4 5 6 
#
# 1 99.5873 27.8242 23.1733 0.0000 0.0000 10.3928
# 2 27.8242 99.5873 23.1733 0.0000 0.0000 -10.3928
# 3 23.1733 23.1733 63.5503 0.0000 0.0000 0.0000
# 4 0.0000 0.0000 0.0000 37.1596 0.0000 0.0000
# 5 0.0000 0.0000 0.0000 0.0000 37.1596 0.0000
# 6 10.3928 -10.3928 0.0000 0.0000 0.0000 8.1299
#
#
#
# Elastic Compliance Matrix: (Units=1/GPa)
#
#
# Indices 1 2 3 4 5 6 
#
# 1 0.015588 -0.006539 -0.003300 0.000000 0.000000 -0.028287
# 2 -0.006539 0.015588 -0.003300 0.000000 0.000000 0.028287
# 3 -0.003300 -0.003300 0.018142 0.000000 0.000000 0.000000
# 4 0.000000 0.000000 0.000000 0.026911 0.000000 0.000000
# 5 0.000000 0.000000 0.000000 0.000000 0.026911 0.000000
# 6 -0.028287 0.028287 0.000000 0.000000 0.000000 0.195322
#
#
# Mechanical properties :
#
#
# Convention : Reuss Voigt Hill
#
# Bulk Modulus (GPa) = 43.40062 45.67407 44.53734
# Shear Modulus (GPa) = 15.04123 29.06010 22.05067
#
# Velocity S-wave (km/s) = 2.58836 3.59776 3.13396
# Velocity P-wave (km/s) = 5.31640 6.13208 5.73875
#
# Compressibility (1/GPa) = 0.02304115
#
# Stress axis : x y z
#
# Youngs Moduli (GPa) = 64.15082 64.15082 55.12090
#
# Poissons Ratio (x) = 0.41951 0.18188
# Poissons Ratio (y) = 0.41951 0.18188
# Poissons Ratio (z) = 0.21167 0.21167
#
# Static dielectric constant tensor:
#      x y z
#    x 1.879090 0.000000 0.000000 
#    y 0.000000 1.879090 0.000000 
#    z 0.000000 0.000000 1.861620 
# 
# From -- ./inp_files/588.got.cif
#   From: 2010.05.17/outbox.cif.g08.bks.cpg/sg80_cif.got.tgz:588.got - 2010.06.03 18:49:13.
