data_PCOD9542281
_publ_section_title
;
Structure prediction by ZEFSAII (Michael W. Deem and Ramdas Pophale) SiO2 
 PCOD9542281
Probable space group: I 41
;
_chemical_formula_sum "Si O2"
_cell_formula_units_Z 48
_cell_length_a 9.259795
_cell_length_b 9.259795
_cell_length_c 25.072562
_cell_angle_alpha 90.000000
_cell_angle_beta 90.000000
_cell_angle_gamma 90.000000
_cell_volume 2149.816828
_symmetry_space_group_name_H-M "I 41"
_symmetry_group_IT_number 80
_symmetry_cell_setting 'tetragonal'
loop_
_space_group_symop_operation_xyz
x,y,z
-y,1/2+x,1/4+z
-x,-y,z
y,1/2-x,1/4+z
1/2+x,1/2+y,1/2+z
1/2-y,x,3/4+z
1/2-x,1/2-y,1/2+z
1/2+y,-x,3/4+z
loop_
_atom_site_type_symbol
_atom_site_label
_atom_site_fract_x
_atom_site_fract_y
_atom_site_fract_z
Si Si1 0.614416 0.894790 0.017470
Si Si2 0.806168 0.652033 0.964485
Si Si3 0.358644 0.598148 0.522143
Si Si4 0.992198 0.329640 0.625329
Si Si5 0.931407 0.156250 0.805244
Si Si6 0.760276 0.109714 0.669798
O O1 0.523254 0.809958 0.062429
O O2 0.500000 0.000000 0.987840
O O3 0.721374 0.789880 0.986620
O O4 0.725391 0.007145 0.044693
O O5 0.741508 0.622754 0.907020
O O6 0.978016 0.670853 0.954536
O O7 0.775862 0.520274 0.005797
O O8 0.500000 0.500000 0.530806
O O9 0.354199 0.758845 0.546552
O O10 0.343313 0.628133 0.458111
O O11 0.858090 0.246042 0.652420
O O12 0.000000 0.500000 0.635801
O O13 0.957360 0.226444 0.862491
O O14 0.000000 0.000000 0.809868
#
# Coordination Sequence:
#
# PCOD9542281 Si02
#       6
#     8   8   8   8   8   8
#     4  11  26  47  68 105 151 196 247 317 397 454
#     4  12  24  46  73 108 148 193 258 317 381 468
#     4  12  24  48  72 107 153 192 248 327 380 472
#     4  11  25  45  71 106 149 193 248 312 381 467
#     4  12  23  42  74 106 138 197 248 307 390 452
#     4  12  25  45  74 106 149 197 258 314 381 475
#
# _framework density 22.327482
#
# number of rings (size 3 to 8) (size 9 to 14) (size 15 to 20)
#    0.000    0.333    5.000    4.000    2.333    1.333 
#    0.000    0.000    0.000    0.000    0.000    0.000 
#    0.000    0.000    0.000    0.000    0.000    0.000 
#
# Total GULP energy -133877.308551 kJ/mol
# GULP energy per Si atom -5578.221190 kJ/mol
# Density = 2.227666 g / cm^3
# Si number density = 22.327482 Si / 1000 Ang^3
#
#
#
# Elastic Constant Matrix: (Units=GPa)
#
#
# Indices 1 2 3 4 5 6 
#
# 1 99.3793 32.5688 7.5360 0.0000 0.0000 -2.4022
# 2 32.5688 99.3793 7.5360 0.0000 0.0000 2.4022
# 3 7.5360 7.5360 85.4077 0.0000 0.0000 0.0000
# 4 0.0000 0.0000 0.0000 37.8538 0.0000 0.0000
# 5 0.0000 0.0000 0.0000 0.0000 37.8538 0.0000
# 6 -2.4022 2.4022 0.0000 0.0000 0.0000 46.5633
#
#
#
# Elastic Compliance Matrix: (Units=1/GPa)
#
#
# Indices 1 2 3 4 5 6 
#
# 1 0.011340 -0.003684 -0.000676 0.000000 0.000000 0.000775
# 2 -0.003684 0.011340 -0.000676 0.000000 0.000000 -0.000775
# 3 -0.000676 -0.000676 0.011828 0.000000 0.000000 0.000000
# 4 0.000000 0.000000 0.000000 0.026417 0.000000 0.000000
# 5 0.000000 0.000000 0.000000 0.000000 0.026417 0.000000
# 6 0.000775 -0.000775 0.000000 0.000000 0.000000 0.021556
#
#
# Mechanical properties :
#
#
# Convention : Reuss Voigt Hill
#
# Bulk Modulus (GPa) = 40.92075 42.16086 41.54080
# Shear Modulus (GPa) = 39.33491 40.22255 39.77873
#
# Velocity S-wave (km/s) = 4.20185 4.24899 4.22548
# Velocity P-wave (km/s) = 6.47364 6.55712 6.51551
#
# Compressibility (1/GPa) = 0.02443748
#
# Stress axis : x y z
#
# Youngs Moduli (GPa) = 88.18591 88.18591 84.54685
#
# Poissons Ratio (x) = 0.32486 0.05711
# Poissons Ratio (y) = 0.32486 0.05711
# Poissons Ratio (z) = 0.05957 0.05957
#
# Static dielectric constant tensor:
#      x y z
#    x 1.935830 0.000000 0.000000 
#    y 0.000000 1.935830 0.000000 
#    z 0.000000 0.000000 1.853880 
# 
# From -- ./inp_files/2623.got.cif
#   From: 2010.05.17/outbox.cif.g08.bks.cpg/sg80_cif.got.tgz:2623.got - 2010.06.03 18:49:13.
