data_PCOD9542034
_publ_section_title
;
Structure prediction by ZEFSAII (Michael W. Deem and Ramdas Pophale) SiO2 
 PCOD9542034
Probable space group: I 4
;
_chemical_formula_sum "Si O2"
_cell_formula_units_Z 26
_cell_length_a 12.006269
_cell_length_b 12.006269
_cell_length_c 7.151535
_cell_angle_alpha 90.000000
_cell_angle_beta 90.000000
_cell_angle_gamma 90.000000
_cell_volume 1030.897312
_symmetry_space_group_name_H-M "I 4"
_symmetry_group_IT_number 79
_symmetry_cell_setting 'tetragonal'
loop_
_space_group_symop_operation_xyz
x,y,z
-y,x,z
-x,-y,z
y,-x,z
1/2+x,1/2+y,1/2+z
1/2-y,1/2+x,1/2+z
1/2-x,1/2-y,1/2+z
1/2+y,1/2-x,1/2+z
loop_
_atom_site_type_symbol
_atom_site_label
_atom_site_fract_x
_atom_site_fract_y
_atom_site_fract_z
Si Si1 0.500000 0.500000 0.311051
Si Si2 0.266949 0.521593 0.444928
Si Si3 0.491247 0.680646 0.862066
Si Si4 0.121659 0.441615 0.111121
O O1 0.376545 0.559383 0.334665
O O2 0.308782 0.470361 0.640343
O O3 0.183097 0.613219 0.531432
O O4 0.187817 0.453714 0.304726
O O5 0.389700 0.600179 0.917771
O O6 0.498958 0.799320 0.957547
O O7 0.000000 0.500000 0.124582
#
# Coordination Sequence:
#
# PCOD9542034 Si02
#       4
#     2   8   8   8
#     4  12  28  52  78 120 164 206 284 336 406 488
#     4  12  25  52  79 116 165 208 271 338 399 490
#     4  11  25  50  85 122 160 210 274 339 409 492
#     4  12  29  47  82 119 164 216 275 332 416 485
#
# _framework density 25.220744
#
# number of rings (size 3 to 8) (size 9 to 14) (size 15 to 20)
#    0.000    0.308    3.077    4.615    4.308    6.154 
#    0.000    0.000    0.000    0.000    0.000    0.000 
#    0.000    0.000    0.000    0.000    0.000    0.000 
#
# Total GULP energy -72485.682213 kJ/mol
# GULP energy per Si atom -5575.821709 kJ/mol
# Density = 2.516334 g / cm^3
# Si number density = 25.220744 Si / 1000 Ang^3
#
#
#
# Elastic Constant Matrix: (Units=GPa)
#
#
# Indices 1 2 3 4 5 6 
#
# 1 150.6099 28.1463 43.6519 0.0000 0.0000 11.1012
# 2 28.1463 150.6099 43.6519 0.0000 0.0000 -11.1012
# 3 43.6519 43.6519 159.7124 0.0000 0.0000 0.0000
# 4 0.0000 0.0000 0.0000 28.1574 0.0000 0.0000
# 5 0.0000 0.0000 0.0000 0.0000 28.1574 0.0000
# 6 11.1012 -11.1012 0.0000 0.0000 0.0000 -7.4174
#
#
#
# Elastic Compliance Matrix: (Units=1/GPa)
#
#
# Indices 1 2 3 4 5 6 
#
# 1 0.006439 0.000017 -0.001765 0.000000 0.000000 0.009613
# 2 0.000017 0.006439 -0.001765 0.000000 0.000000 -0.009613
# 3 -0.001765 -0.001765 0.007226 0.000000 0.000000 0.000000
# 4 0.000000 0.000000 0.000000 0.035515 0.000000 0.000000
# 5 0.000000 0.000000 0.000000 0.000000 0.035515 0.000000
# 6 0.009613 -0.009613 0.000000 0.000000 0.000000 -0.106044
#
#
# Mechanical properties :
#
#
# Convention : Reuss Voigt Hill
#
# Bulk Modulus (GPa) = 76.45438 76.87026 76.66232
# Shear Modulus (GPa) = -1418.48221 32.81162 -692.83530
#
# Velocity S-wave (km/s) = -23.74127 3.61082 -16.59231
# Velocity P-wave (km/s) = 26.85424 6.92309 18.34695
#
# Compressibility (1/GPa) = 0.01307970
#
# Stress axis : x y z
#
# Youngs Moduli (GPa) = 155.29272 155.29272 138.39298
#
# Poissons Ratio (x) = -0.00257 0.24420
# Poissons Ratio (y) = -0.00257 0.24420
# Poissons Ratio (z) = 0.27402 0.27402
#
# Static dielectric constant tensor:
#      x y z
#    x 2.036970 0.000000 0.000000 
#    y 0.000000 2.036970 0.000000 
#    z 0.000000 0.000000 2.135890 
# 
# From -- ./inp_files/378.got.cif
#   From: 2010.05.17/outbox.cif.g08.bks.cpg/sg79_cif.got.tgz:378.got - 2010.06.03 18:47:27.
