data_PCOD9542371
_publ_section_title
;
Structure prediction by ZEFSAII (Michael W. Deem and Ramdas Pophale) SiO2 
 PCOD9542371
Probable space group: P -4
;
_chemical_formula_sum "Si O2"
_cell_formula_units_Z 15
_cell_length_a 8.407795
_cell_length_b 8.407795
_cell_length_c 8.447748
_cell_angle_alpha 90.000000
_cell_angle_beta 90.000000
_cell_angle_gamma 90.000000
_cell_volume 597.179895
_symmetry_space_group_name_H-M "P -4"
_symmetry_group_IT_number 81
_symmetry_cell_setting 'tetragonal'
loop_
_space_group_symop_operation_xyz
x,y,z
y,-x,-z
-x,-y,z
-y,x,-z
loop_
_atom_site_type_symbol
_atom_site_label
_atom_site_fract_x
_atom_site_fract_y
_atom_site_fract_z
Si Si1 0.934351 0.260962 0.500677
Si Si2 0.366167 0.277454 0.752444
Si Si3 0.500000 0.500000 0.000000
Si Si4 0.500000 0.500000 0.500000
Si Si5 0.000000 0.000000 0.000000
Si Si6 0.327873 0.992756 0.157871
O O1 0.886241 0.362659 0.346645
O O2 0.109769 0.185010 0.490032
O O3 0.925896 0.347131 0.669700
O O4 0.484729 0.344900 0.886765
O O5 0.383989 0.403443 0.611189
O O6 0.192759 0.293195 0.823911
O O7 0.055129 0.840984 0.907663
O O8 0.500000 0.000000 0.073222
#
# Coordination Sequence:
#
# PCOD9542371 Si02
#       6
#     4   4   1   1   1   4
#     4   9  18  39  71 100 131 185 248 313 371 445
#     4  10  21  40  66  99 144 191 246 305 379 452
#     4  10  24  38  68 102 160 190 232 326 380 454
#     4  10  20  38  64  98 140 190 252 322 348 442
#     4  12  28  48  70 108 164 192 246 340 396 444
#     4  11  24  43  71 102 143 196 252 308 390 464
#
# _framework density 25.11806
#
# number of rings (size 3 to 8) (size 9 to 14) (size 15 to 20)
#    0.000    1.867    0.000    4.800    3.733    0.000 
#    0.000    0.000   17.600    0.000    0.000    0.000 
#    0.000    0.000    0.000    0.000    0.000    0.000 
#
# Total GULP energy -83725.549778 kJ/mol
# GULP energy per Si atom -5581.703319 kJ/mol
# Density = 2.506089 g / cm^3
# Si number density = 25.118060 Si / 1000 Ang^3
#
#
#
# Elastic Constant Matrix: (Units=GPa)
#
#
# Indices 1 2 3 4 5 6 
#
# 1 102.4881 32.6202 49.2625 0.0000 0.0000 2.0451
# 2 32.6202 102.4881 49.2625 0.0000 0.0000 -2.0451
# 3 49.2625 49.2625 119.7001 0.0000 0.0000 0.0000
# 4 0.0000 0.0000 0.0000 14.4281 0.0000 0.0000
# 5 0.0000 0.0000 0.0000 0.0000 14.4281 0.0000
# 6 2.0451 -2.0451 0.0000 0.0000 0.0000 40.9246
#
#
#
# Elastic Compliance Matrix: (Units=1/GPa)
#
#
# Indices 1 2 3 4 5 6 
#
# 1 0.012465 -0.001890 -0.004352 0.000000 0.000000 -0.000717
# 2 -0.001890 0.012465 -0.004352 0.000000 0.000000 0.000717
# 3 -0.004352 -0.004352 0.011937 0.000000 0.000000 0.000000
# 4 0.000000 0.000000 0.000000 0.069309 0.000000 0.000000
# 5 0.000000 0.000000 0.000000 0.000000 0.069309 0.000000
# 6 -0.000717 0.000717 0.000000 0.000000 0.000000 0.024507
#
#
# Mechanical properties :
#
#
# Convention : Reuss Voigt Hill
#
# Bulk Modulus (GPa) = 63.78331 65.21852 64.50091
# Shear Modulus (GPa) = 22.08419 26.85823 24.47121
#
# Velocity S-wave (km/s) = 2.96837 3.27353 3.12468
# Velocity P-wave (km/s) = 6.09892 6.34895 6.22519
#
# Compressibility (1/GPa) = 0.01567808
#
# Stress axis : x y z
#
# Youngs Moduli (GPa) = 80.22478 80.22478 83.77649
#
# Poissons Ratio (x) = 0.15160 0.36461
# Poissons Ratio (y) = 0.15160 0.36461
# Poissons Ratio (z) = 0.34916 0.34916
#
# Static dielectric constant tensor:
#      x y z
#    x 2.059650 0.000000 0.000000 
#    y 0.000000 2.059650 0.000000 
#    z 0.000000 0.000000 2.022480 
# 
# From -- ./inp_files/561.got.cif
#   From: 2010.05.17/outbox.cif.g08.bks.cpg/sg81_cif.got.tgz:561.got - 2010.06.03 18:51:07.
