data_PCOD9542705
_publ_section_title
;
Structure prediction by ZEFSAII (Michael W. Deem and Ramdas Pophale) SiO2 
 PCOD9542705
Probable space group: I -4 
;
_chemical_formula_sum "Si O2"
_cell_formula_units_Z 64
_cell_length_a 28.228868
_cell_length_b 28.228868
_cell_length_c 5.371893
_cell_angle_alpha 90.000000
_cell_angle_beta 90.000000
_cell_angle_gamma 90.000000
_cell_volume 4280.694942
_symmetry_space_group_name_H-M "I -4 "
_symmetry_group_IT_number 82
_symmetry_cell_setting 'tetragonal'
loop_
_space_group_symop_operation_xyz
x,y,z
y,-x,-z
-x,-y,z
-y,x,-z
1/2+x,1/2+y,1/2+z
1/2+y,1/2-x,1/2-z
1/2-x,1/2-y,1/2+z
1/2-y,1/2+x,1/2-z
loop_
_atom_site_type_symbol
_atom_site_label
_atom_site_fract_x
_atom_site_fract_y
_atom_site_fract_z
Si Si1 0.528117 0.162608 0.562559
Si Si2 0.277816 0.693970 0.334683
Si Si3 0.795784 0.386549 0.209794
Si Si4 0.266769 0.310730 0.158658
Si Si5 0.586603 0.101859 0.201231
Si Si6 0.442437 0.183871 0.277944
Si Si7 0.380680 0.819614 0.810337
Si Si8 0.508058 0.071638 0.820271
O O1 0.564237 0.126805 0.434222
O O2 0.496984 0.189356 0.358720
O O3 0.566165 0.192154 0.716624
O O4 0.497166 0.124960 0.723739
O O5 0.249477 0.646164 0.269039
O O6 0.304926 0.700224 0.597151
O O7 0.236428 0.733836 0.343891
O O8 0.310547 0.705130 0.099206
O O9 0.803675 0.414770 0.467116
O O10 0.841171 0.351633 0.161434
O O11 0.792009 0.420515 0.967772
O O12 0.229672 0.353667 0.156993
O O13 0.627697 0.065205 0.261333
O O14 0.609253 0.145207 0.041634
O O15 0.544213 0.078502 0.046205
O O16 0.461677 0.040100 0.862829
#
# Coordination Sequence:
#
# PCOD9542705 Si02
#       8
#     8   8   8   8   8   8   8   8
#     4  11  22  31  45  59  82 115 146 187 225 279
#     4   9  17  29  48  68  87 103 128 160 211 271
#     4  10  20  35  49  65  84 110 137 177 219 270
#     4   9  17  28  47  69  88 104 125 160 213 275
#     4  10  21  31  44  58  81 108 146 181 232 273
#     4  11  22  34  48  61  83 112 147 179 222 266
#     4   9  20  31  45  63  88 108 136 174 226 272
#     4  10  21  33  43  56  76 103 148 201 245 273
#
# _framework density 14.950843000000001
#
# number of rings (size 3 to 8) (size 9 to 14) (size 15 to 20)
#    0.000    2.125    2.500    0.750    7.000    3.000 
#    0.000    1.250    0.000    0.000    0.000    0.000 
#    0.000    0.000    0.000    0.000    0.000    0.000 
#
# Total GULP energy -178160.479500 kJ/mol
# GULP energy per Si atom -5567.514984 kJ/mol
# Density = 1.491681 g / cm^3
# Si number density = 14.950843 Si / 1000 Ang^3
#
#
#
# Elastic Constant Matrix: (Units=GPa)
#
#
# Indices 1 2 3 4 5 6 
#
# 1 32.3114 21.2597 5.3663 0.0000 0.0000 3.0047
# 2 21.2597 32.3114 5.3663 0.0000 0.0000 -3.0047
# 3 5.3663 5.3663 45.9642 0.0000 0.0000 0.0000
# 4 0.0000 0.0000 0.0000 11.0976 0.0000 0.0000
# 5 0.0000 0.0000 0.0000 0.0000 11.0976 0.0000
# 6 3.0047 -3.0047 0.0000 0.0000 0.0000 20.3392
#
#
#
# Elastic Compliance Matrix: (Units=1/GPa)
#
#
# Indices 1 2 3 4 5 6 
#
# 1 0.058750 -0.039637 -0.002232 0.000000 0.000000 -0.014535
# 2 -0.039637 0.058750 -0.002232 0.000000 0.000000 0.014535
# 3 -0.002232 -0.002232 0.022277 0.000000 0.000000 0.000000
# 4 0.000000 0.000000 0.000000 0.090109 0.000000 0.000000
# 5 0.000000 0.000000 0.000000 0.000000 0.090109 0.000000
# 6 -0.014535 0.014535 0.000000 0.000000 0.000000 0.053460
#
#
# Mechanical properties :
#
#
# Convention : Reuss Voigt Hill
#
# Bulk Modulus (GPa) = 19.38782 19.39682 19.39232
# Shear Modulus (GPa) = 10.44170 13.74655 12.09413
#
# Velocity S-wave (km/s) = 2.64560 3.03553 2.84725
# Velocity P-wave (km/s) = 4.72526 5.02870 4.87934
#
# Compressibility (1/GPa) = 0.05157877
#
# Stress axis : x y z
#
# Youngs Moduli (GPa) = 17.02114 17.02114 44.88915
#
# Poissons Ratio (x) = 0.67466 0.10017
# Poissons Ratio (y) = 0.67466 0.10017
# Poissons Ratio (z) = 0.03798 0.03798
#
# Static dielectric constant tensor:
#      x y z
#    x 1.544690 0.000000 0.000000 
#    y 0.000000 1.544690 0.000000 
#    z 0.000000 0.000000 1.588680 
# 
# From -- ./inp_files/487.got.cif
#   From: 2010.05.17/outbox.cif.g08.bks.cpg/sg82_1_cif.got.tgz:487.got - 2010.06.03 18:52:26.
