data_PCOD9542200
_publ_section_title
;
Structure prediction by ZEFSAII (Michael W. Deem and Ramdas Pophale) SiO2 
 PCOD9542200
Probable space group: I 41
;
_chemical_formula_sum "Si O2"
_cell_formula_units_Z 52
_cell_length_a 16.879499
_cell_length_b 16.879499
_cell_length_c 8.953870
_cell_angle_alpha 90.000000
_cell_angle_beta 90.000000
_cell_angle_gamma 90.000000
_cell_volume 2551.114135
_symmetry_space_group_name_H-M "I 41"
_symmetry_group_IT_number 80
_symmetry_cell_setting 'tetragonal'
loop_
_space_group_symop_operation_xyz
x,y,z
-y,1/2+x,1/4+z
-x,-y,z
y,1/2-x,1/4+z
1/2+x,1/2+y,1/2+z
1/2-y,x,3/4+z
1/2-x,1/2-y,1/2+z
1/2+y,-x,3/4+z
loop_
_atom_site_type_symbol
_atom_site_label
_atom_site_fract_x
_atom_site_fract_y
_atom_site_fract_z
Si Si1 0.083832 0.097182 0.698030
Si Si2 0.557683 0.743579 0.385300
Si Si3 0.353009 0.946491 0.224076
Si Si4 0.500000 0.500000 0.443885
Si Si5 0.514072 0.340097 0.633517
Si Si6 0.099982 0.737498 0.711152
Si Si7 0.751766 0.175273 0.865644
O O1 0.165608 0.079396 0.617957
O O2 0.099527 0.180961 0.778883
O O3 0.066371 0.033328 0.829280
O O4 0.007149 0.103662 0.589561
O O5 0.557008 0.707701 0.552766
O O6 0.468364 0.740154 0.325263
O O7 0.387830 0.857018 0.213866
O O8 0.267766 0.929982 0.300793
O O9 0.352409 0.986528 0.061323
O O10 0.522658 0.424319 0.546386
O O11 0.589219 0.283569 0.605606
O O12 0.172321 0.794660 0.768622
O O13 0.767614 0.188389 0.038864
#
# Coordination Sequence:
#
# PCOD9542200 Si02
#       7
#     8   8   8   4   8   8   8
#     4  10  23  44  67  91 121 172 214 273 327 399
#     4  10  22  43  66  88 118 166 222 261 332 384
#     4  11  24  37  61  96 133 168 212 263 329 391
#     4  10  24  42  64  90 128 170 222 254 330 388
#     4  11  25  39  62  96 130 171 214 269 316 386
#     4  11  21  37  59  94 134 173 207 252 321 404
#     4  12  23  35  57  93 138 175 206 252 318 390
#
# _framework density 20.383251000000001
#
# number of rings (size 3 to 8) (size 9 to 14) (size 15 to 20)
#    0.000    1.231    3.077    1.846    4.308    1.846 
#    0.000    6.154    0.000    0.000    0.000    0.000 
#    0.000    0.000    0.000    0.000    0.000    0.000 
#
# Total GULP energy -144877.145437 kJ/mol
# GULP energy per Si atom -5572.197901 kJ/mol
# Density = 2.033686 g / cm^3
# Si number density = 20.383251 Si / 1000 Ang^3
#
#
#
# Elastic Constant Matrix: (Units=GPa)
#
#
# Indices 1 2 3 4 5 6 
#
# 1 53.8375 30.8676 15.3700 0.0000 0.0000 -7.3569
# 2 30.8676 53.8375 15.3700 0.0000 0.0000 7.3569
# 3 15.3700 15.3700 125.6586 0.0000 0.0000 0.0000
# 4 0.0000 0.0000 0.0000 -17.2268 0.0000 0.0000
# 5 0.0000 0.0000 0.0000 0.0000 -17.2268 0.0000
# 6 -7.3569 7.3569 0.0000 0.0000 0.0000 21.8354
#
#
#
# Elastic Compliance Matrix: (Units=1/GPa)
#
#
# Indices 1 2 3 4 5 6 
#
# 1 0.033936 -0.021582 -0.001511 0.000000 0.000000 0.018705
# 2 -0.021582 0.033936 -0.001511 0.000000 0.000000 -0.018705
# 3 -0.001511 -0.001511 0.008328 0.000000 0.000000 0.000000
# 4 0.000000 0.000000 0.000000 -0.058049 0.000000 0.000000
# 5 0.000000 0.000000 0.000000 0.000000 -0.058049 0.000000
# 6 0.018705 -0.018705 0.000000 0.000000 0.000000 0.058402
#
#
# Mechanical properties :
#
#
# Convention : Reuss Voigt Hill
#
# Bulk Modulus (GPa) = 37.04874 39.61653 38.33263
# Shear Modulus (GPa) = 65.18278 8.92474 37.05376
#
# Velocity S-wave (km/s) = 5.66110 2.09475 4.26825
# Velocity P-wave (km/s) = 7.80681 5.03276 6.56791
#
# Compressibility (1/GPa) = 0.02699147
#
# Stress axis : x y z
#
# Youngs Moduli (GPa) = 29.46757 29.46757 120.08071
#
# Poissons Ratio (x) = 0.63596 0.18145
# Poissons Ratio (y) = 0.63596 0.18145
# Poissons Ratio (z) = 0.04453 0.04453
#
# Static dielectric constant tensor:
#      x y z
#    x 2.031850 0.000000 0.000000 
#    y 0.000000 2.031850 0.000000 
#    z 0.000000 0.000000 1.801970 
# 
# From -- ./inp_files/724.got.cif
#   From: 2010.05.17/outbox.cif.g08.bks.cpg/sg80_cif.got.tgz:724.got - 2010.06.03 18:49:13.
