data_PCOD9542482
_publ_section_title
;
Structure prediction by ZEFSAII (Michael W. Deem and Ramdas Pophale) SiO2 
 PCOD9542482
Probable space group: P -4
;
_chemical_formula_sum "Si O2"
_cell_formula_units_Z 14
_cell_length_a 7.372231
_cell_length_b 7.372231
_cell_length_c 14.896567
_cell_angle_alpha 90.000000
_cell_angle_beta 90.000000
_cell_angle_gamma 90.000000
_cell_volume 809.625287
_symmetry_space_group_name_H-M "P -4"
_symmetry_group_IT_number 81
_symmetry_cell_setting 'tetragonal'
loop_
_space_group_symop_operation_xyz
x,y,z
y,-x,-z
-x,-y,z
-y,x,-z
loop_
_atom_site_type_symbol
_atom_site_label
_atom_site_fract_x
_atom_site_fract_y
_atom_site_fract_z
Si Si1 0.034723 0.796466 0.850823
Si Si2 0.793607 0.512407 0.526304
Si Si3 0.323770 0.744055 0.999386
Si Si4 0.500000 0.000000 0.298863
O O1 0.214948 0.800824 0.911169
O O2 0.043524 0.665331 0.766504
O O3 0.000000 0.000000 0.821164
O O4 0.877535 0.726233 0.919065
O O5 0.678106 0.329703 0.508644
O O6 0.834280 0.536173 0.632555
O O7 0.000000 0.500000 0.487672
O O8 0.538122 0.739214 0.982125
#
# Coordination Sequence:
#
# PCOD9542482 Si02
#       4
#     4   4   4   2
#     4  12  22  38  60  90 127 166 213 254 302 364
#     4   9  21  44  71  93 127 167 204 276 348 395
#     4  11  21  36  60  82 125 177 206 246 304 347
#     4  10  24  42  66  92 128 154 220 270 300 408
#
# _framework density 17.291947
#
# number of rings (size 3 to 8) (size 9 to 14) (size 15 to 20)
#    0.857    0.571    5.714    0.000    0.000    2.857 
#   10.286    0.000    0.000    0.000    0.000    0.000 
#    0.000    0.000    0.000    0.000    0.000    0.000 
#
# Total GULP energy -78026.517223 kJ/mol
# GULP energy per Si atom -5573.322659 kJ/mol
# Density = 1.725259 g / cm^3
# Si number density = 17.291947 Si / 1000 Ang^3
#
#
#
# Elastic Constant Matrix: (Units=GPa)
#
#
# Indices 1 2 3 4 5 6 
#
# 1 63.9529 -9.3874 -10.5327 0.0000 0.0000 3.1829
# 2 -9.3874 63.9529 -10.5327 0.0000 0.0000 -3.1829
# 3 -10.5327 -10.5327 65.1877 0.0000 0.0000 0.0000
# 4 0.0000 0.0000 0.0000 46.4248 0.0000 0.0000
# 5 0.0000 0.0000 0.0000 0.0000 46.4248 0.0000
# 6 3.1829 -3.1829 0.0000 0.0000 0.0000 23.5537
#
#
#
# Elastic Compliance Matrix: (Units=1/GPa)
#
#
# Indices 1 2 3 4 5 6 
#
# 1 0.016671 0.002874 0.003158 0.000000 0.000000 -0.001864
# 2 0.002874 0.016671 0.003158 0.000000 0.000000 0.001864
# 3 0.003158 0.003158 0.016361 0.000000 0.000000 0.000000
# 4 0.000000 0.000000 0.000000 0.021540 0.000000 0.000000
# 5 0.000000 0.000000 0.000000 0.000000 0.021540 0.000000
# 6 -0.001864 0.001864 0.000000 0.000000 0.000000 0.042960
#
#
# Mechanical properties :
#
#
# Convention : Reuss Voigt Hill
#
# Bulk Modulus (GPa) = 14.68755 14.68756 14.68755
# Shear Modulus (GPa) = 35.69957 38.18373 36.94165
#
# Velocity S-wave (km/s) = 4.54863 4.70423 4.62708
# Velocity P-wave (km/s) = 6.00824 6.16592 6.08759
#
# Compressibility (1/GPa) = 0.06808488
#
# Stress axis : x y z
#
# Youngs Moduli (GPa) = 59.98313 59.98313 61.12152
#
# Poissons Ratio (x) = -0.17242 -0.19303
# Poissons Ratio (y) = -0.17242 -0.19303
# Poissons Ratio (z) = -0.18943 -0.18943
#
# Static dielectric constant tensor:
#      x y z
#    x 1.582170 0.000000 0.000000 
#    y 0.000000 1.582170 0.000000 
#    z 0.000000 0.000000 1.550330 
# 
# From -- ./inp_files/1003.got.cif
#   From: 2010.05.17/outbox.cif.g08.bks.cpg/sg81_cif.got.tgz:1003.got - 2010.06.03 18:51:07.
