data_PCOD9542543
_publ_section_title
;
Structure prediction by ZEFSAII (Michael W. Deem and Ramdas Pophale) SiO2 
 PCOD9542543
Probable space group: P -4
;
_chemical_formula_sum "Si O2"
_cell_formula_units_Z 29
_cell_length_a 11.644658
_cell_length_b 11.644658
_cell_length_c 11.350921
_cell_angle_alpha 90.000000
_cell_angle_beta 90.000000
_cell_angle_gamma 90.000000
_cell_volume 1539.162866
_symmetry_space_group_name_H-M "P -4"
_symmetry_group_IT_number 81
_symmetry_cell_setting 'tetragonal'
loop_
_space_group_symop_operation_xyz
x,y,z
y,-x,-z
-x,-y,z
-y,x,-z
loop_
_atom_site_type_symbol
_atom_site_label
_atom_site_fract_x
_atom_site_fract_y
_atom_site_fract_z
Si Si1 0.160960 0.095770 0.632975
Si Si2 0.828362 0.906496 0.374035
Si Si3 0.643257 0.375130 0.994346
Si Si4 0.500000 0.500000 0.500000
Si Si5 0.284114 0.714612 0.745438
Si Si6 0.316446 0.243466 0.764194
Si Si7 0.524485 0.137878 0.616137
Si Si8 0.534957 0.272028 0.375171
O O1 0.217858 0.123498 0.505481
O O2 0.234421 0.135384 0.742751
O O3 0.042442 0.164988 0.636138
O O4 0.133438 0.961181 0.630298
O O5 0.758097 0.845051 0.272916
O O6 0.725866 0.348367 0.103281
O O7 0.511500 0.350914 0.031161
O O8 0.674136 0.303497 0.878216
O O9 0.557331 0.398627 0.427626
O O10 0.359862 0.810106 0.676078
O O11 0.286779 0.588641 0.686242
O O12 0.427125 0.206704 0.688259
O O13 0.254654 0.356363 0.709655
O O14 0.528266 0.179945 0.480464
O O15 0.500000 0.000000 0.624343
#
# Coordination Sequence:
#
# PCOD9542543 Si02
#       8
#     4   4   4   1   4   4   4   4
#     4   9  19  38  64  91 122 162 203 247 306 370
#     4   9  19  38  64  91 122 162 203 247 306 370
#     4  11  24  42  64  85 118 168 210 251 302 362
#     4  12  20  36  52  90 120 156 184 236 294 380
#     4  12  22  39  61  89 120 162 206 252 305 366
#     4  12  22  39  61  89 120 162 206 252 305 366
#     4  12  24  37  59  94 129 155 192 255 319 369
#     4  12  22  35  61  91 124 156 199 251 315 371
#
# _framework density 18.84141
#
# number of rings (size 3 to 8) (size 9 to 14) (size 15 to 20)
#    0.000    0.966    5.517    3.310    0.000    3.310 
#    0.000    2.759    0.000    1.655    0.000    0.000 
#    0.000    0.000    0.000    0.000    0.000    0.000 
#
# Total GULP energy -161832.983049 kJ/mol
# GULP energy per Si atom -5580.447691 kJ/mol
# Density = 1.879853 g / cm^3
# Si number density = 18.841410 Si / 1000 Ang^3
#
#
#
# Elastic Constant Matrix: (Units=GPa)
#
#
# Indices 1 2 3 4 5 6 
#
# 1 51.0467 -5.5888 20.5625 0.0000 0.0000 -1.6724
# 2 -5.5888 51.0467 20.5625 0.0000 0.0000 1.6724
# 3 20.5625 20.5625 76.9408 0.0000 0.0000 0.0000
# 4 0.0000 0.0000 0.0000 20.7317 0.0000 0.0000
# 5 0.0000 0.0000 0.0000 0.0000 20.7317 0.0000
# 6 -1.6724 1.6724 0.0000 0.0000 0.0000 31.8473
#
#
#
# Elastic Compliance Matrix: (Units=1/GPa)
#
#
# Indices 1 2 3 4 5 6 
#
# 1 0.023362 0.005651 -0.007754 0.000000 0.000000 0.000930
# 2 0.005651 0.023362 -0.007754 0.000000 0.000000 -0.000930
# 3 -0.007754 -0.007754 0.017141 0.000000 0.000000 0.000000
# 4 0.000000 0.000000 0.000000 0.048235 0.000000 0.000000
# 5 0.000000 0.000000 0.000000 0.000000 0.048235 0.000000
# 6 0.000930 -0.000930 0.000000 0.000000 0.000000 0.031497
#
#
# Mechanical properties :
#
#
# Convention : Reuss Voigt Hill
#
# Bulk Modulus (GPa) = 22.64877 27.78962 25.21919
# Shear Modulus (GPa) = 22.09790 24.22866 23.16328
#
# Velocity S-wave (km/s) = 3.42839 3.58987 3.51006
# Velocity P-wave (km/s) = 5.26485 5.65368 5.46273
#
# Compressibility (1/GPa) = 0.04415251
#
# Stress axis : x y z
#
# Youngs Moduli (GPa) = 42.80380 42.80380 58.33823
#
# Poissons Ratio (x) = -0.24187 0.45234
# Poissons Ratio (y) = -0.24187 0.45234
# Poissons Ratio (z) = 0.33189 0.33189
#
# Static dielectric constant tensor:
#      x y z
#    x 1.745040 0.000000 0.000000 
#    y 0.000000 1.745040 0.000000 
#    z 0.000000 0.000000 1.654840 
# 
# From -- ./inp_files/1403.got.cif
#   From: 2010.05.17/outbox.cif.g08.bks.cpg/sg81_cif.got.tgz:1403.got - 2010.06.03 18:51:07.
