data_PCOD9542429
_publ_section_title
;
Structure prediction by ZEFSAII (Michael W. Deem and Ramdas Pophale) SiO2 
 PCOD9542429
Probable space group: P -4
;
_chemical_formula_sum "Si O2"
_cell_formula_units_Z 16
_cell_length_a 5.275251
_cell_length_b 5.275251
_cell_length_c 23.128952
_cell_angle_alpha 90.000000
_cell_angle_beta 90.000000
_cell_angle_gamma 90.000000
_cell_volume 643.638793
_symmetry_space_group_name_H-M "P -4"
_symmetry_group_IT_number 81
_symmetry_cell_setting 'tetragonal'
loop_
_space_group_symop_operation_xyz
x,y,z
y,-x,-z
-x,-y,z
-y,x,-z
loop_
_atom_site_type_symbol
_atom_site_label
_atom_site_fract_x
_atom_site_fract_y
_atom_site_fract_z
Si Si1 0.751839 0.175224 0.409341
Si Si2 0.757018 0.349556 0.154401
Si Si3 0.500000 0.000000 0.076460
Si Si4 0.500000 0.500000 0.000000
Si Si5 0.500000 0.500000 0.500000
Si Si6 0.828142 0.751255 0.717632
O O1 0.713313 0.380793 0.458875
O O2 0.751910 0.301023 0.345332
O O3 0.500000 0.000000 0.411341
O O4 0.000000 0.000000 0.416268
O O5 0.500000 0.500000 0.142656
O O6 0.720997 0.086033 0.120856
O O7 0.766516 0.326837 0.223644
O O8 0.000000 0.500000 0.133303
O O9 0.451404 0.243083 0.036295
O O10 0.000000 0.500000 0.721390
O O11 0.000000 0.000000 0.717494
#
# Coordination Sequence:
#
# PCOD9542429 Si02
#       6
#     4   4   2   1   1   4
#     4  10  26  47  73 108 158 208 270 335 410 491
#     4  12  27  46  82 119 162 208 268 337 409 487
#     4  12  30  58  80 126 162 228 272 342 400 486
#     4  12  32  52  86 112 172 220 284 330 400 484
#     4  12  28  44  78 104 148 220 272 334 412 488
#     4  10  21  45  73 110 156 203 258 333 409 488
#
# _framework density 24.858658999999999
#
# number of rings (size 3 to 8) (size 9 to 14) (size 15 to 20)
#    0.000    1.000    2.500    1.500    7.000    2.500 
#    0.000    0.000    0.000    0.000    0.000    0.000 
#    0.000    0.000    0.000    0.000    0.000    0.000 
#
# Total GULP energy -89655.192075 kJ/mol
# GULP energy per Si atom -5603.449505 kJ/mol
# Density = 2.480208 g / cm^3
# Si number density = 24.858659 Si / 1000 Ang^3
#
#
#
# Elastic Constant Matrix: (Units=GPa)
#
#
# Indices 1 2 3 4 5 6 
#
# 1 162.1378 63.8563 64.7772 0.0000 0.0000 -1.2068
# 2 63.8563 162.1378 64.7772 0.0000 0.0000 1.2068
# 3 64.7772 64.7772 188.0452 0.0000 0.0000 0.0000
# 4 0.0000 0.0000 0.0000 108.4156 0.0000 0.0000
# 5 0.0000 0.0000 0.0000 0.0000 108.4156 0.0000
# 6 -1.2068 1.2068 0.0000 0.0000 0.0000 54.7131
#
#
#
# Elastic Compliance Matrix: (Units=1/GPa)
#
#
# Indices 1 2 3 4 5 6 
#
# 1 0.007847 -0.002333 -0.001899 0.000000 0.000000 0.000225
# 2 -0.002333 0.007847 -0.001899 0.000000 0.000000 -0.000225
# 3 -0.001899 -0.001899 0.006626 0.000000 0.000000 0.000000
# 4 0.000000 0.000000 0.000000 0.009224 0.000000 0.000000
# 5 0.000000 0.000000 0.000000 0.000000 0.009224 0.000000
# 6 0.000225 -0.000225 0.000000 0.000000 0.000000 0.018287
#
#
# Mechanical properties :
#
#
# Convention : Reuss Voigt Hill
#
# Bulk Modulus (GPa) = 99.43836 99.90471 99.67154
# Shear Modulus (GPa) = 66.96011 75.56952 71.26482
#
# Velocity S-wave (km/s) = 5.19565 5.51957 5.36006
# Velocity P-wave (km/s) = 8.72247 8.99429 8.85942
#
# Compressibility (1/GPa) = 0.01005648
#
# Stress axis : x y z
#
# Youngs Moduli (GPa) = 127.43648 127.43648 150.91075
#
# Poissons Ratio (x) = 0.29735 0.28663
# Poissons Ratio (y) = 0.29735 0.28663
# Poissons Ratio (z) = 0.24205 0.24205
#
# Static dielectric constant tensor:
#      x y z
#    x 1.965890 0.000000 0.000000 
#    y 0.000000 1.965890 0.000000 
#    z 0.000000 0.000000 2.023670 
# 
# From -- ./inp_files/1823.got.cif
#   From: 2010.05.17/outbox.cif.g08.bks.cpg/sg81_cif.got.tgz:1823.got - 2010.06.03 18:51:07.
