data_PCOD9542948
_publ_section_title
;
Structure prediction by ZEFSAII (Michael W. Deem and Ramdas Pophale) SiO2 
 PCOD9542948
Probable space group: I -4 
;
_chemical_formula_sum "Si O2"
_cell_formula_units_Z 40
_cell_length_a 16.923970
_cell_length_b 16.923970
_cell_length_c 5.332711
_cell_angle_alpha 90.000000
_cell_angle_beta 90.000000
_cell_angle_gamma 90.000000
_cell_volume 1527.399140
_symmetry_space_group_name_H-M "I -4 "
_symmetry_group_IT_number 82
_symmetry_cell_setting 'tetragonal'
loop_
_space_group_symop_operation_xyz
x,y,z
y,-x,-z
-x,-y,z
-y,x,-z
1/2+x,1/2+y,1/2+z
1/2+y,1/2-x,1/2-z
1/2-x,1/2-y,1/2+z
1/2-y,1/2+x,1/2-z
loop_
_atom_site_type_symbol
_atom_site_label
_atom_site_fract_x
_atom_site_fract_y
_atom_site_fract_z
Si Si1 0.577983 0.897442 0.744957
Si Si2 0.387462 0.670830 0.081876
Si Si3 0.519959 0.603690 0.354960
Si Si4 0.241732 0.355182 0.432295
Si Si5 0.877933 0.760531 0.053809
O O1 0.487156 0.901048 0.835215
O O2 0.778641 0.886022 0.670331
O O3 0.586802 0.826276 0.547122
O O4 0.460999 0.611880 0.123244
O O5 0.399235 0.728148 0.321616
O O6 0.306684 0.625976 0.174960
O O7 0.270142 0.713134 0.537552
O O8 0.584412 0.535837 0.405347
O O9 0.570050 0.682438 0.384636
O O10 0.148407 0.367091 0.424876
#
# Coordination Sequence:
#
# PCOD9542948 Si02
#       5
#     8   8   8   8   8
#     4  11  25  48  79 116 163 209 268 335 396 473
#     4   9  21  42  73 107 149 198 251 317 385 475
#     4   9  17  38  66 110 157 200 251 320 396 471
#     4  10  23  46  74 109 144 205 258 315 387 467
#     4   9  22  42  77 106 155 203 264 317 400 470
#
# _framework density 26.188310000000001
#
# number of rings (size 3 to 8) (size 9 to 14) (size 15 to 20)
#    1.200    1.200    0.000    1.200    2.800    0.000 
#   10.800    2.000    4.400    2.400    0.000    0.000 
#    0.000    0.000    0.000    0.000    0.000    0.000 
#
# Total GULP energy -111448.223987 kJ/mol
# GULP energy per Si atom -5572.411199 kJ/mol
# Density = 2.612870 g / cm^3
# Si number density = 26.188310 Si / 1000 Ang^3
#
#
#
# Elastic Constant Matrix: (Units=GPa)
#
#
# Indices 1 2 3 4 5 6 
#
# 1 171.5843 66.2305 25.7198 0.0000 0.0000 -4.8781
# 2 66.2305 171.5843 25.7198 0.0000 0.0000 4.8781
# 3 25.7198 25.7198 142.0193 0.0000 0.0000 0.0000
# 4 0.0000 0.0000 0.0000 8.0835 0.0000 0.0000
# 5 0.0000 0.0000 0.0000 0.0000 8.0835 0.0000
# 6 -4.8781 4.8781 0.0000 0.0000 0.0000 44.4493
#
#
#
# Elastic Compliance Matrix: (Units=1/GPa)
#
#
# Indices 1 2 3 4 5 6 
#
# 1 0.006983 -0.002606 -0.000793 0.000000 0.000000 0.001052
# 2 -0.002606 0.006983 -0.000793 0.000000 0.000000 -0.001052
# 3 -0.000793 -0.000793 0.007328 0.000000 0.000000 0.000000
# 4 0.000000 0.000000 0.000000 0.123709 0.000000 0.000000
# 5 0.000000 0.000000 0.000000 0.000000 0.123709 0.000000
# 6 0.001052 -0.001052 0.000000 0.000000 0.000000 0.022729
#
#
# Mechanical properties :
#
#
# Convention : Reuss Voigt Hill
#
# Bulk Modulus (GPa) = 77.45410 80.05866 78.75638
# Shear Modulus (GPa) = 16.44044 36.62445 26.53244
#
# Velocity S-wave (km/s) = 2.50827 3.74371 3.18644
# Velocity P-wave (km/s) = 6.16673 7.02310 6.60880
#
# Compressibility (1/GPa) = 0.01291087
#
# Stress axis : x y z
#
# Youngs Moduli (GPa) = 143.20833 143.20833 136.45614
#
# Poissons Ratio (x) = 0.37327 0.10815
# Poissons Ratio (y) = 0.37327 0.10815
# Poissons Ratio (z) = 0.11350 0.11350
#
# Static dielectric constant tensor:
#      x y z
#    x 2.142570 0.000000 0.000000 
#    y 0.000000 2.142570 0.000000 
#    z 0.000000 0.000000 2.055930 
# 
# From -- ./inp_files/1014.got.cif
#   From: 2010.05.17/outbox.cif.g08.bks.cpg/sg82_1_cif.got.tgz:1014.got - 2010.06.03 18:52:26.
