data_PCOD9542424
_publ_section_title
;
Structure prediction by ZEFSAII (Michael W. Deem and Ramdas Pophale) SiO2 
 PCOD9542424
Probable space group: P -4
;
_chemical_formula_sum "Si O2"
_cell_formula_units_Z 19
_cell_length_a 8.605674
_cell_length_b 8.605674
_cell_length_c 11.642268
_cell_angle_alpha 90.000000
_cell_angle_beta 90.000000
_cell_angle_gamma 90.000000
_cell_volume 862.198718
_symmetry_space_group_name_H-M "P -4"
_symmetry_group_IT_number 81
_symmetry_cell_setting 'tetragonal'
loop_
_space_group_symop_operation_xyz
x,y,z
y,-x,-z
-x,-y,z
-y,x,-z
loop_
_atom_site_type_symbol
_atom_site_label
_atom_site_fract_x
_atom_site_fract_y
_atom_site_fract_z
Si Si1 0.000000 0.500000 0.596655
Si Si2 0.500000 0.500000 0.500000
Si Si3 0.947790 0.675404 0.185266
Si Si4 0.505645 0.216306 0.614857
Si Si5 0.371388 0.723443 0.007725
Si Si6 0.737003 0.185801 0.247600
O O1 0.130878 0.539008 0.502130
O O2 0.060322 0.352290 0.672219
O O3 0.581024 0.377155 0.580477
O O4 0.878150 0.627577 0.308772
O O5 0.000000 0.500000 0.144373
O O6 0.081698 0.803869 0.204378
O O7 0.817115 0.716428 0.092506
O O8 0.351132 0.261799 0.685116
O O9 0.357982 0.806746 0.129609
O O10 0.551597 0.698880 0.976983
#
# Coordination Sequence:
#
# PCOD9542424 Si02
#       6
#     2   1   4   4   4   4
#     4  12  24  42  72 108 146 192 264 298 374 452
#     4  12  24  36  72 110 136 192 260 324 362 420
#     4  10  21  43  65  99 151 191 232 311 379 432
#     4  11  22  41  68 105 146 190 245 314 371 428
#     4  11  23  39  71 110 143 186 254 316 367 438
#     4  11  24  42  70 105 145 199 241 310 374 449
#
# _framework density 22.036683
#
# number of rings (size 3 to 8) (size 9 to 14) (size 15 to 20)
#    0.000    1.053    9.474    0.000    4.421    0.000 
#    0.000    0.000    0.000   18.947    0.000    0.000 
#    0.000    0.000    0.000    0.000    0.000    0.000 
#
# Total GULP energy -105787.846956 kJ/mol
# GULP energy per Si atom -5567.781419 kJ/mol
# Density = 2.198653 g / cm^3
# Si number density = 22.036683 Si / 1000 Ang^3
#
#
#
# Elastic Constant Matrix: (Units=GPa)
#
#
# Indices 1 2 3 4 5 6 
#
# 1 33.0602 51.0327 39.4401 0.0000 0.0000 -19.6373
# 2 51.0327 33.0602 39.4401 0.0000 0.0000 19.6373
# 3 39.4401 39.4401 141.3867 0.0000 0.0000 0.0000
# 4 0.0000 0.0000 0.0000 -16.5832 0.0000 0.0000
# 5 0.0000 0.0000 0.0000 0.0000 -16.5832 0.0000
# 6 -19.6373 19.6373 0.0000 0.0000 0.0000 15.1913
#
#
#
# Elastic Compliance Matrix: (Units=1/GPa)
#
#
# Indices 1 2 3 4 5 6 
#
# 1 0.000779 0.015327 -0.004493 0.000000 0.000000 -0.018805
# 2 0.015327 0.000779 -0.004493 0.000000 0.000000 0.018805
# 3 -0.004493 -0.004493 0.009579 0.000000 0.000000 0.000000
# 4 0.000000 0.000000 0.000000 -0.060302 0.000000 0.000000
# 5 0.000000 0.000000 0.000000 0.000000 -0.060302 0.000000
# 6 -0.018805 0.018805 0.000000 0.000000 0.000000 0.017210
#
#
# Mechanical properties :
#
#
# Convention : Reuss Voigt Hill
#
# Bulk Modulus (GPa) = 41.98150 51.92589 46.95369
# Shear Modulus (GPa) = -51.54750 1.57795 -24.98477
#
# Velocity S-wave (km/s) = -4.84174 0.84712 -3.37082
# Velocity P-wave (km/s) = 3.48777 4.95695 2.49067
#
# Compressibility (1/GPa) = 0.02382002
#
# Stress axis : x y z
#
# Youngs Moduli (GPa) = 1283.19730 1283.19730 104.39133
#
# Poissons Ratio (x) = -19.66702 0.46901
# Poissons Ratio (y) = -19.66702 0.46901
# Poissons Ratio (z) = 5.76511 5.76511
#
# Static dielectric constant tensor:
#      x y z
#    x 1.966270 0.000000 0.000000 
#    y 0.000000 1.966270 0.000000 
#    z 0.000000 0.000000 1.919200 
# 
# From -- ./inp_files/1274.got.cif
#   From: 2010.05.17/outbox.cif.g08.bks.cpg/sg81_cif.got.tgz:1274.got - 2010.06.03 18:51:07.
