data_PCOD9542709
_publ_section_title
;
Structure prediction by ZEFSAII (Michael W. Deem and Ramdas Pophale) SiO2 
 PCOD9542709
Probable space group: I -4 
;
_chemical_formula_sum "Si O2"
_cell_formula_units_Z 48
_cell_length_a 16.889145
_cell_length_b 16.889145
_cell_length_c 7.160367
_cell_angle_alpha 90.000000
_cell_angle_beta 90.000000
_cell_angle_gamma 90.000000
_cell_volume 2042.446131
_symmetry_space_group_name_H-M "I -4 "
_symmetry_group_IT_number 82
_symmetry_cell_setting 'tetragonal'
loop_
_space_group_symop_operation_xyz
x,y,z
y,-x,-z
-x,-y,z
-y,x,-z
1/2+x,1/2+y,1/2+z
1/2+y,1/2-x,1/2-z
1/2-x,1/2-y,1/2+z
1/2-y,1/2+x,1/2-z
loop_
_atom_site_type_symbol
_atom_site_label
_atom_site_fract_x
_atom_site_fract_y
_atom_site_fract_z
Si Si1 0.380224 0.461296 0.030951
Si Si2 0.948071 0.727010 0.033166
Si Si3 0.573724 0.084642 0.178493
Si Si4 0.328542 0.316787 0.253623
Si Si5 0.835194 0.752569 0.338558
Si Si6 0.083055 0.764086 0.777000
O O1 0.308039 0.466038 0.886480
O O2 0.414905 0.547450 0.072979
O O3 0.356996 0.405521 0.203536
O O4 0.945580 0.634642 0.975736
O O5 0.882293 0.772095 0.905120
O O6 0.030728 0.763283 0.963390
O O7 0.918558 0.732880 0.244063
O O8 0.478922 0.085209 0.153017
O O9 0.596785 0.173307 0.225145
O O10 0.235300 0.309977 0.301811
O O11 0.338919 0.271576 0.055943
O O12 0.805593 0.832638 0.235182
#
# Coordination Sequence:
#
# PCOD9542709 Si02
#       6
#     8   8   8   8   8   8
#     4  10  20  35  56  86 121 164 210 245 302 372
#     4  11  20  39  60  85 121 157 199 251 305 365
#     4   9  18  34  63  90 114 155 199 245 306 367
#     4  11  20  37  60  83 116 160 197 254 300 359
#     4  11  22  38  58  91 118 156 208 249 306 367
#     4  10  20  37  58  88 122 158 205 252 304 365
#
# _framework density 23.501232999999999
#
# number of rings (size 3 to 8) (size 9 to 14) (size 15 to 20)
#    0.000    1.667    5.000    1.000    0.000    0.000 
#    6.000    0.000    0.000    0.000    0.000    7.000 
#    0.000    0.000    0.000    0.000    0.000    0.000 
#
# Total GULP energy -134127.342810 kJ/mol
# GULP energy per Si atom -5588.639284 kJ/mol
# Density = 2.344774 g / cm^3
# Si number density = 23.501233 Si / 1000 Ang^3
#
#
#
# Elastic Constant Matrix: (Units=GPa)
#
#
# Indices 1 2 3 4 5 6 
#
# 1 104.5316 2.0027 19.5217 0.0000 0.0000 -1.8621
# 2 2.0027 104.5316 19.5217 0.0000 0.0000 1.8621
# 3 19.5217 19.5217 88.4398 0.0000 0.0000 0.0000
# 4 0.0000 0.0000 0.0000 20.7972 0.0000 0.0000
# 5 0.0000 0.0000 0.0000 0.0000 20.7972 0.0000
# 6 -1.8621 1.8621 0.0000 0.0000 0.0000 31.4443
#
#
#
# Elastic Compliance Matrix: (Units=1/GPa)
#
#
# Indices 1 2 3 4 5 6 
#
# 1 0.009994 0.000219 -0.002254 0.000000 0.000000 0.000579
# 2 0.000219 0.009994 -0.002254 0.000000 0.000000 -0.000579
# 3 -0.002254 -0.002254 0.012302 0.000000 0.000000 0.000000
# 4 0.000000 0.000000 0.000000 0.048083 0.000000 0.000000
# 5 0.000000 0.000000 0.000000 0.000000 0.048083 0.000000
# 6 0.000579 -0.000579 0.000000 0.000000 0.000000 0.031871
#
#
# Mechanical properties :
#
#
# Convention : Reuss Voigt Hill
#
# Bulk Modulus (GPa) = 42.17504 42.17724 42.17614
# Shear Modulus (GPa) = 28.27903 31.70488 29.99195
#
# Velocity S-wave (km/s) = 3.47262 3.67696 3.57625
# Velocity P-wave (km/s) = 5.83641 6.00104 5.91930
#
# Compressibility (1/GPa) = 0.02371071
#
# Stress axis : x y z
#
# Youngs Moduli (GPa) = 100.06405 100.06405 81.28535
#
# Poissons Ratio (x) = -0.02194 0.18324
# Poissons Ratio (y) = -0.02194 0.18324
# Poissons Ratio (z) = 0.22558 0.22558
#
# Static dielectric constant tensor:
#      x y z
#    x 1.927250 0.000000 0.000000 
#    y 0.000000 1.927250 0.000000 
#    z 0.000000 0.000000 1.868510 
# 
# From -- ./inp_files/1071.got.cif
#   From: 2010.05.17/outbox.cif.g08.bks.cpg/sg82_1_cif.got.tgz:1071.got - 2010.06.03 18:52:26.
