data_PCOD9542561
_publ_section_title
;
Structure prediction by ZEFSAII (Michael W. Deem and Ramdas Pophale) SiO2 
 PCOD9542561
Probable space group: P -4
;
_chemical_formula_sum "Si O2"
_cell_formula_units_Z 17
_cell_length_a 9.862060
_cell_length_b 9.862060
_cell_length_c 7.385668
_cell_angle_alpha 90.000000
_cell_angle_beta 90.000000
_cell_angle_gamma 90.000000
_cell_volume 718.331750
_symmetry_space_group_name_H-M "P -4"
_symmetry_group_IT_number 81
_symmetry_cell_setting 'tetragonal'
loop_
_space_group_symop_operation_xyz
x,y,z
y,-x,-z
-x,-y,z
-y,x,-z
loop_
_atom_site_type_symbol
_atom_site_label
_atom_site_fract_x
_atom_site_fract_y
_atom_site_fract_z
Si Si1 0.332670 0.402961 0.071911
Si Si2 0.851150 0.841600 0.944646
Si Si3 0.789490 0.800343 0.523999
Si Si4 0.000000 0.000000 0.500000
Si Si5 0.504933 0.154040 0.606307
O O1 0.266649 0.485339 0.236949
O O2 0.346478 0.514389 0.911185
O O3 0.235231 0.277891 0.033883
O O4 0.816498 0.839836 0.731951
O O5 0.009581 0.816997 0.981127
O O6 0.888125 0.900008 0.411030
O O7 0.630705 0.822280 0.490571
O O8 0.830584 0.645837 0.497701
O O9 0.500000 0.000000 0.680133
#
# Coordination Sequence:
#
# PCOD9542561 Si02
#       5
#     4   4   4   1   4
#     4  11  26  46  70 102 149 197 251 312 385 471
#     4  11  25  47  75 108 146 199 260 316 383 459
#     4  12  27  47  77 110 154 200 256 327 396 468
#     4  12  24  48  74 108 148 188 258 312 380 468
#     4  12  27  48  73 114 152 202 259 327 401 475
#
# _framework density 23.665942000000001
#
# number of rings (size 3 to 8) (size 9 to 14) (size 15 to 20)
#    0.000    0.471    4.706    2.824    6.588    0.471 
#    0.000    0.000    0.000    0.000    0.000    0.000 
#    0.000    0.000    0.000    0.000    0.000    0.000 
#
# Total GULP energy -95122.030725 kJ/mol
# GULP energy per Si atom -5595.413572 kJ/mol
# Density = 2.361208 g / cm^3
# Si number density = 23.665942 Si / 1000 Ang^3
#
#
#
# Elastic Constant Matrix: (Units=GPa)
#
#
# Indices 1 2 3 4 5 6 
#
# 1 211.0858 80.4968 3.8713 0.0000 0.0000 -11.1583
# 2 80.4968 211.0858 3.8713 0.0000 0.0000 11.1583
# 3 3.8713 3.8713 15.7179 0.0000 0.0000 0.0000
# 4 0.0000 0.0000 0.0000 28.8590 0.0000 0.0000
# 5 0.0000 0.0000 0.0000 0.0000 28.8590 0.0000
# 6 -11.1583 11.1583 0.0000 0.0000 0.0000 52.0519
#
#
#
# Elastic Compliance Matrix: (Units=1/GPa)
#
#
# Indices 1 2 3 4 5 6 
#
# 1 0.005700 -0.002248 -0.000850 0.000000 0.000000 0.001704
# 2 -0.002248 0.005700 -0.000850 0.000000 0.000000 -0.001704
# 3 -0.000850 -0.000850 0.064041 0.000000 0.000000 0.000000
# 4 0.000000 0.000000 0.000000 0.034651 0.000000 0.000000
# 5 0.000000 0.000000 0.000000 0.000000 0.034651 0.000000
# 6 0.001704 -0.001704 0.000000 0.000000 0.000000 0.019942
#
#
# Mechanical properties :
#
#
# Convention : Reuss Voigt Hill
#
# Bulk Modulus (GPa) = 14.80518 68.26311 41.53414
# Shear Modulus (GPa) = 25.62807 45.26399 35.44603
#
# Velocity S-wave (km/s) = 3.29433 4.37810 3.87430
# Velocity P-wave (km/s) = 4.55408 7.37998 6.13203
#
# Compressibility (1/GPa) = 0.06754394
#
# Stress axis : x y z
#
# Youngs Moduli (GPa) = 175.42410 175.42410 15.61508
#
# Poissons Ratio (x) = 0.39441 0.01328
# Poissons Ratio (y) = 0.39441 0.01328
# Poissons Ratio (z) = 0.14915 0.14915
#
# Static dielectric constant tensor:
#      x y z
#    x 1.890920 0.000000 0.000000 
#    y 0.000000 1.890920 0.000000 
#    z 0.000000 0.000000 1.961870 
# 
# From -- ./inp_files/645.got.cif
#   From: 2010.05.17/outbox.cif.g08.bks.cpg/sg81_cif.got.tgz:645.got - 2010.06.03 18:51:07.
