data_PCOD9542215
_publ_section_title
;
Structure prediction by ZEFSAII (Michael W. Deem and Ramdas Pophale) SiO2 
 PCOD9542215
Probable space group: I 41
;
_chemical_formula_sum "Si O2"
_cell_formula_units_Z 52
_cell_length_a 16.602508
_cell_length_b 16.602508
_cell_length_c 9.101170
_cell_angle_alpha 90.000000
_cell_angle_beta 90.000000
_cell_angle_gamma 90.000000
_cell_volume 2508.676277
_symmetry_space_group_name_H-M "I 41"
_symmetry_group_IT_number 80
_symmetry_cell_setting 'tetragonal'
loop_
_space_group_symop_operation_xyz
x,y,z
-y,1/2+x,1/4+z
-x,-y,z
y,1/2-x,1/4+z
1/2+x,1/2+y,1/2+z
1/2-y,x,3/4+z
1/2-x,1/2-y,1/2+z
1/2+y,-x,3/4+z
loop_
_atom_site_type_symbol
_atom_site_label
_atom_site_fract_x
_atom_site_fract_y
_atom_site_fract_z
Si Si1 0.181862 0.506550 0.902350
Si Si2 0.164476 0.719516 0.597378
Si Si3 0.070219 0.772771 0.166915
Si Si4 0.112409 0.588431 0.169490
Si Si5 0.500000 0.500000 0.644169
Si Si6 0.354889 0.061673 0.088810
Si Si7 0.760160 0.837306 0.460416
O O1 0.250144 0.574196 0.873375
O O2 0.143058 0.481139 0.747571
O O3 0.222052 0.426024 0.967105
O O4 0.117248 0.545236 0.013171
O O5 0.212302 0.706778 0.748035
O O6 0.173943 0.636248 0.506661
O O7 0.102573 0.683285 0.160591
O O8 0.985260 0.785038 0.248627
O O9 0.066028 0.805367 0.002586
O O10 0.045316 0.558981 0.282911
O O11 0.455194 0.435214 0.745907
O O12 0.341197 0.155695 0.119329
O O13 0.781656 0.800413 0.617666
#
# Coordination Sequence:
#
# PCOD9542215 Si02
#       7
#     8   8   8   8   4   8   8
#     4  11  25  42  63 107 134 176 227 289 341 418
#     4  12  23  37  65  98 147 185 226 267 334 420
#     4  11  22  40  64 100 136 187 223 268 335 422
#     4  11  25  42  63 100 140 175 226 274 346 407
#     4  10  26  44  66  94 136 180 222 286 342 406
#     4  10  23  43  71  96 130 180 234 284 349 407
#     4  10  25  47  73  97 126 175 239 291 354 405
#
# _framework density 20.728061
#
# number of rings (size 3 to 8) (size 9 to 14) (size 15 to 20)
#    0.000    1.231    3.077    0.923   10.769    3.077 
#    5.538    0.000    0.000    0.000    0.000    0.000 
#    0.000    0.000    0.000    0.000    0.000    0.000 
#
# Total GULP energy -145384.066543 kJ/mol
# GULP energy per Si atom -5591.694867 kJ/mol
# Density = 2.068088 g / cm^3
# Si number density = 20.728061 Si / 1000 Ang^3
#
#
#
# Elastic Constant Matrix: (Units=GPa)
#
#
# Indices 1 2 3 4 5 6 
#
# 1 65.6558 22.6043 29.2593 0.0000 0.0000 4.0306
# 2 22.6043 65.6558 29.2593 0.0000 0.0000 -4.0306
# 3 29.2593 29.2593 75.9064 0.0000 0.0000 0.0000
# 4 0.0000 0.0000 0.0000 21.9119 0.0000 0.0000
# 5 0.0000 0.0000 0.0000 0.0000 21.9119 0.0000
# 6 4.0306 -4.0306 0.0000 0.0000 0.0000 -21.1953
#
#
#
# Elastic Compliance Matrix: (Units=1/GPa)
#
#
# Indices 1 2 3 4 5 6 
#
# 1 0.018825 -0.003605 -0.005867 0.000000 0.000000 0.004265
# 2 -0.003605 0.018825 -0.005867 0.000000 0.000000 -0.004265
# 3 -0.005867 -0.005867 0.017697 0.000000 0.000000 0.000000
# 4 0.000000 0.000000 0.000000 0.045637 0.000000 0.000000
# 5 0.000000 0.000000 0.000000 0.000000 0.045637 0.000000
# 6 0.004265 -0.004265 0.000000 0.000000 0.000000 -0.045558
#
#
# Mechanical properties :
#
#
# Convention : Reuss Voigt Hill
#
# Bulk Modulus (GPa) = 40.53532 41.05151 40.79341
# Shear Modulus (GPa) = 35.72383 12.93204 24.32793
#
# Velocity S-wave (km/s) = 4.15595 2.50049 3.42961
# Velocity P-wave (km/s) = 6.52897 5.30890 5.95029
#
# Compressibility (1/GPa) = 0.02466985
#
# Stress axis : x y z
#
# Youngs Moduli (GPa) = 53.12186 53.12186 56.50679
#
# Poissons Ratio (x) = 0.19149 0.33151
# Poissons Ratio (y) = 0.19149 0.33151
# Poissons Ratio (z) = 0.31165 0.31165
#
# Static dielectric constant tensor:
#      x y z
#    x 1.749920 0.000000 0.000000 
#    y 0.000000 1.749920 0.000000 
#    z 0.000000 0.000000 1.736530 
# 
# From -- ./inp_files/707.got.cif
#   From: 2010.05.17/outbox.cif.g08.bks.cpg/sg80_cif.got.tgz:707.got - 2010.06.03 18:49:13.
