data_PCOD9542889
_publ_section_title
;
Structure prediction by ZEFSAII (Michael W. Deem and Ramdas Pophale) SiO2 
 PCOD9542889
Probable space group: I -4 
;
_chemical_formula_sum "Si O2"
_cell_formula_units_Z 40
_cell_length_a 14.338970
_cell_length_b 14.338970
_cell_length_c 9.166787
_cell_angle_alpha 90.000000
_cell_angle_beta 90.000000
_cell_angle_gamma 90.000000
_cell_volume 1884.746964
_symmetry_space_group_name_H-M "I -4 "
_symmetry_group_IT_number 82
_symmetry_cell_setting 'tetragonal'
loop_
_space_group_symop_operation_xyz
x,y,z
y,-x,-z
-x,-y,z
-y,x,-z
1/2+x,1/2+y,1/2+z
1/2+y,1/2-x,1/2-z
1/2-x,1/2-y,1/2+z
1/2-y,1/2+x,1/2-z
loop_
_atom_site_type_symbol
_atom_site_label
_atom_site_fract_x
_atom_site_fract_y
_atom_site_fract_z
Si Si1 0.563847 0.343724 0.194810
Si Si2 0.704294 0.492420 0.098877
Si Si3 0.649857 0.665240 0.271603
Si Si4 0.630773 0.077022 0.753534
Si Si5 0.268722 0.710808 0.411677
O O1 0.608887 0.433857 0.114059
O O2 0.461899 0.348686 0.269384
O O3 0.641622 0.313429 0.310697
O O4 0.544488 0.280984 0.053217
O O5 0.692957 0.565830 0.229674
O O6 0.792878 0.428192 0.126941
O O7 0.692192 0.702967 0.422131
O O8 0.688496 0.732433 0.142895
O O9 0.530520 0.113363 0.702900
O O10 0.683535 0.139983 0.872361
#
# Coordination Sequence:
#
# PCOD9542889 Si02
#       5
#     8   8   8   8   8
#     4  11  25  42  69  99 139 180 231 280 356 417
#     4  11  22  43  69 103 133 182 225 283 352 422
#     4  12  25  45  67  98 146 176 239 284 355 414
#     4  10  22  42  71  99 136 182 234 278 347 416
#     4  11  27  44  68 104 136 187 233 296 347 424
#
# _framework density 21.223006999999999
#
# number of rings (size 3 to 8) (size 9 to 14) (size 15 to 20)
#    0.000    1.000    4.000    1.800    8.400    0.000 
#    0.000    0.000    0.000    0.600    0.000    0.000 
#    0.000    0.000    0.000    0.000    0.000    0.000 
#
# Total GULP energy -111576.675781 kJ/mol
# GULP energy per Si atom -5578.833789 kJ/mol
# Density = 2.117470 g / cm^3
# Si number density = 21.223007 Si / 1000 Ang^3
#
#
#
# Elastic Constant Matrix: (Units=GPa)
#
#
# Indices 1 2 3 4 5 6 
#
# 1 119.0063 30.7338 23.8041 0.0000 0.0000 1.1542
# 2 30.7338 119.0063 23.8041 0.0000 0.0000 -1.1542
# 3 23.8041 23.8041 100.2464 0.0000 0.0000 0.0000
# 4 0.0000 0.0000 0.0000 30.8477 0.0000 0.0000
# 5 0.0000 0.0000 0.0000 0.0000 30.8477 0.0000
# 6 1.1542 -1.1542 0.0000 0.0000 0.0000 31.8352
#
#
#
# Elastic Compliance Matrix: (Units=1/GPa)
#
#
# Indices 1 2 3 4 5 6 
#
# 1 0.009281 -0.002058 -0.001715 0.000000 0.000000 -0.000411
# 2 -0.002058 0.009281 -0.001715 0.000000 0.000000 0.000411
# 3 -0.001715 -0.001715 0.010790 0.000000 0.000000 0.000000
# 4 0.000000 0.000000 0.000000 0.032417 0.000000 0.000000
# 5 0.000000 0.000000 0.000000 0.000000 0.032417 0.000000
# 6 -0.000411 0.000411 0.000000 0.000000 0.000000 0.031442
#
#
# Mechanical properties :
#
#
# Convention : Reuss Voigt Hill
#
# Bulk Modulus (GPa) = 54.41857 54.99366 54.70611
# Shear Modulus (GPa) = 35.03084 36.03392 35.53238
#
# Velocity S-wave (km/s) = 4.06717 4.12499 4.09619
# Velocity P-wave (km/s) = 6.91034 6.97538 6.94294
#
# Compressibility (1/GPa) = 0.01837608
#
# Stress axis : x y z
#
# Youngs Moduli (GPa) = 107.74180 107.74180 92.67813
#
# Poissons Ratio (x) = 0.22172 0.15897
# Poissons Ratio (y) = 0.22172 0.15897
# Poissons Ratio (z) = 0.18481 0.18481
#
# Static dielectric constant tensor:
#      x y z
#    x 1.825070 0.000000 0.000000 
#    y 0.000000 1.825070 0.000000 
#    z 0.000000 0.000000 1.751900 
# 
# From -- ./inp_files/937.got.cif
#   From: 2010.05.17/outbox.cif.g08.bks.cpg/sg82_1_cif.got.tgz:937.got - 2010.06.03 18:52:26.
