data_PCOD9542875
_publ_section_title
;
Structure prediction by ZEFSAII (Michael W. Deem and Ramdas Pophale) SiO2 
 PCOD9542875
Probable space group: I -4 
;
_chemical_formula_sum "Si O2"
_cell_formula_units_Z 48
_cell_length_a 9.495610
_cell_length_b 9.495610
_cell_length_c 25.730186
_cell_angle_alpha 90.000000
_cell_angle_beta 90.000000
_cell_angle_gamma 90.000000
_cell_volume 2320.003628
_symmetry_space_group_name_H-M "I -4 "
_symmetry_group_IT_number 82
_symmetry_cell_setting 'tetragonal'
loop_
_space_group_symop_operation_xyz
x,y,z
y,-x,-z
-x,-y,z
-y,x,-z
1/2+x,1/2+y,1/2+z
1/2+y,1/2-x,1/2-z
1/2-x,1/2-y,1/2+z
1/2-y,1/2+x,1/2-z
loop_
_atom_site_type_symbol
_atom_site_label
_atom_site_fract_x
_atom_site_fract_y
_atom_site_fract_z
Si Si1 0.851101 0.785444 0.445323
Si Si2 0.834420 0.492498 0.890111
Si Si3 0.201938 0.417740 0.772166
Si Si4 0.666591 0.986755 0.881430
Si Si5 0.432422 0.212385 0.732399
Si Si6 0.739333 0.686228 0.059007
O O1 0.762525 0.921925 0.430107
O O2 0.807464 0.666801 0.404058
O O3 0.806447 0.749464 0.503988
O O4 0.020226 0.802398 0.441682
O O5 0.808364 0.552503 0.833093
O O6 0.772719 0.336524 0.895405
O O7 0.000000 0.500000 0.902202
O O8 0.177414 0.567546 0.744015
O O9 0.345071 0.340316 0.756483
O O10 0.500000 0.000000 0.869849
O O11 0.739604 0.023537 0.827153
O O12 0.694814 0.096844 0.927515
O O13 0.573927 0.168153 0.763229
#
# Coordination Sequence:
#
# PCOD9542875 Si02
#       6
#     8   8   8   8   8   8
#     4  11  24  43  69 101 133 170 233 281 333 405
#     4  12  25  42  69  96 134 182 222 284 343 390
#     4  11  24  46  64  95 138 174 223 275 339 410
#     4  10  22  41  67  99 134 172 216 279 344 403
#     4  11  22  42  69  99 132 171 224 276 334 405
#     4  11  24  42  70 100 131 175 228 281 335 403
#
# _framework density 20.689624999999999
#
# number of rings (size 3 to 8) (size 9 to 14) (size 15 to 20)
#    0.000    1.000    5.000    2.500    4.667    0.667 
#    3.000    0.833    0.000    0.000    0.000    0.000 
#    0.000    0.000    0.000    0.000    0.000    0.000 
#
# Total GULP energy -134144.764365 kJ/mol
# GULP energy per Si atom -5589.365182 kJ/mol
# Density = 2.064253 g / cm^3
# Si number density = 20.689625 Si / 1000 Ang^3
#
#
#
# Elastic Constant Matrix: (Units=GPa)
#
#
# Indices 1 2 3 4 5 6 
#
# 1 31.2925 -1.7993 12.4751 0.0000 0.0000 -1.7305
# 2 -1.7993 31.2925 12.4751 0.0000 0.0000 1.7305
# 3 12.4751 12.4751 89.0388 0.0000 0.0000 0.0000
# 4 0.0000 0.0000 0.0000 14.1990 0.0000 0.0000
# 5 0.0000 0.0000 0.0000 0.0000 14.1990 0.0000
# 6 -1.7305 1.7305 0.0000 0.0000 0.0000 18.2034
#
#
#
# Elastic Compliance Matrix: (Units=1/GPa)
#
#
# Indices 1 2 3 4 5 6 
#
# 1 0.034494 0.003971 -0.005389 0.000000 0.000000 0.002902
# 2 0.003971 0.034494 -0.005389 0.000000 0.000000 -0.002902
# 3 -0.005389 -0.005389 0.012741 0.000000 0.000000 0.000000
# 4 0.000000 0.000000 0.000000 0.070427 0.000000 0.000000
# 5 0.000000 0.000000 0.000000 0.000000 0.070427 0.000000
# 6 0.002902 -0.002902 0.000000 0.000000 0.000000 0.055487
#
#
# Mechanical properties :
#
#
# Convention : Reuss Voigt Hill
#
# Bulk Modulus (GPa) = 14.68113 21.99173 18.33643
# Shear Modulus (GPa) = 15.90383 17.88514 16.89448
#
# Velocity S-wave (km/s) = 2.77553 2.94334 2.86067
# Velocity P-wave (km/s) = 4.16926 4.71205 4.44894
#
# Compressibility (1/GPa) = 0.06811465
#
# Stress axis : x y z
#
# Youngs Moduli (GPa) = 28.99062 28.99062 78.48530
#
# Poissons Ratio (x) = -0.11514 0.42298
# Poissons Ratio (y) = -0.11514 0.42298
# Poissons Ratio (z) = 0.15624 0.15624
#
# Static dielectric constant tensor:
#      x y z
#    x 1.732750 0.000000 0.000000 
#    y 0.000000 1.732750 0.000000 
#    z 0.000000 0.000000 1.742510 
# 
# From -- ./inp_files/4051.got.cif
#   From: 2010.05.17/outbox.cif.g08.bks.cpg/sg82_3_cif.got.tgz:4051.got - 2010.06.03 18:52:26.
