data_PCOD9542918
_publ_section_title
;
Structure prediction by ZEFSAII (Michael W. Deem and Ramdas Pophale) SiO2 
 PCOD9542918
Probable space group: I -4 
;
_chemical_formula_sum "Si O2"
_cell_formula_units_Z 40
_cell_length_a 18.094546
_cell_length_b 18.094546
_cell_length_c 5.186565
_cell_angle_alpha 90.000000
_cell_angle_beta 90.000000
_cell_angle_gamma 90.000000
_cell_volume 1698.146706
_symmetry_space_group_name_H-M "I -4 "
_symmetry_group_IT_number 82
_symmetry_cell_setting 'tetragonal'
loop_
_space_group_symop_operation_xyz
x,y,z
y,-x,-z
-x,-y,z
-y,x,-z
1/2+x,1/2+y,1/2+z
1/2+y,1/2-x,1/2-z
1/2-x,1/2-y,1/2+z
1/2-y,1/2+x,1/2-z
loop_
_atom_site_type_symbol
_atom_site_label
_atom_site_fract_x
_atom_site_fract_y
_atom_site_fract_z
Si Si1 0.264593 0.296949 0.812365
Si Si2 0.601970 0.668281 0.457037
Si Si3 0.798379 0.452696 0.868369
Si Si4 0.090971 0.666814 0.904785
Si Si5 0.041410 0.804802 0.240090
O O1 0.235826 0.244483 0.581024
O O2 0.342316 0.325338 0.699447
O O3 0.208069 0.364308 0.822156
O O4 0.592932 0.749291 0.334272
O O5 0.519956 0.654161 0.563511
O O6 0.636922 0.609142 0.257748
O O7 0.855907 0.397746 0.007190
O O8 0.849500 0.511490 0.716481
O O9 0.734483 0.494991 0.030994
O O10 0.075975 0.732667 0.103124
#
# Coordination Sequence:
#
# PCOD9542918 Si02
#       5
#     8   8   8   8   8
#     4  11  22  38  70  99 134 181 235 297 348 407
#     4  10  23  40  64  99 132 182 232 294 356 434
#     4  11  23  43  66  96 140 179 241 293 362 432
#     4  10  24  39  64  98 132 184 235 292 352 432
#     4  10  24  42  66  96 139 179 237 296 364 427
#
# _framework density 23.555091999999998
#
# number of rings (size 3 to 8) (size 9 to 14) (size 15 to 20)
#    0.000    1.600    2.000    1.200    5.600    7.200 
#    0.000    0.000    0.000    0.000    0.000    0.000 
#    0.000    0.000    0.000    0.000    0.000    0.000 
#
# Total GULP energy -111617.477388 kJ/mol
# GULP energy per Si atom -5580.873869 kJ/mol
# Density = 2.350148 g / cm^3
# Si number density = 23.555092 Si / 1000 Ang^3
#
#
#
# Elastic Constant Matrix: (Units=GPa)
#
#
# Indices 1 2 3 4 5 6 
#
# 1 103.8020 50.2449 22.2126 0.0000 0.0000 -4.0271
# 2 50.2449 103.8020 22.2126 0.0000 0.0000 4.0271
# 3 22.2126 22.2126 63.2051 0.0000 0.0000 0.0000
# 4 0.0000 0.0000 0.0000 29.2761 0.0000 0.0000
# 5 0.0000 0.0000 0.0000 0.0000 29.2761 0.0000
# 6 -4.0271 4.0271 0.0000 0.0000 0.0000 53.2548
#
#
#
# Elastic Compliance Matrix: (Units=1/GPa)
#
#
# Indices 1 2 3 4 5 6 
#
# 1 0.013055 -0.005831 -0.002539 0.000000 0.000000 0.001428
# 2 -0.005831 0.013055 -0.002539 0.000000 0.000000 -0.001428
# 3 -0.002539 -0.002539 0.017606 0.000000 0.000000 0.000000
# 4 0.000000 0.000000 0.000000 0.034158 0.000000 0.000000
# 5 0.000000 0.000000 0.000000 0.000000 0.034158 0.000000
# 6 0.001428 -0.001428 0.000000 0.000000 0.000000 0.018994
#
#
# Mechanical properties :
#
#
# Convention : Reuss Voigt Hill
#
# Bulk Modulus (GPa) = 45.66515 51.12769 48.39642
# Shear Modulus (GPa) = 31.22237 34.10401 32.66319
#
# Velocity S-wave (km/s) = 3.64470 3.80918 3.72784
# Velocity P-wave (km/s) = 6.09429 6.41086 6.25458
#
# Compressibility (1/GPa) = 0.02189854
#
# Stress axis : x y z
#
# Youngs Moduli (GPa) = 76.59872 76.59872 56.79934
#
# Poissons Ratio (x) = 0.44668 0.14419
# Poissons Ratio (y) = 0.44668 0.14419
# Poissons Ratio (z) = 0.19446 0.19446
#
# Static dielectric constant tensor:
#      x y z
#    x 1.944750 0.000000 0.000000 
#    y 0.000000 1.944750 0.000000 
#    z 0.000000 0.000000 1.951010 
# 
# From -- ./inp_files/198.got.cif
#   From: 2010.05.17/outbox.cif.g08.bks.cpg/sg82_1_cif.got.tgz:198.got - 2010.06.03 18:52:26.
