data_PCOD9542097
_publ_section_title
;
Structure prediction by ZEFSAII (Michael W. Deem and Ramdas Pophale) SiO2 
 PCOD9542097
Probable space group: I 41
;
_chemical_formula_sum "Si O2"
_cell_formula_units_Z 52
_cell_length_a 18.080491
_cell_length_b 18.080491
_cell_length_c 7.811747
_cell_angle_alpha 90.000000
_cell_angle_beta 90.000000
_cell_angle_gamma 90.000000
_cell_volume 2553.692551
_symmetry_space_group_name_H-M "I 41"
_symmetry_group_IT_number 80
_symmetry_cell_setting 'tetragonal'
loop_
_space_group_symop_operation_xyz
x,y,z
-y,1/2+x,1/4+z
-x,-y,z
y,1/2-x,1/4+z
1/2+x,1/2+y,1/2+z
1/2-y,x,3/4+z
1/2-x,1/2-y,1/2+z
1/2+y,-x,3/4+z
loop_
_atom_site_type_symbol
_atom_site_label
_atom_site_fract_x
_atom_site_fract_y
_atom_site_fract_z
Si Si1 0.666318 0.029453 0.511010
Si Si2 0.237027 0.041326 0.225376
Si Si3 0.891313 0.048653 0.101913
Si Si4 0.500000 0.500000 0.330543
Si Si5 0.165374 0.485186 0.392798
Si Si6 0.315541 0.312186 0.595074
Si Si7 0.817918 0.178148 0.888635
O O1 0.680574 0.116718 0.496726
O O2 0.714484 0.982851 0.383496
O O3 0.579256 0.009217 0.490331
O O4 0.690129 0.015442 0.707931
O O5 0.227889 0.129433 0.214820
O O6 0.158157 0.999748 0.227215
O O7 0.278771 0.015171 0.051599
O O8 0.959989 0.095904 0.180793
O O9 0.929107 0.998341 0.956009
O O10 0.837958 0.105432 0.000005
O O11 0.156672 0.398467 0.350293
O O12 0.315276 0.229407 0.668786
O O13 0.743258 0.179474 0.779293
#
# Coordination Sequence:
#
# PCOD9542097 Si02
#       7
#     8   8   8   4   8   8   8
#     4  10  22  39  62  90 119 162 208 254 304 366
#     4  11  22  38  62  95 123 151 212 256 303 371
#     4  10  19  38  65  87 120 166 202 253 314 367
#     4   8  18  40  60  82 124 166 206 246 316 362
#     4   9  21  42  61  88 125 161 202 249 309 369
#     4  10  23  41  62  90 121 161 203 254 315 366
#     4  10  22  37  57  88 126 166 204 243 310 366
#
# _framework density 20.362670000000001
#
# number of rings (size 3 to 8) (size 9 to 14) (size 15 to 20)
#    0.000    2.462    0.000    3.692    4.308    1.231 
#    0.000   12.308    0.000    0.000    0.000    0.000 
#    0.000    0.000    0.000    0.000    0.000    0.000 
#
# Total GULP energy -144843.958518 kJ/mol
# GULP energy per Si atom -5570.921481 kJ/mol
# Density = 2.031632 g / cm^3
# Si number density = 20.362670 Si / 1000 Ang^3
#
#
#
# Elastic Constant Matrix: (Units=GPa)
#
#
# Indices 1 2 3 4 5 6 
#
# 1 77.3483 26.9924 14.0992 0.0000 0.0000 -2.4081
# 2 26.9924 77.3483 14.0992 0.0000 0.0000 2.4081
# 3 14.0992 14.0992 34.7874 0.0000 0.0000 0.0000
# 4 0.0000 0.0000 0.0000 24.0205 0.0000 0.0000
# 5 0.0000 0.0000 0.0000 0.0000 24.0205 0.0000
# 6 -2.4081 2.4081 0.0000 0.0000 0.0000 13.8185
#
#
#
# Elastic Compliance Matrix: (Units=1/GPa)
#
#
# Indices 1 2 3 4 5 6 
#
# 1 0.015479 -0.004716 -0.004362 0.000000 0.000000 0.003519
# 2 -0.004716 0.015479 -0.004362 0.000000 0.000000 -0.003519
# 3 -0.004362 -0.004362 0.032282 0.000000 0.000000 0.000000
# 4 0.000000 0.000000 0.000000 0.041631 0.000000 0.000000
# 5 0.000000 0.000000 0.000000 0.000000 0.041631 0.000000
# 6 0.003519 -0.003519 0.000000 0.000000 0.000000 0.073593
#
#
# Mechanical properties :
#
#
# Convention : Reuss Voigt Hill
#
# Bulk Modulus (GPa) = 27.50340 33.31839 30.41090
# Shear Modulus (GPa) = 19.29783 21.32477 20.31130
#
# Velocity S-wave (km/s) = 3.08182 3.23963 3.16171
# Velocity P-wave (km/s) = 5.11856 5.51286 5.31936
#
# Compressibility (1/GPa) = 0.03635914
#
# Stress axis : x y z
#
# Youngs Moduli (GPa) = 64.60347 64.60347 30.97701
#
# Poissons Ratio (x) = 0.30468 0.13513
# Poissons Ratio (y) = 0.30468 0.13513
# Poissons Ratio (z) = 0.28181 0.28181
#
# Static dielectric constant tensor:
#      x y z
#    x 1.778490 0.000000 0.000000 
#    y 0.000000 1.778490 0.000000 
#    z 0.000000 0.000000 1.687670 
# 
# From -- ./inp_files/716.got.cif
#   From: 2010.05.17/outbox.cif.g08.bks.cpg/sg80_cif.got.tgz:716.got - 2010.06.03 18:49:13.
