data_PCOD9542744
_publ_section_title
;
Structure prediction by ZEFSAII (Michael W. Deem and Ramdas Pophale) SiO2 
 PCOD9542744
Probable space group: I -4 
;
_chemical_formula_sum "Si O2"
_cell_formula_units_Z 24
_cell_length_a 7.329062
_cell_length_b 7.329062
_cell_length_c 22.813825
_cell_angle_alpha 90.000000
_cell_angle_beta 90.000000
_cell_angle_gamma 90.000000
_cell_volume 1225.448027
_symmetry_space_group_name_H-M "I -4 "
_symmetry_group_IT_number 82
_symmetry_cell_setting 'tetragonal'
loop_
_space_group_symop_operation_xyz
x,y,z
y,-x,-z
-x,-y,z
-y,x,-z
1/2+x,1/2+y,1/2+z
1/2+y,1/2-x,1/2-z
1/2-x,1/2-y,1/2+z
1/2-y,1/2+x,1/2-z
loop_
_atom_site_type_symbol
_atom_site_label
_atom_site_fract_x
_atom_site_fract_y
_atom_site_fract_z
Si Si1 0.206837 0.508092 0.519762
Si Si2 0.280486 0.494132 0.653731
Si Si3 0.201484 0.726976 0.255072
O O1 0.326422 0.676734 0.495356
O O2 0.200994 0.525172 0.590034
O O3 0.000000 0.500000 0.496620
O O4 0.500000 0.500000 0.646103
O O5 0.229999 0.303575 0.684506
O O6 0.233390 0.645706 0.702202
O O7 0.245032 0.516253 0.240460
#
# Coordination Sequence:
#
# PCOD9542744 Si02
#       3
#     8   8   8
#     4  11  25  46  67  97 132 185 229 279 333 396
#     4  10  20  39  63  90 131 165 216 268 329 397
#     4   9  20  35  56  92 126 161 199 264 332 388
#
# _framework density 19.584676000000002
#
# number of rings (size 3 to 8) (size 9 to 14) (size 15 to 20)
#    0.000    2.000    3.333    0.000    4.667    3.333 
#    0.000    0.000    0.000    0.000    0.000    0.000 
#    0.000    0.000    0.000    0.000    0.000    0.000 
#
# Total GULP energy -67011.386897 kJ/mol
# GULP energy per Si atom -5584.282241 kJ/mol
# Density = 1.954010 g / cm^3
# Si number density = 19.584676 Si / 1000 Ang^3
#
#
#
# Elastic Constant Matrix: (Units=GPa)
#
#
# Indices 1 2 3 4 5 6 
#
# 1 89.8276 24.3237 -5.6240 0.0000 0.0000 -2.5318
# 2 24.3237 89.8276 -5.6240 0.0000 0.0000 2.5318
# 3 -5.6240 -5.6240 54.6299 0.0000 0.0000 0.0000
# 4 0.0000 0.0000 0.0000 14.4385 0.0000 0.0000
# 5 0.0000 0.0000 0.0000 0.0000 14.4385 0.0000
# 6 -2.5318 2.5318 0.0000 0.0000 0.0000 6.2676
#
#
#
# Elastic Compliance Matrix: (Units=1/GPa)
#
#
# Indices 1 2 3 4 5 6 
#
# 1 0.012304 -0.003454 0.000911 0.000000 0.000000 0.006365
# 2 -0.003454 0.012304 0.000911 0.000000 0.000000 -0.006366
# 3 0.000911 0.000911 0.018493 0.000000 0.000000 0.000000
# 4 0.000000 0.000000 0.000000 0.069259 0.000000 0.000000
# 5 0.000000 0.000000 0.000000 0.000000 0.069259 0.000000
# 6 0.006365 -0.006366 0.000000 0.000000 0.000000 0.164694
#
#
# Mechanical properties :
#
#
# Convention : Reuss Voigt Hill
#
# Bulk Modulus (GPa) = 25.10223 28.93740 27.01982
# Shear Modulus (GPa) = 13.77953 21.77619 17.77786
#
# Velocity S-wave (km/s) = 2.65540 3.33813 3.01615
# Velocity P-wave (km/s) = 4.71663 5.44657 5.09469
#
# Compressibility (1/GPa) = 0.03983709
#
# Stress axis : x y z
#
# Youngs Moduli (GPa) = 81.27309 81.27308 54.07575
#
# Poissons Ratio (x) = 0.28073 -0.04927
# Poissons Ratio (y) = 0.28073 -0.04927
# Poissons Ratio (z) = -0.07405 -0.07405
#
# Static dielectric constant tensor:
#      x y z
#    x 1.716010 0.000000 0.000000 
#    y 0.000000 1.716010 0.000000 
#    z 0.000000 0.000000 1.646640 
# 
# From -- ./inp_files/2406.got.cif
#   From: 2010.05.17/outbox.cif.g08.bks.cpg/sg82_2_cif.got.tgz:2406.got - 2010.06.03 18:52:26.
