data_PCOD9542885
_publ_section_title
;
Structure prediction by ZEFSAII (Michael W. Deem and Ramdas Pophale) SiO2 
 PCOD9542885
Probable space group: I -4 
;
_chemical_formula_sum "Si O2"
_cell_formula_units_Z 40
_cell_length_a 16.693468
_cell_length_b 16.693468
_cell_length_c 5.530339
_cell_angle_alpha 90.000000
_cell_angle_beta 90.000000
_cell_angle_gamma 90.000000
_cell_volume 1541.149932
_symmetry_space_group_name_H-M "I -4 "
_symmetry_group_IT_number 82
_symmetry_cell_setting 'tetragonal'
loop_
_space_group_symop_operation_xyz
x,y,z
y,-x,-z
-x,-y,z
-y,x,-z
1/2+x,1/2+y,1/2+z
1/2+y,1/2-x,1/2-z
1/2-x,1/2-y,1/2+z
1/2-y,1/2+x,1/2-z
loop_
_atom_site_type_symbol
_atom_site_label
_atom_site_fract_x
_atom_site_fract_y
_atom_site_fract_z
Si Si1 0.117918 0.990848 0.928185
Si Si2 0.794571 0.265587 0.730975
Si Si3 0.278966 0.947282 0.187974
Si Si4 0.879512 0.538957 0.327827
Si Si5 0.437783 0.721109 0.944254
O O1 0.143126 0.051539 0.715851
O O2 0.075160 0.050145 0.121160
O O3 0.202419 0.952661 0.007838
O O4 0.736025 0.252751 0.499672
O O5 0.812164 0.359600 0.721195
O O6 0.872462 0.216828 0.653323
O O7 0.241761 0.978145 0.435147
O O8 0.347762 0.005054 0.082731
O O9 0.905910 0.458061 0.181627
O O10 0.801424 0.580743 0.211927
#
# Coordination Sequence:
#
# PCOD9542885 Si02
#       5
#     8   8   8   8   8
#     4  10  24  47  73 103 145 195 263 329 399 473
#     4  12  30  50  80 115 161 211 269 333 408 491
#     4  11  26  43  74 106 153 199 263 321 403 477
#     4  10  22  42  69 104 149 192 247 311 391 474
#     4  11  26  44  75 110 153 203 264 326 403 479
#
# _framework density 25.954643999999998
#
# number of rings (size 3 to 8) (size 9 to 14) (size 15 to 20)
#    0.000    1.200    2.000    1.200   16.800    1.600 
#    0.000    4.000    0.000    0.000    0.000    0.000 
#    0.000    0.000    0.000    0.000    0.000    0.000 
#
# Total GULP energy -111979.087829 kJ/mol
# GULP energy per Si atom -5598.954391 kJ/mol
# Density = 2.589557 g / cm^3
# Si number density = 25.954644 Si / 1000 Ang^3
#
#
#
# Elastic Constant Matrix: (Units=GPa)
#
#
# Indices 1 2 3 4 5 6 
#
# 1 95.2745 31.5730 24.6224 0.0000 0.0000 17.8919
# 2 31.5730 95.2745 24.6224 0.0000 0.0000 -17.8919
# 3 24.6224 24.6224 65.7948 0.0000 0.0000 0.0000
# 4 0.0000 0.0000 0.0000 46.6007 0.0000 0.0000
# 5 0.0000 0.0000 0.0000 0.0000 46.6007 0.0000
# 6 17.8919 -17.8919 0.0000 0.0000 0.0000 42.1704
#
#
#
# Elastic Compliance Matrix: (Units=1/GPa)
#
#
# Indices 1 2 3 4 5 6 
#
# 1 0.014917 -0.005693 -0.003452 0.000000 0.000000 -0.008745
# 2 -0.005693 0.014917 -0.003452 0.000000 0.000000 0.008745
# 3 -0.003452 -0.003452 0.017782 0.000000 0.000000 0.000000
# 4 0.000000 0.000000 0.000000 0.021459 0.000000 0.000000
# 5 0.000000 0.000000 0.000000 0.000000 0.021459 0.000000
# 6 -0.008745 0.008745 0.000000 0.000000 0.000000 0.031134
#
#
# Mechanical properties :
#
#
# Convention : Reuss Voigt Hill
#
# Bulk Modulus (GPa) = 44.59827 46.44217 45.52022
# Shear Modulus (GPa) = 32.39696 38.77609 35.58652
#
# Velocity S-wave (km/s) = 3.53684 3.86942 3.70686
# Velocity P-wave (km/s) = 5.82232 6.15594 5.99145
#
# Compressibility (1/GPa) = 0.02242239
#
# Stress axis : x y z
#
# Youngs Moduli (GPa) = 67.03776 67.03776 56.23581
#
# Poissons Ratio (x) = 0.38168 0.19411
# Poissons Ratio (y) = 0.38168 0.19411
# Poissons Ratio (z) = 0.23140 0.23140
#
# Static dielectric constant tensor:
#      x y z
#    x 2.023530 0.000000 0.000000 
#    y 0.000000 2.023530 0.000000 
#    z 0.000000 0.000000 2.073800 
# 
# From -- ./inp_files/194.got.cif
#   From: 2010.05.17/outbox.cif.g08.bks.cpg/sg82_1_cif.got.tgz:194.got - 2010.06.03 18:52:26.
