data_PCOD9542374
_publ_section_title
;
Structure prediction by ZEFSAII (Michael W. Deem and Ramdas Pophale) SiO2 
 PCOD9542374
Probable space group: P -4
;
_chemical_formula_sum "Si O2"
_cell_formula_units_Z 19
_cell_length_a 8.386869
_cell_length_b 8.386869
_cell_length_c 11.372524
_cell_angle_alpha 90.000000
_cell_angle_beta 90.000000
_cell_angle_gamma 90.000000
_cell_volume 799.938466
_symmetry_space_group_name_H-M "P -4"
_symmetry_group_IT_number 81
_symmetry_cell_setting 'tetragonal'
loop_
_space_group_symop_operation_xyz
x,y,z
y,-x,-z
-x,-y,z
-y,x,-z
loop_
_atom_site_type_symbol
_atom_site_label
_atom_site_fract_x
_atom_site_fract_y
_atom_site_fract_z
Si Si1 0.343407 0.300036 0.014811
Si Si2 0.675416 0.014152 0.850725
Si Si3 0.412169 0.266038 0.507747
Si Si4 0.000000 0.000000 0.500000
Si Si5 0.140773 0.191544 0.689284
Si Si6 0.000000 0.500000 0.681587
O O1 0.330878 0.131720 0.945957
O O2 0.315343 0.470202 0.945618
O O3 0.193990 0.301018 0.104118
O O4 0.819401 0.958734 0.768742
O O5 0.500000 0.000000 0.793076
O O6 0.324608 0.416096 0.448527
O O7 0.304683 0.222473 0.618922
O O8 0.446401 0.138719 0.407397
O O9 0.978089 0.851904 0.584119
O O10 0.069163 0.347911 0.750320
#
# Coordination Sequence:
#
# PCOD9542374 Si02
#       6
#     4   4   4   1   4   2
#     4   9  20  45  72  99 136 175 222 290 355 416
#     4  10  23  43  72 101 131 177 229 283 346 421
#     4   9  19  36  61  84 123 181 219 268 321 384
#     4  12  24  40  56  90 136 180 212 276 332 382
#     4  11  23  40  61  95 131 177 227 272 337 401
#     4  10  20  40  60  88 134 178 218 278 328 392
#
# _framework density 23.751826999999999
#
# number of rings (size 3 to 8) (size 9 to 14) (size 15 to 20)
#    0.000    2.105    2.105    0.000    1.474    2.105 
#    9.474   14.737    0.000    0.000    0.000    0.000 
#    0.000    0.000    0.000    0.000    0.000    0.000 
#
# Total GULP energy -105945.416590 kJ/mol
# GULP energy per Si atom -5576.074557 kJ/mol
# Density = 2.369777 g / cm^3
# Si number density = 23.751827 Si / 1000 Ang^3
#
#
#
# Elastic Constant Matrix: (Units=GPa)
#
#
# Indices 1 2 3 4 5 6 
#
# 1 121.1895 28.6987 20.5964 0.0000 0.0000 13.6643
# 2 28.6987 121.1895 20.5964 0.0000 0.0000 -13.6643
# 3 20.5964 20.5964 12.5413 0.0000 0.0000 0.0000
# 4 0.0000 0.0000 0.0000 26.6808 0.0000 0.0000
# 5 0.0000 0.0000 0.0000 0.0000 26.6808 0.0000
# 6 13.6643 -13.6643 0.0000 0.0000 0.0000 45.1324
#
#
#
# Elastic Compliance Matrix: (Units=1/GPa)
#
#
# Indices 1 2 3 4 5 6 
#
# 1 0.012017 0.000143 -0.019970 0.000000 0.000000 -0.003595
# 2 0.000143 0.012017 -0.019970 0.000000 0.000000 0.003595
# 3 -0.019970 -0.019970 0.145329 0.000000 0.000000 0.000000
# 4 0.000000 0.000000 0.000000 0.037480 0.000000 0.000000
# 5 0.000000 0.000000 0.000000 0.000000 0.037480 0.000000
# 6 -0.003595 0.003595 0.000000 0.000000 0.000000 0.024334
#
#
# Mechanical properties :
#
#
# Convention : Reuss Voigt Hill
#
# Bulk Modulus (GPa) = 11.13969 43.85594 27.49782
# Shear Modulus (GPa) = 13.22141 32.03405 22.62773
#
# Velocity S-wave (km/s) = 2.36190 3.67645 3.08989
# Velocity P-wave (km/s) = 3.48401 6.04367 4.93276
#
# Compressibility (1/GPa) = 0.08976911
#
# Stress axis : x y z
#
# Youngs Moduli (GPa) = 83.21552 83.21552 6.88093
#
# Poissons Ratio (x) = -0.01189 0.13741
# Poissons Ratio (y) = -0.01189 0.13741
# Poissons Ratio (z) = 1.66181 1.66181
#
# Static dielectric constant tensor:
#      x y z
#    x 1.933290 0.000000 0.000000 
#    y 0.000000 1.933290 0.000000 
#    z 0.000000 0.000000 1.881720 
# 
# From -- ./inp_files/1271.got.cif
#   From: 2010.05.17/outbox.cif.g08.bks.cpg/sg81_cif.got.tgz:1271.got - 2010.06.03 18:51:07.
