data_PCOD9542586
_publ_section_title
;
Structure prediction by ZEFSAII (Michael W. Deem and Ramdas Pophale) SiO2 
 PCOD9542586
Probable space group: P -4
;
_chemical_formula_sum "Si O2"
_cell_formula_units_Z 15
_cell_length_a 8.328283
_cell_length_b 8.328283
_cell_length_c 7.771580
_cell_angle_alpha 90.000000
_cell_angle_beta 90.000000
_cell_angle_gamma 90.000000
_cell_volume 539.039103
_symmetry_space_group_name_H-M "P -4"
_symmetry_group_IT_number 81
_symmetry_cell_setting 'tetragonal'
loop_
_space_group_symop_operation_xyz
x,y,z
y,-x,-z
-x,-y,z
-y,x,-z
loop_
_atom_site_type_symbol
_atom_site_label
_atom_site_fract_x
_atom_site_fract_y
_atom_site_fract_z
Si Si1 0.631296 0.264305 0.983623
Si Si2 0.936919 0.818283 0.734351
Si Si3 0.798476 0.311387 0.553251
Si Si4 0.500000 0.000000 0.729657
Si Si5 0.500000 0.500000 0.500000
O O1 0.746189 0.183556 0.127632
O O2 0.445300 0.299195 0.035536
O O3 0.610553 0.118828 0.843662
O O4 0.859071 0.788529 0.544509
O O5 0.093222 0.707991 0.719380
O O6 0.000000 0.000000 0.761227
O O7 0.881834 0.409773 0.400631
O O8 0.633957 0.399403 0.597936
#
# Coordination Sequence:
#
# PCOD9542586 Si02
#       5
#     4   4   4   2   1
#     4  11  28  56  86 125 170 227 290 357 441 523
#     4  12  26  55  89 124 170 224 291 359 432 518
#     4  12  26  53  81 124 167 222 290 357 427 510
#     4  12  28  50  76 124 172 222 286 348 434 514
#     4  12  32  44  84 126 164 216 284 366 428 492
#
# _framework density 27.827293999999998
#
# number of rings (size 3 to 8) (size 9 to 14) (size 15 to 20)
#    0.000    0.267    5.333    1.600    3.733    5.333 
#    4.800    1.333    0.000    1.600    0.000    0.000 
#    0.000    0.000    0.000    0.000    0.000    0.000 
#
# Total GULP energy -84062.836414 kJ/mol
# GULP energy per Si atom -5604.189094 kJ/mol
# Density = 2.776396 g / cm^3
# Si number density = 27.827294 Si / 1000 Ang^3
#
#
#
# Elastic Constant Matrix: (Units=GPa)
#
#
# Indices 1 2 3 4 5 6 
#
# 1 194.8883 95.6154 62.3070 0.0000 0.0000 -24.5138
# 2 95.6154 194.8883 62.3070 0.0000 0.0000 24.5138
# 3 62.3070 62.3070 100.6837 0.0000 0.0000 0.0000
# 4 0.0000 0.0000 0.0000 33.1808 0.0000 0.0000
# 5 0.0000 0.0000 0.0000 0.0000 33.1808 0.0000
# 6 -24.5138 24.5138 0.0000 0.0000 0.0000 86.8328
#
#
#
# Elastic Compliance Matrix: (Units=1/GPa)
#
#
# Indices 1 2 3 4 5 6 
#
# 1 0.008196 -0.003509 -0.002900 0.000000 0.000000 0.003305
# 2 -0.003509 0.008196 -0.002900 0.000000 0.000000 -0.003305
# 3 -0.002900 -0.002900 0.013521 0.000000 0.000000 0.000000
# 4 0.000000 0.000000 0.000000 0.030138 0.000000 0.000000
# 5 0.000000 0.000000 0.000000 0.000000 0.030138 0.000000
# 6 0.003305 -0.003305 0.000000 0.000000 0.000000 0.013382
#
#
# Mechanical properties :
#
#
# Convention : Reuss Voigt Hill
#
# Bulk Modulus (GPa) = 88.54431 103.43547 95.98989
# Shear Modulus (GPa) = 39.69680 48.65428 44.17554
#
# Velocity S-wave (km/s) = 3.78106 4.18597 3.98865
# Velocity P-wave (km/s) = 7.13794 7.78552 7.46875
#
# Compressibility (1/GPa) = 0.01129378
#
# Stress axis : x y z
#
# Youngs Moduli (GPa) = 122.01419 122.01419 73.95665
#
# Poissons Ratio (x) = 0.42820 0.21448
# Poissons Ratio (y) = 0.42820 0.21448
# Poissons Ratio (z) = 0.35385 0.35385
#
# Static dielectric constant tensor:
#      x y z
#    x 2.293440 0.000000 0.000000 
#    y 0.000000 2.293440 0.000000 
#    z 0.000000 0.000000 2.137170 
# 
# From -- ./inp_files/641.got.cif
#   From: 2010.05.17/outbox.cif.g08.bks.cpg/sg81_cif.got.tgz:641.got - 2010.06.03 18:51:07.
