data_PCOD9542807
_publ_section_title
;
Structure prediction by ZEFSAII (Michael W. Deem and Ramdas Pophale) SiO2 
 PCOD9542807
Probable space group: I -4 
;
_chemical_formula_sum "Si O2"
_cell_formula_units_Z 60
_cell_length_a 13.429803
_cell_length_b 13.429803
_cell_length_c 14.178681
_cell_angle_alpha 90.000000
_cell_angle_beta 90.000000
_cell_angle_gamma 90.000000
_cell_volume 2557.261356
_symmetry_space_group_name_H-M "I -4 "
_symmetry_group_IT_number 82
_symmetry_cell_setting 'tetragonal'
loop_
_space_group_symop_operation_xyz
x,y,z
y,-x,-z
-x,-y,z
-y,x,-z
1/2+x,1/2+y,1/2+z
1/2+y,1/2-x,1/2-z
1/2-x,1/2-y,1/2+z
1/2-y,1/2+x,1/2-z
loop_
_atom_site_type_symbol
_atom_site_label
_atom_site_fract_x
_atom_site_fract_y
_atom_site_fract_z
Si Si1 0.590345 0.859380 0.239541
Si Si2 0.813769 0.251559 0.620235
Si Si3 0.500000 0.500000 0.282111
Si Si4 0.219036 0.039380 0.714656
Si Si5 0.843671 0.736233 0.206919
Si Si6 0.288839 0.175243 0.054012
Si Si7 0.529367 0.336331 0.992557
Si Si8 0.358218 0.473198 0.550224
O O1 0.472138 0.866890 0.250309
O O2 0.641657 0.801517 0.327943
O O3 0.626656 0.820080 0.136058
O O4 0.814839 0.180549 0.710917
O O5 0.730237 0.212187 0.546539
O O6 0.917612 0.235788 0.566649
O O7 0.599911 0.536835 0.231391
O O8 0.466564 0.592153 0.347499
O O9 0.275780 0.141903 0.730953
O O10 0.224641 0.015827 0.603479
O O11 0.273147 0.960671 0.782669
O O12 0.803725 0.772729 0.107833
O O13 0.254720 0.060799 0.042685
O O14 0.427298 0.391038 0.021281
O O15 0.394815 0.579713 0.514128
#
# Coordination Sequence:
#
# PCOD9542807 Si02
#       8
#     8   8   4   8   8   8   8   8
#     4  10  26  48  70  99 140 191 237 286 357 439
#     4  11  25  42  70 103 138 177 234 303 352 430
#     4  10  21  38  67  92 134 176 232 292 357 413
#     4  12  24  44  67 101 142 187 235 296 359 435
#     4  11  26  43  66 101 139 185 238 285 365 435
#     4  11  23  42  68 100 137 180 231 298 354 426
#     4  11  23  40  68 100 136 179 232 295 360 420
#     4   9  21  36  60  99 128 169 220 285 359 421
#
# _framework density 23.462600999999999
#
# number of rings (size 3 to 8) (size 9 to 14) (size 15 to 20)
#    0.000    1.467    4.000    0.800    7.467    1.333 
#    0.000    0.000    0.000    0.000    0.000    0.000 
#    0.000    0.000    0.000    0.000    0.000    0.000 
#
# Total GULP energy -167495.923557 kJ/mol
# GULP energy per Si atom -5583.197452 kJ/mol
# Density = 2.340920 g / cm^3
# Si number density = 23.462601 Si / 1000 Ang^3
#
#
#
# Elastic Constant Matrix: (Units=GPa)
#
#
# Indices 1 2 3 4 5 6 
#
# 1 75.5992 7.3585 13.7552 0.0000 0.0000 -3.5039
# 2 7.3585 75.5992 13.7552 0.0000 0.0000 3.5039
# 3 13.7552 13.7552 106.7784 0.0000 0.0000 0.0000
# 4 0.0000 0.0000 0.0000 32.2724 0.0000 0.0000
# 5 0.0000 0.0000 0.0000 0.0000 32.2724 0.0000
# 6 -3.5039 3.5039 0.0000 0.0000 0.0000 33.0074
#
#
#
# Elastic Compliance Matrix: (Units=1/GPa)
#
#
# Indices 1 2 3 4 5 6 
#
# 1 0.013704 -0.001112 -0.001622 0.000000 0.000000 0.001573
# 2 -0.001112 0.013704 -0.001622 0.000000 0.000000 -0.001573
# 3 -0.001622 -0.001622 0.009783 0.000000 0.000000 0.000000
# 4 0.000000 0.000000 0.000000 0.030986 0.000000 0.000000
# 5 0.000000 0.000000 0.000000 0.000000 0.030986 0.000000
# 6 0.001573 -0.001573 0.000000 0.000000 0.000000 0.030630
#
#
# Mechanical properties :
#
#
# Convention : Reuss Voigt Hill
#
# Bulk Modulus (GPa) = 35.11348 36.41276 35.76312
# Shear Modulus (GPa) = 33.78418 34.38432 34.08425
#
# Velocity S-wave (km/s) = 3.79874 3.83233 3.81557
# Velocity P-wave (km/s) = 5.85139 5.92752 5.88958
#
# Compressibility (1/GPa) = 0.02847909
#
# Stress axis : x y z
#
# Youngs Moduli (GPa) = 72.97200 72.97200 102.21689
#
# Poissons Ratio (x) = 0.08112 0.16581
# Poissons Ratio (y) = 0.08112 0.16581
# Poissons Ratio (z) = 0.11837 0.11837
#
# Static dielectric constant tensor:
#      x y z
#    x 1.971200 0.000000 0.000000 
#    y 0.000000 1.971200 0.000000 
#    z 0.000000 0.000000 1.885750 
# 
# From -- ./inp_files/2343.got.cif
#   From: 2010.05.17/outbox.cif.g08.bks.cpg/sg82_2_cif.got.tgz:2343.got - 2010.06.03 18:52:26.
