data_PCOD9542565
_publ_section_title
;
Structure prediction by ZEFSAII (Michael W. Deem and Ramdas Pophale) SiO2 
 PCOD9542565
Probable space group: P -4
;
_chemical_formula_sum "Si O2"
_cell_formula_units_Z 19
_cell_length_a 8.742239
_cell_length_b 8.742239
_cell_length_c 10.434043
_cell_angle_alpha 90.000000
_cell_angle_beta 90.000000
_cell_angle_gamma 90.000000
_cell_volume 797.439920
_symmetry_space_group_name_H-M "P -4"
_symmetry_group_IT_number 81
_symmetry_cell_setting 'tetragonal'
loop_
_space_group_symop_operation_xyz
x,y,z
y,-x,-z
-x,-y,z
-y,x,-z
loop_
_atom_site_type_symbol
_atom_site_label
_atom_site_fract_x
_atom_site_fract_y
_atom_site_fract_z
Si Si1 0.837019 0.414781 0.750223
Si Si2 0.500000 0.000000 0.841359
Si Si3 0.194297 0.153215 0.494607
Si Si4 0.695273 0.370615 0.294199
Si Si5 0.771165 0.966357 0.020275
Si Si6 0.500000 0.500000 0.500000
O O1 0.822432 0.313278 0.621244
O O2 0.700776 0.541070 0.771240
O O3 0.000000 0.500000 0.741773
O O4 0.861600 0.301609 0.870457
O O5 0.447270 0.157720 0.772433
O O6 0.640096 0.035941 0.933884
O O7 0.230154 0.248814 0.620442
O O8 0.022267 0.195739 0.458097
O O9 0.640917 0.487578 0.404418
O O10 0.868548 0.111863 0.067270
#
# Coordination Sequence:
#
# PCOD9542565 Si02
#       6
#     4   2   4   4   4   1
#     4  12  24  49  76 108 159 204 256 322 386 454
#     4  12  30  48  76 112 152 204 264 314 384 460
#     4  11  26  43  73 114 153 202 257 313 391 461
#     4  12  28  45  77 111 157 202 249 321 384 468
#     4  11  28  52  79 108 149 209 267 322 381 450
#     4  12  28  48  68 122 152 208 236 312 406 456
#
# _framework density 23.826246000000001
#
# number of rings (size 3 to 8) (size 9 to 14) (size 15 to 20)
#    0.000    0.421    5.263    1.263   10.316    1.684 
#    0.000    0.000    0.000    0.000    0.000    0.000 
#    0.000    0.000    0.000    0.000    0.000    0.000 
#
# Total GULP energy -106110.299253 kJ/mol
# GULP energy per Si atom -5584.752592 kJ/mol
# Density = 2.377202 g / cm^3
# Si number density = 23.826246 Si / 1000 Ang^3
#
#
#
# Elastic Constant Matrix: (Units=GPa)
#
#
# Indices 1 2 3 4 5 6 
#
# 1 111.0079 62.9252 36.7845 0.0000 0.0000 0.3065
# 2 62.9252 111.0079 36.7845 0.0000 0.0000 -0.3065
# 3 36.7845 36.7845 72.5034 0.0000 0.0000 0.0000
# 4 0.0000 0.0000 0.0000 29.8158 0.0000 0.0000
# 5 0.0000 0.0000 0.0000 0.0000 29.8158 0.0000
# 6 0.3065 -0.3065 0.0000 0.0000 0.0000 53.8227
#
#
#
# Elastic Compliance Matrix: (Units=1/GPa)
#
#
# Indices 1 2 3 4 5 6 
#
# 1 0.014060 -0.006739 -0.003714 0.000000 0.000000 -0.000118
# 2 -0.006739 0.014060 -0.003714 0.000000 0.000000 0.000118
# 3 -0.003714 -0.003714 0.017561 0.000000 0.000000 0.000000
# 4 0.000000 0.000000 0.000000 0.033539 0.000000 0.000000
# 5 0.000000 0.000000 0.000000 0.000000 0.033539 0.000000
# 6 -0.000118 0.000118 0.000000 0.000000 0.000000 0.018581
#
#
# Mechanical properties :
#
#
# Convention : Reuss Voigt Hill
#
# Bulk Modulus (GPa) = 57.65095 63.05641 60.35368
# Shear Modulus (GPa) = 30.21953 33.22585 31.72269
#
# Velocity S-wave (km/s) = 3.56522 3.73836 3.65282
# Velocity P-wave (km/s) = 6.41847 6.71985 6.57088
#
# Compressibility (1/GPa) = 0.01734577
#
# Stress axis : x y z
#
# Youngs Moduli (GPa) = 71.12579 71.12579 56.94449
#
# Poissons Ratio (x) = 0.47934 0.21149
# Poissons Ratio (y) = 0.47934 0.21149
# Poissons Ratio (z) = 0.26415 0.26415
#
# Static dielectric constant tensor:
#      x y z
#    x 1.989300 0.000000 0.000000 
#    y 0.000000 1.989300 0.000000 
#    z 0.000000 0.000000 1.905670 
# 
# From -- ./inp_files/1289.got.cif
#   From: 2010.05.17/outbox.cif.g08.bks.cpg/sg81_cif.got.tgz:1289.got - 2010.06.03 18:51:07.
