data_PCOD9542935
_publ_section_title
;
Structure prediction by ZEFSAII (Michael W. Deem and Ramdas Pophale) SiO2 
 PCOD9542935
Probable space group: I -4 
;
_chemical_formula_sum "Si O2"
_cell_formula_units_Z 26
_cell_length_a 9.189846
_cell_length_b 9.189846
_cell_length_c 14.660246
_cell_angle_alpha 90.000000
_cell_angle_beta 90.000000
_cell_angle_gamma 90.000000
_cell_volume 1238.105706
_symmetry_space_group_name_H-M "I -4 "
_symmetry_group_IT_number 82
_symmetry_cell_setting 'tetragonal'
loop_
_space_group_symop_operation_xyz
x,y,z
y,-x,-z
-x,-y,z
-y,x,-z
1/2+x,1/2+y,1/2+z
1/2+y,1/2-x,1/2-z
1/2-x,1/2-y,1/2+z
1/2-y,1/2+x,1/2-z
loop_
_atom_site_type_symbol
_atom_site_label
_atom_site_fract_x
_atom_site_fract_y
_atom_site_fract_z
Si Si1 0.705180 0.648602 0.124605
Si Si2 0.335669 0.253282 0.804154
Si Si3 0.339539 0.062954 0.439293
Si Si4 0.000000 0.500000 0.250000
O O1 0.672593 0.490790 0.171094
O O2 0.773559 0.754394 0.201426
O O3 0.565664 0.724661 0.081280
O O4 0.814478 0.616252 0.041940
O O5 0.211363 0.309933 0.870774
O O6 0.383431 0.083919 0.810948
O O7 0.500000 0.000000 0.424289
#
# Coordination Sequence:
#
# PCOD9542935 Si02
#       4
#     8   8   8   2
#     4  11  25  45  76 106 147 206 249 307 385 464
#     4  10  23  42  73 106 144 192 252 308 373 455
#     4  12  27  45  74 112 152 194 260 320 381 452
#     4   8  20  44  76 100 136 202 248 292 376 460
#
# _framework density 20.999825000000001
#
# number of rings (size 3 to 8) (size 9 to 14) (size 15 to 20)
#    0.000    1.231    3.077    0.923   17.231    0.000 
#    0.000    0.000    0.000    0.000    0.000    0.000 
#    0.000    0.000    0.000    0.000    0.000    0.000 
#
# Total GULP energy -72480.830959 kJ/mol
# GULP energy per Si atom -5575.448535 kJ/mol
# Density = 2.095203 g / cm^3
# Si number density = 20.999825 Si / 1000 Ang^3
#
#
#
# Elastic Constant Matrix: (Units=GPa)
#
#
# Indices 1 2 3 4 5 6 
#
# 1 87.9780 30.2956 61.8237 0.0000 0.0000 -5.6654
# 2 30.2956 87.9780 61.8237 0.0000 0.0000 5.6654
# 3 61.8237 61.8237 158.9171 0.0000 0.0000 0.0000
# 4 0.0000 0.0000 0.0000 28.1164 0.0000 0.0000
# 5 0.0000 0.0000 0.0000 0.0000 28.1164 0.0000
# 6 -5.6654 5.6654 0.0000 0.0000 0.0000 53.4535
#
#
#
# Elastic Compliance Matrix: (Units=1/GPa)
#
#
# Indices 1 2 3 4 5 6 
#
# 1 0.015978 -0.001727 -0.005544 0.000000 0.000000 0.001876
# 2 -0.001727 0.015978 -0.005544 0.000000 0.000000 -0.001876
# 3 -0.005544 -0.005544 0.010606 0.000000 0.000000 0.000000
# 4 0.000000 0.000000 0.000000 0.035566 0.000000 0.000000
# 5 0.000000 0.000000 0.000000 0.000000 0.035566 0.000000
# 6 0.001876 -0.001876 0.000000 0.000000 0.000000 0.019106
#
#
# Mechanical properties :
#
#
# Convention : Reuss Voigt Hill
#
# Bulk Modulus (GPa) = 59.06034 71.41766 65.23900
# Shear Modulus (GPa) = 30.47395 33.99928 32.23661
#
# Velocity S-wave (km/s) = 3.81353 4.02808 3.92227
# Velocity P-wave (km/s) = 6.89753 7.46434 7.18653
#
# Compressibility (1/GPa) = 0.01693184
#
# Stress axis : x y z
#
# Youngs Moduli (GPa) = 62.58638 62.58638 94.28450
#
# Poissons Ratio (x) = 0.10809 0.52272
# Poissons Ratio (y) = 0.10809 0.52272
# Poissons Ratio (z) = 0.34698 0.34698
#
# Static dielectric constant tensor:
#      x y z
#    x 1.799790 0.000000 0.000000 
#    y 0.000000 1.799790 0.000000 
#    z 0.000000 0.000000 1.790160 
# 
# From -- ./inp_files/2434.got.cif
#   From: 2010.05.17/outbox.cif.g08.bks.cpg/sg82_2_cif.got.tgz:2434.got - 2010.06.03 18:52:26.
