data_PCOD9542958
_publ_section_title
;
Structure prediction by ZEFSAII (Michael W. Deem and Ramdas Pophale) SiO2 
 PCOD9542958
Probable space group: I -4 
;
_chemical_formula_sum "Si O2"
_cell_formula_units_Z 36
_cell_length_a 8.814335
_cell_length_b 8.814335
_cell_length_c 18.417196
_cell_angle_alpha 90.000000
_cell_angle_beta 90.000000
_cell_angle_gamma 90.000000
_cell_volume 1430.878028
_symmetry_space_group_name_H-M "I -4 "
_symmetry_group_IT_number 82
_symmetry_cell_setting 'tetragonal'
loop_
_space_group_symop_operation_xyz
x,y,z
y,-x,-z
-x,-y,z
-y,x,-z
1/2+x,1/2+y,1/2+z
1/2+y,1/2-x,1/2-z
1/2-x,1/2-y,1/2+z
1/2-y,1/2+x,1/2-z
loop_
_atom_site_type_symbol
_atom_site_label
_atom_site_fract_x
_atom_site_fract_y
_atom_site_fract_z
Si Si1 0.142808 0.888535 0.401198
Si Si2 0.831523 0.013772 0.750367
Si Si3 0.000000 0.500000 0.750000
Si Si4 0.341745 0.807910 0.152993
Si Si5 0.687153 0.331185 0.509473
Si Si6 0.000000 0.500000 0.250000
O O1 0.196130 0.760130 0.457230
O O2 0.097471 0.830967 0.320662
O O3 0.283053 0.001654 0.390264
O O4 0.000000 0.000000 0.421571
O O5 0.831524 0.175335 0.711064
O O6 0.667062 0.997739 0.788179
O O7 0.000000 0.000000 0.786479
O O8 0.959021 0.640640 0.800936
O O9 0.216261 0.791771 0.092999
O O10 0.512642 0.292524 0.493502
#
# Coordination Sequence:
#
# PCOD9542958 Si02
#       6
#     8   8   2   8   8   2
#     4   9  22  45  70 101 140 184 243 304 365 437
#     4   9  24  44  66 106 141 189 251 304 367 446
#     4  12  24  44  70  96 152 200 248 282 376 448
#     4  10  24  42  69 103 139 201 235 302 362 440
#     4  11  25  44  70 113 145 180 232 306 389 438
#     4  12  24  44  78 104 140 216 240 310 384 432
#
# _framework density 25.159376999999999
#
# number of rings (size 3 to 8) (size 9 to 14) (size 15 to 20)
#    0.000    2.444    0.000    1.333   15.556    0.889 
#    0.000    0.000    0.000    0.000    0.000    0.000 
#    0.000    0.000    0.000    0.000    0.000    0.000 
#
# Total GULP energy -100439.741784 kJ/mol
# GULP energy per Si atom -5579.985655 kJ/mol
# Density = 2.510211 g / cm^3
# Si number density = 25.159377 Si / 1000 Ang^3
#
#
#
# Elastic Constant Matrix: (Units=GPa)
#
#
# Indices 1 2 3 4 5 6 
#
# 1 148.0789 30.2111 38.3692 0.0000 0.0000 1.4908
# 2 30.2111 148.0789 38.3692 0.0000 0.0000 -1.4908
# 3 38.3692 38.3692 64.0120 0.0000 0.0000 0.0000
# 4 0.0000 0.0000 0.0000 24.6677 0.0000 0.0000
# 5 0.0000 0.0000 0.0000 0.0000 24.6677 0.0000
# 6 1.4908 -1.4908 0.0000 0.0000 0.0000 27.8074
#
#
#
# Elastic Compliance Matrix: (Units=1/GPa)
#
#
# Indices 1 2 3 4 5 6 
#
# 1 0.008027 -0.000468 -0.004531 0.000000 0.000000 -0.000455
# 2 -0.000468 0.008027 -0.004531 0.000000 0.000000 0.000455
# 3 -0.004531 -0.004531 0.021054 0.000000 0.000000 0.000000
# 4 0.000000 0.000000 0.000000 0.040539 0.000000 0.000000
# 5 0.000000 0.000000 0.000000 0.000000 0.040539 0.000000
# 6 -0.000455 0.000455 0.000000 0.000000 0.000000 0.036010
#
#
# Mechanical properties :
#
#
# Convention : Reuss Voigt Hill
#
# Bulk Modulus (GPa) = 55.40735 63.78539 59.59637
# Shear Modulus (GPa) = 27.89043 32.30990 30.10016
#
# Velocity S-wave (km/s) = 3.33310 3.58747 3.46262
# Velocity P-wave (km/s) = 6.07315 6.52438 6.30280
#
# Compressibility (1/GPa) = 0.01804815
#
# Stress axis : x y z
#
# Youngs Moduli (GPa) = 124.57481 124.57481 47.49740
#
# Poissons Ratio (x) = 0.05834 0.21521
# Poissons Ratio (y) = 0.05834 0.21521
# Poissons Ratio (z) = 0.56444 0.56444
#
# Static dielectric constant tensor:
#      x y z
#    x 2.061770 0.000000 0.000000 
#    y 0.000000 2.061770 0.000000 
#    z 0.000000 0.000000 1.938250 
# 
# From -- ./inp_files/2984.got.cif
#   From: 2010.05.17/outbox.cif.g08.bks.cpg/sg82_2_cif.got.tgz:2984.got - 2010.06.03 18:52:26.
