data_PCOD9542052
_publ_section_title
;
Structure prediction by ZEFSAII (Michael W. Deem and Ramdas Pophale) SiO2 
 PCOD9542052
Probable space group: I 4
;
_chemical_formula_sum "Si O2"
_cell_formula_units_Z 24
_cell_length_a 12.000000
_cell_length_b 12.000000
_cell_length_c 18.000000
_cell_angle_alpha 90.000000
_cell_angle_beta 90.000000
_cell_angle_gamma 90.000000
_cell_volume 2592.000000
_symmetry_space_group_name_H-M "I 4"
_symmetry_group_IT_number 79
_symmetry_cell_setting 'tetragonal'
loop_
_space_group_symop_operation_xyz
x,y,z
-y,x,z
-x,-y,z
y,-x,z
1/2+x,1/2+y,1/2+z
1/2-y,1/2+x,1/2+z
1/2-x,1/2-y,1/2+z
1/2+y,1/2-x,1/2+z
loop_
_atom_site_type_symbol
_atom_site_label
_atom_site_fract_x
_atom_site_fract_y
_atom_site_fract_z
Si Si1 0.122783 0.310845 0.456900
Si Si2 0.318013 0.447013 0.188693
Si Si3 0.739816 0.893316 0.518307
Si Si4 0.595945 0.901922 0.794520
Si Si5 0.510618 0.689839 0.709785
Si Si6 0.500321 0.127070 0.581261
O O1 0.204174 0.209851 0.476932
O O2 0.136090 0.376353 0.379142
O O3 0.132207 0.396780 0.525418
O O4 0.999709 0.258587 0.464773
O O5 0.425804 0.364515 0.201807
O O6 0.288474 0.426104 0.100766
O O7 0.205451 0.424751 0.239725
O O8 0.612031 0.865202 0.534494
O O9 0.536579 0.785694 0.770269
O O10 0.500000 0.000000 0.793086
O O11 0.398686 0.613699 0.712623
O O12 0.500133 0.769819 0.637560
O O13 0.500000 0.000000 0.615409
#
# Coordination Sequence:
#
# PCOD9542052 Si02
#       6
#     8   8   8   8   8   8
#     4  11  26  41  66 100 136 174 230 281 350 409
#     4  11  25  45  74 107 134 176 237 293 347 409
#     4  11  21  41  69  96 131 178 223 288 333 411
#     4  12  28  44  70 101 143 185 224 287 355 423
#     4  11  25  41  63  98 136 178 228 280 342 415
#     4  10  21  39  66  96 128 174 231 275 335 411
#
# _framework density 9.2592590000000001
#
# number of rings (size 3 to 8) (size 9 to 14) (size 15 to 20)
#    0.000    1.000    3.333    3.000    7.000    1.667 
#    0.000    0.000    0.000    2.000    0.000    0.000 
#    0.000    0.000    0.000    0.000    0.000    0.000 
#
# Total GULP energy -133868.986653 kJ/mol
# GULP energy per Si atom -5577.874444 kJ/mol
# Density = 0.923818 g / cm^3
# Si number density = 9.259259 Si / 1000 Ang^3
#
#
#
# Elastic Constant Matrix: (Units=GPa)
#
#
# Indices 1 2 3 4 5 6 
#
# 1 130.6835 56.8159 16.8849 0.0000 0.0000 3.8482
# 2 56.8159 130.6835 16.8849 0.0000 0.0000 -3.8482
# 3 16.8849 16.8849 64.2644 0.0000 0.0000 0.0000
# 4 0.0000 0.0000 0.0000 26.3852 0.0000 0.0000
# 5 0.0000 0.0000 0.0000 0.0000 26.3852 0.0000
# 6 3.8482 -3.8482 0.0000 0.0000 0.0000 42.5899
#
#
#
# Elastic Compliance Matrix: (Units=1/GPa)
#
#
# Indices 1 2 3 4 5 6 
#
# 1 0.009632 -0.004034 -0.001471 0.000000 0.000000 -0.001235
# 2 -0.004034 0.009632 -0.001471 0.000000 0.000000 0.001235
# 3 -0.001471 -0.001471 0.016334 0.000000 0.000000 0.000000
# 4 0.000000 0.000000 0.000000 0.037900 0.000000 0.000000
# 5 0.000000 0.000000 0.000000 0.000000 0.037900 0.000000
# 6 -0.001235 0.001235 0.000000 0.000000 0.000000 0.023703
#
#
# Mechanical properties :
#
#
# Convention : Reuss Voigt Hill
#
# Bulk Modulus (GPa) = 46.19660 56.31140 51.25400
# Shear Modulus (GPa) = 31.99619 34.74176 33.36898
#
# Velocity S-wave (km/s) = 4.16118 4.33604 4.24951
# Velocity P-wave (km/s) = 6.93452 7.45269 7.19827
#
# Compressibility (1/GPa) = 0.02164661
#
# Stress axis : x y z
#
# Youngs Moduli (GPa) = 103.81712 103.81712 61.22331
#
# Poissons Ratio (x) = 0.41880 0.09005
# Poissons Ratio (y) = 0.41880 0.09005
# Poissons Ratio (z) = 0.15270 0.15270
#
# Static dielectric constant tensor:
#      x y z
#    x 1.658320 0.000000 0.000000 
#    y 0.000000 1.658320 0.000000 
#    z 0.000000 0.000000 1.674400 
# 
# From -- ./inp_files/1559.got.cif
#   From: 2010.05.17/outbox.ucp.g08.bks.cvg/sg79_cif.got.tgz:1559.got - 2010.06.11 16:42:17.
