data_PCOD9542064
_publ_section_title
;
Structure prediction by ZEFSAII (Michael W. Deem and Ramdas Pophale) SiO2 
 PCOD9542064
Probable space group: I 41
;
_chemical_formula_sum "Si O2"
_cell_formula_units_Z 40
_cell_length_a 13.751007
_cell_length_b 13.751007
_cell_length_c 9.193701
_cell_angle_alpha 90.000000
_cell_angle_beta 90.000000
_cell_angle_gamma 90.000000
_cell_volume 1738.438701
_symmetry_space_group_name_H-M "I 41"
_symmetry_group_IT_number 80
_symmetry_cell_setting 'tetragonal'
loop_
_space_group_symop_operation_xyz
x,y,z
-y,1/2+x,1/4+z
-x,-y,z
y,1/2-x,1/4+z
1/2+x,1/2+y,1/2+z
1/2-y,x,3/4+z
1/2-x,1/2-y,1/2+z
1/2+y,-x,3/4+z
loop_
_atom_site_type_symbol
_atom_site_label
_atom_site_fract_x
_atom_site_fract_y
_atom_site_fract_z
Si Si1 0.727424 0.146424 0.913750
Si Si2 0.487864 0.884665 0.569598
Si Si3 0.079500 0.312966 0.358390
Si Si4 0.166479 0.279762 0.924161
Si Si5 0.608042 0.983365 0.076252
O O1 0.680957 0.230325 0.817338
O O2 0.818278 0.108579 0.812888
O O3 0.646998 0.064362 0.959088
O O4 0.511345 0.862179 0.738237
O O5 0.567593 0.830732 0.471486
O O6 0.500000 0.000000 0.545506
O O7 0.180138 0.315270 0.266479
O O8 0.039265 0.208643 0.410817
O O9 0.092374 0.385124 0.488232
O O10 0.252544 0.338786 0.004790
O O11 0.500000 0.000000 0.143168
#
# Coordination Sequence:
#
# PCOD9542064 Si02
#       5
#     8   8   8   8   8
#     4  11  23  40  66  92 129 167 204 262 316 375
#     4  10  20  34  64  90 119 161 218 254 301 370
#     4  10  17  32  57  91 115 152 204 267 301 348
#     4  10  19  35  60  92 119 157 205 256 312 352
#     4  11  20  35  62  93 121 161 219 259 308 368
#
# _framework density 23.009152
#
# number of rings (size 3 to 8) (size 9 to 14) (size 15 to 20)
#    0.000    1.600    6.000    4.200    2.800    0.000 
#    0.000    2.000    0.000    0.000    0.000    0.000 
#    0.000    0.000    0.000    0.000    0.000    0.000 
#
# Total GULP energy -111366.525743 kJ/mol
# GULP energy per Si atom -5568.326287 kJ/mol
# Density = 2.295678 g / cm^3
# Si number density = 23.009152 Si / 1000 Ang^3
#
#
#
# Elastic Constant Matrix: (Units=GPa)
#
#
# Indices 1 2 3 4 5 6 
#
# 1 120.9553 41.9549 15.0155 0.0000 0.0000 -11.6973
# 2 41.9549 120.9553 15.0155 0.0000 0.0000 11.6973
# 3 15.0155 15.0155 42.0362 0.0000 0.0000 0.0000
# 4 0.0000 0.0000 0.0000 24.4922 0.0000 0.0000
# 5 0.0000 0.0000 0.0000 0.0000 24.4922 0.0000
# 6 -11.6973 11.6973 0.0000 0.0000 0.0000 41.0152
#
#
#
# Elastic Compliance Matrix: (Units=1/GPa)
#
#
# Indices 1 2 3 4 5 6 
#
# 1 0.010198 -0.003627 -0.002347 0.000000 0.000000 0.003943
# 2 -0.003627 0.010198 -0.002347 0.000000 0.000000 -0.003943
# 3 -0.002347 -0.002347 0.025466 0.000000 0.000000 0.000000
# 4 0.000000 0.000000 0.000000 0.040829 0.000000 0.000000
# 5 0.000000 0.000000 0.000000 0.000000 0.040829 0.000000
# 6 0.003943 -0.003943 0.000000 0.000000 0.000000 0.026630
#
#
# Mechanical properties :
#
#
# Convention : Reuss Voigt Hill
#
# Bulk Modulus (GPa) = 34.22412 47.54650 40.88531
# Shear Modulus (GPa) = 27.69549 32.13066 29.91307
#
# Velocity S-wave (km/s) = 3.47316 3.74094 3.60953
# Velocity P-wave (km/s) = 5.56689 6.27443 5.93122
#
# Compressibility (1/GPa) = 0.02921915
#
# Stress axis : x y z
#
# Youngs Moduli (GPa) = 98.05434 98.05434 39.26825
#
# Poissons Ratio (x) = 0.35568 0.09217
# Poissons Ratio (y) = 0.35568 0.09217
# Poissons Ratio (z) = 0.23015 0.23015
#
# Static dielectric constant tensor:
#      x y z
#    x 2.029820 0.000000 0.000000 
#    y 0.000000 2.029820 0.000000 
#    z 0.000000 0.000000 1.881660 
# 
# From -- ./inp_files/972.got.cif
#   From: 2010.05.17/outbox.cif.g08.bks.cpg/sg80_cif.got.tgz:972.got - 2010.06.03 18:49:13.
