data_PCOD9542226
_publ_section_title
;
Structure prediction by ZEFSAII (Michael W. Deem and Ramdas Pophale) SiO2 
 PCOD9542226
Probable space group: I 41
;
_chemical_formula_sum "Si O2"
_cell_formula_units_Z 40
_cell_length_a 16.616402
_cell_length_b 16.616402
_cell_length_c 6.403850
_cell_angle_alpha 90.000000
_cell_angle_beta 90.000000
_cell_angle_gamma 90.000000
_cell_volume 1768.133822
_symmetry_space_group_name_H-M "I 41"
_symmetry_group_IT_number 80
_symmetry_cell_setting 'tetragonal'
loop_
_space_group_symop_operation_xyz
x,y,z
-y,1/2+x,1/4+z
-x,-y,z
y,1/2-x,1/4+z
1/2+x,1/2+y,1/2+z
1/2-y,x,3/4+z
1/2-x,1/2-y,1/2+z
1/2+y,-x,3/4+z
loop_
_atom_site_type_symbol
_atom_site_label
_atom_site_fract_x
_atom_site_fract_y
_atom_site_fract_z
Si Si1 0.143525 0.791058 0.646190
Si Si2 0.253900 0.364946 0.418553
Si Si3 0.098030 0.566841 0.204441
Si Si4 0.090017 0.074076 0.733562
Si Si5 0.998049 0.148719 0.373809
O O1 0.172038 0.706148 0.732187
O O2 0.131935 0.842180 0.859084
O O3 0.059138 0.800502 0.527538
O O4 0.306638 0.314545 0.582051
O O5 0.320499 0.391664 0.247772
O O6 0.212133 0.442060 0.518759
O O7 0.120166 0.476454 0.124832
O O8 0.102885 0.556274 0.451703
O O9 0.013805 0.587534 0.090624
O O10 0.051862 0.085310 0.505326
#
# Coordination Sequence:
#
# PCOD9542226 Si02
#       5
#     8   8   8   8   8
#     4  11  29  45  72 108 147 188 250 317 385 452
#     4  12  25  44  74 110 154 192 248 307 379 452
#     4  10  24  47  73 104 143 196 253 309 369 458
#     4  10  24  45  72 107 145 192 256 304 367 456
#     4  11  26  48  74 111 144 207 245 312 387 448
#
# _framework density 22.622723000000001
#
# number of rings (size 3 to 8) (size 9 to 14) (size 15 to 20)
#    0.000    1.200    2.000    1.200    8.400    8.000 
#    0.000    0.000    0.000    0.000    0.000    0.000 
#    0.000    0.000    0.000    0.000    0.000    0.000 
#
# Total GULP energy -111710.434106 kJ/mol
# GULP energy per Si atom -5585.521705 kJ/mol
# Density = 2.257123 g / cm^3
# Si number density = 22.622723 Si / 1000 Ang^3
#
#
#
# Elastic Constant Matrix: (Units=GPa)
#
#
# Indices 1 2 3 4 5 6 
#
# 1 75.9964 73.9264 43.1783 0.0000 0.0000 -3.0527
# 2 73.9264 75.9964 43.1783 0.0000 0.0000 3.0527
# 3 43.1783 43.1783 119.6838 0.0000 0.0000 0.0000
# 4 0.0000 0.0000 0.0000 29.9146 0.0000 0.0000
# 5 0.0000 0.0000 0.0000 0.0000 29.9146 0.0000
# 6 -3.0527 3.0527 0.0000 0.0000 0.0000 35.1444
#
#
#
# Elastic Compliance Matrix: (Units=1/GPa)
#
#
# Indices 1 2 3 4 5 6 
#
# 1 0.328959 -0.320539 -0.003038 0.000000 0.000000 0.056416
# 2 -0.320539 0.328959 -0.003038 0.000000 0.000000 -0.056416
# 3 -0.003038 -0.003038 0.010547 0.000000 0.000000 0.000000
# 4 0.000000 0.000000 0.000000 0.033428 0.000000 0.000000
# 5 0.000000 0.000000 0.000000 0.000000 0.033428 0.000000
# 6 0.056416 -0.056416 0.000000 0.000000 0.000000 0.038255
#
#
# Mechanical properties :
#
#
# Convention : Reuss Voigt Hill
#
# Bulk Modulus (GPa) = 65.63296 65.80475 65.71885
# Shear Modulus (GPa) = 3.49191 26.42097 14.95644
#
# Velocity S-wave (km/s) = 1.24374 3.42116 2.57402
# Velocity P-wave (km/s) = 5.58010 6.69005 6.16012
#
# Compressibility (1/GPa) = 0.01523625
#
# Stress axis : x y z
#
# Youngs Moduli (GPa) = 3.03990 3.03990 94.81281
#
# Poissons Ratio (x) = 0.97440 0.28800
# Poissons Ratio (y) = 0.97440 0.28800
# Poissons Ratio (z) = 0.00923 0.00923
#
# Static dielectric constant tensor:
#      x y z
#    x 1.868340 0.000000 0.000000 
#    y 0.000000 1.868340 0.000000 
#    z 0.000000 0.000000 1.880510 
# 
# From -- ./inp_files/197.got.cif
#   From: 2010.05.17/outbox.cif.g08.bks.cpg/sg80_cif.got.tgz:197.got - 2010.06.03 18:49:13.
