data_PCOD9542767
_publ_section_title
;
Structure prediction by ZEFSAII (Michael W. Deem and Ramdas Pophale) SiO2 
 PCOD9542767
Probable space group: I -4 
;
_chemical_formula_sum "Si O2"
_cell_formula_units_Z 52
_cell_length_a 17.719337
_cell_length_b 17.719337
_cell_length_c 7.906296
_cell_angle_alpha 90.000000
_cell_angle_beta 90.000000
_cell_angle_gamma 90.000000
_cell_volume 2482.378525
_symmetry_space_group_name_H-M "I -4 "
_symmetry_group_IT_number 82
_symmetry_cell_setting 'tetragonal'
loop_
_space_group_symop_operation_xyz
x,y,z
y,-x,-z
-x,-y,z
-y,x,-z
1/2+x,1/2+y,1/2+z
1/2+y,1/2-x,1/2-z
1/2-x,1/2-y,1/2+z
1/2-y,1/2+x,1/2-z
loop_
_atom_site_type_symbol
_atom_site_label
_atom_site_fract_x
_atom_site_fract_y
_atom_site_fract_z
Si Si1 0.000000 0.000000 0.745963
Si Si2 0.195828 0.805214 0.398895
Si Si3 0.964273 0.836616 0.725802
Si Si4 0.022750 0.166192 0.114602
Si Si5 0.043374 0.393173 0.285238
Si Si6 0.536966 0.239712 0.936503
Si Si7 0.845521 0.744766 0.245643
O O1 0.010354 0.080885 0.659011
O O2 0.921074 0.007514 0.845581
O O3 0.169414 0.873588 0.279664
O O4 0.124216 0.757408 0.463006
O O5 0.237381 0.843494 0.555951
O O6 0.243573 0.741040 0.308616
O O7 0.996566 0.778715 0.592599
O O8 0.993008 0.823020 0.916352
O O9 0.109201 0.189994 0.149049
O O10 0.981983 0.218711 0.255851
O O11 0.917720 0.527351 0.335697
O O12 0.995684 0.344562 0.420998
O O13 0.107308 0.333826 0.222418
#
# Coordination Sequence:
#
# PCOD9542767 Si02
#       7
#     4   8   8   8   8   8   8
#     4  12  25  39  64 101 141 180 221 273 348 419
#     4  12  23  43  65  97 141 180 227 285 344 418
#     4  12  24  39  64  97 138 178 226 275 336 421
#     4  11  23  42  61  94 136 174 218 276 338 407
#     4  10  20  41  71  95 129 177 229 286 343 406
#     4  11  24  42  65 100 132 176 231 276 349 406
#     4  11  24  43  66  99 134 180 228 282 347 413
#
# _framework density 20.947648999999998
#
# number of rings (size 3 to 8) (size 9 to 14) (size 15 to 20)
#    0.000    0.769    6.154    3.231    0.000    0.615 
#    2.769    0.000    0.000    0.000    0.000    8.615 
#    0.000    0.000    0.000    0.000    0.000    0.000 
#
# Total GULP energy -144967.360134 kJ/mol
# GULP energy per Si atom -5575.667697 kJ/mol
# Density = 2.089997 g / cm^3
# Si number density = 20.947649 Si / 1000 Ang^3
#
#
#
# Elastic Constant Matrix: (Units=GPa)
#
#
# Indices 1 2 3 4 5 6 
#
# 1 78.5149 21.9941 26.9938 0.0000 0.0000 -7.8408
# 2 21.9941 78.5149 26.9938 0.0000 0.0000 7.8408
# 3 26.9938 26.9938 77.1012 0.0000 0.0000 0.0000
# 4 0.0000 0.0000 0.0000 21.3288 0.0000 0.0000
# 5 0.0000 0.0000 0.0000 0.0000 21.3288 0.0000
# 6 -7.8408 7.8408 0.0000 0.0000 0.0000 50.7151
#
#
#
# Elastic Compliance Matrix: (Units=1/GPa)
#
#
# Indices 1 2 3 4 5 6 
#
# 1 0.015370 -0.003116 -0.004290 0.000000 0.000000 0.002858
# 2 -0.003116 0.015370 -0.004290 0.000000 0.000000 -0.002858
# 3 -0.004290 -0.004290 0.015974 0.000000 0.000000 0.000000
# 4 0.000000 0.000000 0.000000 0.046885 0.000000 0.000000
# 5 0.000000 0.000000 0.000000 0.000000 0.046885 0.000000
# 6 0.002858 -0.002858 0.000000 0.000000 0.000000 0.020602
#
#
# Mechanical properties :
#
#
# Convention : Reuss Voigt Hill
#
# Bulk Modulus (GPa) = 42.87992 42.89939 42.88966
# Shear Modulus (GPa) = 26.00764 29.21781 27.61272
#
# Velocity S-wave (km/s) = 3.52739 3.73876 3.63461
# Velocity P-wave (km/s) = 6.09134 6.25792 6.17519
#
# Compressibility (1/GPa) = 0.02332094
#
# Stress axis : x y z
#
# Youngs Moduli (GPa) = 65.06325 65.06325 62.60165
#
# Poissons Ratio (x) = 0.20273 0.26857
# Poissons Ratio (y) = 0.20273 0.26857
# Poissons Ratio (z) = 0.27913 0.27913
#
# Static dielectric constant tensor:
#      x y z
#    x 1.802480 0.000000 0.000000 
#    y 0.000000 1.802480 0.000000 
#    z 0.000000 0.000000 1.754940 
# 
# From -- ./inp_files/1109.got.cif
#   From: 2010.05.17/outbox.cif.g08.bks.cpg/sg82_1_cif.got.tgz:1109.got - 2010.06.03 18:52:26.
