data_PCOD9542283
_publ_section_title
;
Structure prediction by ZEFSAII (Michael W. Deem and Ramdas Pophale) SiO2 
 PCOD9542283
Probable space group: I 41
;
_chemical_formula_sum "Si O2"
_cell_formula_units_Z 44
_cell_length_a 7.933273
_cell_length_b 7.933273
_cell_length_c 30.294684
_cell_angle_alpha 90.000000
_cell_angle_beta 90.000000
_cell_angle_gamma 90.000000
_cell_volume 1906.651089
_symmetry_space_group_name_H-M "I 41"
_symmetry_group_IT_number 80
_symmetry_cell_setting 'tetragonal'
loop_
_space_group_symop_operation_xyz
x,y,z
-y,1/2+x,1/4+z
-x,-y,z
y,1/2-x,1/4+z
1/2+x,1/2+y,1/2+z
1/2-y,x,3/4+z
1/2-x,1/2-y,1/2+z
1/2+y,-x,3/4+z
loop_
_atom_site_type_symbol
_atom_site_label
_atom_site_fract_x
_atom_site_fract_y
_atom_site_fract_z
Si Si1 0.793743 0.745919 0.563520
Si Si2 0.156997 0.374514 0.232413
Si Si3 0.806358 0.951046 0.892984
Si Si4 0.198920 0.675737 0.683964
Si Si5 0.500000 0.500000 0.211469
Si Si6 0.000000 0.500000 0.614063
Si Si7 0.000000 0.500000 0.761704
O O1 0.751732 0.627869 0.521865
O O2 0.638587 0.744991 0.598239
O O3 0.953309 0.662849 0.586657
O O4 0.855322 0.921307 0.542547
O O5 0.181678 0.303439 0.183311
O O6 0.338417 0.456504 0.241476
O O7 0.000000 0.500000 0.231088
O O8 0.726443 0.112807 0.918629
O O9 0.000000 0.000000 0.883868
O O10 0.150493 0.546706 0.646030
O O11 0.144389 0.582213 0.729691
O O12 0.078351 0.842699 0.684009
#
# Coordination Sequence:
#
# PCOD9542283 Si02
#       7
#     8   8   8   8   4   4   4
#     4  12  29  47  75 114 156 205 269 337 402 499
#     4  11  25  46  73 113 149 201 263 325 404 479
#     4  11  26  47  79 111 149 205 264 330 400 484
#     4  11  25  50  77 108 154 214 258 329 408 487
#     4  12  20  47  80 105 152 202 271 320 399 488
#     4  11  30  44  68 113 148 208 253 328 405 476
#     4  11  28  51  80 112 160 208 268 338 420 482
#
# _framework density 23.077110999999999
#
# number of rings (size 3 to 8) (size 9 to 14) (size 15 to 20)
#    0.000    0.727    5.455    1.091   11.455    0.727 
#    0.000    0.000    0.000    0.000    0.000    0.000 
#    0.000    0.000    0.000    0.000    0.000    0.000 
#
# Total GULP energy -122667.837955 kJ/mol
# GULP energy per Si atom -5575.810816 kJ/mol
# Density = 2.302459 g / cm^3
# Si number density = 23.077111 Si / 1000 Ang^3
#
#
#
# Elastic Constant Matrix: (Units=GPa)
#
#
# Indices 1 2 3 4 5 6 
#
# 1 95.9354 17.8261 26.4370 0.0000 0.0000 7.8934
# 2 17.8261 95.9353 26.4370 0.0000 0.0000 -7.8934
# 3 26.4370 26.4370 113.2685 0.0000 0.0000 0.0000
# 4 0.0000 0.0000 0.0000 20.6124 0.0000 0.0000
# 5 0.0000 0.0000 0.0000 0.0000 20.6125 0.0000
# 6 7.8934 -7.8934 0.0000 0.0000 0.0000 36.5829
#
#
#
# Elastic Compliance Matrix: (Units=1/GPa)
#
#
# Indices 1 2 3 4 5 6 
#
# 1 0.011623 -0.001763 -0.002301 0.000000 0.000000 -0.002888
# 2 -0.001763 0.011623 -0.002301 0.000000 0.000000 0.002888
# 3 -0.002301 -0.002301 0.009903 0.000000 0.000000 0.000000
# 4 0.000000 0.000000 0.000000 0.048514 0.000000 0.000000
# 5 0.000000 0.000000 0.000000 0.000000 0.048514 0.000000
# 6 -0.002888 0.002888 0.000000 0.000000 0.000000 0.028582
#
#
# Mechanical properties :
#
#
# Convention : Reuss Voigt Hill
#
# Bulk Modulus (GPa) = 48.97779 49.61550 49.29664
# Shear Modulus (GPa) = 28.04310 31.19083 29.61697
#
# Velocity S-wave (km/s) = 3.48974 3.68039 3.58633
# Velocity P-wave (km/s) = 6.12432 6.29340 6.20944
#
# Compressibility (1/GPa) = 0.02041742
#
# Stress axis : x y z
#
# Youngs Moduli (GPa) = 86.03527 86.03525 100.98117
#
# Poissons Ratio (x) = 0.15170 0.23239
# Poissons Ratio (y) = 0.15170 0.23239
# Poissons Ratio (z) = 0.19799 0.19799
#
# Static dielectric constant tensor:
#      x y z
#    x 1.870920 0.000000 0.000000 
#    y 0.000000 1.870920 0.000000 
#    z 0.000000 0.000000 1.866380 
# 
# From -- ./inp_files/2568.got.cif
#   From: 2010.05.17/outbox.cif.g08.bks.cpg/sg80_cif.got.tgz:2568.got - 2010.06.03 18:49:13.
