data_PCOD9542607
_publ_section_title
;
Structure prediction by ZEFSAII (Michael W. Deem and Ramdas Pophale) SiO2 
 PCOD9542607
Probable space group: P -4
;
_chemical_formula_sum "Si O2"
_cell_formula_units_Z 17
_cell_length_a 9.000000
_cell_length_b 9.000000
_cell_length_c 9.000000
_cell_angle_alpha 90.000000
_cell_angle_beta 90.000000
_cell_angle_gamma 90.000000
_cell_volume 729.000000
_symmetry_space_group_name_H-M "P -4"
_symmetry_group_IT_number 81
_symmetry_cell_setting 'tetragonal'
loop_
_space_group_symop_operation_xyz
x,y,z
y,-x,-z
-x,-y,z
-y,x,-z
loop_
_atom_site_type_symbol
_atom_site_label
_atom_site_fract_x
_atom_site_fract_y
_atom_site_fract_z
Si Si1 0.316284 0.265947 0.676400
Si Si2 0.000000 0.000000 0.000000
Si Si3 0.591931 0.148988 0.546565
Si Si4 0.700780 0.043678 0.851298
Si Si5 0.443565 0.727306 0.051780
O O1 0.461047 0.267495 0.573519
O O2 0.179023 0.275551 0.565649
O O3 0.321328 0.123802 0.786441
O O4 0.290717 0.409381 0.776144
O O5 0.938953 0.868330 0.098956
O O6 0.661514 0.137465 0.708304
O O7 0.500000 0.000000 0.509711
O O8 0.603545 0.114999 0.983918
O O9 0.607380 0.668428 0.022129
#
# Coordination Sequence:
#
# PCOD9542607 Si02
#       5
#     4   1   4   4   4
#     4  11  24  45  71 103 143 193 239 298 368 437
#     4  12  24  40  78 100 140 196 246 304 372 456
#     4  10  25  46  70 104 147 188 240 302 368 443
#     4  11  24  46  67 104 145 188 244 302 367 438
#     4  11  24  43  74 108 139 189 246 304 364 430
#
# _framework density 23.319616
#
# number of rings (size 3 to 8) (size 9 to 14) (size 15 to 20)
#    0.000    1.176    4.706    0.000    3.294    4.235 
#    4.235    0.000    0.000    0.000    0.000    0.000 
#    0.000    0.000    0.000    0.000    0.000    0.000 
#
# Total GULP energy -94730.943118 kJ/mol
# GULP energy per Si atom -5572.408419 kJ/mol
# Density = 2.326654 g / cm^3
# Si number density = 23.319616 Si / 1000 Ang^3
#
#
#
# Elastic Constant Matrix: (Units=GPa)
#
#
# Indices 1 2 3 4 5 6 
#
# 1 62.3882 59.0273 35.6793 0.0000 0.0000 -2.7861
# 2 59.0273 62.3882 35.6793 0.0000 0.0000 2.7861
# 3 35.6793 35.6793 52.1812 0.0000 0.0000 0.0000
# 4 0.0000 0.0000 0.0000 -19.6168 0.0000 0.0000
# 5 0.0000 0.0000 0.0000 0.0000 -19.6168 0.0000
# 6 -2.7861 2.7861 0.0000 0.0000 0.0000 8.1577
#
#
#
# Elastic Compliance Matrix: (Units=1/GPa)
#
#
# Indices 1 2 3 4 5 6 
#
# 1 0.349879 -0.336110 -0.009415 0.000000 0.000000 0.234286
# 2 -0.336110 0.349879 -0.009415 0.000000 0.000000 -0.234286
# 3 -0.009415 -0.009415 0.032039 0.000000 0.000000 0.000000
# 4 0.000000 0.000000 0.000000 -0.050977 0.000000 0.000000
# 5 0.000000 0.000000 0.000000 0.000000 -0.050977 0.000000
# 6 0.234286 -0.234286 0.000000 0.000000 0.000000 0.282614
#
#
# Mechanical properties :
#
#
# Convention : Reuss Voigt Hill
#
# Bulk Modulus (GPa) = 45.62424 48.63659 47.13042
# Shear Modulus (GPa) = 3.06816 -3.11039 -0.02112
#
# Velocity S-wave (km/s) = 1.14828 -1.15616 -0.09527
# Velocity P-wave (km/s) = 4.62226 4.37259 4.49916
#
# Compressibility (1/GPa) = 0.02191817
#
# Stress axis : x y z
#
# Youngs Moduli (GPa) = 2.85813 2.85813 31.21171
#
# Poissons Ratio (x) = 0.96064 0.29386
# Poissons Ratio (y) = 0.96064 0.29386
# Poissons Ratio (z) = 0.02691 0.02691
#
# Static dielectric constant tensor:
#      x y z
#    x 1.948450 0.000000 0.000000 
#    y 0.000000 1.948450 0.000000 
#    z 0.000000 0.000000 2.315800 
# 
# From -- ./inp_files/619.got.cif
#   From: 2010.05.17/outbox.ucp.g08.bks.cvg/sg81_cif.got.tgz:619.got - 2010.06.11 10:34:33.
