data_PCOD9542643
_publ_section_title
;
Structure prediction by ZEFSAII (Michael W. Deem and Ramdas Pophale) SiO2 
 PCOD9542643
Probable space group: I -4 
;
_chemical_formula_sum "Si O2"
_cell_formula_units_Z 50
_cell_length_a 16.208731
_cell_length_b 16.208731
_cell_length_c 7.256791
_cell_angle_alpha 90.000000
_cell_angle_beta 90.000000
_cell_angle_gamma 90.000000
_cell_volume 1906.525616
_symmetry_space_group_name_H-M "I -4 "
_symmetry_group_IT_number 82
_symmetry_cell_setting 'tetragonal'
loop_
_space_group_symop_operation_xyz
x,y,z
y,-x,-z
-x,-y,z
-y,x,-z
1/2+x,1/2+y,1/2+z
1/2+y,1/2-x,1/2-z
1/2-x,1/2-y,1/2+z
1/2-y,1/2+x,1/2-z
loop_
_atom_site_type_symbol
_atom_site_label
_atom_site_fract_x
_atom_site_fract_y
_atom_site_fract_z
Si Si1 0.408248 0.028831 0.033139
Si Si2 0.726383 0.280644 0.406895
Si Si3 0.000000 0.000000 0.000000
Si Si4 0.189399 0.871478 0.297380
Si Si5 0.413407 0.178865 0.772645
Si Si6 0.164746 0.011560 0.795691
Si Si7 0.047880 0.756974 0.806044
O O1 0.412200 0.118565 0.942907
O O2 0.500000 0.000000 0.067494
O O3 0.369371 0.967037 0.881457
O O4 0.341730 0.035116 0.196376
O O5 0.754664 0.186046 0.425927
O O6 0.710383 0.335278 0.590119
O O7 0.804401 0.323825 0.311232
O O8 0.643852 0.278688 0.279938
O O9 0.077914 0.976374 0.872237
O O10 0.092398 0.855356 0.321767
O O11 0.204597 0.969322 0.295437
O O12 0.452139 0.269647 0.798305
O O13 0.212573 0.037069 0.982475
#
# Coordination Sequence:
#
# PCOD9542643 Si02
#       7
#     8   8   2   8   8   8   8
#     4  11  20  34  60  87 126 163 217 267 316 382
#     4  11  22  39  63  89 127 166 213 266 323 391
#     4  12  16  32  52  92 120 150 204 264 324 374
#     4  11  22  39  64  91 128 164 215 268 322 391
#     4  11  18  33  56  91 121 155 203 270 317 363
#     4  10  19  30  60  88 118 153 205 261 313 368
#     4  10  21  40  55  89 124 165 207 261 323 392
#
# _framework density 26.225715999999998
#
# number of rings (size 3 to 8) (size 9 to 14) (size 15 to 20)
#    0.000    1.280    6.400    3.840    0.000    0.000 
#    2.880    0.000    3.520    0.000    0.000    0.000 
#    0.000    0.000    0.000    0.000    0.000    0.000 
#
# Total GULP energy -140040.158420 kJ/mol
# GULP energy per Si atom -5601.606337 kJ/mol
# Density = 2.616603 g / cm^3
# Si number density = 26.225716 Si / 1000 Ang^3
#
#
#
# Elastic Constant Matrix: (Units=GPa)
#
#
# Indices 1 2 3 4 5 6 
#
# 1 182.2688 56.2530 21.8798 0.0000 0.0000 -4.6939
# 2 56.2530 182.2688 21.8798 0.0000 0.0000 4.6939
# 3 21.8798 21.8798 59.6772 0.0000 0.0000 0.0000
# 4 0.0000 0.0000 0.0000 24.4813 0.0000 0.0000
# 5 0.0000 0.0000 0.0000 0.0000 24.4813 0.0000
# 6 -4.6939 4.6939 0.0000 0.0000 0.0000 53.2188
#
#
#
# Elastic Compliance Matrix: (Units=1/GPa)
#
#
# Indices 1 2 3 4 5 6 
#
# 1 0.006241 -0.001747 -0.001648 0.000000 0.000000 0.000705
# 2 -0.001747 0.006241 -0.001648 0.000000 0.000000 -0.000705
# 3 -0.001648 -0.001648 0.017965 0.000000 0.000000 0.000000
# 4 0.000000 0.000000 0.000000 0.040847 0.000000 0.000000
# 5 0.000000 0.000000 0.000000 0.000000 0.040847 0.000000
# 6 0.000705 -0.000705 0.000000 0.000000 0.000000 0.018915
#
#
# Mechanical properties :
#
#
# Convention : Reuss Voigt Hill
#
# Bulk Modulus (GPa) = 49.10864 69.35999 59.23431
# Shear Modulus (GPa) = 33.79971 42.04978 37.92474
#
# Velocity S-wave (km/s) = 3.59388 4.00857 3.80687
# Velocity P-wave (km/s) = 5.99894 6.92312 6.47753
#
# Compressibility (1/GPa) = 0.02036302
#
# Stress axis : x y z
#
# Youngs Moduli (GPa) = 160.22015 160.22015 55.66315
#
# Poissons Ratio (x) = 0.27984 0.09173
# Poissons Ratio (y) = 0.27984 0.09173
# Poissons Ratio (z) = 0.26404 0.26404
#
# Static dielectric constant tensor:
#      x y z
#    x 2.027610 0.000000 0.000000 
#    y 0.000000 2.027610 0.000000 
#    z 0.000000 0.000000 2.138450 
# 
# From -- ./inp_files/1796.got.cif
#   From: 2010.05.17/outbox.cif.g08.bks.cpg/sg82_1_cif.got.tgz:1796.got - 2010.06.03 18:52:26.
