data_PCOD9542914
_publ_section_title
;
Structure prediction by ZEFSAII (Michael W. Deem and Ramdas Pophale) SiO2 
 PCOD9542914
Probable space group: I -4 
;
_chemical_formula_sum "Si O2"
_cell_formula_units_Z 32
_cell_length_a 10.205493
_cell_length_b 10.205493
_cell_length_c 10.421824
_cell_angle_alpha 90.000000
_cell_angle_beta 90.000000
_cell_angle_gamma 90.000000
_cell_volume 1085.454724
_symmetry_space_group_name_H-M "I -4 "
_symmetry_group_IT_number 82
_symmetry_cell_setting 'tetragonal'
loop_
_space_group_symop_operation_xyz
x,y,z
y,-x,-z
-x,-y,z
-y,x,-z
1/2+x,1/2+y,1/2+z
1/2+y,1/2-x,1/2-z
1/2-x,1/2-y,1/2+z
1/2-y,1/2+x,1/2-z
loop_
_atom_site_type_symbol
_atom_site_label
_atom_site_fract_x
_atom_site_fract_y
_atom_site_fract_z
Si Si1 0.666430 0.148617 0.586552
Si Si2 0.023088 0.280177 0.766121
Si Si3 0.059976 0.825598 0.289754
Si Si4 0.743156 0.407949 0.453009
O O1 0.657166 0.213894 0.729309
O O2 0.729478 0.254669 0.488427
O O3 0.510382 0.133949 0.561168
O O4 0.754263 0.021713 0.600674
O O5 0.137101 0.392125 0.757340
O O6 0.053628 0.153970 0.677552
O O7 0.038264 0.211602 0.904291
O O8 0.962276 0.840251 0.166947
#
# Coordination Sequence:
#
# PCOD9542914 Si02
#       4
#     8   8   8   8
#     4   9  20  42  72 113 148 208 272 334 405 490
#     4  10  22  47  74 121 167 218 267 342 414 485
#     4   9  21  44  74 112 158 210 278 329 408 502
#     4   9  21  43  72 113 156 205 265 334 417 479
#
# _framework density 29.480733000000001
#
# number of rings (size 3 to 8) (size 9 to 14) (size 15 to 20)
#    1.500    1.250    0.000    0.000    0.000    5.000 
#    9.000   10.000    0.000    0.000   19.500    0.000 
#    0.000    0.000    0.000    0.000    0.000    0.000 
#
# Total GULP energy -89087.195140 kJ/mol
# GULP energy per Si atom -5567.949696 kJ/mol
# Density = 2.941363 g / cm^3
# Si number density = 29.480733 Si / 1000 Ang^3
#
#
#
# Elastic Constant Matrix: (Units=GPa)
#
#
# Indices 1 2 3 4 5 6 
#
# 1 209.1549 122.1302 55.2837 0.0000 0.0000 28.6877
# 2 122.1302 209.1549 55.2837 0.0000 0.0000 -28.6877
# 3 55.2837 55.2837 119.9713 0.0000 0.0000 0.0000
# 4 0.0000 0.0000 0.0000 29.0970 0.0000 0.0000
# 5 0.0000 0.0000 0.0000 0.0000 29.0970 0.0000
# 6 28.6877 -28.6877 0.0000 0.0000 0.0000 65.6856
#
#
#
# Elastic Compliance Matrix: (Units=1/GPa)
#
#
# Indices 1 2 3 4 5 6 
#
# 1 0.009852 -0.006285 -0.001644 0.000000 0.000000 -0.007048
# 2 -0.006285 0.009852 -0.001644 0.000000 0.000000 0.007048
# 3 -0.001644 -0.001644 0.009850 0.000000 0.000000 0.000000
# 4 0.000000 0.000000 0.000000 0.034368 0.000000 0.000000
# 5 0.000000 0.000000 0.000000 0.000000 0.034368 0.000000
# 6 -0.007048 0.007048 0.000000 0.000000 0.000000 0.021380
#
#
# Mechanical properties :
#
#
# Convention : Reuss Voigt Hill
#
# Bulk Modulus (GPa) = 96.06628 111.51958 103.79293
# Shear Modulus (GPa) = 35.14028 45.14814 40.14421
#
# Velocity S-wave (km/s) = 3.45624 3.91761 3.69414
# Velocity P-wave (km/s) = 6.97025 7.64027 7.31294
#
# Compressibility (1/GPa) = 0.01040948
#
# Stress axis : x y z
#
# Youngs Moduli (GPa) = 101.49736 101.49736 101.52020
#
# Poissons Ratio (x) = 0.63794 0.16688
# Poissons Ratio (y) = 0.63794 0.16688
# Poissons Ratio (z) = 0.16684 0.16684
#
# Static dielectric constant tensor:
#      x y z
#    x 2.441490 0.000000 0.000000 
#    y 0.000000 2.441490 0.000000 
#    z 0.000000 0.000000 2.373470 
# 
# From -- ./inp_files/1510.got.cif
#   From: 2010.05.17/outbox.cif.g08.bks.cpg/sg82_1_cif.got.tgz:1510.got - 2010.06.03 18:52:26.
