data_PCOD9542630
_publ_section_title
;
Structure prediction by ZEFSAII (Michael W. Deem and Ramdas Pophale) SiO2 
 PCOD9542630
Probable space group: I -4 
;
_chemical_formula_sum "Si O2"
_cell_formula_units_Z 64
_cell_length_a 14.627565
_cell_length_b 14.627565
_cell_length_c 17.990628
_cell_angle_alpha 90.000000
_cell_angle_beta 90.000000
_cell_angle_gamma 90.000000
_cell_volume 3849.376555
_symmetry_space_group_name_H-M "I -4 "
_symmetry_group_IT_number 82
_symmetry_cell_setting 'tetragonal'
loop_
_space_group_symop_operation_xyz
x,y,z
y,-x,-z
-x,-y,z
-y,x,-z
1/2+x,1/2+y,1/2+z
1/2+y,1/2-x,1/2-z
1/2-x,1/2-y,1/2+z
1/2-y,1/2+x,1/2-z
loop_
_atom_site_type_symbol
_atom_site_label
_atom_site_fract_x
_atom_site_fract_y
_atom_site_fract_z
Si Si1 0.091903 0.843700 0.572445
Si Si2 0.358031 0.624008 0.906955
Si Si3 0.450611 0.141111 0.732027
Si Si4 0.674255 0.911461 0.316197
Si Si5 0.158368 0.628945 0.839960
Si Si6 0.082693 0.426547 0.079593
Si Si7 0.517386 0.891027 0.421987
Si Si8 0.986006 0.766168 0.361364
O O1 0.115314 0.829623 0.485711
O O2 0.102454 0.757654 0.627045
O O3 0.985135 0.872507 0.581419
O O4 0.165862 0.918023 0.597459
O O5 0.256041 0.641521 0.878399
O O6 0.425019 0.671737 0.848212
O O7 0.556105 0.108423 0.736748
O O8 0.422351 0.145745 0.646597
O O9 0.443123 0.226824 0.785800
O O10 0.683806 0.868136 0.234671
O O11 0.586253 0.868001 0.356134
O O12 0.656162 0.021301 0.314916
O O13 0.081137 0.648495 0.902024
O O14 0.176496 0.483428 0.090928
O O15 0.000000 0.500000 0.089761
O O16 0.065231 0.377869 0.001314
O O17 0.500000 0.000000 0.420898
#
# Coordination Sequence:
#
# PCOD9542630 Si02
#       8
#     8   8   8   8   8   8   8   8
#     4  11  23  36  55  76 112 148 186 226 268 319
#     4  11  23  37  54  79 110 150 187 225 264 328
#     4   9  16  31  49  73 109 141 172 222 271 327
#     4  10  19  35  53  79 108 144 176 220 278 324
#     4  10  20  34  55  80 110 141 182 219 277 327
#     4  10  18  32  53  80 108 140 182 224 278 333
#     4   9  18  28  53  78 104 139 175 222 270 327
#     4  11  21  33  54  77 105 148 186 219 274 321
#
# _framework density 16.626069000000001
#
# number of rings (size 3 to 8) (size 9 to 14) (size 15 to 20)
#    0.000    1.875    5.000    1.125    5.250    2.000 
#    0.000    0.000    0.000    0.000    0.000    0.000 
#    0.000    0.000    4.250    0.000    0.000    0.000 
#
# Total GULP energy -178193.682140 kJ/mol
# GULP energy per Si atom -5568.552567 kJ/mol
# Density = 1.658823 g / cm^3
# Si number density = 16.626069 Si / 1000 Ang^3
#
#
#
# Elastic Constant Matrix: (Units=GPa)
#
#
# Indices 1 2 3 4 5 6 
#
# 1 57.1991 18.3862 16.6838 0.0000 0.0000 1.4696
# 2 18.3862 57.1991 16.6838 0.0000 0.0000 -1.4696
# 3 16.6838 16.6838 92.0934 0.0000 0.0000 0.0000
# 4 0.0000 0.0000 0.0000 22.8209 0.0000 0.0000
# 5 0.0000 0.0000 0.0000 0.0000 22.8209 0.0000
# 6 1.4696 -1.4696 0.0000 0.0000 0.0000 12.4976
#
#
#
# Elastic Compliance Matrix: (Units=1/GPa)
#
#
# Indices 1 2 3 4 5 6 
#
# 1 0.020188 -0.005808 -0.002605 0.000000 0.000000 -0.003057
# 2 -0.005808 0.020188 -0.002605 0.000000 0.000000 0.003057
# 3 -0.002605 -0.002605 0.011802 0.000000 0.000000 0.000000
# 4 0.000000 0.000000 0.000000 0.043820 0.000000 0.000000
# 5 0.000000 0.000000 0.000000 0.000000 0.043820 0.000000
# 6 -0.003057 0.003057 0.000000 0.000000 0.000000 0.080734
#
#
# Mechanical properties :
#
#
# Convention : Reuss Voigt Hill
#
# Bulk Modulus (GPa) = 33.17609 34.44435 33.81022
# Shear Modulus (GPa) = 19.79134 21.94373 20.86754
#
# Velocity S-wave (km/s) = 3.45393 3.63690 3.54660
# Velocity P-wave (km/s) = 5.99198 6.19662 6.09516
#
# Compressibility (1/GPa) = 0.03014219
#
# Stress axis : x y z
#
# Youngs Moduli (GPa) = 49.53406 49.53406 84.72821
#
# Poissons Ratio (x) = 0.28769 0.22073
# Poissons Ratio (y) = 0.28769 0.22073
# Poissons Ratio (z) = 0.12904 0.12904
#
# Static dielectric constant tensor:
#      x y z
#    x 1.576620 0.000000 0.000000 
#    y 0.000000 1.576620 0.000000 
#    z 0.000000 0.000000 1.610010 
# 
# From -- ./inp_files/2724.got.cif
#   From: 2010.05.17/outbox.cif.g08.bks.cpg/sg82_2_cif.got.tgz:2724.got - 2010.06.03 18:52:26.
