data_PCOD9542302
_publ_section_title
;
Structure prediction by ZEFSAII (Michael W. Deem and Ramdas Pophale) SiO2 
 PCOD9542302
Probable space group: I 41
;
_chemical_formula_sum "Si O2"
_cell_formula_units_Z 32
_cell_length_a 7.996508
_cell_length_b 7.996508
_cell_length_c 18.718881
_cell_angle_alpha 90.000000
_cell_angle_beta 90.000000
_cell_angle_gamma 90.000000
_cell_volume 1196.962751
_symmetry_space_group_name_H-M "I 41"
_symmetry_group_IT_number 80
_symmetry_cell_setting 'tetragonal'
loop_
_space_group_symop_operation_xyz
x,y,z
-y,1/2+x,1/4+z
-x,-y,z
y,1/2-x,1/4+z
1/2+x,1/2+y,1/2+z
1/2-y,x,3/4+z
1/2-x,1/2-y,1/2+z
1/2+y,-x,3/4+z
loop_
_atom_site_type_symbol
_atom_site_label
_atom_site_fract_x
_atom_site_fract_y
_atom_site_fract_z
Si Si1 0.149178 0.259263 0.219130
Si Si2 0.819278 0.001677 0.507649
Si Si3 0.677725 0.470803 0.600229
Si Si4 0.384999 0.760711 0.408992
O O1 0.316932 0.249165 0.266521
O O2 0.167502 0.443369 0.181472
O O3 0.004565 0.214982 0.278137
O O4 0.182281 0.114269 0.160525
O O5 0.679365 0.108931 0.467469
O O6 0.849029 0.080769 0.584133
O O7 0.000000 0.000000 0.468492
O O8 0.500000 0.500000 0.564360
O O9 0.668564 0.289131 0.637374
#
# Coordination Sequence:
#
# PCOD9542302 Si02
#       4
#     8   8   8   8
#     4  12  27  56  82 121 172 219 284 347 424 508
#     4  12  25  49  84 121 167 223 280 348 426 506
#     4  12  30  50  84 120 166 224 283 348 420 508
#     4  12  28  51  83 123 166 223 282 351 428 498
#
# _framework density 26.734334
#
# number of rings (size 3 to 8) (size 9 to 14) (size 15 to 20)
#    0.000    0.000    5.000    3.750    7.000    0.000 
#    0.000    0.000    0.000    0.000    0.000    0.000 
#    0.000    0.000    0.000    0.000    0.000    0.000 
#
# Total GULP energy -89314.778472 kJ/mol
# GULP energy per Si atom -5582.173654 kJ/mol
# Density = 2.667349 g / cm^3
# Si number density = 26.734334 Si / 1000 Ang^3
#
#
#
# Elastic Constant Matrix: (Units=GPa)
#
#
# Indices 1 2 3 4 5 6 
#
# 1 133.9855 -0.3796 19.9499 0.0000 0.0000 -12.1339
# 2 -0.3796 133.9855 19.9499 0.0000 0.0000 12.1339
# 3 19.9499 19.9499 150.3937 0.0000 0.0000 0.0000
# 4 0.0000 0.0000 0.0000 21.2133 0.0000 0.0000
# 5 0.0000 0.0000 0.0000 0.0000 21.2133 0.0000
# 6 -12.1339 12.1339 0.0000 0.0000 0.0000 13.2213
#
#
#
# Elastic Compliance Matrix: (Units=1/GPa)
#
#
# Indices 1 2 3 4 5 6 
#
# 1 0.008357 -0.000564 -0.001034 0.000000 0.000000 0.008187
# 2 -0.000564 0.008357 -0.001034 0.000000 0.000000 -0.008187
# 3 -0.001034 -0.001034 0.006923 0.000000 0.000000 0.000000
# 4 0.000000 0.000000 0.000000 0.047140 0.000000 0.000000
# 5 0.000000 0.000000 0.000000 0.000000 0.047140 0.000000
# 6 0.008187 -0.008187 0.000000 0.000000 0.000000 0.090664
#
#
# Mechanical properties :
#
#
# Convention : Reuss Voigt Hill
#
# Bulk Modulus (GPa) = 54.42140 55.26723 54.84432
# Shear Modulus (GPa) = 22.73037 36.38590 29.55813
#
# Velocity S-wave (km/s) = 2.91904 3.69320 3.32870
# Velocity P-wave (km/s) = 5.63574 6.23730 5.94414
#
# Compressibility (1/GPa) = 0.01837512
#
# Stress axis : x y z
#
# Youngs Moduli (GPa) = 119.65600 119.65600 144.43598
#
# Poissons Ratio (x) = 0.06747 0.14932
# Poissons Ratio (y) = 0.06747 0.14932
# Poissons Ratio (z) = 0.12370 0.12370
#
# Static dielectric constant tensor:
#      x y z
#    x 2.275890 0.000000 0.000000 
#    y 0.000000 2.275890 0.000000 
#    z 0.000000 0.000000 2.020070 
# 
# From -- ./inp_files/1663.got.cif
#   From: 2010.05.17/outbox.cif.g08.bks.cpg/sg80_cif.got.tgz:1663.got - 2010.06.03 18:49:13.
