data_PCOD9542696
_publ_section_title
;
Structure prediction by ZEFSAII (Michael W. Deem and Ramdas Pophale) SiO2 
 PCOD9542696
Probable space group: I -4 
;
_chemical_formula_sum "Si O2"
_cell_formula_units_Z 40
_cell_length_a 16.586391
_cell_length_b 16.586391
_cell_length_c 6.595055
_cell_angle_alpha 90.000000
_cell_angle_beta 90.000000
_cell_angle_gamma 90.000000
_cell_volume 1814.354807
_symmetry_space_group_name_H-M "I -4 "
_symmetry_group_IT_number 82
_symmetry_cell_setting 'tetragonal'
loop_
_space_group_symop_operation_xyz
x,y,z
y,-x,-z
-x,-y,z
-y,x,-z
1/2+x,1/2+y,1/2+z
1/2+y,1/2-x,1/2-z
1/2-x,1/2-y,1/2+z
1/2-y,1/2+x,1/2-z
loop_
_atom_site_type_symbol
_atom_site_label
_atom_site_fract_x
_atom_site_fract_y
_atom_site_fract_z
Si Si1 0.940028 0.291000 0.898106
Si Si2 0.130448 0.147774 0.946054
Si Si3 0.789807 0.392865 0.836445
Si Si4 0.466030 0.604501 0.888780
Si Si5 0.256302 0.969507 0.739842
O O1 0.874052 0.349198 0.801713
O O2 0.017528 0.286175 0.755233
O O3 0.894268 0.206779 0.948288
O O4 0.979680 0.315485 0.116806
O O5 0.152065 0.214942 0.772797
O O6 0.082539 0.079581 0.818218
O O7 0.075354 0.195753 0.104090
O O8 0.784660 0.404399 0.078456
O O9 0.467510 0.700308 0.883473
O O10 0.558009 0.577935 0.929212
#
# Coordination Sequence:
#
# PCOD9542696 Si02
#       5
#     8   8   8   8   8
#     4  10  26  43  69 104 134 178 234 284 345 422
#     4  10  23  42  65 101 134 178 232 279 343 426
#     4  11  24  47  69  99 139 181 231 295 349 403
#     4  10  20  33  59  91 135 185 211 271 343 410
#     4  10  23  41  67  97 137 176 231 276 347 418
#
# _framework density 22.046403999999999
#
# number of rings (size 3 to 8) (size 9 to 14) (size 15 to 20)
#    0.000    1.800    2.000    0.000    5.600    8.400 
#    0.000    0.000    0.000    0.000    0.000    0.000 
#    0.000    0.000    0.000    0.000    0.000    0.000 
#
# Total GULP energy -111449.503893 kJ/mol
# GULP energy per Si atom -5572.475195 kJ/mol
# Density = 2.199623 g / cm^3
# Si number density = 22.046404 Si / 1000 Ang^3
#
#
#
# Elastic Constant Matrix: (Units=GPa)
#
#
# Indices 1 2 3 4 5 6 
#
# 1 61.1234 33.8502 36.6161 0.0000 0.0000 -12.2157
# 2 33.8502 61.1234 36.6161 0.0000 0.0000 12.2157
# 3 36.6161 36.6161 88.5394 0.0000 0.0000 0.0000
# 4 0.0000 0.0000 0.0000 25.4648 0.0000 0.0000
# 5 0.0000 0.0000 0.0000 0.0000 25.4648 0.0000
# 6 -12.2157 12.2157 0.0000 0.0000 0.0000 34.4204
#
#
#
# Elastic Compliance Matrix: (Units=1/GPa)
#
#
# Indices 1 2 3 4 5 6 
#
# 1 0.034608 -0.019149 -0.006393 0.000000 0.000000 0.019078
# 2 -0.019149 0.034608 -0.006393 0.000000 0.000000 -0.019078
# 3 -0.006393 -0.006393 0.016582 0.000000 0.000000 0.000000
# 4 0.000000 0.000000 0.000000 0.039270 0.000000 0.000000
# 5 0.000000 0.000000 0.000000 0.000000 0.039270 0.000000
# 6 0.019078 -0.019078 0.000000 0.000000 0.000000 0.042594
#
#
# Mechanical properties :
#
#
# Convention : Reuss Voigt Hill
#
# Bulk Modulus (GPa) = 45.60488 47.21676 46.41082
# Shear Modulus (GPa) = 17.97849 23.98360 20.98104
#
# Velocity S-wave (km/s) = 2.85877 3.30186 3.08827
# Velocity P-wave (km/s) = 5.62383 5.99999 5.81495
#
# Compressibility (1/GPa) = 0.02192748
#
# Stress axis : x y z
#
# Youngs Moduli (GPa) = 28.89541 28.89541 60.30558
#
# Poissons Ratio (x) = 0.55331 0.38554
# Poissons Ratio (y) = 0.55331 0.38554
# Poissons Ratio (z) = 0.18473 0.18473
#
# Static dielectric constant tensor:
#      x y z
#    x 1.836370 0.000000 0.000000 
#    y 0.000000 1.836370 0.000000 
#    z 0.000000 0.000000 1.903690 
# 
# From -- ./inp_files/228.got.cif
#   From: 2010.05.17/outbox.cif.g08.bks.cpg/sg82_1_cif.got.tgz:228.got - 2010.06.03 18:52:26.
