data_PCOD9542082
_publ_section_title
;
Structure prediction by ZEFSAII (Michael W. Deem and Ramdas Pophale) SiO2 
 PCOD9542082
Probable space group: I 41
;
_chemical_formula_sum "Si O2"
_cell_formula_units_Z 40
_cell_length_a 8.644812
_cell_length_b 8.644812
_cell_length_c 24.674174
_cell_angle_alpha 90.000000
_cell_angle_beta 90.000000
_cell_angle_gamma 90.000000
_cell_volume 1843.969482
_symmetry_space_group_name_H-M "I 41"
_symmetry_group_IT_number 80
_symmetry_cell_setting 'tetragonal'
loop_
_space_group_symop_operation_xyz
x,y,z
-y,1/2+x,1/4+z
-x,-y,z
y,1/2-x,1/4+z
1/2+x,1/2+y,1/2+z
1/2-y,x,3/4+z
1/2-x,1/2-y,1/2+z
1/2+y,-x,3/4+z
loop_
_atom_site_type_symbol
_atom_site_label
_atom_site_fract_x
_atom_site_fract_y
_atom_site_fract_z
Si Si1 0.000000 0.500000 0.403070
Si Si2 0.671055 0.997180 0.523762
Si Si3 0.678407 0.707516 0.942536
Si Si4 0.734238 0.282024 0.589283
Si Si5 0.000000 0.000000 0.356891
Si Si6 0.985419 0.825791 0.896290
O O1 0.913358 0.629902 0.439443
O O2 0.882447 0.406825 0.363442
O O3 0.705297 0.176517 0.536901
O O4 0.654960 0.924283 0.584195
O O5 0.500000 0.000000 0.498603
O O6 0.806161 0.903195 0.494481
O O7 0.605626 0.605640 0.895176
O O8 0.856439 0.742176 0.929787
O O9 0.879740 0.389429 0.577419
O O10 0.757256 0.150176 0.636378
O O11 0.000000 0.000000 0.917927
#
# Coordination Sequence:
#
# PCOD9542082 Si02
#       6
#     4   8   8   8   4   8
#     4  10  18  38  73  90 132 178 218 274 335 400
#     4   9  20  37  65  96 128 166 220 282 314 401
#     4  11  21  39  67  93 131 174 227 266 337 396
#     4   9  19  40  65  94 129 171 224 269 339 395
#     4  10  24  36  63  96 126 178 206 272 339 398
#     4   9  18  39  68  92 123 173 215 273 325 392
#
# _framework density 21.692333999999999
#
# number of rings (size 3 to 8) (size 9 to 14) (size 15 to 20)
#    1.200    1.200    2.000    0.000    2.800    0.000 
#    3.600    1.000   35.200    0.000    0.000    0.000 
#    0.000    0.000    0.000    0.000    0.000    0.000 
#
# Total GULP energy -111374.477607 kJ/mol
# GULP energy per Si atom -5568.723880 kJ/mol
# Density = 2.164296 g / cm^3
# Si number density = 21.692334 Si / 1000 Ang^3
#
#
#
# Elastic Constant Matrix: (Units=GPa)
#
#
# Indices 1 2 3 4 5 6 
#
# 1 136.1480 75.9215 30.7410 0.0000 0.0000 2.2178
# 2 75.9215 136.1480 30.7410 0.0000 0.0000 -2.2178
# 3 30.7410 30.7410 29.3268 0.0000 0.0000 0.0000
# 4 0.0000 0.0000 0.0000 21.2418 0.0000 0.0000
# 5 0.0000 0.0000 0.0000 0.0000 21.2418 0.0000
# 6 2.2178 -2.2178 0.0000 0.0000 0.0000 37.9157
#
#
#
# Elastic Compliance Matrix: (Units=1/GPa)
#
#
# Indices 1 2 3 4 5 6 
#
# 1 0.011725 -0.004951 -0.007101 0.000000 0.000000 -0.000975
# 2 -0.004951 0.011725 -0.007101 0.000000 0.000000 0.000975
# 3 -0.007101 -0.007101 0.048985 0.000000 0.000000 0.000000
# 4 0.000000 0.000000 0.000000 0.047077 0.000000 0.000000
# 5 0.000000 0.000000 0.000000 0.000000 0.047077 0.000000
# 6 -0.000975 0.000975 0.000000 0.000000 0.000000 0.026488
#
#
# Mechanical properties :
#
#
# Convention : Reuss Voigt Hill
#
# Bulk Modulus (GPa) = 29.29971 64.04776 46.67373
# Shear Modulus (GPa) = 20.59664 27.02783 23.81223
#
# Velocity S-wave (km/s) = 3.08472 3.53365 3.31679
# Velocity P-wave (km/s) = 5.12090 6.79989 6.01922
#
# Compressibility (1/GPa) = 0.03413003
#
# Stress axis : x y z
#
# Youngs Moduli (GPa) = 85.28836 85.28836 20.41451
#
# Poissons Ratio (x) = 0.42225 0.14496
# Poissons Ratio (y) = 0.42225 0.14496
# Poissons Ratio (z) = 0.60561 0.60561
#
# Static dielectric constant tensor:
#      x y z
#    x 1.839950 0.000000 0.000000 
#    y 0.000000 1.839950 0.000000 
#    z 0.000000 0.000000 1.831040 
# 
# From -- ./inp_files/2332.got.cif
#   From: 2010.05.17/outbox.cif.g08.bks.cpg/sg80_cif.got.tgz:2332.got - 2010.06.03 18:49:13.
