data_PCOD9542476
_publ_section_title
;
Structure prediction by ZEFSAII (Michael W. Deem and Ramdas Pophale) SiO2 
 PCOD9542476
Probable space group: P -4
;
_chemical_formula_sum "Si O2"
_cell_formula_units_Z 26
_cell_length_a 10.421721
_cell_length_b 10.421721
_cell_length_c 10.159969
_cell_angle_alpha 90.000000
_cell_angle_beta 90.000000
_cell_angle_gamma 90.000000
_cell_volume 1103.497282
_symmetry_space_group_name_H-M "P -4"
_symmetry_group_IT_number 81
_symmetry_cell_setting 'tetragonal'
loop_
_space_group_symop_operation_xyz
x,y,z
y,-x,-z
-x,-y,z
-y,x,-z
loop_
_atom_site_type_symbol
_atom_site_label
_atom_site_fract_x
_atom_site_fract_y
_atom_site_fract_z
Si Si1 0.807982 0.627101 0.742171
Si Si2 0.541246 0.860105 0.026348
Si Si3 0.500000 0.500000 0.000000
Si Si4 0.937375 0.236793 0.662512
Si Si5 0.532614 0.847820 0.509703
Si Si6 0.108442 0.832843 0.942115
Si Si7 0.732674 0.453307 0.212311
Si Si8 0.000000 0.000000 0.500000
O O1 0.781438 0.524806 0.857695
O O2 0.953013 0.677738 0.732273
O O3 0.791341 0.558056 0.603395
O O4 0.700605 0.732819 0.765765
O O5 0.692976 0.838289 0.023637
O O6 0.500000 0.000000 0.065716
O O7 0.492341 0.844378 0.878744
O O8 0.486194 0.382830 0.892546
O O9 0.856606 0.327230 0.563607
O O10 0.870924 0.163227 0.784372
O O11 0.010843 0.128637 0.582563
O O12 0.506653 0.760681 0.638016
O O13 0.500000 0.000000 0.535614
O O14 0.957146 0.835131 0.984316
#
# Coordination Sequence:
#
# PCOD9542476 Si02
#       8
#     4   4   1   4   4   4   4   1
#     4  11  22  46  73  97 144 193 232 301 372 438
#     4  12  23  44  73  98 139 190 238 294 367 439
#     4  12  28  48  66 104 160 184 262 324 368 432
#     4  11  22  43  66 103 146 188 231 296 374 448
#     4  10  23  46  75 105 140 189 251 302 377 453
#     4  11  23  39  67 106 145 183 236 293 364 447
#     4  12  26  45  72 107 138 191 247 308 368 439
#     4  12  24  36  66 104 148 172 224 310 368 432
#
# _framework density 23.561453
#
# number of rings (size 3 to 8) (size 9 to 14) (size 15 to 20)
#    0.000    0.769    4.615    3.692    0.000    2.462 
#    0.000    3.077    0.000    0.000    0.000    0.000 
#    0.000    0.000    0.000    0.000    0.000    0.000 
#
# Total GULP energy -144888.210546 kJ/mol
# GULP energy per Si atom -5572.623483 kJ/mol
# Density = 2.350783 g / cm^3
# Si number density = 23.561453 Si / 1000 Ang^3
#
#
#
# Elastic Constant Matrix: (Units=GPa)
#
#
# Indices 1 2 3 4 5 6 
#
# 1 51.9589 -0.8378 39.2411 0.0000 0.0000 0.7143
# 2 -0.8378 51.9589 39.2411 0.0000 0.0000 -0.7143
# 3 39.2411 39.2411 206.3795 0.0000 0.0000 0.0000
# 4 0.0000 0.0000 0.0000 21.6505 0.0000 0.0000
# 5 0.0000 0.0000 0.0000 0.0000 21.6505 0.0000
# 6 0.7143 -0.7143 0.0000 0.0000 0.0000 12.4198
#
#
#
# Elastic Compliance Matrix: (Units=1/GPa)
#
#
# Indices 1 2 3 4 5 6 
#
# 1 0.023298 0.004328 -0.005253 0.000000 0.000000 -0.001091
# 2 0.004328 0.023298 -0.005253 0.000000 0.000000 0.001091
# 3 -0.005253 -0.005253 0.006843 0.000000 0.000000 0.000000
# 4 0.000000 0.000000 0.000000 0.046188 0.000000 0.000000
# 5 0.000000 0.000000 0.000000 0.000000 0.046188 0.000000
# 6 -0.001091 0.001091 0.000000 0.000000 0.000000 0.080642
#
#
# Mechanical properties :
#
#
# Convention : Reuss Voigt Hill
#
# Bulk Modulus (GPa) = 24.34099 51.73179 38.03639
# Shear Modulus (GPa) = 19.80145 26.65437 23.22791
#
# Velocity S-wave (km/s) = 2.90214 3.36708 3.14322
# Velocity P-wave (km/s) = 4.64577 6.09263 5.41772
#
# Compressibility (1/GPa) = 0.04108296
#
# Stress axis : x y z
#
# Youngs Moduli (GPa) = 42.92260 42.92260 146.13597
#
# Poissons Ratio (x) = -0.18575 0.76761
# Poissons Ratio (y) = -0.18575 0.76761
# Poissons Ratio (z) = 0.22546 0.22546
#
# Static dielectric constant tensor:
#      x y z
#    x 2.024940 0.000000 0.000000 
#    y 0.000000 2.024940 0.000000 
#    z 0.000000 0.000000 1.930720 
# 
# From -- ./inp_files/911.got.cif
#   From: 2010.05.17/outbox.cif.g08.bks.cpg/sg81_cif.got.tgz:911.got - 2010.06.03 18:51:07.
