data_PCOD9542950
_publ_section_title
;
Structure prediction by ZEFSAII (Michael W. Deem and Ramdas Pophale) SiO2 
 PCOD9542950
Probable space group: I -4 
;
_chemical_formula_sum "Si O2"
_cell_formula_units_Z 52
_cell_length_a 16.415246
_cell_length_b 16.415246
_cell_length_c 8.386206
_cell_angle_alpha 90.000000
_cell_angle_beta 90.000000
_cell_angle_gamma 90.000000
_cell_volume 2259.749595
_symmetry_space_group_name_H-M "I -4 "
_symmetry_group_IT_number 82
_symmetry_cell_setting 'tetragonal'
loop_
_space_group_symop_operation_xyz
x,y,z
y,-x,-z
-x,-y,z
-y,x,-z
1/2+x,1/2+y,1/2+z
1/2+y,1/2-x,1/2-z
1/2-x,1/2-y,1/2+z
1/2-y,1/2+x,1/2-z
loop_
_atom_site_type_symbol
_atom_site_label
_atom_site_fract_x
_atom_site_fract_y
_atom_site_fract_z
Si Si1 0.500000 0.000000 0.250000
Si Si2 0.468398 0.250323 0.716597
Si Si3 0.827390 0.484701 0.629932
Si Si4 0.605447 0.360905 0.832124
Si Si5 0.424935 0.389076 0.503427
Si Si6 0.253807 0.827153 0.566996
Si Si7 0.697504 0.846891 0.234696
Si Si8 0.500000 0.500000 0.000000
O O1 0.489718 0.921703 0.360558
O O2 0.484509 0.204652 0.550751
O O3 0.549143 0.280762 0.807951
O O4 0.421196 0.331910 0.655263
O O5 0.402937 0.211104 0.833376
O O6 0.827490 0.393559 0.701302
O O7 0.785447 0.555578 0.737851
O O8 0.638691 0.381068 0.656277
O O9 0.679148 0.354784 0.953709
O O10 0.546424 0.433678 0.891225
O O11 0.394614 0.479427 0.537483
O O12 0.212395 0.758337 0.673769
O O13 0.323234 0.795391 0.450308
#
# Coordination Sequence:
#
# PCOD9542950 Si02
#       8
#     2   8   8   8   8   8   8   2
#     4   8  20  48  76 106 116 172 230 316 356 424
#     4  11  23  38  67  98 137 178 224 271 344 412
#     4  10  23  48  76  97 131 180 233 291 368 417
#     4  11  23  36  63  96 146 179 229 260 333 406
#     4   9  19  34  56  90 137 182 213 253 307 397
#     4  12  27  43  68 106 142 183 230 292 339 425
#     4  11  27  47  75  99 143 180 238 294 364 413
#     4  12  20  40  58 108 140 196 214 276 304 452
#
# _framework density 23.011398
#
# number of rings (size 3 to 8) (size 9 to 14) (size 15 to 20)
#    0.000    1.385    1.538    3.692    8.615    0.000 
#    0.000    0.000    0.000    0.000    0.000    0.000 
#    0.000    0.000    0.000    0.000    0.000    0.000 
#
# Total GULP energy -145449.698941 kJ/mol
# GULP energy per Si atom -5594.219190 kJ/mol
# Density = 2.295902 g / cm^3
# Si number density = 23.011398 Si / 1000 Ang^3
#
#
#
# Elastic Constant Matrix: (Units=GPa)
#
#
# Indices 1 2 3 4 5 6 
#
# 1 71.0351 3.0702 15.5503 0.0000 0.0000 0.2011
# 2 3.0702 71.0351 15.5503 0.0000 0.0000 -0.2011
# 3 15.5503 15.5503 74.6179 0.0000 0.0000 0.0000
# 4 0.0000 0.0000 0.0000 36.2804 0.0000 0.0000
# 5 0.0000 0.0000 0.0000 0.0000 36.2804 0.0000
# 6 0.2011 -0.2011 0.0000 0.0000 0.0000 15.6928
#
#
#
# Elastic Compliance Matrix: (Units=1/GPa)
#
#
# Indices 1 2 3 4 5 6 
#
# 1 0.014751 0.000037 -0.003082 0.000000 0.000000 -0.000189
# 2 0.000037 0.014751 -0.003082 0.000000 0.000000 0.000189
# 3 -0.003082 -0.003082 0.014686 0.000000 0.000000 0.000000
# 4 0.000000 0.000000 0.000000 0.027563 0.000000 0.000000
# 5 0.000000 0.000000 0.000000 0.000000 0.027563 0.000000
# 6 -0.000189 0.000189 0.000000 0.000000 0.000000 0.063728
#
#
# Mechanical properties :
#
#
# Convention : Reuss Voigt Hill
#
# Bulk Modulus (GPa) = 31.31415 31.66997 31.49206
# Shear Modulus (GPa) = 26.89019 29.81855 28.35437
#
# Velocity S-wave (km/s) = 3.42213 3.60365 3.51406
# Velocity P-wave (km/s) = 5.40854 5.57743 5.49363
#
# Compressibility (1/GPa) = 0.03193444
#
# Stress axis : x y z
#
# Youngs Moduli (GPa) = 67.79149 67.79149 68.09178
#
# Poissons Ratio (x) = -0.00248 0.20984
# Poissons Ratio (y) = -0.00248 0.20984
# Poissons Ratio (z) = 0.20891 0.20891
#
# Static dielectric constant tensor:
#      x y z
#    x 1.885610 0.000000 0.000000 
#    y 0.000000 1.885610 0.000000 
#    z 0.000000 0.000000 1.830800 
# 
# From -- ./inp_files/1181.got.cif
#   From: 2010.05.17/outbox.cif.g08.bks.cpg/sg82_1_cif.got.tgz:1181.got - 2010.06.03 18:52:26.
