data_PCOD9542256
_publ_section_title
;
Structure prediction by ZEFSAII (Michael W. Deem and Ramdas Pophale) SiO2 
 PCOD9542256
Probable space group: I 41
;
_chemical_formula_sum "Si O2"
_cell_formula_units_Z 44
_cell_length_a 8.130442
_cell_length_b 8.130442
_cell_length_c 30.427577
_cell_angle_alpha 90.000000
_cell_angle_beta 90.000000
_cell_angle_gamma 90.000000
_cell_volume 2011.387201
_symmetry_space_group_name_H-M "I 41"
_symmetry_group_IT_number 80
_symmetry_cell_setting 'tetragonal'
loop_
_space_group_symop_operation_xyz
x,y,z
-y,1/2+x,1/4+z
-x,-y,z
y,1/2-x,1/4+z
1/2+x,1/2+y,1/2+z
1/2-y,x,3/4+z
1/2-x,1/2-y,1/2+z
1/2+y,-x,3/4+z
loop_
_atom_site_type_symbol
_atom_site_label
_atom_site_fract_x
_atom_site_fract_y
_atom_site_fract_z
Si Si1 0.500000 0.500000 0.503181
Si Si2 0.283788 0.277739 0.859165
Si Si3 0.802031 0.327600 0.470533
Si Si4 0.803928 0.966707 0.449157
Si Si5 0.000000 0.500000 0.545645
Si Si6 0.348375 0.374816 0.281645
Si Si7 0.500000 0.500000 0.648041
O O1 0.655962 0.457405 0.473730
O O2 0.535985 0.669322 0.529394
O O3 0.253268 0.387565 0.902541
O O4 0.411842 0.371504 0.827494
O O5 0.137102 0.231625 0.826215
O O6 0.365141 0.105458 0.873056
O O7 0.909411 0.366737 0.514180
O O8 0.914096 0.368144 0.429303
O O9 0.733585 0.146091 0.462043
O O10 0.743808 0.853639 0.489141
O O11 0.000000 0.000000 0.448964
O O12 0.500000 0.500000 0.280084
#
# Coordination Sequence:
#
# PCOD9542256 Si02
#       7
#     4   8   8   8   4   8   4
#     4  12  23  46  79 104 152 202 246 311 382 457
#     4  12  24  43  74 109 148 190 253 319 371 468
#     4  11  23  43  77 103 146 202 241 312 382 451
#     4  12  24  48  74 110 151 192 255 314 379 462
#     4  11  22  40  73 114 140 196 258 299 383 452
#     4  12  27  50  74 109 151 199 255 313 388 464
#     4  11  23  44  70 106 142 196 254 302 387 449
#
# _framework density 21.875451999999999
#
# number of rings (size 3 to 8) (size 9 to 14) (size 15 to 20)
#    0.000    0.364    6.364    2.727    0.000    0.000 
#    6.545    2.727    0.000    0.000    0.000    0.000 
#    0.000    0.000    0.000    0.000    0.000    0.000 
#
# Total GULP energy -122923.613069 kJ/mol
# GULP energy per Si atom -5587.436958 kJ/mol
# Density = 2.182566 g / cm^3
# Si number density = 21.875452 Si / 1000 Ang^3
#
#
#
# Elastic Constant Matrix: (Units=GPa)
#
#
# Indices 1 2 3 4 5 6 
#
# 1 90.4178 15.5464 42.5892 0.0000 0.0000 -4.9344
# 2 15.5464 90.4178 42.5892 0.0000 0.0000 4.9344
# 3 42.5892 42.5892 176.2993 0.0000 0.0000 0.0000
# 4 0.0000 0.0000 0.0000 9.9570 0.0000 0.0000
# 5 0.0000 0.0000 0.0000 0.0000 9.9570 0.0000
# 6 -4.9344 4.9344 0.0000 0.0000 0.0000 37.6927
#
#
#
# Elastic Compliance Matrix: (Units=1/GPa)
#
#
# Indices 1 2 3 4 5 6 
#
# 1 0.012651 -0.000940 -0.002829 0.000000 0.000000 0.001779
# 2 -0.000940 0.012651 -0.002829 0.000000 0.000000 -0.001779
# 3 -0.002829 -0.002829 0.007039 0.000000 0.000000 0.000000
# 4 0.000000 0.000000 0.000000 0.100432 0.000000 0.000000
# 5 0.000000 0.000000 0.000000 0.000000 0.100432 0.000000
# 6 0.001779 -0.001779 0.000000 0.000000 0.000000 0.026996
#
#
# Mechanical properties :
#
#
# Convention : Reuss Voigt Hill
#
# Bulk Modulus (GPa) = 52.23255 62.06493 57.14874
# Shear Modulus (GPa) = 17.87128 28.61536 23.24332
#
# Velocity S-wave (km/s) = 2.86134 3.62070 3.26318
# Velocity P-wave (km/s) = 5.90300 6.77590 6.35446
#
# Compressibility (1/GPa) = 0.01914515
#
# Stress axis : x y z
#
# Youngs Moduli (GPa) = 79.04490 79.04489 142.06436
#
# Poissons Ratio (x) = 0.07428 0.40192
# Poissons Ratio (y) = 0.07428 0.40192
# Poissons Ratio (z) = 0.22363 0.22363
#
# Static dielectric constant tensor:
#      x y z
#    x 1.843310 0.000000 0.000000 
#    y 0.000000 1.843310 0.000000 
#    z 0.000000 0.000000 1.804420 
# 
# From -- ./inp_files/2590.got.cif
#   From: 2010.05.17/outbox.cif.g08.bks.cpg/sg80_cif.got.tgz:2590.got - 2010.06.03 18:49:13.
