data_PCOD9542718
_publ_section_title
;
Structure prediction by ZEFSAII (Michael W. Deem and Ramdas Pophale) SiO2 
 PCOD9542718
Probable space group: I -4 
;
_chemical_formula_sum "Si O2"
_cell_formula_units_Z 44
_cell_length_a 9.137810
_cell_length_b 9.137810
_cell_length_c 29.000293
_cell_angle_alpha 90.000000
_cell_angle_beta 90.000000
_cell_angle_gamma 90.000000
_cell_volume 2421.512042
_symmetry_space_group_name_H-M "I -4 "
_symmetry_group_IT_number 82
_symmetry_cell_setting 'tetragonal'
loop_
_space_group_symop_operation_xyz
x,y,z
y,-x,-z
-x,-y,z
-y,x,-z
1/2+x,1/2+y,1/2+z
1/2+y,1/2-x,1/2-z
1/2-x,1/2-y,1/2+z
1/2-y,1/2+x,1/2-z
loop_
_atom_site_type_symbol
_atom_site_label
_atom_site_fract_x
_atom_site_fract_y
_atom_site_fract_z
Si Si1 0.617529 0.211097 0.759668
Si Si2 0.500000 0.000000 0.929203
Si Si3 0.606460 0.362523 0.669921
Si Si4 0.684775 0.169345 0.862248
Si Si5 0.478368 0.832641 0.393359
Si Si6 0.755032 0.985823 0.002649
O O1 0.444705 0.190951 0.751548
O O2 0.669179 0.320047 0.719817
O O3 0.643110 0.241097 0.813312
O O4 0.446736 0.864118 0.897378
O O5 0.637469 0.964608 0.962254
O O6 0.500000 0.500000 0.676631
O O7 0.496213 0.240164 0.649969
O O8 0.729382 0.408050 0.633790
O O9 0.818471 0.263000 0.882759
O O10 0.502410 0.820363 0.447912
O O11 0.500000 0.000000 0.378672
O O12 0.869541 0.852236 0.005930
#
# Coordination Sequence:
#
# PCOD9542718 Si02
#       6
#     8   4   8   8   8   8
#     4   9  17  34  58  83 110 143 197 253 295 348
#     4  12  20  36  67  90 118 155 208 260 304 354
#     4   9  19  36  59  84 116 154 203 246 290 360
#     4  10  20  36  61  89 114 155 204 248 302 362
#     4  11  22  39  54  86 125 157 199 248 304 371
#     4  11  23  38  63  89 117 156 205 251 303 365
#
# _framework density 18.170463000000002
#
# number of rings (size 3 to 8) (size 9 to 14) (size 15 to 20)
#    0.000    1.818    2.727    3.273    5.091    0.000 
#    9.818    0.000    0.000    4.909    0.000    0.000 
#    0.000    0.000    0.000    0.000    0.000    0.000 
#
# Total GULP energy -122697.052899 kJ/mol
# GULP energy per Si atom -5577.138768 kJ/mol
# Density = 1.812911 g / cm^3
# Si number density = 18.170463 Si / 1000 Ang^3
#
#
#
# Elastic Constant Matrix: (Units=GPa)
#
#
# Indices 1 2 3 4 5 6 
#
# 1 69.6936 25.2509 38.2248 0.0000 0.0000 -3.0563
# 2 25.2509 69.6936 38.2248 0.0000 0.0000 3.0563
# 3 38.2248 38.2248 137.1318 0.0000 0.0000 0.0000
# 4 0.0000 0.0000 0.0000 30.8054 0.0000 0.0000
# 5 0.0000 0.0000 0.0000 0.0000 30.8054 0.0000
# 6 -3.0563 3.0563 0.0000 0.0000 0.0000 12.9779
#
#
#
# Elastic Compliance Matrix: (Units=1/GPa)
#
#
# Indices 1 2 3 4 5 6 
#
# 1 0.018417 -0.004837 -0.003786 0.000000 0.000000 0.005476
# 2 -0.004837 0.018417 -0.003786 0.000000 0.000000 -0.005476
# 3 -0.003786 -0.003786 0.009403 0.000000 0.000000 0.000000
# 4 0.000000 0.000000 0.000000 0.032462 0.000000 0.000000
# 5 0.000000 0.000000 0.000000 0.000000 0.032462 0.000000
# 6 0.005476 -0.005476 0.000000 0.000000 0.000000 0.079634
#
#
# Mechanical properties :
#
#
# Convention : Reuss Voigt Hill
#
# Bulk Modulus (GPa) = 46.68158 53.32445 50.00301
# Shear Modulus (GPa) = 22.44661 26.57230 24.50945
#
# Velocity S-wave (km/s) = 3.51855 3.82827 3.67667
# Velocity P-wave (km/s) = 6.50028 6.99652 6.75296
#
# Compressibility (1/GPa) = 0.02142173
#
# Stress axis : x y z
#
# Youngs Moduli (GPa) = 54.29666 54.29666 106.35304
#
# Poissons Ratio (x) = 0.26262 0.40260
# Poissons Ratio (y) = 0.26262 0.40260
# Poissons Ratio (z) = 0.20554 0.20554
#
# Static dielectric constant tensor:
#      x y z
#    x 1.624310 0.000000 0.000000 
#    y 0.000000 1.624310 0.000000 
#    z 0.000000 0.000000 1.662230 
# 
# From -- ./inp_files/3930.got.cif
#   From: 2010.05.17/outbox.cif.g08.bks.cpg/sg82_2_cif.got.tgz:3930.got - 2010.06.03 18:52:26.
