data_PCOD9542823
_publ_section_title
;
Structure prediction by ZEFSAII (Michael W. Deem and Ramdas Pophale) SiO2 
 PCOD9542823
Probable space group: I -4 
;
_chemical_formula_sum "Si O2"
_cell_formula_units_Z 56
_cell_length_a 15.017574
_cell_length_b 15.017574
_cell_length_c 12.409711
_cell_angle_alpha 90.000000
_cell_angle_beta 90.000000
_cell_angle_gamma 90.000000
_cell_volume 2798.731456
_symmetry_space_group_name_H-M "I -4 "
_symmetry_group_IT_number 82
_symmetry_cell_setting 'tetragonal'
loop_
_space_group_symop_operation_xyz
x,y,z
y,-x,-z
-x,-y,z
-y,x,-z
1/2+x,1/2+y,1/2+z
1/2+y,1/2-x,1/2-z
1/2-x,1/2-y,1/2+z
1/2-y,1/2+x,1/2-z
loop_
_atom_site_type_symbol
_atom_site_label
_atom_site_fract_x
_atom_site_fract_y
_atom_site_fract_z
Si Si1 0.393923 0.906927 0.710386
Si Si2 0.668747 0.845363 0.435750
Si Si3 0.907604 0.169435 0.716028
Si Si4 0.592526 0.762666 0.226891
Si Si5 0.711329 0.757345 0.656538
Si Si6 0.969680 0.871337 0.450090
Si Si7 0.662731 0.038613 0.488895
O O1 0.490953 0.879563 0.752394
O O2 0.318603 0.847674 0.765181
O O3 0.387080 0.906442 0.580707
O O4 0.759828 0.871127 0.373099
O O5 0.606400 0.804964 0.343992
O O6 0.691772 0.781218 0.533772
O O7 0.630844 0.936679 0.485342
O O8 0.845026 0.188355 0.817394
O O9 0.891850 0.072425 0.665971
O O10 0.010149 0.195018 0.730196
O O11 0.686715 0.723707 0.188610
O O12 0.572123 0.835967 0.133911
O O13 0.963150 0.767279 0.475716
O O14 0.068395 0.909176 0.469314
#
# Coordination Sequence:
#
# PCOD9542823 Si02
#       7
#     8   8   8   8   8   8   8
#     4  11  24  43  64  99 130 172 226 281 343 414
#     4  10  21  40  62  94 129 175 221 274 332 407
#     4  10  21  40  63 101 128 173 227 271 350 411
#     4  10  23  39  67  96 135 174 230 278 335 427
#     4  11  22  40  69  94 135 177 219 283 348 405
#     4  11  20  31  63  98 130 161 213 295 335 396
#     4  11  21  41  67  94 133 173 229 279 346 408
#
# _framework density 20.009063000000001
#
# number of rings (size 3 to 8) (size 9 to 14) (size 15 to 20)
#    0.000    1.429    5.714    0.857    2.000    0.000 
#    7.714    0.000    0.000    3.857    0.000    0.000 
#    0.000    0.000    0.000    0.000    0.000    0.000 
#
# Total GULP energy -156434.653659 kJ/mol
# GULP energy per Si atom -5586.951916 kJ/mol
# Density = 1.996352 g / cm^3
# Si number density = 20.009063 Si / 1000 Ang^3
#
#
#
# Elastic Constant Matrix: (Units=GPa)
#
#
# Indices 1 2 3 4 5 6 
#
# 1 71.0057 27.9473 42.6911 0.0000 0.0000 -4.1503
# 2 27.9473 71.0057 42.6911 0.0000 0.0000 4.1503
# 3 42.6911 42.6911 128.6812 0.0000 0.0000 0.0000
# 4 0.0000 0.0000 0.0000 28.7163 0.0000 0.0000
# 5 0.0000 0.0000 0.0000 0.0000 28.7163 0.0000
# 6 -4.1503 4.1503 0.0000 0.0000 0.0000 15.6535
#
#
#
# Elastic Compliance Matrix: (Units=1/GPa)
#
#
# Indices 1 2 3 4 5 6 
#
# 1 0.019317 -0.005158 -0.004697 0.000000 0.000000 0.006489
# 2 -0.005158 0.019317 -0.004697 0.000000 0.000000 -0.006489
# 3 -0.004697 -0.004697 0.010888 0.000000 0.000000 0.000000
# 4 0.000000 0.000000 0.000000 0.034823 0.000000 0.000000
# 5 0.000000 0.000000 0.000000 0.000000 0.034823 0.000000
# 6 0.006489 -0.006489 0.000000 0.000000 0.000000 0.067325
#
#
# Mechanical properties :
#
#
# Convention : Reuss Voigt Hill
#
# Bulk Modulus (GPa) = 48.98023 55.26128 52.12076
# Shear Modulus (GPa) = 22.48151 25.10808 23.79480
#
# Velocity S-wave (km/s) = 3.35560 3.54621 3.45222
# Velocity P-wave (km/s) = 6.28853 6.66675 6.48040
#
# Compressibility (1/GPa) = 0.02041640
#
# Stress axis : x y z
#
# Youngs Moduli (GPa) = 51.76758 51.76758 91.84491
#
# Poissons Ratio (x) = 0.26703 0.43143
# Poissons Ratio (y) = 0.26703 0.43143
# Poissons Ratio (z) = 0.24317 0.24317
#
# Static dielectric constant tensor:
#      x y z
#    x 1.721250 0.000000 0.000000 
#    y 0.000000 1.721250 0.000000 
#    z 0.000000 0.000000 1.727600 
# 
# From -- ./inp_files/1862.got.cif
#   From: 2010.05.17/outbox.cif.g08.bks.cpg/sg82_1_cif.got.tgz:1862.got - 2010.06.03 18:52:26.
