data_PCOD9542759
_publ_section_title
;
Structure prediction by ZEFSAII (Michael W. Deem and Ramdas Pophale) SiO2 
 PCOD9542759
Probable space group: I -4 
;
_chemical_formula_sum "Si O2"
_cell_formula_units_Z 44
_cell_length_a 14.181682
_cell_length_b 14.181682
_cell_length_c 11.298999
_cell_angle_alpha 90.000000
_cell_angle_beta 90.000000
_cell_angle_gamma 90.000000
_cell_volume 2272.455858
_symmetry_space_group_name_H-M "I -4 "
_symmetry_group_IT_number 82
_symmetry_cell_setting 'tetragonal'
loop_
_space_group_symop_operation_xyz
x,y,z
y,-x,-z
-x,-y,z
-y,x,-z
1/2+x,1/2+y,1/2+z
1/2+y,1/2-x,1/2-z
1/2-x,1/2-y,1/2+z
1/2-y,1/2+x,1/2-z
loop_
_atom_site_type_symbol
_atom_site_label
_atom_site_fract_x
_atom_site_fract_y
_atom_site_fract_z
Si Si1 0.982934 0.693508 0.676687
Si Si2 0.000000 0.500000 0.948815
Si Si3 0.360452 0.770568 0.357245
Si Si4 0.650671 0.486870 0.016897
Si Si5 0.251986 0.902800 0.746300
Si Si6 0.174574 0.427124 0.397501
O O1 0.017519 0.590989 0.632491
O O2 0.869437 0.689227 0.679039
O O3 0.010205 0.766974 0.574471
O O4 0.036797 0.722603 0.795256
O O5 0.026674 0.587001 0.032280
O O6 0.303696 0.682066 0.308232
O O7 0.372767 0.769517 0.498621
O O8 0.694216 0.441541 0.133908
O O9 0.579559 0.411028 0.959064
O O10 0.351744 0.864454 0.696638
O O11 0.269450 0.989953 0.833779
#
# Coordination Sequence:
#
# PCOD9542759 Si02
#       6
#     8   4   8   8   8   8
#     4  11  22  41  67  98 134 174 221 275 329 390
#     4  10  20  40  64  98 134 165 217 272 324 384
#     4  11  24  42  66  98 131 174 221 275 334 392
#     4  11  24  45  69  95 126 176 232 271 322 398
#     4  12  25  44  68  95 134 173 221 275 334 401
#     4  11  25  40  65 101 130 174 219 271 339 391
#
# _framework density 19.362313
#
# number of rings (size 3 to 8) (size 9 to 14) (size 15 to 20)
#    0.000    0.909    5.455    3.273    2.545    3.636 
#    0.000    0.000    0.000    0.000    0.000    0.000 
#    0.000    0.000    0.000    0.000    0.000    0.000 
#
# Total GULP energy -123013.030269 kJ/mol
# GULP energy per Si atom -5591.501376 kJ/mol
# Density = 1.931824 g / cm^3
# Si number density = 19.362313 Si / 1000 Ang^3
#
#
#
# Elastic Constant Matrix: (Units=GPa)
#
#
# Indices 1 2 3 4 5 6 
#
# 1 85.2005 35.6542 23.3795 0.0000 0.0000 -8.1585
# 2 35.6542 85.2005 23.3795 0.0000 0.0000 8.1585
# 3 23.3795 23.3795 62.3962 0.0000 0.0000 0.0000
# 4 0.0000 0.0000 0.0000 26.6698 0.0000 0.0000
# 5 0.0000 0.0000 0.0000 0.0000 26.6698 0.0000
# 6 -8.1585 8.1585 0.0000 0.0000 0.0000 31.9946
#
#
#
# Elastic Compliance Matrix: (Units=1/GPa)
#
#
# Indices 1 2 3 4 5 6 
#
# 1 0.015855 -0.006178 -0.003626 0.000000 0.000000 0.005618
# 2 -0.006178 0.015855 -0.003626 0.000000 0.000000 -0.005618
# 3 -0.003626 -0.003626 0.018744 0.000000 0.000000 0.000000
# 4 0.000000 0.000000 0.000000 0.037496 0.000000 0.000000
# 5 0.000000 0.000000 0.000000 0.000000 0.037496 0.000000
# 6 0.005618 -0.005618 0.000000 0.000000 0.000000 0.034121
#
#
# Mechanical properties :
#
#
# Convention : Reuss Voigt Hill
#
# Bulk Modulus (GPa) = 42.38289 44.18039 43.28164
# Shear Modulus (GPa) = 25.73449 27.09241 26.41345
#
# Velocity S-wave (km/s) = 3.64964 3.74469 3.69747
# Velocity P-wave (km/s) = 6.30053 6.44703 6.37420
#
# Compressibility (1/GPa) = 0.02359443
#
# Stress axis : x y z
#
# Youngs Moduli (GPa) = 63.07001 63.07001 53.35058
#
# Poissons Ratio (x) = 0.38965 0.19345
# Poissons Ratio (y) = 0.38965 0.19345
# Poissons Ratio (z) = 0.22869 0.22869
#
# Static dielectric constant tensor:
#      x y z
#    x 1.673140 0.000000 0.000000 
#    y 0.000000 1.673140 0.000000 
#    z 0.000000 0.000000 1.671800 
# 
# From -- ./inp_files/1683.got.cif
#   From: 2010.05.17/outbox.cif.g08.bks.cpg/sg82_1_cif.got.tgz:1683.got - 2010.06.03 18:52:26.
