data_PCOD9542348
_publ_section_title
;
Structure prediction by ZEFSAII (Michael W. Deem and Ramdas Pophale) SiO2 
 PCOD9542348
Probable space group: P -4
;
_chemical_formula_sum "Si O2"
_cell_formula_units_Z 24
_cell_length_a 8.967740
_cell_length_b 8.967740
_cell_length_c 14.879060
_cell_angle_alpha 90.000000
_cell_angle_beta 90.000000
_cell_angle_gamma 90.000000
_cell_volume 1196.579372
_symmetry_space_group_name_H-M "P -4"
_symmetry_group_IT_number 81
_symmetry_cell_setting 'tetragonal'
loop_
_space_group_symop_operation_xyz
x,y,z
y,-x,-z
-x,-y,z
-y,x,-z
loop_
_atom_site_type_symbol
_atom_site_label
_atom_site_fract_x
_atom_site_fract_y
_atom_site_fract_z
Si Si1 0.877957 0.783286 0.219848
Si Si2 0.657362 0.053458 0.169880
Si Si3 0.168216 0.446570 0.357940
Si Si4 0.095332 0.229339 0.517320
Si Si5 0.759725 0.055287 0.981335
Si Si6 0.206434 0.766092 0.304635
O O1 0.787794 0.934448 0.196980
O O2 0.784149 0.670707 0.281794
O O3 0.032510 0.799195 0.277119
O O4 0.916804 0.716546 0.121656
O O5 0.500000 0.000000 0.206047
O O6 0.646535 0.069272 0.062808
O O7 0.704723 0.208202 0.213790
O O8 0.155158 0.359059 0.452107
O O9 0.244315 0.606762 0.349361
O O10 0.000000 0.500000 0.335183
O O11 0.113759 0.259683 0.622260
O O12 0.923567 0.189522 0.496932
O O13 0.892110 0.168097 0.009238
#
# Coordination Sequence:
#
# PCOD9542348 Si02
#       6
#     4   4   4   4   4   4
#     4  10  19  39  64  87 120 159 204 256 302 367
#     4  11  23  37  58  96 127 159 204 254 311 370
#     4  10  21  39  60  90 116 156 207 244 308 370
#     4  11  21  35  61  89 116 153 203 261 305 362
#     4   9  17  33  60  89 119 151 198 256 305 353
#     4  11  22  39  63  88 122 158 202 256 309 370
#
# _framework density 20.057175999999998
#
# number of rings (size 3 to 8) (size 9 to 14) (size 15 to 20)
#    0.000    1.667    5.000    1.500    2.333    2.667 
#    3.000    0.833    0.000    0.000    0.000    0.000 
#    0.000    0.000    0.000    0.000    0.000    0.000 
#
# Total GULP energy -133678.441492 kJ/mol
# GULP energy per Si atom -5569.935062 kJ/mol
# Density = 2.001153 g / cm^3
# Si number density = 20.057176 Si / 1000 Ang^3
#
#
#
# Elastic Constant Matrix: (Units=GPa)
#
#
# Indices 1 2 3 4 5 6 
#
# 1 43.7258 11.1295 18.5844 0.0000 0.0000 1.1491
# 2 11.1295 43.7258 18.5844 0.0000 0.0000 -1.1491
# 3 18.5844 18.5844 100.7347 0.0000 0.0000 0.0000
# 4 0.0000 0.0000 0.0000 13.6685 0.0000 0.0000
# 5 0.0000 0.0000 0.0000 0.0000 13.6685 0.0000
# 6 1.1491 -1.1491 0.0000 0.0000 0.0000 8.3902
#
#
#
# Elastic Compliance Matrix: (Units=1/GPa)
#
#
# Indices 1 2 3 4 5 6 
#
# 1 0.025906 -0.005072 -0.003844 0.000000 0.000000 -0.004243
# 2 -0.005072 0.025906 -0.003844 0.000000 0.000000 0.004243
# 3 -0.003844 -0.003844 0.011345 0.000000 0.000000 0.000000
# 4 0.000000 0.000000 0.000000 0.073161 0.000000 0.000000
# 5 0.000000 0.000000 0.000000 0.000000 0.073161 0.000000
# 6 -0.004243 0.004243 0.000000 0.000000 0.000000 0.120349
#
#
# Mechanical properties :
#
#
# Convention : Reuss Voigt Hill
#
# Bulk Modulus (GPa) = 26.56823 31.64256 29.10540
# Shear Modulus (GPa) = 13.59094 16.47130 15.03112
#
# Velocity S-wave (km/s) = 2.60592 2.86880 2.74051
# Velocity P-wave (km/s) = 4.72540 5.17530 4.95546
#
# Compressibility (1/GPa) = 0.03763894
#
# Stress axis : x y z
#
# Youngs Moduli (GPa) = 38.60137 38.60137 88.14228
#
# Poissons Ratio (x) = 0.19577 0.33879
# Poissons Ratio (y) = 0.19577 0.33879
# Poissons Ratio (z) = 0.14837 0.14837
#
# Static dielectric constant tensor:
#      x y z
#    x 1.756520 0.000000 0.000000 
#    y 0.000000 1.756520 0.000000 
#    z 0.000000 0.000000 1.732540 
# 
# From -- ./inp_files/1624.got.cif
#   From: 2010.05.17/outbox.cif.g08.bks.cpg/sg81_cif.got.tgz:1624.got - 2010.06.03 18:51:07.
