data_PCOD9542258
_publ_section_title
;
Structure prediction by ZEFSAII (Michael W. Deem and Ramdas Pophale) SiO2 
 PCOD9542258
Probable space group: I 41
;
_chemical_formula_sum "Si O2"
_cell_formula_units_Z 52
_cell_length_a 21.180561
_cell_length_b 21.180561
_cell_length_c 5.498183
_cell_angle_alpha 90.000000
_cell_angle_beta 90.000000
_cell_angle_gamma 90.000000
_cell_volume 2466.573768
_symmetry_space_group_name_H-M "I 41"
_symmetry_group_IT_number 80
_symmetry_cell_setting 'tetragonal'
loop_
_space_group_symop_operation_xyz
x,y,z
-y,1/2+x,1/4+z
-x,-y,z
y,1/2-x,1/4+z
1/2+x,1/2+y,1/2+z
1/2-y,x,3/4+z
1/2-x,1/2-y,1/2+z
1/2+y,-x,3/4+z
loop_
_atom_site_type_symbol
_atom_site_label
_atom_site_fract_x
_atom_site_fract_y
_atom_site_fract_z
Si Si1 0.100859 0.975505 0.378330
Si Si2 0.511525 0.244569 0.120859
Si Si3 0.500000 0.000000 0.757376
Si Si4 0.597610 0.880645 0.411626
Si Si5 0.566862 0.759870 0.622429
Si Si6 0.380159 0.978007 0.416005
Si Si7 0.677820 0.687846 0.780440
O O1 0.174141 0.958898 0.334438
O O2 0.062207 0.012229 0.170423
O O3 0.056929 0.916510 0.447833
O O4 0.101372 0.025528 0.599271
O O5 0.473808 0.239709 0.376424
O O6 0.550462 0.309461 0.167876
O O7 0.472324 0.252894 0.868187
O O8 0.435134 0.979973 0.621214
O O9 0.595675 0.830729 0.630305
O O10 0.628894 0.842642 0.190313
O O11 0.632914 0.947023 0.407899
O O12 0.622915 0.709438 0.595842
O O13 0.748576 0.679128 0.692690
#
# Coordination Sequence:
#
# PCOD9542258 Si02
#       7
#     8   8   4   8   8   8   8
#     4  11  24  45  65 100 138 176 227 290 351 417
#     4  11  27  44  69 101 136 180 226 286 358 422
#     4  12  22  40  74 104 138 182 228 294 350 418
#     4  11  22  42  61  92 134 178 233 283 340 395
#     4  11  25  44  64  93 138 185 230 285 335 405
#     4  12  24  42  67 105 132 178 229 289 352 414
#     4  12  25  39  59  89 133 192 238 279 326 396
#
# _framework density 21.081875
#
# number of rings (size 3 to 8) (size 9 to 14) (size 15 to 20)
#    0.000    0.615    4.615    3.692    8.615    0.000 
#    0.000    0.000    0.000    0.000    4.000    0.000 
#    0.000    0.000    0.000    0.000    0.000    0.000 
#
# Total GULP energy -144942.751838 kJ/mol
# GULP energy per Si atom -5574.721225 kJ/mol
# Density = 2.103389 g / cm^3
# Si number density = 21.081875 Si / 1000 Ang^3
#
#
#
# Elastic Constant Matrix: (Units=GPa)
#
#
# Indices 1 2 3 4 5 6 
#
# 1 102.6843 14.7881 30.9884 0.0000 0.0000 -6.6671
# 2 14.7881 102.6843 30.9884 0.0000 0.0000 6.6671
# 3 30.9884 30.9884 83.3887 0.0000 0.0000 0.0000
# 4 0.0000 0.0000 0.0000 27.5615 0.0000 0.0000
# 5 0.0000 0.0000 0.0000 0.0000 27.5615 0.0000
# 6 -6.6671 6.6671 0.0000 0.0000 0.0000 28.1874
#
#
#
# Elastic Compliance Matrix: (Units=1/GPa)
#
#
# Indices 1 2 3 4 5 6 
#
# 1 0.011195 -0.000606 -0.003935 0.000000 0.000000 0.002791
# 2 -0.000606 0.011195 -0.003935 0.000000 0.000000 -0.002791
# 3 -0.003935 -0.003935 0.014917 0.000000 0.000000 0.000000
# 4 0.000000 0.000000 0.000000 0.036282 0.000000 0.000000
# 5 0.000000 0.000000 0.000000 0.000000 0.036282 0.000000
# 6 0.002791 -0.002791 0.000000 0.000000 0.000000 0.036797
#
#
# Mechanical properties :
#
#
# Convention : Reuss Voigt Hill
#
# Bulk Modulus (GPa) = 49.12969 49.14297 49.13633
# Shear Modulus (GPa) = 29.34204 30.79492 30.06848
#
# Velocity S-wave (km/s) = 3.73475 3.82610 3.78070
# Velocity P-wave (km/s) = 6.47708 6.54827 6.51277
#
# Compressibility (1/GPa) = 0.02035429
#
# Stress axis : x y z
#
# Youngs Moduli (GPa) = 89.32911 89.32911 67.03964
#
# Poissons Ratio (x) = 0.05413 0.26379
# Poissons Ratio (y) = 0.05413 0.26379
# Poissons Ratio (z) = 0.35150 0.35150
#
# Static dielectric constant tensor:
#      x y z
#    x 1.803980 0.000000 0.000000 
#    y 0.000000 1.803980 0.000000 
#    z 0.000000 0.000000 1.842230 
# 
# From -- ./inp_files/331.got.cif
#   From: 2010.05.17/outbox.cif.g08.bks.cpg/sg80_cif.got.tgz:331.got - 2010.06.03 18:49:13.
