data_PCOD9542529
_publ_section_title
;
Structure prediction by ZEFSAII (Michael W. Deem and Ramdas Pophale) SiO2 
 PCOD9542529
Probable space group: P -4
;
_chemical_formula_sum "Si O2"
_cell_formula_units_Z 14
_cell_length_a 8.808609
_cell_length_b 8.808609
_cell_length_c 7.884492
_cell_angle_alpha 90.000000
_cell_angle_beta 90.000000
_cell_angle_gamma 90.000000
_cell_volume 611.770290
_symmetry_space_group_name_H-M "P -4"
_symmetry_group_IT_number 81
_symmetry_cell_setting 'tetragonal'
loop_
_space_group_symop_operation_xyz
x,y,z
y,-x,-z
-x,-y,z
-y,x,-z
loop_
_atom_site_type_symbol
_atom_site_label
_atom_site_fract_x
_atom_site_fract_y
_atom_site_fract_z
Si Si1 0.500000 0.000000 0.815059
Si Si2 0.255180 0.440029 0.469472
Si Si3 0.768871 0.936663 0.053422
Si Si4 0.793103 0.036668 0.412626
O O1 0.543976 0.145234 0.695714
O O2 0.619727 0.927364 0.944881
O O3 0.326361 0.599009 0.533865
O O4 0.133994 0.358783 0.590999
O O5 0.777839 0.923836 0.255293
O O6 0.826701 0.107695 0.025328
O O7 0.930624 0.160584 0.425719
#
# Coordination Sequence:
#
# PCOD9542529 Si02
#       4
#     2   4   4   4
#     4  12  26  44  68 100 138 176 222 276 340 396
#     4  11  24  43  66  95 133 179 228 275 326 401
#     4  11  23  41  64  97 135 171 218 282 334 386
#     4  11  22  41  70  99 129 176 227 274 332 405
#
# _framework density 22.884405000000001
#
# number of rings (size 3 to 8) (size 9 to 14) (size 15 to 20)
#    0.000    0.857    0.000   10.286    0.000    5.714 
#    0.000    0.000    0.000    3.429    0.000    0.000 
#    0.000    0.000    0.000    0.000    0.000    0.000 
#
# Total GULP energy -78050.557235 kJ/mol
# GULP energy per Si atom -5575.039802 kJ/mol
# Density = 2.283232 g / cm^3
# Si number density = 22.884405 Si / 1000 Ang^3
#
#
#
# Elastic Constant Matrix: (Units=GPa)
#
#
# Indices 1 2 3 4 5 6 
#
# 1 82.4888 24.4044 34.4396 0.0000 0.0000 -22.9505
# 2 24.4044 82.4888 34.4396 0.0000 0.0000 22.9505
# 3 34.4396 34.4396 97.4200 0.0000 0.0000 0.0000
# 4 0.0000 0.0000 0.0000 29.7942 0.0000 0.0000
# 5 0.0000 0.0000 0.0000 0.0000 29.7942 0.0000
# 6 -22.9505 22.9505 0.0000 0.0000 0.0000 88.9691
#
#
#
# Elastic Compliance Matrix: (Units=1/GPa)
#
#
# Indices 1 2 3 4 5 6 
#
# 1 0.016870 -0.004755 -0.004283 0.000000 0.000000 0.005578
# 2 -0.004755 0.016870 -0.004283 0.000000 0.000000 -0.005578
# 3 -0.004283 -0.004283 0.013293 0.000000 0.000000 0.000000
# 4 0.000000 0.000000 0.000000 0.033564 0.000000 0.000000
# 5 0.000000 0.000000 0.000000 0.000000 0.033564 0.000000
# 6 0.005578 -0.005578 0.000000 0.000000 0.000000 0.014118
#
#
# Mechanical properties :
#
#
# Convention : Reuss Voigt Hill
#
# Bulk Modulus (GPa) = 49.04025 49.88499 49.46262
# Shear Modulus (GPa) = 30.91854 40.98577 35.95216
#
# Velocity S-wave (km/s) = 3.67968 4.23660 3.96793
# Velocity P-wave (km/s) = 6.28725 6.76592 6.53097
#
# Compressibility (1/GPa) = 0.02039141
#
# Stress axis : x y z
#
# Youngs Moduli (GPa) = 59.27794 59.27794 75.22799
#
# Poissons Ratio (x) = 0.28186 0.32219
# Poissons Ratio (y) = 0.28186 0.32219
# Poissons Ratio (z) = 0.25388 0.25388
#
# Static dielectric constant tensor:
#      x y z
#    x 1.969150 0.000000 0.000000 
#    y 0.000000 1.969150 0.000000 
#    z 0.000000 0.000000 1.792530 
# 
# From -- ./inp_files/465.got.cif
#   From: 2010.05.17/outbox.cif.g08.bks.cpg/sg81_cif.got.tgz:465.got - 2010.06.03 18:51:07.
