data_PCOD9542236
_publ_section_title
;
Structure prediction by ZEFSAII (Michael W. Deem and Ramdas Pophale) SiO2 
 PCOD9542236
Probable space group: I 41
;
_chemical_formula_sum "Si O2"
_cell_formula_units_Z 40
_cell_length_a 11.246369
_cell_length_b 11.246369
_cell_length_c 12.234811
_cell_angle_alpha 90.000000
_cell_angle_beta 90.000000
_cell_angle_gamma 90.000000
_cell_volume 1547.468875
_symmetry_space_group_name_H-M "I 41"
_symmetry_group_IT_number 80
_symmetry_cell_setting 'tetragonal'
loop_
_space_group_symop_operation_xyz
x,y,z
-y,1/2+x,1/4+z
-x,-y,z
y,1/2-x,1/4+z
1/2+x,1/2+y,1/2+z
1/2-y,x,3/4+z
1/2-x,1/2-y,1/2+z
1/2+y,-x,3/4+z
loop_
_atom_site_type_symbol
_atom_site_label
_atom_site_fract_x
_atom_site_fract_y
_atom_site_fract_z
Si Si1 0.172297 0.933451 0.834020
Si Si2 0.292841 0.286154 0.352630
Si Si3 0.051557 0.711241 0.853499
Si Si4 0.934967 0.376005 0.408464
Si Si5 0.385385 0.926716 0.154770
O O1 0.080284 0.846470 0.891609
O O2 0.134255 0.919062 0.708291
O O3 0.300480 0.880927 0.865938
O O4 0.181349 0.072824 0.852248
O O5 0.257533 0.268394 0.482759
O O6 0.411968 0.209834 0.337340
O O7 0.126697 0.670335 0.749915
O O8 0.985131 0.244181 0.381117
O O9 0.929947 0.378169 0.539447
O O10 0.000000 0.500000 0.374793
O O11 0.500000 0.000000 0.195210
#
# Coordination Sequence:
#
# PCOD9542236 Si02
#       5
#     8   8   8   8   8
#     4  11  23  41  67  97 137 186 241 300 367 443
#     4  10  25  44  68 104 145 192 246 306 371 444
#     4  11  23  41  67  97 137 186 241 300 367 443
#     4  11  25  44  70 103 142 190 245 307 376 451
#     4  11  25  44  70 103 142 190 245 307 376 451
#
# _framework density 25.848663999999999
#
# number of rings (size 3 to 8) (size 9 to 14) (size 15 to 20)
#    0.000    1.200    0.000    5.400    0.000   17.600 
#    0.000    0.000    0.000    0.000    0.000    0.000 
#    0.000    0.000    0.000    0.000    0.000    0.000 
#
# Total GULP energy -111578.910886 kJ/mol
# GULP energy per Si atom -5578.945544 kJ/mol
# Density = 2.578983 g / cm^3
# Si number density = 25.848664 Si / 1000 Ang^3
#
#
#
# Elastic Constant Matrix: (Units=GPa)
#
#
# Indices 1 2 3 4 5 6 
#
# 1 93.7915 31.3916 15.8487 0.0000 0.0000 1.6461
# 2 31.3916 93.7915 15.8487 0.0000 0.0000 -1.6461
# 3 15.8487 15.8487 138.7251 0.0000 0.0000 0.0000
# 4 0.0000 0.0000 0.0000 26.3195 0.0000 0.0000
# 5 0.0000 0.0000 0.0000 0.0000 26.3195 0.0000
# 6 1.6461 -1.6461 0.0000 0.0000 0.0000 33.9802
#
#
#
# Elastic Compliance Matrix: (Units=1/GPa)
#
#
# Indices 1 2 3 4 5 6 
#
# 1 0.012147 -0.003920 -0.000940 0.000000 0.000000 -0.000778
# 2 -0.003920 0.012147 -0.000940 0.000000 0.000000 0.000778
# 3 -0.000940 -0.000940 0.007423 0.000000 0.000000 0.000000
# 4 0.000000 0.000000 0.000000 0.037995 0.000000 0.000000
# 5 0.000000 0.000000 0.000000 0.000000 0.037995 0.000000
# 6 -0.000778 0.000778 0.000000 0.000000 0.000000 0.029504
#
#
# Mechanical properties :
#
#
# Convention : Reuss Voigt Hill
#
# Bulk Modulus (GPa) = 49.71037 50.27622 49.99329
# Shear Modulus (GPa) = 32.15125 34.87180 33.51153
#
# Velocity S-wave (km/s) = 3.53062 3.67696 3.60453
# Velocity P-wave (km/s) = 5.99111 6.12529 6.05857
#
# Compressibility (1/GPa) = 0.02011653
#
# Stress axis : x y z
#
# Youngs Moduli (GPa) = 82.32822 82.32822 134.71209
#
# Poissons Ratio (x) = 0.32275 0.12660
# Poissons Ratio (y) = 0.32275 0.12660
# Poissons Ratio (z) = 0.07737 0.07737
#
# Static dielectric constant tensor:
#      x y z
#    x 2.125150 0.000000 0.000000 
#    y 0.000000 2.125150 0.000000 
#    z 0.000000 0.000000 2.036390 
# 
# From -- ./inp_files/1262.got.cif
#   From: 2010.05.17/outbox.cif.g08.bks.cpg/sg80_cif.got.tgz:1262.got - 2010.06.03 18:49:13.
