data_PCOD9542768
_publ_section_title
;
Structure prediction by ZEFSAII (Michael W. Deem and Ramdas Pophale) SiO2 
 PCOD9542768
Probable space group: I -4 
;
_chemical_formula_sum "Si O2"
_cell_formula_units_Z 56
_cell_length_a 10.494603
_cell_length_b 10.494603
_cell_length_c 21.266586
_cell_angle_alpha 90.000000
_cell_angle_beta 90.000000
_cell_angle_gamma 90.000000
_cell_volume 2342.231435
_symmetry_space_group_name_H-M "I -4 "
_symmetry_group_IT_number 82
_symmetry_cell_setting 'tetragonal'
loop_
_space_group_symop_operation_xyz
x,y,z
y,-x,-z
-x,-y,z
-y,x,-z
1/2+x,1/2+y,1/2+z
1/2+y,1/2-x,1/2-z
1/2-x,1/2-y,1/2+z
1/2-y,1/2+x,1/2-z
loop_
_atom_site_type_symbol
_atom_site_label
_atom_site_fract_x
_atom_site_fract_y
_atom_site_fract_z
Si Si1 0.358592 0.551062 0.096736
Si Si2 0.959200 0.848602 0.263476
Si Si3 0.557027 0.310525 0.394275
Si Si4 0.821403 0.559257 0.488400
Si Si5 0.675482 0.904098 0.224773
Si Si6 0.786864 0.564758 0.984480
Si Si7 0.296080 0.432556 0.360148
O O1 0.500000 0.500000 0.104962
O O2 0.299013 0.534981 0.165357
O O3 0.297561 0.456908 0.046143
O O4 0.377513 0.694385 0.068666
O O5 0.808636 0.847081 0.248192
O O6 0.049070 0.773188 0.214124
O O7 0.000000 0.000000 0.258348
O O8 0.577565 0.300523 0.468391
O O9 0.594274 0.190187 0.350801
O O10 0.410462 0.335701 0.375292
O O11 0.640009 0.430442 0.374190
O O12 0.924400 0.651187 0.521398
O O13 0.809174 0.586124 0.414331
O O14 0.856021 0.412610 0.500277
O O15 0.548300 0.835389 0.248390
#
# Coordination Sequence:
#
# PCOD9542768 Si02
#       7
#     8   8   8   8   8   8   8
#     4  11  23  43  69  89 127 178 220 265 319 400
#     4  10  21  43  63  89 125 170 218 261 320 400
#     4  10  21  38  61  93 126 170 207 260 335 391
#     4  11  26  38  66  95 131 167 210 287 332 392
#     4  10  22  36  58  95 134 160 209 270 330 392
#     4  11  25  44  59 100 128 164 228 265 331 396
#     4  10  20  42  60  93 130 161 219 258 325 406
#
# _framework density 23.908825
#
# number of rings (size 3 to 8) (size 9 to 14) (size 15 to 20)
#    0.000    1.571    4.286    0.857    8.000    2.286 
#    7.714    0.000    0.000    1.714    0.000    0.000 
#    0.000    0.000    0.000    0.000    0.000    0.000 
#
# Total GULP energy -156364.135876 kJ/mol
# GULP energy per Si atom -5584.433424 kJ/mol
# Density = 2.385441 g / cm^3
# Si number density = 23.908825 Si / 1000 Ang^3
#
#
#
# Elastic Constant Matrix: (Units=GPa)
#
#
# Indices 1 2 3 4 5 6 
#
# 1 57.9694 8.0086 27.9604 0.0000 0.0000 19.9010
# 2 8.0086 57.9694 27.9604 0.0000 0.0000 -19.9010
# 3 27.9604 27.9604 176.2533 0.0000 0.0000 0.0000
# 4 0.0000 0.0000 0.0000 9.5462 0.0000 0.0000
# 5 0.0000 0.0000 0.0000 0.0000 9.5462 0.0000
# 6 19.9010 -19.9010 0.0000 0.0000 0.0000 -0.3771
#
#
#
# Elastic Compliance Matrix: (Units=1/GPa)
#
#
# Indices 1 2 3 4 5 6 
#
# 1 0.008988 0.008523 -0.002778 0.000000 0.000000 0.024541
# 2 0.008523 0.008988 -0.002778 0.000000 0.000000 -0.024541
# 3 -0.002778 -0.002778 0.006555 0.000000 0.000000 0.000000
# 4 0.000000 0.000000 0.000000 0.104754 0.000000 0.000000
# 5 0.000000 0.000000 0.000000 0.000000 0.104754 0.000000
# 6 0.024541 -0.024541 0.000000 0.000000 0.000000 -0.061609
#
#
# Mechanical properties :
#
#
# Convention : Reuss Voigt Hill
#
# Bulk Modulus (GPa) = 32.82404 46.67231 39.74818
# Shear Modulus (GPa) = 28.30429 18.96055 23.63242
#
# Velocity S-wave (km/s) = 3.44443 2.81914 3.14736
# Velocity P-wave (km/s) = 5.43852 5.49182 5.46523
#
# Compressibility (1/GPa) = 0.03046548
#
# Stress axis : x y z
#
# Youngs Moduli (GPa) = 111.25880 111.25880 152.55493
#
# Poissons Ratio (x) = -0.94826 0.42378
# Poissons Ratio (y) = -0.94826 0.42378
# Poissons Ratio (z) = 0.30907 0.30907
#
# Static dielectric constant tensor:
#      x y z
#    x 2.014940 0.000000 0.000000 
#    y 0.000000 2.014940 0.000000 
#    z 0.000000 0.000000 2.020760 
# 
# From -- ./inp_files/3128.got.cif
#   From: 2010.05.17/outbox.cif.g08.bks.cpg/sg82_2_cif.got.tgz:3128.got - 2010.06.03 18:52:26.
