data_PCOD9542456
_publ_section_title
;
Structure prediction by ZEFSAII (Michael W. Deem and Ramdas Pophale) SiO2 
 PCOD9542456
Probable space group: P -4
;
_chemical_formula_sum "Si O2"
_cell_formula_units_Z 15
_cell_length_a 10.414212
_cell_length_b 10.414212
_cell_length_c 7.696135
_cell_angle_alpha 90.000000
_cell_angle_beta 90.000000
_cell_angle_gamma 90.000000
_cell_volume 834.690567
_symmetry_space_group_name_H-M "P -4"
_symmetry_group_IT_number 81
_symmetry_cell_setting 'tetragonal'
loop_
_space_group_symop_operation_xyz
x,y,z
y,-x,-z
-x,-y,z
-y,x,-z
loop_
_atom_site_type_symbol
_atom_site_label
_atom_site_fract_x
_atom_site_fract_y
_atom_site_fract_z
Si Si1 0.745560 0.499979 0.245489
Si Si2 0.000000 0.500000 0.012684
Si Si3 0.500000 0.500000 0.000000
Si Si4 0.000007 0.351273 0.670798
Si Si5 0.742621 0.257375 0.500034
O O1 0.875126 0.499976 0.132518
O O2 0.625469 0.499955 0.117787
O O3 0.737176 0.374910 0.365974
O O4 0.737164 0.625077 0.365922
O O5 0.000027 0.379647 0.877662
O O6 0.874806 0.277401 0.604477
O O7 0.000000 0.500000 0.598279
O O8 0.125188 0.277403 0.604409
#
# Coordination Sequence:
#
# PCOD9542456 Si02
#       5
#     4   2   1   4   4
#     4  12  22  38  62  94 126 172 212 268 318 380
#     4  10  22  44  62  92 138 170 200 268 340 366
#     4  12  24  30  56 100 124 154 220 276 304 374
#     4  10  23  43  61  99 128 168 211 265 316 384
#     4  12  22  42  68  92 128 172 218 260 322 384
#
# _framework density 17.970731000000001
#
# number of rings (size 3 to 8) (size 9 to 14) (size 15 to 20)
#    0.800    0.000    2.667    6.400    0.000    0.533 
#    0.000    0.000    0.000    3.200    0.000    0.000 
#    0.000    0.000    0.000    0.000    0.000    0.000 
#
# Total GULP energy -83769.349039 kJ/mol
# GULP energy per Si atom -5584.623269 kJ/mol
# Density = 1.792983 g / cm^3
# Si number density = 17.970731 Si / 1000 Ang^3
#
#
#
# Elastic Constant Matrix: (Units=GPa)
#
#
# Indices 1 2 3 4 5 6 
#
# 1 183.2246 77.2493 100.7923 0.0000 0.0000 0.0037
# 2 77.2493 183.2246 100.7923 0.0000 0.0000 -0.0037
# 3 100.7923 100.7923 167.0531 0.0000 0.0000 0.0000
# 4 0.0000 0.0000 0.0000 21.9710 0.0000 0.0000
# 5 0.0000 0.0000 0.0000 0.0000 21.9710 0.0000
# 6 0.0037 -0.0037 0.0000 0.0000 0.0000 28.8473
#
#
#
# Elastic Compliance Matrix: (Units=1/GPa)
#
#
# Indices 1 2 3 4 5 6 
#
# 1 0.008319 -0.001117 -0.004345 0.000000 0.000000 -0.000001
# 2 -0.001117 0.008319 -0.004345 0.000000 0.000000 0.000001
# 3 -0.004345 -0.004345 0.011230 0.000000 0.000000 0.000000
# 4 0.000000 0.000000 0.000000 0.045514 0.000000 0.000000
# 5 0.000000 0.000000 0.000000 0.000000 0.045514 0.000000
# 6 -0.000001 0.000001 0.000000 0.000000 0.000000 0.034665
#
#
# Mechanical properties :
#
#
# Convention : Reuss Voigt Hill
#
# Bulk Modulus (GPa) = 121.17805 121.24114 121.20960
# Shear Modulus (GPa) = 28.42055 31.53576 29.97816
#
# Velocity S-wave (km/s) = 3.98111 4.19363 4.08875
# Velocity P-wave (km/s) = 9.41857 9.54259 9.48078
#
# Compressibility (1/GPa) = 0.00825232
#
# Stress axis : x y z
#
# Youngs Moduli (GPa) = 120.20425 120.20425 89.04839
#
# Poissons Ratio (x) = 0.13427 0.38696
# Poissons Ratio (y) = 0.13427 0.38696
# Poissons Ratio (z) = 0.52234 0.52234
#
# Static dielectric constant tensor:
#      x y z
#    x 1.598550 0.000000 0.000000 
#    y 0.000000 1.598550 0.000000 
#    z 0.000000 0.000000 1.616970 
# 
# From -- ./inp_files/628.got.cif
#   From: 2010.05.17/outbox.cif.g08.bks.cpg/sg81_cif.got.tgz:628.got - 2010.06.03 18:51:07.
