data_PCOD9542760
_publ_section_title
;
Structure prediction by ZEFSAII (Michael W. Deem and Ramdas Pophale) SiO2 
 PCOD9542760
Probable space group: I -4 
;
_chemical_formula_sum "Si O2"
_cell_formula_units_Z 40
_cell_length_a 15.169774
_cell_length_b 15.169774
_cell_length_c 7.598702
_cell_angle_alpha 90.000000
_cell_angle_beta 90.000000
_cell_angle_gamma 90.000000
_cell_volume 1748.628830
_symmetry_space_group_name_H-M "I -4 "
_symmetry_group_IT_number 82
_symmetry_cell_setting 'tetragonal'
loop_
_space_group_symop_operation_xyz
x,y,z
y,-x,-z
-x,-y,z
-y,x,-z
1/2+x,1/2+y,1/2+z
1/2+y,1/2-x,1/2-z
1/2-x,1/2-y,1/2+z
1/2-y,1/2+x,1/2-z
loop_
_atom_site_type_symbol
_atom_site_label
_atom_site_fract_x
_atom_site_fract_y
_atom_site_fract_z
Si Si1 0.929806 0.413078 0.875269
Si Si2 0.640024 0.259399 0.262677
Si Si3 0.844091 0.686451 0.090757
Si Si4 0.496921 0.640259 0.036403
Si Si5 0.003917 0.315188 0.325174
O O1 0.896869 0.472402 0.706386
O O2 0.887039 0.318280 0.892483
O O3 0.897511 0.468372 0.046694
O O4 0.720250 0.314071 0.336619
O O5 0.558029 0.319810 0.200213
O O6 0.673033 0.202433 0.095272
O O7 0.947087 0.680351 0.140182
O O8 0.809594 0.600346 0.193379
O O9 0.579547 0.575166 0.067168
O O10 0.529290 0.725789 0.929584
#
# Coordination Sequence:
#
# PCOD9542760 Si02
#       5
#     8   8   8   8   8
#     4  11  23  39  62  97 134 174 224 273 343 410
#     4  11  23  42  67  97 128 177 227 283 336 409
#     4  11  24  42  64  96 134 176 224 281 341 409
#     4  10  20  40  65  94 122 170 222 273 326 399
#     4  11  24  40  64  97 134 177 223 275 347 409
#
# _framework density 22.875067000000001
#
# number of rings (size 3 to 8) (size 9 to 14) (size 15 to 20)
#    0.000    1.200    6.000    1.200    5.600    0.400 
#    0.000    0.000    0.000    0.000    0.000    0.000 
#    0.000    0.000    0.000    0.000    0.000    0.000 
#
# Total GULP energy -111510.184899 kJ/mol
# GULP energy per Si atom -5575.509245 kJ/mol
# Density = 2.282300 g / cm^3
# Si number density = 22.875067 Si / 1000 Ang^3
#
#
#
# Elastic Constant Matrix: (Units=GPa)
#
#
# Indices 1 2 3 4 5 6 
#
# 1 83.4710 2.7689 0.9462 0.0000 0.0000 3.4944
# 2 2.7689 83.4710 0.9462 0.0000 0.0000 -3.4944
# 3 0.9462 0.9462 76.7299 0.0000 0.0000 0.0000
# 4 0.0000 0.0000 0.0000 22.2022 0.0000 0.0000
# 5 0.0000 0.0000 0.0000 0.0000 22.2022 0.0000
# 6 3.4944 -3.4944 0.0000 0.0000 0.0000 25.1507
#
#
#
# Elastic Compliance Matrix: (Units=1/GPa)
#
#
# Indices 1 2 3 4 5 6 
#
# 1 0.012070 -0.000472 -0.000143 0.000000 0.000000 -0.001743
# 2 -0.000472 0.012070 -0.000143 0.000000 0.000000 0.001743
# 3 -0.000143 -0.000143 0.013036 0.000000 0.000000 0.000000
# 4 0.000000 0.000000 0.000000 0.045041 0.000000 0.000000
# 5 0.000000 0.000000 0.000000 0.000000 0.045041 0.000000
# 6 -0.001743 0.001743 0.000000 0.000000 0.000000 0.040245
#
#
# Mechanical properties :
#
#
# Convention : Reuss Voigt Hill
#
# Bulk Modulus (GPa) = 28.04141 28.11049 28.07595
# Shear Modulus (GPa) = 27.63875 29.84508 28.74192
#
# Velocity S-wave (km/s) = 3.47976 3.61598 3.54852
# Velocity P-wave (km/s) = 5.33198 5.45428 5.39348
#
# Compressibility (1/GPa) = 0.03566154
#
# Stress axis : x y z
#
# Youngs Moduli (GPa) = 82.84712 82.84712 76.70913
#
# Poissons Ratio (x) = 0.03908 0.01097
# Poissons Ratio (y) = 0.03908 0.01097
# Poissons Ratio (z) = 0.01185 0.01185
#
# Static dielectric constant tensor:
#      x y z
#    x 1.892010 0.000000 0.000000 
#    y 0.000000 1.892010 0.000000 
#    z 0.000000 0.000000 1.894820 
# 
# From -- ./inp_files/926.got.cif
#   From: 2010.05.17/outbox.cif.g08.bks.cpg/sg82_1_cif.got.tgz:926.got - 2010.06.03 18:52:26.
