data_PCOD9542159
_publ_section_title
;
Structure prediction by ZEFSAII (Michael W. Deem and Ramdas Pophale) SiO2 
 PCOD9542159
Probable space group: I 41
;
_chemical_formula_sum "Si O2"
_cell_formula_units_Z 56
_cell_length_a 15.266442
_cell_length_b 15.266442
_cell_length_c 9.575638
_cell_angle_alpha 90.000000
_cell_angle_beta 90.000000
_cell_angle_gamma 90.000000
_cell_volume 2231.738902
_symmetry_space_group_name_H-M "I 41"
_symmetry_group_IT_number 80
_symmetry_cell_setting 'tetragonal'
loop_
_space_group_symop_operation_xyz
x,y,z
-y,1/2+x,1/4+z
-x,-y,z
y,1/2-x,1/4+z
1/2+x,1/2+y,1/2+z
1/2-y,x,3/4+z
1/2-x,1/2-y,1/2+z
1/2+y,-x,3/4+z
loop_
_atom_site_type_symbol
_atom_site_label
_atom_site_fract_x
_atom_site_fract_y
_atom_site_fract_z
Si Si1 0.517123 0.227021 0.329690
Si Si2 0.088012 0.246232 0.173041
Si Si3 0.089350 0.554504 0.947156
Si Si4 0.933425 0.575976 0.297680
Si Si5 0.731432 0.682675 0.049385
Si Si6 0.676972 0.021077 0.151970
Si Si7 0.350062 0.550367 0.774079
O O1 0.540196 0.330068 0.305580
O O2 0.570330 0.158910 0.427834
O O3 0.414285 0.215289 0.357136
O O4 0.533141 0.184353 0.177807
O O5 0.051361 0.344324 0.190096
O O6 0.055259 0.168757 0.072104
O O7 0.185365 0.268321 0.123470
O O8 0.068757 0.208166 0.329191
O O9 0.124280 0.516593 0.796506
O O10 0.000000 0.500000 0.972109
O O11 0.000000 0.500000 0.263534
O O12 0.966437 0.610578 0.448212
O O13 0.663389 0.742845 0.136998
O O14 0.621314 0.074630 0.039960
O O15 0.765078 0.075407 0.184953
#
# Coordination Sequence:
#
# PCOD9542159 Si02
#       7
#     8   8   8   8   8   8   8
#     4  10  23  41  69 102 139 192 247 307 373 441
#     4  11  23  39  64  98 141 185 236 295 370 438
#     4  10  21  40  70 107 145 191 251 314 374 446
#     4  11  22  40  66  99 143 187 238 300 366 443
#     4  12  27  44  69 105 153 191 249 304 371 452
#     4   9  19  34  61  99 133 183 241 304 364 429
#     4   9  19  34  64  96 137 177 243 302 360 423
#
# _framework density 25.092542999999999
#
# number of rings (size 3 to 8) (size 9 to 14) (size 15 to 20)
#    0.000    1.714    2.857    0.857    6.000    1.143 
#    0.000    2.143    0.000   48.000    0.000    0.000 
#    0.000    0.000    0.000    0.000    0.000    0.000 
#
# Total GULP energy -156239.557860 kJ/mol
# GULP energy per Si atom -5579.984209 kJ/mol
# Density = 2.503543 g / cm^3
# Si number density = 25.092543 Si / 1000 Ang^3
#
#
#
# Elastic Constant Matrix: (Units=GPa)
#
#
# Indices 1 2 3 4 5 6 
#
# 1 147.7370 66.7775 23.8813 0.0000 0.0000 6.1043
# 2 66.7775 147.7370 23.8813 0.0000 0.0000 -6.1043
# 3 23.8813 23.8813 82.5132 0.0000 0.0000 0.0000
# 4 0.0000 0.0000 0.0000 31.6173 0.0000 0.0000
# 5 0.0000 0.0000 0.0000 0.0000 31.6173 0.0000
# 6 6.1043 -6.1043 0.0000 0.0000 0.0000 39.1531
#
#
#
# Elastic Compliance Matrix: (Units=1/GPa)
#
#
# Indices 1 2 3 4 5 6 
#
# 1 0.008816 -0.003833 -0.001442 0.000000 0.000000 -0.001972
# 2 -0.003833 0.008816 -0.001442 0.000000 0.000000 0.001972
# 3 -0.001442 -0.001442 0.012954 0.000000 0.000000 0.000000
# 4 0.000000 0.000000 0.000000 0.031628 0.000000 0.000000
# 5 0.000000 0.000000 0.000000 0.000000 0.031628 0.000000
# 6 -0.001972 0.001972 0.000000 0.000000 0.000000 0.026156
#
#
# Mechanical properties :
#
#
# Convention : Reuss Voigt Hill
#
# Bulk Modulus (GPa) = 58.30538 67.45194 62.87866
# Shear Modulus (GPa) = 35.93236 38.04068 36.98652
#
# Velocity S-wave (km/s) = 3.78827 3.89783 3.84344
# Velocity P-wave (km/s) = 6.51316 6.87001 6.69396
#
# Compressibility (1/GPa) = 0.01715108
#
# Stress axis : x y z
#
# Youngs Moduli (GPa) = 113.42985 113.42985 77.19589
#
# Poissons Ratio (x) = 0.43480 0.11133
# Poissons Ratio (y) = 0.43480 0.11133
# Poissons Ratio (z) = 0.16358 0.16358
#
# Static dielectric constant tensor:
#      x y z
#    x 2.024930 0.000000 0.000000 
#    y 0.000000 2.024930 0.000000 
#    z 0.000000 0.000000 2.132230 
# 
# From -- ./inp_files/1063.got.cif
#   From: 2010.05.17/outbox.cif.g08.bks.cpg/sg80_cif.got.tgz:1063.got - 2010.06.03 18:49:13.
