data_PCOD9542149
_publ_section_title
;
Structure prediction by ZEFSAII (Michael W. Deem and Ramdas Pophale) SiO2 
 PCOD9542149
Probable space group: I 41
;
_chemical_formula_sum "Si O2"
_cell_formula_units_Z 48
_cell_length_a 8.154754
_cell_length_b 8.154754
_cell_length_c 29.342152
_cell_angle_alpha 90.000000
_cell_angle_beta 90.000000
_cell_angle_gamma 90.000000
_cell_volume 1951.253484
_symmetry_space_group_name_H-M "I 41"
_symmetry_group_IT_number 80
_symmetry_cell_setting 'tetragonal'
loop_
_space_group_symop_operation_xyz
x,y,z
-y,1/2+x,1/4+z
-x,-y,z
y,1/2-x,1/4+z
1/2+x,1/2+y,1/2+z
1/2-y,x,3/4+z
1/2-x,1/2-y,1/2+z
1/2+y,-x,3/4+z
loop_
_atom_site_type_symbol
_atom_site_label
_atom_site_fract_x
_atom_site_fract_y
_atom_site_fract_z
Si Si1 0.737675 0.610385 0.361610
Si Si2 0.730627 0.379060 0.971511
Si Si3 0.737677 0.110383 0.641712
Si Si4 0.377810 0.259797 0.944503
Si Si5 0.730629 0.879060 0.031810
Si Si6 0.740201 0.377807 0.808818
O O1 0.570713 0.706765 0.373203
O O2 0.706758 0.429290 0.380120
O O3 0.869448 0.701695 0.392931
O O4 0.795134 0.622391 0.309431
O O5 0.877610 0.295138 0.943891
O O6 0.568085 0.276866 0.957281
O O7 0.701773 0.563541 0.954831
O O8 0.721336 0.365367 0.026038
O O9 0.869446 0.201699 0.610390
O O10 0.278661 0.134636 0.977283
O O11 0.568083 0.776873 0.046041
O O12 0.701781 0.063543 0.048490
#
# Coordination Sequence:
#
# PCOD9542149 Si02
#       6
#     8   8   8   8   8   8
#     4  11  24  39  56  82 116 153 192 233 280 334
#     4  10  21  38  61  87 114 147 188 233 283 338
#     4  11  24  39  56  82 116 153 192 233 280 334
#     4  10  21  38  61  87 114 147 188 233 283 338
#     4  10  21  38  61  87 114 147 188 233 283 338
#     4  10  21  38  61  87 114 147 188 233 283 338
#
# _framework density 24.599571000000001
#
# number of rings (size 3 to 8) (size 9 to 14) (size 15 to 20)
#    0.000    1.667    0.000    4.000    0.000   12.000 
#    0.000    0.000    0.000    0.000    0.000    0.000 
#    0.000    0.000    0.000    0.000    0.000    0.000 
#
# Total GULP energy -134335.726294 kJ/mol
# GULP energy per Si atom -5597.321929 kJ/mol
# Density = 2.454358 g / cm^3
# Si number density = 24.599571 Si / 1000 Ang^3
#
#
#
# Elastic Constant Matrix: (Units=GPa)
#
#
# Indices 1 2 3 4 5 6 
#
# 1 18.4797 19.1798 -1.7439 0.0000 0.0000 -1.9413
# 2 19.1798 18.4797 -1.7439 0.0000 0.0000 1.9413
# 3 -1.7439 -1.7439 79.6107 0.0000 0.0000 0.0000
# 4 0.0000 0.0000 0.0000 29.2970 0.0000 0.0000
# 5 0.0000 0.0000 0.0000 0.0000 29.2970 0.0000
# 6 -1.9413 1.9413 0.0000 0.0000 0.0000 20.6444
#
#
#
# Elastic Compliance Matrix: (Units=1/GPa)
#
#
# Indices 1 2 3 4 5 6 
#
# 1 -0.456099 0.482706 0.000583 0.000000 0.000000 -0.088282
# 2 0.482706 -0.456099 0.000583 0.000000 0.000000 0.088282
# 3 0.000583 0.000583 0.012587 0.000000 0.000000 0.000000
# 4 0.000000 0.000000 0.000000 0.034133 0.000000 0.000000
# 5 0.000000 0.000000 0.000000 0.000000 0.034133 0.000000
# 6 -0.088282 0.088282 0.000000 0.000000 0.000000 0.031836
#
#
# Mechanical properties :
#
#
# Convention : Reuss Voigt Hill
#
# Bulk Modulus (GPa) = 14.67704 16.43932 15.55818
# Shear Modulus (GPa) = -2.86608 22.57290 9.85341
#
# Velocity S-wave (km/s) = -1.08057 3.03250 2.00355
# Velocity P-wave (km/s) = 2.10297 4.35416 3.41915
#
# Compressibility (1/GPa) = 0.06813361
#
# Stress axis : x y z
#
# Youngs Moduli (GPa) = -2.19251 -2.19251 79.44920
#
# Poissons Ratio (x) = 1.05834 -0.04631
# Poissons Ratio (y) = 1.05834 -0.04630
# Poissons Ratio (z) = 0.00128 0.00128
#
# Static dielectric constant tensor:
#      x y z
#    x 1.939310 0.000000 0.000000 
#    y 0.000000 1.939310 0.000000 
#    z 0.000000 0.000000 1.951310 
# 
# From -- ./inp_files/2596.got.cif
#   From: 2010.05.17/outbox.cif.g08.bks.cpg/sg80_cif.got.tgz:2596.got - 2010.06.03 18:49:13.
