data_PCOD9542716
_publ_section_title
;
Structure prediction by ZEFSAII (Michael W. Deem and Ramdas Pophale) SiO2 
 PCOD9542716
Probable space group: I -4 
;
_chemical_formula_sum "Si O2"
_cell_formula_units_Z 40
_cell_length_a 7.751506
_cell_length_b 7.751506
_cell_length_c 28.359211
_cell_angle_alpha 90.000000
_cell_angle_beta 90.000000
_cell_angle_gamma 90.000000
_cell_volume 1703.987164
_symmetry_space_group_name_H-M "I -4 "
_symmetry_group_IT_number 82
_symmetry_cell_setting 'tetragonal'
loop_
_space_group_symop_operation_xyz
x,y,z
y,-x,-z
-x,-y,z
-y,x,-z
1/2+x,1/2+y,1/2+z
1/2+y,1/2-x,1/2-z
1/2-x,1/2-y,1/2+z
1/2-y,1/2+x,1/2-z
loop_
_atom_site_type_symbol
_atom_site_label
_atom_site_fract_x
_atom_site_fract_y
_atom_site_fract_z
Si Si1 0.154858 0.758983 0.491185
Si Si2 0.000000 0.000000 0.153511
Si Si3 0.769294 0.906898 0.240441
Si Si4 0.000000 0.000000 0.317031
Si Si5 0.124791 0.260964 0.914685
Si Si6 0.122376 0.239375 0.604829
O O1 0.248578 0.631733 0.528152
O O2 0.168896 0.748541 0.435024
O O3 0.950086 0.765494 0.500506
O O4 0.092542 0.863256 0.118021
O O5 0.863864 0.914835 0.190155
O O6 0.601410 0.792657 0.247245
O O7 0.900036 0.869747 0.282562
O O8 0.872693 0.114525 0.348730
O O9 0.261545 0.414772 0.906749
O O10 0.940301 0.330397 0.896607
#
# Coordination Sequence:
#
# PCOD9542716 Si02
#       6
#     8   4   8   4   8   8
#     4   9  18  35  59  86 117 155 204 263 316 369
#     4  11  22  36  61  92 124 160 205 263 324 380
#     4  10  22  41  65  92 122 158 208 266 323 385
#     4  11  20  34  65  94 122 164 207 257 320 382
#     4  10  21  36  57  86 119 158 208 257 308 373
#     4  10  20  36  59  86 117 160 209 252 309 379
#
# _framework density 23.474354000000002
#
# number of rings (size 3 to 8) (size 9 to 14) (size 15 to 20)
#    0.000    2.000    0.000    4.800    0.000    4.800 
#    0.000    0.000    0.000   61.200    0.000    0.000 
#    0.000    0.000    0.000    0.000    0.000    0.000 
#
# Total GULP energy -111445.408568 kJ/mol
# GULP energy per Si atom -5572.270428 kJ/mol
# Density = 2.342092 g / cm^3
# Si number density = 23.474354 Si / 1000 Ang^3
#
#
#
# Elastic Constant Matrix: (Units=GPa)
#
#
# Indices 1 2 3 4 5 6 
#
# 1 74.5183 15.2139 56.1702 0.0000 0.0000 -4.6814
# 2 15.2139 74.5183 56.1702 0.0000 0.0000 4.6814
# 3 56.1702 56.1702 194.4640 0.0000 0.0000 0.0000
# 4 0.0000 0.0000 0.0000 34.3398 0.0000 0.0000
# 5 0.0000 0.0000 0.0000 0.0000 34.3398 0.0000
# 6 -4.6814 4.6814 0.0000 0.0000 0.0000 19.2375
#
#
#
# Elastic Compliance Matrix: (Units=1/GPa)
#
#
# Indices 1 2 3 4 5 6 
#
# 1 0.017497 -0.000039 -0.005042 0.000000 0.000000 0.004267
# 2 -0.000039 0.017497 -0.005042 0.000000 0.000000 -0.004267
# 3 -0.005042 -0.005042 0.008055 0.000000 0.000000 0.000000
# 4 0.000000 0.000000 0.000000 0.029121 0.000000 0.000000
# 5 0.000000 0.000000 0.000000 0.000000 0.029121 0.000000
# 6 0.004267 -0.004267 0.000000 0.000000 0.000000 0.054059
#
#
# Mechanical properties :
#
#
# Convention : Reuss Voigt Hill
#
# Bulk Modulus (GPa) = 43.85981 66.51214 55.18597
# Shear Modulus (GPa) = 27.29304 31.97984 29.63644
#
# Velocity S-wave (km/s) = 3.41350 3.69498 3.55703
# Velocity P-wave (km/s) = 5.85326 6.82637 6.35846
#
# Compressibility (1/GPa) = 0.02279992
#
# Stress axis : x y z
#
# Youngs Moduli (GPa) = 57.15418 57.15419 124.14147
#
# Poissons Ratio (x) = 0.00225 0.62598
# Poissons Ratio (y) = 0.00225 0.62598
# Poissons Ratio (z) = 0.28820 0.28820
#
# Static dielectric constant tensor:
#      x y z
#    x 1.986670 0.000000 0.000000 
#    y 0.000000 1.986670 0.000000 
#    z 0.000000 0.000000 1.995250 
# 
# From -- ./inp_files/3720.got.cif
#   From: 2010.05.17/outbox.cif.g08.bks.cpg/sg82_2_cif.got.tgz:3720.got - 2010.06.03 18:52:26.
