data_PCOD9542479
_publ_section_title
;
Structure prediction by ZEFSAII (Michael W. Deem and Ramdas Pophale) SiO2 
 PCOD9542479
Probable space group: P -4
;
_chemical_formula_sum "Si O2"
_cell_formula_units_Z 22
_cell_length_a 8.796996
_cell_length_b 8.796996
_cell_length_c 14.002144
_cell_angle_alpha 90.000000
_cell_angle_beta 90.000000
_cell_angle_gamma 90.000000
_cell_volume 1083.585859
_symmetry_space_group_name_H-M "P -4"
_symmetry_group_IT_number 81
_symmetry_cell_setting 'tetragonal'
loop_
_space_group_symop_operation_xyz
x,y,z
y,-x,-z
-x,-y,z
-y,x,-z
loop_
_atom_site_type_symbol
_atom_site_label
_atom_site_fract_x
_atom_site_fract_y
_atom_site_fract_z
Si Si1 0.607959 0.350388 0.616433
Si Si2 0.819193 0.337422 0.284230
Si Si3 0.495030 0.823512 0.232421
Si Si4 0.743604 0.515838 0.982792
Si Si5 0.500000 0.000000 0.871462
Si Si6 0.840994 0.181361 0.477405
O O1 0.500000 0.500000 0.598477
O O2 0.496264 0.229981 0.666140
O O3 0.729306 0.399010 0.696333
O O4 0.704232 0.277269 0.528244
O O5 0.670345 0.250543 0.247265
O O6 0.931022 0.373161 0.198142
O O7 0.878973 0.240343 0.372082
O O8 0.532915 0.803434 0.120718
O O9 0.500000 0.000000 0.257414
O O10 0.650950 0.376506 0.028369
O O11 0.871625 0.561704 0.057587
O O12 0.002846 0.198665 0.530241
#
# Coordination Sequence:
#
# PCOD9542479 Si02
#       6
#     4   4   4   4   2   4
#     4  10  24  41  65  98 133 173 229 280 327 398
#     4  11  24  40  67  99 131 175 226 278 334 394
#     4  11  22  40  65  98 131 173 223 280 335 400
#     4  11  23  40  67  93 131 173 223 276 334 394
#     4  12  22  42  66 100 134 168 224 282 336 398
#     4  11  25  45  67  96 138 183 218 273 344 409
#
# _framework density 20.302958
#
# number of rings (size 3 to 8) (size 9 to 14) (size 15 to 20)
#    0.000    1.091    2.727    3.273   10.182    0.000 
#    1.636    0.000    0.000    4.909    0.000    0.000 
#    0.000    0.000    0.000    0.000    0.000    0.000 
#
# Total GULP energy -122917.219077 kJ/mol
# GULP energy per Si atom -5587.146322 kJ/mol
# Density = 2.025675 g / cm^3
# Si number density = 20.302958 Si / 1000 Ang^3
#
#
#
# Elastic Constant Matrix: (Units=GPa)
#
#
# Indices 1 2 3 4 5 6 
#
# 1 83.0948 9.9778 20.1654 0.0000 0.0000 -1.3089
# 2 9.9778 83.0948 20.1654 0.0000 0.0000 1.3089
# 3 20.1654 20.1654 97.1221 0.0000 0.0000 0.0000
# 4 0.0000 0.0000 0.0000 31.9679 0.0000 0.0000
# 5 0.0000 0.0000 0.0000 0.0000 31.9679 0.0000
# 6 -1.3089 1.3089 0.0000 0.0000 0.0000 19.1925
#
#
#
# Elastic Compliance Matrix: (Units=1/GPa)
#
#
# Indices 1 2 3 4 5 6 
#
# 1 0.012758 -0.000952 -0.002451 0.000000 0.000000 0.000935
# 2 -0.000952 0.012758 -0.002451 0.000000 0.000000 -0.000935
# 3 -0.002451 -0.002451 0.011314 0.000000 0.000000 0.000000
# 4 0.000000 0.000000 0.000000 0.031281 0.000000 0.000000
# 5 0.000000 0.000000 0.000000 0.000000 0.031281 0.000000
# 6 0.000935 -0.000935 0.000000 0.000000 0.000000 0.052231
#
#
# Mechanical properties :
#
#
# Convention : Reuss Voigt Hill
#
# Bulk Modulus (GPa) = 39.80598 40.43651 40.12125
# Shear Modulus (GPa) = 29.11920 30.82588 29.97254
#
# Velocity S-wave (km/s) = 3.79124 3.90076 3.84639
# Velocity P-wave (km/s) = 6.23002 6.34411 6.28732
#
# Compressibility (1/GPa) = 0.02512185
#
# Stress axis : x y z
#
# Youngs Moduli (GPa) = 78.37990 78.37990 88.38395
#
# Poissons Ratio (x) = 0.07460 0.21666
# Poissons Ratio (y) = 0.07460 0.21666
# Poissons Ratio (z) = 0.19214 0.19214
#
# Static dielectric constant tensor:
#      x y z
#    x 1.738010 0.000000 0.000000 
#    y 0.000000 1.738010 0.000000 
#    z 0.000000 0.000000 1.744540 
# 
# From -- ./inp_files/1598.got.cif
#   From: 2010.05.17/outbox.cif.g08.bks.cpg/sg81_cif.got.tgz:1598.got - 2010.06.03 18:51:07.
