data_PCOD9542361
_publ_section_title
;
Structure prediction by ZEFSAII (Michael W. Deem and Ramdas Pophale) SiO2 
 PCOD9542361
Probable space group: P -4
;
_chemical_formula_sum "Si O2"
_cell_formula_units_Z 25
_cell_length_a 11.941796
_cell_length_b 11.941796
_cell_length_c 9.198670
_cell_angle_alpha 90.000000
_cell_angle_beta 90.000000
_cell_angle_gamma 90.000000
_cell_volume 1311.790057
_symmetry_space_group_name_H-M "P -4"
_symmetry_group_IT_number 81
_symmetry_cell_setting 'tetragonal'
loop_
_space_group_symop_operation_xyz
x,y,z
y,-x,-z
-x,-y,z
-y,x,-z
loop_
_atom_site_type_symbol
_atom_site_label
_atom_site_fract_x
_atom_site_fract_y
_atom_site_fract_z
Si Si1 0.500000 0.500000 0.500000
Si Si2 0.266608 0.352336 0.859462
Si Si3 0.714578 0.851115 0.409281
Si Si4 0.513649 0.344004 0.749303
Si Si5 0.289308 0.885839 0.404651
Si Si6 0.263681 0.610371 0.880926
Si Si7 0.123755 0.501332 0.392017
O O1 0.545502 0.400863 0.597626
O O2 0.384958 0.370033 0.776803
O O3 0.178738 0.298919 0.747875
O O4 0.228301 0.480044 0.902324
O O5 0.303619 0.262995 0.983657
O O6 0.821749 0.790766 0.480770
O O7 0.664888 0.793348 0.262429
O O8 0.618337 0.844968 0.533156
O O9 0.736985 0.983049 0.384288
O O10 0.601270 0.392652 0.860991
O O11 0.528816 0.213036 0.729317
O O12 0.411425 0.877525 0.478711
O O13 0.000000 0.500000 0.328812
#
# Coordination Sequence:
#
# PCOD9542361 Si02
#       7
#     1   4   4   4   4   4   4
#     4  12  20  24  54  88 116 156 210 252 308 360
#     4  12  23  37  57  92 134 169 204 251 311 387
#     4  11  23  41  65  91 122 163 212 264 315 368
#     4  12  20  32  54  88 124 163 206 250 312 375
#     4  11  23  41  65  91 122 163 212 264 315 368
#     4  12  23  37  57  92 134 169 204 251 311 387
#     4  10  20  35  58  89 118 151 202 258 312 366
#
# _framework density 19.057926999999999
#
# number of rings (size 3 to 8) (size 9 to 14) (size 15 to 20)
#    0.000    0.640    8.000    1.920    0.000    0.320 
#    0.000    3.200    0.000    0.000    0.000    0.000 
#    0.000    0.000    0.000    0.000    0.000    0.000 
#
# Total GULP energy -139441.391988 kJ/mol
# GULP energy per Si atom -5577.655680 kJ/mol
# Density = 1.901455 g / cm^3
# Si number density = 19.057927 Si / 1000 Ang^3
#
#
#
# Elastic Constant Matrix: (Units=GPa)
#
#
# Indices 1 2 3 4 5 6 
#
# 1 94.5701 10.6528 25.3220 0.0000 0.0000 -4.9763
# 2 10.6528 94.5701 25.3220 0.0000 0.0000 4.9763
# 3 25.3220 25.3220 63.3421 0.0000 0.0000 0.0000
# 4 0.0000 0.0000 0.0000 17.9978 0.0000 0.0000
# 5 0.0000 0.0000 0.0000 0.0000 17.9978 0.0000
# 6 -4.9763 4.9763 0.0000 0.0000 0.0000 16.1501
#
#
#
# Elastic Compliance Matrix: (Units=1/GPa)
#
#
# Indices 1 2 3 4 5 6 
#
# 1 0.012068 -0.000300 -0.004704 0.000000 0.000000 0.003811
# 2 -0.000300 0.012068 -0.004704 0.000000 0.000000 -0.003811
# 3 -0.004704 -0.004704 0.019549 0.000000 0.000000 0.000000
# 4 0.000000 0.000000 0.000000 0.055562 0.000000 0.000000
# 5 0.000000 0.000000 0.000000 0.000000 0.055562 0.000000
# 6 0.003811 -0.003811 0.000000 0.000000 0.000000 0.064268
#
#
# Mechanical properties :
#
#
# Convention : Reuss Voigt Hill
#
# Bulk Modulus (GPa) = 41.20863 41.67512 41.44187
# Shear Modulus (GPa) = 20.27701 23.17483 21.72592
#
# Velocity S-wave (km/s) = 3.26539 3.49093 3.38004
# Velocity P-wave (km/s) = 5.99056 6.17769 6.08484
#
# Compressibility (1/GPa) = 0.02426676
#
# Stress axis : x y z
#
# Youngs Moduli (GPa) = 82.86259 82.86259 51.15451
#
# Poissons Ratio (x) = 0.02488 0.24065
# Poissons Ratio (y) = 0.02488 0.24065
# Poissons Ratio (z) = 0.38982 0.38982
#
# Static dielectric constant tensor:
#      x y z
#    x 1.701340 0.000000 0.000000 
#    y 0.000000 1.701340 0.000000 
#    z 0.000000 0.000000 1.709980 
# 
# From -- ./inp_files/859.got.cif
#   From: 2010.05.17/outbox.cif.g08.bks.cpg/sg81_cif.got.tgz:859.got - 2010.06.03 18:51:07.
