data_PCOD9542550
_publ_section_title
;
Structure prediction by ZEFSAII (Michael W. Deem and Ramdas Pophale) SiO2 
 PCOD9542550
Probable space group: P -4
;
_chemical_formula_sum "Si O2"
_cell_formula_units_Z 24
_cell_length_a 8.250448
_cell_length_b 8.250448
_cell_length_c 14.894647
_cell_angle_alpha 90.000000
_cell_angle_beta 90.000000
_cell_angle_gamma 90.000000
_cell_volume 1013.877016
_symmetry_space_group_name_H-M "P -4"
_symmetry_group_IT_number 81
_symmetry_cell_setting 'tetragonal'
loop_
_space_group_symop_operation_xyz
x,y,z
y,-x,-z
-x,-y,z
-y,x,-z
loop_
_atom_site_type_symbol
_atom_site_label
_atom_site_fract_x
_atom_site_fract_y
_atom_site_fract_z
Si Si1 0.279445 0.361865 0.523124
Si Si2 0.138483 0.857271 0.623998
Si Si3 0.364686 0.893043 0.301119
Si Si4 0.198294 0.818664 0.986373
Si Si5 0.283527 0.324601 0.204518
Si Si6 0.329423 0.684966 0.164117
O O1 0.285412 0.541700 0.482838
O O2 0.158089 0.249541 0.464307
O O3 0.249126 0.389460 0.628374
O O4 0.252118 0.817289 0.711325
O O5 0.026045 0.700551 0.630029
O O6 0.000000 0.000000 0.626876
O O7 0.248986 0.827725 0.223294
O O8 0.500000 0.000000 0.253074
O O9 0.308348 0.725662 0.060013
O O10 0.237613 0.770673 0.885738
O O11 0.011020 0.778220 0.004740
O O12 0.253607 0.515073 0.190898
O O13 0.482961 0.312544 0.200047
#
# Coordination Sequence:
#
# PCOD9542550 Si02
#       6
#     4   4   4   4   4   4
#     4  11  24  46  74 104 141 192 246 296 356 432
#     4  12  28  44  71 105 147 185 235 298 363 425
#     4  12  24  44  70 103 144 186 233 292 365 416
#     4  11  26  43  69 103 145 185 233 297 363 419
#     4  11  24  46  71 103 140 190 242 291 352 425
#     4  11  24  45  73 102 140 189 243 292 348 430
#
# _framework density 23.671509
#
# number of rings (size 3 to 8) (size 9 to 14) (size 15 to 20)
#    0.000    0.667    3.333    3.000    7.000    6.000 
#    0.000    1.667    0.000    0.000    0.000    0.000 
#    0.000    0.000    0.000    0.000    0.000    0.000 
#
# Total GULP energy -133841.791233 kJ/mol
# GULP energy per Si atom -5576.741301 kJ/mol
# Density = 2.361763 g / cm^3
# Si number density = 23.671509 Si / 1000 Ang^3
#
#
#
# Elastic Constant Matrix: (Units=GPa)
#
#
# Indices 1 2 3 4 5 6 
#
# 1 67.7321 27.7445 33.0554 0.0000 0.0000 -0.8939
# 2 27.7445 67.7321 33.0554 0.0000 0.0000 0.8939
# 3 33.0554 33.0554 138.1210 0.0000 0.0000 0.0000
# 4 0.0000 0.0000 0.0000 31.2635 0.0000 0.0000
# 5 0.0000 0.0000 0.0000 0.0000 31.2635 0.0000
# 6 -0.8939 0.8939 0.0000 0.0000 0.0000 26.6269
#
#
#
# Elastic Compliance Matrix: (Units=1/GPa)
#
#
# Indices 1 2 3 4 5 6 
#
# 1 0.018800 -0.006246 -0.003004 0.000000 0.000000 0.000841
# 2 -0.006246 0.018800 -0.003004 0.000000 0.000000 -0.000841
# 3 -0.003004 -0.003004 0.008678 0.000000 0.000000 0.000000
# 4 0.000000 0.000000 0.000000 0.031986 0.000000 0.000000
# 5 0.000000 0.000000 0.000000 0.000000 0.031986 0.000000
# 6 0.000841 -0.000841 0.000000 0.000000 0.000000 0.037612
#
#
# Mechanical properties :
#
#
# Convention : Reuss Voigt Hill
#
# Bulk Modulus (GPa) = 45.93799 51.25509 48.59654
# Shear Modulus (GPa) = 27.83536 29.81279 28.82407
#
# Velocity S-wave (km/s) = 3.43286 3.55271 3.49330
# Velocity P-wave (km/s) = 5.92970 6.20714 6.07000
#
# Compressibility (1/GPa) = 0.02176848
#
# Stress axis : x y z
#
# Youngs Moduli (GPa) = 53.19222 53.19222 115.23249
#
# Poissons Ratio (x) = 0.33222 0.34621
# Poissons Ratio (y) = 0.33222 0.34621
# Poissons Ratio (z) = 0.15982 0.15982
#
# Static dielectric constant tensor:
#      x y z
#    x 2.069630 0.000000 0.000000 
#    y 0.000000 2.069630 0.000000 
#    z 0.000000 0.000000 1.927600 
# 
# From -- ./inp_files/1617.got.cif
#   From: 2010.05.17/outbox.cif.g08.bks.cpg/sg81_cif.got.tgz:1617.got - 2010.06.03 18:51:07.
