data_PCOD9542749
_publ_section_title
;
Structure prediction by ZEFSAII (Michael W. Deem and Ramdas Pophale) SiO2 
 PCOD9542749
Probable space group: I -4 
;
_chemical_formula_sum "Si O2"
_cell_formula_units_Z 44
_cell_length_a 9.326486
_cell_length_b 9.326486
_cell_length_c 27.996335
_cell_angle_alpha 90.000000
_cell_angle_beta 90.000000
_cell_angle_gamma 90.000000
_cell_volume 2435.214757
_symmetry_space_group_name_H-M "I -4 "
_symmetry_group_IT_number 82
_symmetry_cell_setting 'tetragonal'
loop_
_space_group_symop_operation_xyz
x,y,z
y,-x,-z
-x,-y,z
-y,x,-z
1/2+x,1/2+y,1/2+z
1/2+y,1/2-x,1/2-z
1/2-x,1/2-y,1/2+z
1/2-y,1/2+x,1/2-z
loop_
_atom_site_type_symbol
_atom_site_label
_atom_site_fract_x
_atom_site_fract_y
_atom_site_fract_z
Si Si1 0.500000 0.500000 0.304314
Si Si2 0.329366 0.015633 0.634821
Si Si3 0.267142 0.019207 0.738629
Si Si4 0.009526 0.336332 0.960467
Si Si5 0.227966 0.356106 0.440704
Si Si6 0.133167 0.160243 0.111179
O O1 0.628897 0.551418 0.270388
O O2 0.571157 0.383625 0.339942
O O3 0.310112 0.179309 0.619523
O O4 0.500000 0.000000 0.647050
O O5 0.241079 0.987737 0.682865
O O6 0.304473 0.902371 0.592597
O O7 0.350207 0.880067 0.758841
O O8 0.917363 0.233529 0.926547
O O9 0.000000 0.500000 0.944336
O O10 0.169097 0.271028 0.958028
O O11 0.944192 0.326984 0.013576
O O12 0.318543 0.472487 0.410020
#
# Coordination Sequence:
#
# PCOD9542749 Si02
#       6
#     4   8   8   8   8   8
#     4  12  22  36  65  96 118 159 220 262 316 380
#     4  10  20  39  65  89 117 160 214 252 310 380
#     4  11  20  38  61  88 120 155 206 265 309 368
#     4  12  24  39  60  93 126 159 204 258 308 367
#     4  11  22  40  66  90 119 164 209 256 307 374
#     4  11  21  39  63  89 118 160 205 254 311 379
#
# _framework density 18.068224000000001
#
# number of rings (size 3 to 8) (size 9 to 14) (size 15 to 20)
#    0.000    0.909    7.273    2.727    0.000    0.000 
#    3.273    0.000    0.000    0.000    0.000    0.000 
#    0.000    0.000    0.000    0.000    0.000    0.000 
#
# Total GULP energy -122827.275416 kJ/mol
# GULP energy per Si atom -5583.057973 kJ/mol
# Density = 1.802710 g / cm^3
# Si number density = 18.068224 Si / 1000 Ang^3
#
#
#
# Elastic Constant Matrix: (Units=GPa)
#
#
# Indices 1 2 3 4 5 6 
#
# 1 81.4958 42.4329 42.3238 0.0000 0.0000 3.7160
# 2 42.4329 81.4958 42.3238 0.0000 0.0000 -3.7160
# 3 42.3238 42.3238 132.9453 0.0000 0.0000 0.0000
# 4 0.0000 0.0000 0.0000 18.3793 0.0000 0.0000
# 5 0.0000 0.0000 0.0000 0.0000 18.3793 0.0000
# 6 3.7160 -3.7160 0.0000 0.0000 0.0000 8.5512
#
#
#
# Elastic Compliance Matrix: (Units=1/GPa)
#
#
# Indices 1 2 3 4 5 6 
#
# 1 0.019109 -0.008798 -0.003283 0.000000 0.000000 -0.012127
# 2 -0.008798 0.019109 -0.003283 0.000000 0.000000 0.012127
# 3 -0.003283 -0.003283 0.009612 0.000000 0.000000 0.000000
# 4 0.000000 0.000000 0.000000 0.054409 0.000000 0.000000
# 5 0.000000 0.000000 0.000000 0.000000 0.054409 0.000000
# 6 -0.012127 0.012127 0.000000 0.000000 0.000000 0.127482
#
#
# Mechanical properties :
#
#
# Convention : Reuss Voigt Hill
#
# Bulk Modulus (GPa) = 58.46586 61.12199 59.79393
# Shear Modulus (GPa) = 15.59778 20.31907 17.95842
#
# Velocity S-wave (km/s) = 2.94134 3.35711 3.15607
# Velocity P-wave (km/s) = 6.63053 6.99491 6.81515
#
# Compressibility (1/GPa) = 0.01710400
#
# Stress axis : x y z
#
# Youngs Moduli (GPa) = 52.33092 52.33093 104.03667
#
# Poissons Ratio (x) = 0.46040 0.34152
# Poissons Ratio (y) = 0.46040 0.34152
# Poissons Ratio (z) = 0.17178 0.17178
#
# Static dielectric constant tensor:
#      x y z
#    x 1.620490 0.000000 0.000000 
#    y 0.000000 1.620490 0.000000 
#    z 0.000000 0.000000 1.652030 
# 
# From -- ./inp_files/3934.got.cif
#   From: 2010.05.17/outbox.cif.g08.bks.cpg/sg82_2_cif.got.tgz:3934.got - 2010.06.03 18:52:26.
