data_PCOD9542091
_publ_section_title
;
Structure prediction by ZEFSAII (Michael W. Deem and Ramdas Pophale) SiO2 
 PCOD9542091
Probable space group: I 41
;
_chemical_formula_sum "Si O2"
_cell_formula_units_Z 56
_cell_length_a 12.115072
_cell_length_b 12.115072
_cell_length_c 19.549852
_cell_angle_alpha 90.000000
_cell_angle_beta 90.000000
_cell_angle_gamma 90.000000
_cell_volume 2869.428932
_symmetry_space_group_name_H-M "I 41"
_symmetry_group_IT_number 80
_symmetry_cell_setting 'tetragonal'
loop_
_space_group_symop_operation_xyz
x,y,z
-y,1/2+x,1/4+z
-x,-y,z
y,1/2-x,1/4+z
1/2+x,1/2+y,1/2+z
1/2-y,x,3/4+z
1/2-x,1/2-y,1/2+z
1/2+y,-x,3/4+z
loop_
_atom_site_type_symbol
_atom_site_label
_atom_site_fract_x
_atom_site_fract_y
_atom_site_fract_z
Si Si1 0.230784 0.712554 0.281740
Si Si2 0.376967 0.000000 0.153277
Si Si3 0.000001 0.181888 0.247739
Si Si4 0.230785 0.287445 0.281741
Si Si5 0.366288 0.754936 0.156847
Si Si6 0.500000 0.374512 0.596823
Si Si7 0.866289 0.745064 0.656848
O O1 0.114429 0.751312 0.249262
O O2 0.318348 0.690321 0.221671
O O3 0.272556 0.805872 0.335466
O O4 0.195176 0.605358 0.323623
O O5 0.327478 0.882370 0.172107
O O6 0.500000 0.000000 0.181917
O O7 0.327479 0.117631 0.172107
O O8 0.379758 0.000000 0.070652
O O9 1.000000 0.115891 0.178255
O O10 0.114431 0.248687 0.249262
O O11 0.195176 0.394641 0.323624
O O12 0.318350 0.309679 0.221672
O O13 0.272558 0.194128 0.335467
O O14 0.500000 0.751654 0.150968
O O15 0.500000 0.500000 0.568279
#
# Coordination Sequence:
#
# PCOD9542091 Si02
#       7
#     8   8   8   8   8   8   8
#     4  11  22  40  63  92 128 164 212 258 320 374
#     4   8  17  34  57  89 119 154 201 251 313 363
#     4  10  19  35  58  94 121 160 201 264 314 374
#     4  11  22  40  63  92 128 164 212 258 320 374
#     4  10  22  39  63  92 127 164 205 258 313 381
#     4  12  23  38  66  92 129 171 214 264 320 382
#     4  10  22  39  63  92 127 164 205 258 313 381
#
# _framework density 19.516079999999999
#
# number of rings (size 3 to 8) (size 9 to 14) (size 15 to 20)
#    0.000    1.714    4.286    0.429    2.000    1.143 
#    2.571    0.714    3.143    0.000    0.000    0.000 
#    0.000    0.000    0.000    0.000    0.000    0.000 
#
# Total GULP energy -156005.740463 kJ/mol
# GULP energy per Si atom -5571.633588 kJ/mol
# Density = 1.947166 g / cm^3
# Si number density = 19.516080 Si / 1000 Ang^3
#
#
#
# Elastic Constant Matrix: (Units=GPa)
#
#
# Indices 1 2 3 4 5 6 
#
# 1 75.8577 17.7058 38.5374 0.0000 0.0000 -0.0002
# 2 17.7058 75.8577 38.5374 0.0000 0.0000 0.0002
# 3 38.5374 38.5374 109.5373 0.0000 0.0000 0.0000
# 4 0.0000 0.0000 0.0000 25.2062 0.0000 0.0000
# 5 0.0000 0.0000 0.0000 0.0000 25.2062 0.0000
# 6 -0.0002 0.0002 0.0000 0.0000 0.0000 -19.5988
#
#
#
# Elastic Compliance Matrix: (Units=1/GPa)
#
#
# Indices 1 2 3 4 5 6 
#
# 1 0.016123 -0.001073 -0.005295 0.000000 0.000000 0.000000
# 2 -0.001073 0.016123 -0.005295 0.000000 0.000000 0.000000
# 3 -0.005295 -0.005295 0.012855 0.000000 0.000000 0.000000
# 4 0.000000 0.000000 0.000000 0.039673 0.000000 0.000000
# 5 0.000000 0.000000 0.000000 0.000000 0.039673 0.000000
# 6 0.000000 0.000000 0.000000 0.000000 0.000000 -0.051024
#
#
# Mechanical properties :
#
#
# Convention : Reuss Voigt Hill
#
# Bulk Modulus (GPa) = 45.92402 50.09042 48.00722
# Shear Modulus (GPa) = 48.07366 17.26085 32.66725
#
# Velocity S-wave (km/s) = 4.96853 2.97718 4.09573
# Velocity P-wave (km/s) = 7.51649 6.12700 6.85703
#
# Compressibility (1/GPa) = 0.02177510
#
# Stress axis : x y z
#
# Youngs Moduli (GPa) = 62.02339 62.02339 77.79135
#
# Poissons Ratio (x) = 0.06657 0.41188
# Poissons Ratio (y) = 0.06657 0.41188
# Poissons Ratio (z) = 0.32840 0.32840
#
# Static dielectric constant tensor:
#      x y z
#    x 1.696740 0.000000 0.000000 
#    y 0.000000 1.696740 0.000000 
#    z 0.000000 0.000000 1.667880 
# 
# From -- ./inp_files/1804.got.cif
#   From: 2010.05.17/outbox.cif.g08.bks.cpg/sg80_cif.got.tgz:1804.got - 2010.06.03 18:49:13.
