data_PCOD9542979
_publ_section_title
;
Structure prediction by ZEFSAII (Michael W. Deem and Ramdas Pophale) SiO2 
 PCOD9542979
Probable space group: I -4 
;
_chemical_formula_sum "Si O2"
_cell_formula_units_Z 36
_cell_length_a 9.577414
_cell_length_b 9.577414
_cell_length_c 19.352206
_cell_angle_alpha 90.000000
_cell_angle_beta 90.000000
_cell_angle_gamma 90.000000
_cell_volume 1775.117070
_symmetry_space_group_name_H-M "I -4 "
_symmetry_group_IT_number 82
_symmetry_cell_setting 'tetragonal'
loop_
_space_group_symop_operation_xyz
x,y,z
y,-x,-z
-x,-y,z
-y,x,-z
1/2+x,1/2+y,1/2+z
1/2+y,1/2-x,1/2-z
1/2-x,1/2-y,1/2+z
1/2-y,1/2+x,1/2-z
loop_
_atom_site_type_symbol
_atom_site_label
_atom_site_fract_x
_atom_site_fract_y
_atom_site_fract_z
Si Si1 0.000000 0.500000 0.010790
Si Si2 0.500000 0.500000 0.500000
Si Si3 0.482985 0.773717 0.268547
Si Si4 0.750781 0.102445 0.086726
Si Si5 0.000000 0.000000 0.322844
Si Si6 0.000000 0.500000 0.250000
Si Si7 0.918197 0.716365 0.370980
O O1 0.123541 0.544639 0.062579
O O2 0.057920 0.376387 0.962385
O O3 0.394797 0.590214 0.545654
O O4 0.621872 0.856442 0.245626
O O5 0.496177 0.744430 0.349387
O O6 0.476072 0.632939 0.225715
O O7 0.739184 0.257483 0.117822
O O8 0.009730 0.857087 0.365903
O O9 0.055789 0.377980 0.301866
#
# Coordination Sequence:
#
# PCOD9542979 Si02
#       7
#     4   2   8   8   4   2   8
#     4  11  26  45  73  96 145 180 232 284 333 408
#     4  12  26  44  76  96 130 188 232 266 340 418
#     4  11  24  44  71 102 137 176 224 285 340 402
#     4  12  24  46  68 103 135 181 228 280 337 408
#     4  12  25  44  73 105 135 180 226 288 350 403
#     4  10  24  48  76 104 138 176 238 296 342 404
#     4  11  25  45  71 105 137 180 231 288 342 404
#
# _framework density 20.280353000000002
#
# number of rings (size 3 to 8) (size 9 to 14) (size 15 to 20)
#    0.000    0.667    4.444    3.333    0.000    3.556 
#    0.000    0.000    0.000    0.000    0.000    0.000 
#    0.000    0.000    0.000    0.000    0.000    0.000 
#
# Total GULP energy -100649.483965 kJ/mol
# GULP energy per Si atom -5591.637998 kJ/mol
# Density = 2.023419 g / cm^3
# Si number density = 20.280353 Si / 1000 Ang^3
#
#
#
# Elastic Constant Matrix: (Units=GPa)
#
#
# Indices 1 2 3 4 5 6 
#
# 1 97.6100 12.2324 36.8363 0.0000 0.0000 5.7084
# 2 12.2324 97.6100 36.8363 0.0000 0.0000 -5.7084
# 3 36.8363 36.8363 104.7580 0.0000 0.0000 0.0000
# 4 0.0000 0.0000 0.0000 0.2483 0.0000 0.0000
# 5 0.0000 0.0000 0.0000 0.0000 0.2483 0.0000
# 6 5.7084 -5.7084 0.0000 0.0000 0.0000 -55.6176
#
#
#
# Elastic Compliance Matrix: (Units=1/GPa)
#
#
# Indices 1 2 3 4 5 6 
#
# 1 0.011734 0.000180 -0.004189 0.000000 0.000000 0.001186
# 2 0.000180 0.011734 -0.004189 0.000000 0.000000 -0.001186
# 3 -0.004189 -0.004189 0.012492 0.000000 0.000000 0.000000
# 4 0.000000 0.000000 0.000000 4.027484 0.000000 0.000000
# 5 0.000000 0.000000 0.000000 0.000000 4.027484 0.000000
# 6 0.001186 -0.001186 0.000000 0.000000 0.000000 -0.017736
#
#
# Mechanical properties :
#
#
# Convention : Reuss Voigt Hill
#
# Bulk Modulus (GPa) = 51.11843 52.42089 51.76966
# Shear Modulus (GPa) = 0.61758 3.24733 1.93246
#
# Velocity S-wave (km/s) = 0.55243 1.26677 0.97721
# Velocity P-wave (km/s) = 5.06631 5.29564 5.18225
#
# Compressibility (1/GPa) = 0.01956242
#
# Stress axis : x y z
#
# Youngs Moduli (GPa) = 85.22309 85.22309 80.05149
#
# Poissons Ratio (x) = -0.01532 0.33536
# Poissons Ratio (y) = -0.01532 0.33536
# Poissons Ratio (z) = 0.35702 0.35702
#
# Static dielectric constant tensor:
#      x y z
#    x 1.725720 0.000000 0.000000 
#    y 0.000000 1.725720 0.000000 
#    z 0.000000 0.000000 1.746030 
# 
# From -- ./inp_files/3014.got.cif
#   From: 2010.05.17/outbox.cif.g08.bks.cpg/sg82_2_cif.got.tgz:3014.got - 2010.06.03 18:52:26.
