data_PCOD9542255
_publ_section_title
;
Structure prediction by ZEFSAII (Michael W. Deem and Ramdas Pophale) SiO2 
 PCOD9542255
Probable space group: I 41
;
_chemical_formula_sum "Si O2"
_cell_formula_units_Z 52
_cell_length_a 18.083290
_cell_length_b 18.083290
_cell_length_c 9.225591
_cell_angle_alpha 90.000000
_cell_angle_beta 90.000000
_cell_angle_gamma 90.000000
_cell_volume 3016.817865
_symmetry_space_group_name_H-M "I 41"
_symmetry_group_IT_number 80
_symmetry_cell_setting 'tetragonal'
loop_
_space_group_symop_operation_xyz
x,y,z
-y,1/2+x,1/4+z
-x,-y,z
y,1/2-x,1/4+z
1/2+x,1/2+y,1/2+z
1/2-y,x,3/4+z
1/2-x,1/2-y,1/2+z
1/2+y,-x,3/4+z
loop_
_atom_site_type_symbol
_atom_site_label
_atom_site_fract_x
_atom_site_fract_y
_atom_site_fract_z
Si Si1 0.000000 0.000000 0.907721
Si Si2 0.544912 0.277352 0.671562
Si Si3 0.867843 0.078597 0.086374
Si Si4 0.515141 0.622489 0.920760
Si Si5 0.078597 0.132157 0.729068
Si Si6 0.222647 0.044912 0.643881
Si Si7 0.377511 0.515141 0.894683
O O1 0.033903 0.065657 0.808770
O O2 0.934343 0.033904 0.006671
O O3 0.601729 0.340369 0.622189
O O4 0.581052 0.204836 0.739849
O O5 0.495086 0.317285 0.795152
O O6 0.500000 0.249999 0.532722
O O7 0.848633 0.038276 0.237482
O O8 0.438446 0.577098 0.935256
O O9 0.577098 0.561554 0.880187
O O10 0.538276 0.651368 0.077961
O O11 0.159631 0.101730 0.693253
O O12 0.081052 0.204836 0.825595
O O13 0.182715 0.995086 0.520290
#
# Coordination Sequence:
#
# PCOD9542255 Si02
#       7
#     4   8   8   8   8   8   8
#     4  12  20  36  70  88 108 144 214 256 288 356
#     4  11  22  38  58  88 121 155 198 246 301 353
#     4  11  22  38  60  89 117 156 198 247 300 357
#     4   9  19  36  61  89 119 151 199 248 294 349
#     4  11  22  38  60  89 117 156 198 247 300 357
#     4  11  22  38  58  88 121 155 198 246 301 353
#     4   9  19  36  61  89 119 151 199 248 294 349
#
# _framework density 17.236706000000002
#
# number of rings (size 3 to 8) (size 9 to 14) (size 15 to 20)
#    0.000    1.538    3.077    4.615    0.000    0.000 
#    0.000    6.154    0.000    0.000    0.000    0.000 
#    0.000    0.000    0.000    0.000    0.000    0.000 
#
# Total GULP energy -145120.927779 kJ/mol
# GULP energy per Si atom -5581.574145 kJ/mol
# Density = 1.719747 g / cm^3
# Si number density = 17.236706 Si / 1000 Ang^3
#
#
#
# Elastic Constant Matrix: (Units=GPa)
#
#
# Indices 1 2 3 4 5 6 
#
# 1 101.1600 50.3750 77.6399 0.0000 0.0000 -6.7191
# 2 50.3750 101.1600 77.6399 0.0000 0.0000 6.7191
# 3 77.6399 77.6399 152.6321 0.0000 0.0000 0.0000
# 4 0.0000 0.0000 0.0000 39.9177 0.0000 0.0000
# 5 0.0000 0.0000 0.0000 0.0000 39.9177 0.0000
# 6 -6.7191 6.7191 0.0000 0.0000 0.0000 14.0005
#
#
#
# Elastic Compliance Matrix: (Units=1/GPa)
#
#
# Indices 1 2 3 4 5 6 
#
# 1 0.018170 -0.004386 -0.007012 0.000000 0.000000 0.010825
# 2 -0.004386 0.018170 -0.007012 0.000000 0.000000 -0.010825
# 3 -0.007012 -0.007012 0.013685 0.000000 0.000000 0.000000
# 4 0.000000 0.000000 0.000000 0.025052 0.000000 0.000000
# 5 0.000000 0.000000 0.000000 0.000000 0.025052 0.000000
# 6 0.010825 -0.010825 0.000000 0.000000 0.000000 0.081816
#
#
# Mechanical properties :
#
#
# Convention : Reuss Voigt Hill
#
# Bulk Modulus (GPa) = 75.71954 85.14018 80.42986
# Shear Modulus (GPa) = 22.40516 28.72034 25.56275
#
# Velocity S-wave (km/s) = 3.60926 4.08638 3.85521
# Velocity P-wave (km/s) = 7.83541 8.47152 8.15966
#
# Compressibility (1/GPa) = 0.01320663
#
# Stress axis : x y z
#
# Youngs Moduli (GPa) = 55.03707 55.03707 73.07350
#
# Poissons Ratio (x) = 0.24137 0.51236
# Poissons Ratio (y) = 0.24137 0.51236
# Poissons Ratio (z) = 0.38589 0.38589
#
# Static dielectric constant tensor:
#      x y z
#    x 1.577880 0.000000 0.000000 
#    y 0.000000 1.577880 0.000000 
#    z 0.000000 0.000000 1.600660 
# 
# From -- ./inp_files/726.got.cif
#   From: 2010.05.17/outbox.cif.g08.bks.cpg/sg80_cif.got.tgz:726.got - 2010.06.03 18:49:13.
