data_PCOD9542654
_publ_section_title
;
Structure prediction by ZEFSAII (Michael W. Deem and Ramdas Pophale) SiO2 
 PCOD9542654
Probable space group: I -4 
;
_chemical_formula_sum "Si O2"
_cell_formula_units_Z 24
_cell_length_a 8.654548
_cell_length_b 8.654548
_cell_length_c 12.898688
_cell_angle_alpha 90.000000
_cell_angle_beta 90.000000
_cell_angle_gamma 90.000000
_cell_volume 966.127224
_symmetry_space_group_name_H-M "I -4 "
_symmetry_group_IT_number 82
_symmetry_cell_setting 'tetragonal'
loop_
_space_group_symop_operation_xyz
x,y,z
y,-x,-z
-x,-y,z
-y,x,-z
1/2+x,1/2+y,1/2+z
1/2+y,1/2-x,1/2-z
1/2-x,1/2-y,1/2+z
1/2-y,1/2+x,1/2-z
loop_
_atom_site_type_symbol
_atom_site_label
_atom_site_fract_x
_atom_site_fract_y
_atom_site_fract_z
Si Si1 0.486565 0.262995 0.515586
Si Si2 0.389533 0.184437 0.800491
Si Si3 0.417726 0.707105 0.056246
O O1 0.362804 0.393157 0.553207
O O2 0.589400 0.189778 0.605532
O O3 0.381890 0.135509 0.460627
O O4 0.575739 0.170286 0.793478
O O5 0.343459 0.357856 0.829910
O O6 0.592534 0.671317 0.025222
#
# Coordination Sequence:
#
# PCOD9542654 Si02
#       3
#     8   8   8
#     4   9  19  37  59  85 115 157 202 241 295 369
#     4  10  19  34  59  87 116 151 195 249 300 343
#     4  10  20  35  56  86 119 158 199 239 295 369
#
# _framework density 24.841448
#
# number of rings (size 3 to 8) (size 9 to 14) (size 15 to 20)
#    0.000    2.333    0.000    4.000    0.000    4.000 
#    0.000   26.667    0.000    0.000    0.000   70.000 
#    0.000    0.000    0.000    0.000    0.000    0.000 
#
# Total GULP energy -66824.096456 kJ/mol
# GULP energy per Si atom -5568.674705 kJ/mol
# Density = 2.478491 g / cm^3
# Si number density = 24.841448 Si / 1000 Ang^3
#
#
#
# Elastic Constant Matrix: (Units=GPa)
#
#
# Indices 1 2 3 4 5 6 
#
# 1 106.9680 37.8462 26.3715 0.0000 0.0000 11.1758
# 2 37.8462 106.9680 26.3715 0.0000 0.0000 -11.1758
# 3 26.3715 26.3715 57.1308 0.0000 0.0000 0.0000
# 4 0.0000 0.0000 0.0000 44.2960 0.0000 0.0000
# 5 0.0000 0.0000 0.0000 0.0000 44.2960 0.0000
# 6 11.1758 -11.1758 0.0000 0.0000 0.0000 73.4091
#
#
#
# Elastic Compliance Matrix: (Units=1/GPa)
#
#
# Indices 1 2 3 4 5 6 
#
# 1 0.011759 -0.003458 -0.003832 0.000000 0.000000 -0.002317
# 2 -0.003458 0.011759 -0.003832 0.000000 0.000000 0.002317
# 3 -0.003832 -0.003832 0.021041 0.000000 0.000000 0.000000
# 4 0.000000 0.000000 0.000000 0.022575 0.000000 0.000000
# 5 0.000000 0.000000 0.000000 0.000000 0.022575 0.000000
# 6 -0.002317 0.002317 0.000000 0.000000 0.000000 0.014328
#
#
# Mechanical properties :
#
#
# Convention : Reuss Voigt Hill
#
# Bulk Modulus (GPa) = 44.81052 50.24946 47.52999
# Shear Modulus (GPa) = 37.39222 44.43207 40.91215
#
# Velocity S-wave (km/s) = 3.88395 4.23380 4.06264
# Velocity P-wave (km/s) = 6.17990 6.64621 6.41729
#
# Compressibility (1/GPa) = 0.02231619
#
# Stress axis : x y z
#
# Youngs Moduli (GPa) = 85.04402 85.04401 47.52602
#
# Poissons Ratio (x) = 0.29405 0.18211
# Poissons Ratio (y) = 0.29405 0.18211
# Poissons Ratio (z) = 0.32586 0.32586
#
# Static dielectric constant tensor:
#      x y z
#    x 2.047230 0.000000 0.000000 
#    y 0.000000 2.047230 0.000000 
#    z 0.000000 0.000000 2.105650 
# 
# From -- ./inp_files/2025.got.cif
#   From: 2010.05.17/outbox.cif.g08.bks.cpg/sg82_2_cif.got.tgz:2025.got - 2010.06.03 18:52:26.
