data_PCOD9542021
_publ_section_title
;
Structure prediction by ZEFSAII (Michael W. Deem and Ramdas Pophale) SiO2 
 PCOD9542021
Probable space group: I 4
;
_chemical_formula_sum "Si O2"
_cell_formula_units_Z 32
_cell_length_a 9.850290
_cell_length_b 9.850290
_cell_length_c 11.908826
_cell_angle_alpha 90.000000
_cell_angle_beta 90.000000
_cell_angle_gamma 90.000000
_cell_volume 1155.492107
_symmetry_space_group_name_H-M "I 4"
_symmetry_group_IT_number 79
_symmetry_cell_setting 'tetragonal'
loop_
_space_group_symop_operation_xyz
x,y,z
-y,x,z
-x,-y,z
y,-x,z
1/2+x,1/2+y,1/2+z
1/2-y,1/2+x,1/2+z
1/2-x,1/2-y,1/2+z
1/2+y,1/2-x,1/2+z
loop_
_atom_site_type_symbol
_atom_site_label
_atom_site_fract_x
_atom_site_fract_y
_atom_site_fract_z
Si Si1 0.695831 0.016692 0.755370
Si Si2 0.289966 0.437653 0.844759
Si Si3 0.707841 0.665940 0.098696
Si Si4 0.581400 0.290769 0.489967
O O1 0.823901 0.091593 0.694449
O O2 0.731941 0.929171 0.865587
O O3 0.664054 0.903709 0.660953
O O4 0.825676 0.301866 0.065657
O O5 0.413287 0.338650 0.807630
O O6 0.140968 0.396403 0.801494
O O7 0.298601 0.414404 0.980474
O O8 0.667259 0.427996 0.507899
#
# Coordination Sequence:
#
# PCOD9542021 Si02
#       4
#     8   8   8   8
#     4  12  25  49  87 118 170 235 297 366 456 527
#     4  11  25  50  82 125 180 226 297 369 445 556
#     4  12  24  46  83 122 162 231 289 368 449 525
#     4  11  24  47  81 118 169 226 299 361 440 547
#
# _framework density 27.693829000000001
#
# number of rings (size 3 to 8) (size 9 to 14) (size 15 to 20)
#    0.000    0.500    7.500    0.000    0.000    2.500 
#    0.000   16.250    0.000    0.000    0.000    0.000 
#    0.000    0.000    0.000    0.000    0.000    0.000 
#
# Total GULP energy -89280.314907 kJ/mol
# GULP energy per Si atom -5580.019682 kJ/mol
# Density = 2.763080 g / cm^3
# Si number density = 27.693829 Si / 1000 Ang^3
#
#
#
# Elastic Constant Matrix: (Units=GPa)
#
#
# Indices 1 2 3 4 5 6 
#
# 1 151.7607 60.6083 60.1563 0.0000 0.0000 -4.7125
# 2 60.6083 151.7607 60.1563 0.0000 0.0000 4.7125
# 3 60.1563 60.1563 130.5210 0.0000 0.0000 0.0000
# 4 0.0000 0.0000 0.0000 43.4789 0.0000 0.0000
# 5 0.0000 0.0000 0.0000 0.0000 43.4789 0.0000
# 6 -4.7125 4.7125 0.0000 0.0000 0.0000 14.3409
#
#
#
# Elastic Compliance Matrix: (Units=1/GPa)
#
#
# Indices 1 2 3 4 5 6 
#
# 1 0.008865 -0.002492 -0.002937 0.000000 0.000000 0.003732
# 2 -0.002492 0.008865 -0.002937 0.000000 0.000000 -0.003732
# 3 -0.002937 -0.002937 0.010369 0.000000 0.000000 0.000000
# 4 0.000000 0.000000 0.000000 0.023000 0.000000 0.000000
# 5 0.000000 0.000000 0.000000 0.000000 0.023000 0.000000
# 6 0.003732 -0.003732 0.000000 0.000000 0.000000 0.072183
#
#
# Mechanical properties :
#
#
# Convention : Reuss Voigt Hill
#
# Bulk Modulus (GPa) = 87.98240 88.43157 88.20698
# Shear Modulus (GPa) = 29.97572 37.13452 33.55512
#
# Velocity S-wave (km/s) = 3.29355 3.66580 3.48465
# Velocity P-wave (km/s) = 6.80455 7.06531 6.93616
#
# Compressibility (1/GPa) = 0.01136591
#
# Stress axis : x y z
#
# Youngs Moduli (GPa) = 112.80784 112.80784 96.44092
#
# Poissons Ratio (x) = 0.28110 0.28326
# Poissons Ratio (y) = 0.28110 0.28326
# Poissons Ratio (z) = 0.33134 0.33134
#
# Static dielectric constant tensor:
#      x y z
#    x 2.310870 0.000000 0.000000 
#    y 0.000000 2.310870 0.000000 
#    z 0.000000 0.000000 2.180900 
# 
# From -- ./inp_files/434.got.cif
#   From: 2010.05.17/outbox.cif.g08.bks.cpg/sg79_cif.got.tgz:434.got - 2010.06.03 18:47:27.
