data_PCOD9542956
_publ_section_title
;
Structure prediction by ZEFSAII (Michael W. Deem and Ramdas Pophale) SiO2 
 PCOD9542956
Probable space group: I -4 
;
_chemical_formula_sum "Si O2"
_cell_formula_units_Z 42
_cell_length_a 8.778684
_cell_length_b 8.778684
_cell_length_c 25.702767
_cell_angle_alpha 90.000000
_cell_angle_beta 90.000000
_cell_angle_gamma 90.000000
_cell_volume 1980.791264
_symmetry_space_group_name_H-M "I -4 "
_symmetry_group_IT_number 82
_symmetry_cell_setting 'tetragonal'
loop_
_space_group_symop_operation_xyz
x,y,z
y,-x,-z
-x,-y,z
-y,x,-z
1/2+x,1/2+y,1/2+z
1/2+y,1/2-x,1/2-z
1/2-x,1/2-y,1/2+z
1/2-y,1/2+x,1/2-z
loop_
_atom_site_type_symbol
_atom_site_label
_atom_site_fract_x
_atom_site_fract_y
_atom_site_fract_z
Si Si1 0.243291 0.976334 0.195612
Si Si2 0.535274 0.752772 0.190410
Si Si3 0.588784 0.692264 0.413402
Si Si4 0.500000 0.500000 0.102596
Si Si5 0.000000 0.500000 0.953052
Si Si6 0.835055 0.434850 0.054257
Si Si7 0.500000 0.500000 0.500000
O O1 0.313670 0.143743 0.185935
O O2 0.173149 0.959573 0.252826
O O3 0.389519 0.863434 0.196154
O O4 0.145212 0.929875 0.145814
O O5 0.513740 0.643898 0.141511
O O6 0.555520 0.868849 0.416032
O O7 0.756140 0.657430 0.433713
O O8 0.474644 0.631362 0.458077
O O9 0.665482 0.489134 0.072658
O O10 0.138914 0.534494 0.992863
O O11 0.000000 0.500000 0.076270
#
# Coordination Sequence:
#
# PCOD9542956 Si02
#       7
#     8   8   8   4   4   8   2
#     4   9  19  38  64  91 133 166 223 281 328 410
#     4   9  19  36  64 102 121 168 228 275 329 419
#     4  12  22  42  67  92 133 184 219 285 350 405
#     4  12  22  41  77  96 138 186 220 290 370 418
#     4  10  24  42  66  97 143 172 236 286 340 430
#     4  10  25  45  63 101 147 171 239 289 346 439
#     4  12  24  38  64  92 124 178 220 264 336 406
#
# _framework density 21.20365
#
# number of rings (size 3 to 8) (size 9 to 14) (size 15 to 20)
#    0.571    1.143    3.810    2.286    0.000    5.333 
#    0.000    1.905    0.000    0.000    0.000    0.000 
#    0.000    0.000    0.000    0.000    0.000    0.000 
#
# Total GULP energy -116942.055914 kJ/mol
# GULP energy per Si atom -5568.669329 kJ/mol
# Density = 2.115539 g / cm^3
# Si number density = 21.203650 Si / 1000 Ang^3
#
#
#
# Elastic Constant Matrix: (Units=GPa)
#
#
# Indices 1 2 3 4 5 6 
#
# 1 65.0792 4.3684 10.3095 0.0000 0.0000 -2.9472
# 2 4.3684 65.0792 10.3095 0.0000 0.0000 2.9472
# 3 10.3095 10.3095 136.3099 0.0000 0.0000 0.0000
# 4 0.0000 0.0000 0.0000 110.0268 0.0000 0.0000
# 5 0.0000 0.0000 0.0000 0.0000 110.0268 0.0000
# 6 -2.9472 2.9472 0.0000 0.0000 0.0000 25.2836
#
#
#
# Elastic Compliance Matrix: (Units=1/GPa)
#
#
# Indices 1 2 3 4 5 6 
#
# 1 0.015695 -0.000965 -0.001114 0.000000 0.000000 0.001942
# 2 -0.000965 0.015695 -0.001114 0.000000 0.000000 -0.001942
# 3 -0.001114 -0.001114 0.007505 0.000000 0.000000 0.000000
# 4 0.000000 0.000000 0.000000 0.009089 0.000000 0.000000
# 5 0.000000 0.000000 0.000000 0.000000 0.009089 0.000000
# 6 0.001942 -0.001942 0.000000 0.000000 0.000000 0.040004
#
#
# Mechanical properties :
#
#
# Convention : Reuss Voigt Hill
#
# Bulk Modulus (GPa) = 30.76103 35.16035 32.96069
# Shear Modulus (GPa) = 43.74495 65.16616 54.45555
#
# Velocity S-wave (km/s) = 4.54705 5.54979 5.07325
# Velocity P-wave (km/s) = 6.48895 7.59507 7.06369
#
# Compressibility (1/GPa) = 0.03250866
#
# Stress axis : x y z
#
# Youngs Moduli (GPa) = 63.71413 63.71411 133.24901
#
# Poissons Ratio (x) = 0.06148 0.14845
# Poissons Ratio (y) = 0.06148 0.14845
# Poissons Ratio (z) = 0.07098 0.07098
#
# Static dielectric constant tensor:
#      x y z
#    x 1.676820 0.000000 0.000000 
#    y 0.000000 1.676820 0.000000 
#    z 0.000000 0.000000 1.776680 
# 
# From -- ./inp_files/3751.got.cif
#   From: 2010.05.17/outbox.cif.g08.bks.cpg/sg82_2_cif.got.tgz:3751.got - 2010.06.03 18:52:26.
