data_PCOD9542559
_publ_section_title
;
Structure prediction by ZEFSAII (Michael W. Deem and Ramdas Pophale) SiO2 
 PCOD9542559
Probable space group: P -4
;
_chemical_formula_sum "Si O2"
_cell_formula_units_Z 14
_cell_length_a 8.673794
_cell_length_b 8.673794
_cell_length_c 8.032403
_cell_angle_alpha 90.000000
_cell_angle_beta 90.000000
_cell_angle_gamma 90.000000
_cell_volume 604.315449
_symmetry_space_group_name_H-M "P -4"
_symmetry_group_IT_number 81
_symmetry_cell_setting 'tetragonal'
loop_
_space_group_symop_operation_xyz
x,y,z
y,-x,-z
-x,-y,z
-y,x,-z
loop_
_atom_site_type_symbol
_atom_site_label
_atom_site_fract_x
_atom_site_fract_y
_atom_site_fract_z
Si Si1 0.500000 0.500000 0.000000
Si Si2 0.663158 0.074283 0.169962
Si Si3 0.904036 0.658299 0.461082
Si Si4 0.000000 0.000000 0.500000
Si Si5 0.267052 0.727091 0.851014
O O1 0.566995 0.648116 0.099857
O O2 0.660815 0.157166 0.348350
O O3 0.500000 0.000000 0.119375
O O4 0.745860 0.911410 0.200636
O O5 0.723471 0.171110 0.017455
O O6 0.785990 0.643989 0.310483
O O7 0.000000 0.500000 0.457803
O O8 0.994250 0.821240 0.430650
#
# Coordination Sequence:
#
# PCOD9542559 Si02
#       5
#     1   4   4   1   4
#     4  12  28  48  74 112 152 202 252 308 414 468
#     4  11  25  45  72 108 146 193 253 311 382 464
#     4  11  27  48  73 111 152 199 257 324 379 475
#     4  12  24  48  78 112 148 194 268 304 386 472
#     4  12  26  48  75 107 150 195 247 323 385 470
#
# _framework density 23.166708
#
# number of rings (size 3 to 8) (size 9 to 14) (size 15 to 20)
#    0.000    0.571    5.714    0.857    4.000    0.571 
#    0.000    1.429    0.000    0.000    0.000    0.000 
#    0.000    0.000    0.000    0.000    0.000    0.000 
#
# Total GULP energy -77944.334829 kJ/mol
# GULP energy per Si atom -5567.452488 kJ/mol
# Density = 2.311398 g / cm^3
# Si number density = 23.166708 Si / 1000 Ang^3
#
#
#
# Elastic Constant Matrix: (Units=GPa)
#
#
# Indices 1 2 3 4 5 6 
#
# 1 91.5407 -5.4017 17.3387 0.0000 0.0000 3.6308
# 2 -5.4017 91.5407 17.3387 0.0000 0.0000 -3.6308
# 3 17.3387 17.3387 130.9021 0.0000 0.0000 0.0000
# 4 0.0000 0.0000 0.0000 45.4400 0.0000 0.0000
# 5 0.0000 0.0000 0.0000 0.0000 45.4400 0.0000
# 6 3.6308 -3.6308 0.0000 0.0000 0.0000 24.2268
#
#
#
# Elastic Compliance Matrix: (Units=1/GPa)
#
#
# Indices 1 2 3 4 5 6 
#
# 1 0.011348 0.000915 -0.001624 0.000000 0.000000 -0.001563
# 2 0.000915 0.011348 -0.001624 0.000000 0.000000 0.001563
# 3 -0.001624 -0.001624 0.008070 0.000000 0.000000 0.000000
# 4 0.000000 0.000000 0.000000 0.022007 0.000000 0.000000
# 5 0.000000 0.000000 0.000000 0.000000 0.022007 0.000000
# 6 -0.001563 0.001563 0.000000 0.000000 0.000000 0.041745
#
#
# Mechanical properties :
#
#
# Convention : Reuss Voigt Hill
#
# Bulk Modulus (GPa) = 38.31647 41.39280 39.85463
# Shear Modulus (GPa) = 38.49390 42.00186 40.24788
#
# Velocity S-wave (km/s) = 4.08070 4.26258 4.17263
# Velocity P-wave (km/s) = 6.22721 6.49094 6.36044
#
# Compressibility (1/GPa) = 0.02609844
#
# Stress axis : x y z
#
# Youngs Moduli (GPa) = 88.12295 88.12295 123.92190
#
# Poissons Ratio (x) = -0.08066 0.20129
# Poissons Ratio (y) = -0.08066 0.20129
# Poissons Ratio (z) = 0.14314 0.14314
#
# Static dielectric constant tensor:
#      x y z
#    x 2.045390 0.000000 0.000000 
#    y 0.000000 2.045390 0.000000 
#    z 0.000000 0.000000 1.796650 
# 
# From -- ./inp_files/510.got.cif
#   From: 2010.05.17/outbox.cif.g08.bks.cpg/sg81_cif.got.tgz:510.got - 2010.06.03 18:51:07.
