data_PCOD9542480
_publ_section_title
;
Structure prediction by ZEFSAII (Michael W. Deem and Ramdas Pophale) SiO2 
 PCOD9542480
Probable space group: P -4
;
_chemical_formula_sum "Si O2"
_cell_formula_units_Z 19
_cell_length_a 8.902219
_cell_length_b 8.902219
_cell_length_c 9.859149
_cell_angle_alpha 90.000000
_cell_angle_beta 90.000000
_cell_angle_gamma 90.000000
_cell_volume 781.332659
_symmetry_space_group_name_H-M "P -4"
_symmetry_group_IT_number 81
_symmetry_cell_setting 'tetragonal'
loop_
_space_group_symop_operation_xyz
x,y,z
y,-x,-z
-x,-y,z
-y,x,-z
loop_
_atom_site_type_symbol
_atom_site_label
_atom_site_fract_x
_atom_site_fract_y
_atom_site_fract_z
Si Si1 0.675853 0.515619 0.793879
Si Si2 0.000000 0.500000 0.946614
Si Si3 0.253244 0.913969 0.833816
Si Si4 0.272058 0.358232 0.390184
Si Si5 0.000000 0.000000 0.000000
Si Si6 0.309068 0.185200 0.646080
O O1 0.500000 0.500000 0.850048
O O2 0.653327 0.451008 0.638005
O O3 0.697112 0.693727 0.766499
O O4 0.839654 0.481565 0.865642
O O5 0.029415 0.363938 0.050793
O O6 0.252450 0.031977 0.710014
O O7 0.308136 0.763947 0.764481
O O8 0.093627 0.895746 0.901478
O O9 0.228317 0.248691 0.511967
O O10 0.186262 0.515590 0.395255
#
# Coordination Sequence:
#
# PCOD9542480 Si02
#       6
#     4   2   4   4   1   4
#     4  10  24  41  71 103 137 200 238 295 376 435
#     4  12  24  48  64 104 148 178 256 298 350 458
#     4  12  26  46  67 101 137 193 230 306 371 431
#     4  11  22  44  70 103 143 180 240 303 365 439
#     4  12  28  48  66  92 152 180 244 306 356 464
#     4  11  22  44  70 103 143 180 240 303 365 439
#
# _framework density 24.317425
#
# number of rings (size 3 to 8) (size 9 to 14) (size 15 to 20)
#    0.000    0.842    4.211    2.526    0.000    3.368 
#    3.789    0.000    0.000    0.000    0.000    0.000 
#    0.000    0.000    0.000    0.000    0.000    0.000 
#
# Total GULP energy -105769.924468 kJ/mol
# GULP energy per Si atom -5566.838130 kJ/mol
# Density = 2.426208 g / cm^3
# Si number density = 24.317425 Si / 1000 Ang^3
#
#
#
# Elastic Constant Matrix: (Units=GPa)
#
#
# Indices 1 2 3 4 5 6 
#
# 1 35.8936 14.7240 29.4866 0.0000 0.0000 -6.3546
# 2 14.7240 35.8936 29.4866 0.0000 0.0000 6.3546
# 3 29.4866 29.4866 98.5105 0.0000 0.0000 0.0000
# 4 0.0000 0.0000 0.0000 5.7727 0.0000 0.0000
# 5 0.0000 0.0000 0.0000 0.0000 5.7727 0.0000
# 6 -6.3546 6.3546 0.0000 0.0000 0.0000 26.9591
#
#
#
# Elastic Compliance Matrix: (Units=1/GPa)
#
#
# Indices 1 2 3 4 5 6 
#
# 1 0.042679 -0.012345 -0.009080 0.000000 0.000000 0.012970
# 2 -0.012345 0.042679 -0.009080 0.000000 0.000000 -0.012970
# 3 -0.009080 -0.009080 0.015587 0.000000 0.000000 0.000000
# 4 0.000000 0.000000 0.000000 0.173230 0.000000 0.000000
# 5 0.000000 0.000000 0.000000 0.000000 0.173230 0.000000
# 6 0.012970 -0.012970 0.000000 0.000000 0.000000 0.043208
#
#
# Mechanical properties :
#
#
# Convention : Reuss Voigt Hill
#
# Bulk Modulus (GPa) = 25.03962 35.29912 30.16937
# Shear Modulus (GPa) = 8.85059 14.14092 11.49575
#
# Velocity S-wave (km/s) = 1.90985 2.41408 2.17661
# Velocity P-wave (km/s) = 3.89650 4.72418 4.33016
#
# Compressibility (1/GPa) = 0.03993671
#
# Stress axis : x y z
#
# Youngs Moduli (GPa) = 23.43049 23.43049 64.15639
#
# Poissons Ratio (x) = 0.28924 0.58254
# Poissons Ratio (y) = 0.28924 0.58254
# Poissons Ratio (z) = 0.21275 0.21275
#
# Static dielectric constant tensor:
#      x y z
#    x 1.982360 0.000000 0.000000 
#    y 0.000000 1.982360 0.000000 
#    z 0.000000 0.000000 1.945940 
# 
# From -- ./inp_files/1296.got.cif
#   From: 2010.05.17/outbox.cif.g08.bks.cpg/sg81_cif.got.tgz:1296.got - 2010.06.03 18:51:07.
