data_PCOD9542333
_publ_section_title
;
Structure prediction by ZEFSAII (Michael W. Deem and Ramdas Pophale) SiO2 
 PCOD9542333
Probable space group: P -4
;
_chemical_formula_sum "Si O2"
_cell_formula_units_Z 24
_cell_length_a 11.497802
_cell_length_b 11.497802
_cell_length_c 7.856851
_cell_angle_alpha 90.000000
_cell_angle_beta 90.000000
_cell_angle_gamma 90.000000
_cell_volume 1038.671387
_symmetry_space_group_name_H-M "P -4"
_symmetry_group_IT_number 81
_symmetry_cell_setting 'tetragonal'
loop_
_space_group_symop_operation_xyz
x,y,z
y,-x,-z
-x,-y,z
-y,x,-z
loop_
_atom_site_type_symbol
_atom_site_label
_atom_site_fract_x
_atom_site_fract_y
_atom_site_fract_z
Si Si1 0.815057 0.754602 0.176532
Si Si2 0.186664 0.053236 0.735316
Si Si3 0.393915 0.828107 0.491387
Si Si4 0.766014 0.376897 0.356717
Si Si5 0.386845 0.364309 0.964354
Si Si6 0.003112 0.770963 0.655320
O O1 0.843029 0.656280 0.317746
O O2 0.946140 0.798796 0.136683
O O3 0.759999 0.869148 0.266339
O O4 0.726041 0.700865 0.040137
O O5 0.302106 0.131063 0.726115
O O6 0.076540 0.137041 0.756308
O O7 0.180580 0.009387 0.538840
O O8 0.326585 0.713260 0.431315
O O9 0.530465 0.811872 0.509103
O O10 0.347849 0.930860 0.370446
O O11 0.699690 0.435839 0.201617
O O12 0.361675 0.498742 0.917141
#
# Coordination Sequence:
#
# PCOD9542333 Si02
#       6
#     4   4   4   4   4   4
#     4  11  21  41  67  99 129 178 219 269 350 411
#     4  10  20  36  67  97 133 167 218 285 338 400
#     4  10  23  38  68  98 127 171 224 291 331 395
#     4  11  23  43  64  99 134 171 233 282 342 406
#     4  11  26  46  66  89 139 188 226 278 345 414
#     4  10  18  36  67 104 130 165 217 278 347 399
#
# _framework density 23.106441
#
# number of rings (size 3 to 8) (size 9 to 14) (size 15 to 20)
#    0.000    1.500    6.667    0.500    2.333    3.000 
#    6.000    0.000    0.000    0.000    0.000    0.000 
#    0.000    0.000    0.000    0.000    0.000    0.000 
#
# Total GULP energy -134000.129475 kJ/mol
# GULP energy per Si atom -5583.338728 kJ/mol
# Density = 2.305385 g / cm^3
# Si number density = 23.106441 Si / 1000 Ang^3
#
#
#
# Elastic Constant Matrix: (Units=GPa)
#
#
# Indices 1 2 3 4 5 6 
#
# 1 112.7506 32.9836 15.9192 0.0000 0.0000 -8.1272
# 2 32.9836 112.7506 15.9192 0.0000 0.0000 8.1272
# 3 15.9192 15.9192 35.6697 0.0000 0.0000 0.0000
# 4 0.0000 0.0000 0.0000 18.1034 0.0000 0.0000
# 5 0.0000 0.0000 0.0000 0.0000 18.1034 0.0000
# 6 -8.1272 8.1272 0.0000 0.0000 0.0000 18.1405
#
#
#
# Elastic Compliance Matrix: (Units=1/GPa)
#
#
# Indices 1 2 3 4 5 6 
#
# 1 0.010700 -0.003096 -0.003393 0.000000 0.000000 0.006181
# 2 -0.003096 0.010700 -0.003393 0.000000 0.000000 -0.006181
# 3 -0.003393 -0.003393 0.031064 0.000000 0.000000 0.000000
# 4 0.000000 0.000000 0.000000 0.055238 0.000000 0.000000
# 5 0.000000 0.000000 0.000000 0.000000 0.055238 0.000000
# 6 0.006181 -0.006181 0.000000 0.000000 0.000000 0.060663
#
#
# Mechanical properties :
#
#
# Convention : Reuss Voigt Hill
#
# Bulk Modulus (GPa) = 30.58379 43.42389 37.00384
# Shear Modulus (GPa) = 19.66433 23.95940 21.81186
#
# Velocity S-wave (km/s) = 2.92041 3.22361 3.07575
# Velocity P-wave (km/s) = 4.96352 5.71746 5.35378
#
# Compressibility (1/GPa) = 0.03269706
#
# Stress axis : x y z
#
# Youngs Moduli (GPa) = 93.46171 93.46171 32.19185
#
# Poissons Ratio (x) = 0.28940 0.10923
# Poissons Ratio (y) = 0.28940 0.10923
# Poissons Ratio (z) = 0.31714 0.31714
#
# Static dielectric constant tensor:
#      x y z
#    x 1.899690 0.000000 0.000000 
#    y 0.000000 1.899690 0.000000 
#    z 0.000000 0.000000 1.912760 
# 
# From -- ./inp_files/851.got.cif
#   From: 2010.05.17/outbox.cif.g08.bks.cpg/sg81_cif.got.tgz:851.got - 2010.06.03 18:51:07.
