data_PCOD9542004
_publ_section_title
;
Structure prediction by ZEFSAII (Michael W. Deem and Ramdas Pophale) SiO2 
 PCOD9542004
Probable space group: I 4
;
_chemical_formula_sum "Si O2"
_cell_formula_units_Z 60
_cell_length_a 11.413077
_cell_length_b 11.413077
_cell_length_c 22.769856
_cell_angle_alpha 90.000000
_cell_angle_beta 90.000000
_cell_angle_gamma 90.000000
_cell_volume 2965.963340
_symmetry_space_group_name_H-M "I 4"
_symmetry_group_IT_number 79
_symmetry_cell_setting 'tetragonal'
loop_
_space_group_symop_operation_xyz
x,y,z
-y,x,z
-x,-y,z
y,-x,z
1/2+x,1/2+y,1/2+z
1/2-y,1/2+x,1/2+z
1/2-x,1/2-y,1/2+z
1/2+y,1/2-x,1/2+z
loop_
_atom_site_type_symbol
_atom_site_label
_atom_site_fract_x
_atom_site_fract_y
_atom_site_fract_z
Si Si1 0.333970 0.866003 0.231970
Si Si2 0.952200 0.808979 0.999209
Si Si3 0.834285 0.634237 0.911194
Si Si4 0.970509 0.804493 0.130527
Si Si5 0.141456 0.858624 0.321723
Si Si6 0.804573 0.970070 0.512621
Si Si7 0.951648 0.190877 0.643982
Si Si8 0.500000 0.000000 0.821552
O O1 0.285585 0.955437 0.182982
O O2 0.218315 0.817717 0.265942
O O3 0.411157 0.775466 0.195083
O O4 0.416033 0.923438 0.280529
O O5 0.911934 0.724504 0.948013
O O6 0.081309 0.863604 0.995253
O O7 0.951207 0.755474 0.064939
O O8 0.718623 0.682758 0.877300
O O9 0.916019 0.576529 0.862582
O O10 0.785669 0.545079 0.960246
O O11 0.093856 0.871695 0.135519
O O12 0.000043 0.841591 0.321806
O O13 0.755744 0.950578 0.578228
O O14 0.906439 0.871496 0.507582
O O15 0.080917 0.136624 0.647988
#
# Coordination Sequence:
#
# PCOD9542004 Si02
#       8
#     8   8   8   8   8   8   8   4
#     4  12  24  42  62  90 133 176 206 273 325 394
#     4   9  21  41  66  94 124 164 217 266 320 396
#     4  12  24  42  62  90 133 176 206 273 325 394
#     4   9  19  39  68  99 123 155 215 278 325 383
#     4  11  24  42  66  93 120 172 234 275 316 374
#     4   9  19  39  68  99 123 155 215 278 325 383
#     4   9  21  41  66  94 124 164 217 266 320 396
#     4  12  32  44  52  94 144 168 216 268 334 380
#
# _framework density 20.229517000000001
#
# number of rings (size 3 to 8) (size 9 to 14) (size 15 to 20)
#    0.000    1.733    1.333    4.000    3.733    2.133 
#    0.000    5.333    0.000    0.000    0.000    0.000 
#    0.000    0.000    0.000    0.000    0.000    0.000 
#
# Total GULP energy -167459.501541 kJ/mol
# GULP energy per Si atom -5581.983385 kJ/mol
# Density = 2.018347 g / cm^3
# Si number density = 20.229517 Si / 1000 Ang^3
#
#
#
# Elastic Constant Matrix: (Units=GPa)
#
#
# Indices 1 2 3 4 5 6 
#
# 1 54.6347 30.0704 64.1512 0.0000 0.0000 0.4839
# 2 30.0704 54.6347 64.1512 0.0000 0.0000 -0.4839
# 3 64.1512 64.1512 186.9731 0.0000 0.0000 0.0000
# 4 0.0000 0.0000 0.0000 47.5093 0.0000 0.0000
# 5 0.0000 0.0000 0.0000 0.0000 47.5093 0.0000
# 6 0.4839 -0.4839 0.0000 0.0000 0.0000 54.2512
#
#
#
# Elastic Compliance Matrix: (Units=1/GPa)
#
#
# Indices 1 2 3 4 5 6 
#
# 1 0.032652 -0.008072 -0.008433 0.000000 0.000000 -0.000363
# 2 -0.008072 0.032652 -0.008433 0.000000 0.000000 0.000363
# 3 -0.008433 -0.008433 0.011135 0.000000 0.000000 0.000000
# 4 0.000000 0.000000 0.000000 0.021048 0.000000 0.000000
# 5 0.000000 0.000000 0.000000 0.000000 0.021048 0.000000
# 6 -0.000363 0.000363 0.000000 0.000000 0.000000 0.018439
#
#
# Mechanical properties :
#
#
# Convention : Reuss Voigt Hill
#
# Bulk Modulus (GPa) = 37.64884 68.10978 52.87931
# Shear Modulus (GPa) = 25.54843 39.04527 32.29685
#
# Velocity S-wave (km/s) = 3.55763 4.39807 3.99998
# Velocity P-wave (km/s) = 5.96044 7.71572 6.89417
#
# Compressibility (1/GPa) = 0.02656125
#
# Stress axis : x y z
#
# Youngs Moduli (GPa) = 30.62620 30.62620 89.80354
#
# Poissons Ratio (x) = 0.24722 0.75735
# Poissons Ratio (y) = 0.24722 0.75735
# Poissons Ratio (z) = 0.25828 0.25828
#
# Static dielectric constant tensor:
#      x y z
#    x 1.729160 0.000000 0.000000 
#    y 0.000000 1.729160 0.000000 
#    z 0.000000 0.000000 1.768660 
# 
# From -- ./inp_files/1867.got.cif
#   From: 2010.05.17/outbox.cif.g08.bks.cpg/sg79_cif.got.tgz:1867.got - 2010.06.03 18:47:27.
