data_PCOD9542392
_publ_section_title
;
Structure prediction by ZEFSAII (Michael W. Deem and Ramdas Pophale) SiO2 
 PCOD9542392
Probable space group: P -4
;
_chemical_formula_sum "Si O2"
_cell_formula_units_Z 16
_cell_length_a 11.995888
_cell_length_b 11.995888
_cell_length_c 5.252597
_cell_angle_alpha 90.000000
_cell_angle_beta 90.000000
_cell_angle_gamma 90.000000
_cell_volume 755.855689
_symmetry_space_group_name_H-M "P -4"
_symmetry_group_IT_number 81
_symmetry_cell_setting 'tetragonal'
loop_
_space_group_symop_operation_xyz
x,y,z
y,-x,-z
-x,-y,z
-y,x,-z
loop_
_atom_site_type_symbol
_atom_site_label
_atom_site_fract_x
_atom_site_fract_y
_atom_site_fract_z
Si Si1 0.754716 0.679816 0.884945
Si Si2 0.474552 0.346206 0.366447
Si Si3 0.610698 0.855908 0.640436
Si Si4 0.895209 0.648432 0.369905
O O1 0.680924 0.565418 0.851324
O O2 0.672168 0.783007 0.850222
O O3 0.833903 0.672985 0.635174
O O4 0.830319 0.698785 0.130830
O O5 0.384030 0.445629 0.392453
O O6 0.405905 0.233616 0.413717
O O7 0.482778 0.884130 0.695602
O O8 0.671519 0.973273 0.600374
#
# Coordination Sequence:
#
# PCOD9542392 Si02
#       4
#     4   4   4   4
#     4  10  21  36  56  80 110 144 177 221 268 315
#     4   8  15  31  55  84 114 143 174 212 267 329
#     4   9  20  36  57  80 111 142 178 223 266 315
#     4  10  22  36  56  83 107 141 183 218 265 323
#
# _framework density 21.168061999999999
#
# number of rings (size 3 to 8) (size 9 to 14) (size 15 to 20)
#    0.000    2.750    0.000    0.000    0.000   18.000 
#    0.000    0.000    0.000   13.500    0.000    0.000 
#    0.000    0.000    0.000    0.000    0.000    0.000 
#
# Total GULP energy -89104.738344 kJ/mol
# GULP energy per Si atom -5569.046147 kJ/mol
# Density = 2.111988 g / cm^3
# Si number density = 21.168062 Si / 1000 Ang^3
#
#
#
# Elastic Constant Matrix: (Units=GPa)
#
#
# Indices 1 2 3 4 5 6 
#
# 1 114.7134 17.0934 40.2387 0.0000 0.0000 -4.3604
# 2 17.0934 114.7134 40.2387 0.0000 0.0000 4.3604
# 3 40.2387 40.2387 109.6667 0.0000 0.0000 0.0000
# 4 0.0000 0.0000 0.0000 7.7539 0.0000 0.0000
# 5 0.0000 0.0000 0.0000 0.0000 7.7539 0.0000
# 6 -4.3604 4.3604 0.0000 0.0000 0.0000 19.0679
#
#
#
# Elastic Compliance Matrix: (Units=1/GPa)
#
#
# Indices 1 2 3 4 5 6 
#
# 1 0.010117 -0.000340 -0.003587 0.000000 0.000000 0.002391
# 2 -0.000340 0.010117 -0.003587 0.000000 0.000000 -0.002391
# 3 -0.003587 -0.003587 0.011751 0.000000 0.000000 0.000000
# 4 0.000000 0.000000 0.000000 0.128967 0.000000 0.000000
# 5 0.000000 0.000000 0.000000 0.000000 0.128967 0.000000
# 6 0.002391 -0.002391 0.000000 0.000000 0.000000 0.053538
#
#
# Mechanical properties :
#
#
# Convention : Reuss Voigt Hill
#
# Bulk Modulus (GPa) = 58.97672 59.35946 59.16809
# Shear Modulus (GPa) = 13.73098 23.01667 18.37383
#
# Velocity S-wave (km/s) = 2.54965 3.30105 2.94938
# Velocity P-wave (km/s) = 6.04891 6.52932 6.29370
#
# Compressibility (1/GPa) = 0.01695584
#
# Stress axis : x y z
#
# Youngs Moduli (GPa) = 98.84015 98.84015 85.09815
#
# Poissons Ratio (x) = 0.03361 0.30529
# Poissons Ratio (y) = 0.03361 0.30529
# Poissons Ratio (z) = 0.35458 0.35458
#
# Static dielectric constant tensor:
#      x y z
#    x 1.816220 0.000000 0.000000 
#    y 0.000000 1.816220 0.000000 
#    z 0.000000 0.000000 1.840760 
# 
# From -- ./inp_files/68.got.cif
#   From: 2010.05.17/outbox.cif.g08.bks.cpg/sg81_cif.got.tgz:68.got - 2010.06.03 18:51:07.
