data_PCOD9542901
_publ_section_title
;
Structure prediction by ZEFSAII (Michael W. Deem and Ramdas Pophale) SiO2 
 PCOD9542901
Probable space group: I -4 
;
_chemical_formula_sum "Si O2"
_cell_formula_units_Z 40
_cell_length_a 8.527160
_cell_length_b 8.527160
_cell_length_c 24.343031
_cell_angle_alpha 90.000000
_cell_angle_beta 90.000000
_cell_angle_gamma 90.000000
_cell_volume 1770.041611
_symmetry_space_group_name_H-M "I -4 "
_symmetry_group_IT_number 82
_symmetry_cell_setting 'tetragonal'
loop_
_space_group_symop_operation_xyz
x,y,z
y,-x,-z
-x,-y,z
-y,x,-z
1/2+x,1/2+y,1/2+z
1/2+y,1/2-x,1/2-z
1/2-x,1/2-y,1/2+z
1/2-y,1/2+x,1/2-z
loop_
_atom_site_type_symbol
_atom_site_label
_atom_site_fract_x
_atom_site_fract_y
_atom_site_fract_z
Si Si1 0.844393 0.423435 0.883276
Si Si2 0.831666 0.068541 0.071762
Si Si3 0.377531 0.776344 0.680838
Si Si4 0.761195 0.615390 0.192800
Si Si5 0.131846 0.815840 0.524570
O O1 0.722916 0.350706 0.842044
O O2 0.745871 0.538198 0.922261
O O3 0.000000 0.500000 0.856465
O O4 0.928404 0.291846 0.920464
O O5 0.845000 0.159973 0.130792
O O6 0.772363 0.192304 0.026303
O O7 0.000000 0.000000 0.060565
O O8 0.360018 0.717653 0.743330
O O9 0.560227 0.828321 0.680979
O O10 0.268746 0.931593 0.677573
O O11 0.996292 0.810416 0.477420
#
# Coordination Sequence:
#
# PCOD9542901 Si02
#       5
#     8   8   8   8   8
#     4  10  22  44  65 100 146 187 244 307 362 430
#     4  11  22  45  70 105 143 185 240 312 373 430
#     4   9  19  36  68 103 146 192 244 291 355 442
#     4   9  18  38  65 105 144 197 246 286 353 443
#     4  10  25  48  72  97 139 182 244 299 364 442
#
# _framework density 22.59834
#
# number of rings (size 3 to 8) (size 9 to 14) (size 15 to 20)
#    0.000    2.200    2.000    1.200    5.600    0.000 
#   18.000    0.000    0.000    0.000    0.000    0.000 
#    0.000    0.000    0.000    0.000    0.000    0.000 
#
# Total GULP energy -111718.724764 kJ/mol
# GULP energy per Si atom -5585.936238 kJ/mol
# Density = 2.254690 g / cm^3
# Si number density = 22.598340 Si / 1000 Ang^3
#
#
#
# Elastic Constant Matrix: (Units=GPa)
#
#
# Indices 1 2 3 4 5 6 
#
# 1 105.2750 72.1135 65.0858 0.0000 0.0000 -10.7631
# 2 72.1135 105.2750 65.0858 0.0000 0.0000 10.7631
# 3 65.0858 65.0858 117.4337 0.0000 0.0000 0.0000
# 4 0.0000 0.0000 0.0000 32.1527 0.0000 0.0000
# 5 0.0000 0.0000 0.0000 0.0000 32.1527 0.0000
# 6 -10.7631 10.7631 0.0000 0.0000 0.0000 47.2829
#
#
#
# Elastic Compliance Matrix: (Units=1/GPa)
#
#
# Indices 1 2 3 4 5 6 
#
# 1 0.022443 -0.012941 -0.005266 0.000000 0.000000 0.008055
# 2 -0.012941 0.022443 -0.005266 0.000000 0.000000 -0.008055
# 3 -0.005266 -0.005266 0.014353 0.000000 0.000000 0.000000
# 4 0.000000 0.000000 0.000000 0.031102 0.000000 0.000000
# 5 0.000000 0.000000 0.000000 0.000000 0.031102 0.000000
# 6 0.008055 -0.008055 0.000000 0.000000 0.000000 0.024816
#
#
# Mechanical properties :
#
#
# Convention : Reuss Voigt Hill
#
# Bulk Modulus (GPa) = 81.35636 81.39487 81.37561
# Shear Modulus (GPa) = 25.34183 30.69757 28.01970
#
# Velocity S-wave (km/s) = 3.35237 3.68965 3.52504
# Velocity P-wave (km/s) = 7.14589 7.36530 7.25642
#
# Compressibility (1/GPa) = 0.01229160
#
# Stress axis : x y z
#
# Youngs Moduli (GPa) = 44.55761 44.55761 69.67235
#
# Poissons Ratio (x) = 0.57662 0.36691
# Poissons Ratio (y) = 0.57662 0.36691
# Poissons Ratio (z) = 0.23465 0.23465
#
# Static dielectric constant tensor:
#      x y z
#    x 1.859950 0.000000 0.000000 
#    y 0.000000 1.859950 0.000000 
#    z 0.000000 0.000000 1.813720 
# 
# From -- ./inp_files/3690.got.cif
#   From: 2010.05.17/outbox.cif.g08.bks.cpg/sg82_2_cif.got.tgz:3690.got - 2010.06.03 18:52:26.
