data_PCOD9542568
_publ_section_title
;
Structure prediction by ZEFSAII (Michael W. Deem and Ramdas Pophale) SiO2 
 PCOD9542568
Probable space group: P -4
;
_chemical_formula_sum "Si O2"
_cell_formula_units_Z 20
_cell_length_a 8.649079
_cell_length_b 8.649079
_cell_length_c 11.321044
_cell_angle_alpha 90.000000
_cell_angle_beta 90.000000
_cell_angle_gamma 90.000000
_cell_volume 846.888443
_symmetry_space_group_name_H-M "P -4"
_symmetry_group_IT_number 81
_symmetry_cell_setting 'tetragonal'
loop_
_space_group_symop_operation_xyz
x,y,z
y,-x,-z
-x,-y,z
-y,x,-z
loop_
_atom_site_type_symbol
_atom_site_label
_atom_site_fract_x
_atom_site_fract_y
_atom_site_fract_z
Si Si1 0.000000 0.000000 0.000000
Si Si2 0.812846 0.716807 0.507982
Si Si3 0.705989 0.831395 0.875692
Si Si4 0.819826 0.451889 0.659588
Si Si5 0.000000 0.000000 0.500000
Si Si6 0.504874 0.818320 0.098535
Si Si7 0.000000 0.500000 0.322870
O O1 0.845350 0.942636 0.926926
O O2 0.742015 0.603858 0.605233
O O3 0.679504 0.796493 0.434650
O O4 0.903281 0.610781 0.411821
O O5 0.916154 0.855500 0.563246
O O6 0.782383 0.666074 0.856184
O O7 0.613490 0.905875 0.766567
O O8 0.580935 0.775668 0.975553
O O9 0.767723 0.395306 0.788200
O O10 0.000000 0.500000 0.666586
O O11 0.500000 0.000000 0.084066
#
# Coordination Sequence:
#
# PCOD9542568 Si02
#       7
#     1   4   4   4   1   4   2
#     4  12  24  46  84 104 146 196 258 316 364 458
#     4  12  26  49  73 110 148 195 256 311 381 455
#     4  12  26  49  73 110 148 195 256 311 381 455
#     4  11  26  46  71 104 148 191 243 310 378 447
#     4  12  24  46  84 104 146 196 258 316 364 458
#     4  11  26  46  71 104 148 191 243 310 378 447
#     4  12  28  46  76 108 152 194 258 306 380 466
#
# _framework density 23.615859
#
# number of rings (size 3 to 8) (size 9 to 14) (size 15 to 20)
#    0.000    0.400    6.000    0.000   11.200    1.600 
#    0.000    0.000    0.000    0.000    0.000    0.000 
#    0.000    0.000    0.000    0.000    0.000    0.000 
#
# Total GULP energy -111518.679685 kJ/mol
# GULP energy per Si atom -5575.933984 kJ/mol
# Density = 2.356211 g / cm^3
# Si number density = 23.615859 Si / 1000 Ang^3
#
#
#
# Elastic Constant Matrix: (Units=GPa)
#
#
# Indices 1 2 3 4 5 6 
#
# 1 79.4463 18.4973 6.8165 0.0000 0.0000 1.7226
# 2 18.4973 79.4463 6.8165 0.0000 0.0000 -1.7226
# 3 6.8165 6.8165 92.8364 0.0000 0.0000 0.0000
# 4 0.0000 0.0000 0.0000 35.1101 0.0000 0.0000
# 5 0.0000 0.0000 0.0000 0.0000 35.1101 0.0000
# 6 1.7226 -1.7226 0.0000 0.0000 0.0000 32.6500
#
#
#
# Elastic Compliance Matrix: (Units=1/GPa)
#
#
# Indices 1 2 3 4 5 6 
#
# 1 0.013386 -0.003070 -0.000757 0.000000 0.000000 -0.000868
# 2 -0.003070 0.013386 -0.000757 0.000000 0.000000 0.000868
# 3 -0.000757 -0.000757 0.010883 0.000000 0.000000 0.000000
# 4 0.000000 0.000000 0.000000 0.028482 0.000000 0.000000
# 5 0.000000 0.000000 0.000000 0.000000 0.028482 0.000000
# 6 -0.000868 0.000868 0.000000 0.000000 0.000000 0.030719
#
#
# Mechanical properties :
#
#
# Convention : Reuss Voigt Hill
#
# Bulk Modulus (GPa) = 35.10745 35.10998 35.10871
# Shear Modulus (GPa) = 34.72154 35.21393 34.96774
#
# Velocity S-wave (km/s) = 3.83856 3.86568 3.85215
# Velocity P-wave (km/s) = 5.87745 5.90119 5.88933
#
# Compressibility (1/GPa) = 0.02848398
#
# Stress axis : x y z
#
# Youngs Moduli (GPa) = 74.70599 74.70599 91.88762
#
# Poissons Ratio (x) = 0.22938 0.06960
# Poissons Ratio (y) = 0.22938 0.06960
# Poissons Ratio (z) = 0.05658 0.05658
#
# Static dielectric constant tensor:
#      x y z
#    x 1.938680 0.000000 0.000000 
#    y 0.000000 1.938680 0.000000 
#    z 0.000000 0.000000 1.987340 
# 
# From -- ./inp_files/1307.got.cif
#   From: 2010.05.17/outbox.cif.g08.bks.cpg/sg81_cif.got.tgz:1307.got - 2010.06.03 18:51:07.
