data_PCOD9542871
_publ_section_title
;
Structure prediction by ZEFSAII (Michael W. Deem and Ramdas Pophale) SiO2 
 PCOD9542871
Probable space group: I -4 
;
_chemical_formula_sum "Si O2"
_cell_formula_units_Z 38
_cell_length_a 8.607720
_cell_length_b 8.607720
_cell_length_c 24.339152
_cell_angle_alpha 90.000000
_cell_angle_beta 90.000000
_cell_angle_gamma 90.000000
_cell_volume 1803.356982
_symmetry_space_group_name_H-M "I -4 "
_symmetry_group_IT_number 82
_symmetry_cell_setting 'tetragonal'
loop_
_space_group_symop_operation_xyz
x,y,z
y,-x,-z
-x,-y,z
-y,x,-z
1/2+x,1/2+y,1/2+z
1/2+y,1/2-x,1/2-z
1/2-x,1/2-y,1/2+z
1/2-y,1/2+x,1/2-z
loop_
_atom_site_type_symbol
_atom_site_label
_atom_site_fract_x
_atom_site_fract_y
_atom_site_fract_z
Si Si1 0.085354 0.730385 0.578835
Si Si2 0.500000 0.000000 0.750000
Si Si3 0.666979 0.526670 0.808101
Si Si4 0.284284 0.680232 0.301264
Si Si5 0.000000 0.000000 0.000000
Si Si6 0.000000 0.000000 0.500000
Si Si7 0.242351 0.089470 0.080557
O O1 0.193066 0.583089 0.566811
O O2 0.119651 0.748556 0.644114
O O3 0.900509 0.689681 0.576125
O O4 0.096068 0.880120 0.539278
O O5 0.580292 0.871077 0.710503
O O6 0.500000 0.500000 0.834450
O O7 0.643863 0.610497 0.750926
O O8 0.744766 0.362447 0.797146
O O9 0.372312 0.669922 0.359395
O O10 0.111524 0.896557 0.961872
#
# Coordination Sequence:
#
# PCOD9542871 Si02
#       7
#     8   2   8   8   2   2   8
#     4  10  22  41  64  95 124 168 216 261 318 387
#     4  12  24  40  64 104 132 156 224 260 324 382
#     4  11  21  39  63  93 128 163 209 254 320 389
#     4  11  24  41  65  94 131 171 207 267 319 388
#     4  12  24  44  62  92 120 168 220 270 320 376
#     4  12  20  36  70  96 124 164 220 286 308 348
#     4  10  24  43  62  88 130 169 213 260 326 386
#
# _framework density 21.071812999999999
#
# number of rings (size 3 to 8) (size 9 to 14) (size 15 to 20)
#    0.000    1.263    3.158    2.526    1.474    3.789 
#    0.000    4.211    0.000    0.000    0.000    0.000 
#    0.000    0.000    0.000    0.000    0.000    0.000 
#
# Total GULP energy -105915.973109 kJ/mol
# GULP energy per Si atom -5574.524900 kJ/mol
# Density = 2.102385 g / cm^3
# Si number density = 21.071813 Si / 1000 Ang^3
#
#
#
# Elastic Constant Matrix: (Units=GPa)
#
#
# Indices 1 2 3 4 5 6 
#
# 1 47.9167 -0.8446 38.6902 0.0000 0.0000 5.8458
# 2 -0.8446 47.9167 38.6902 0.0000 0.0000 -5.8458
# 3 38.6902 38.6902 149.7122 0.0000 0.0000 0.0000
# 4 0.0000 0.0000 0.0000 27.7824 0.0000 0.0000
# 5 0.0000 0.0000 0.0000 0.0000 27.7824 0.0000
# 6 5.8458 -5.8458 0.0000 0.0000 0.0000 22.9366
#
#
#
# Elastic Compliance Matrix: (Units=1/GPa)
#
#
# Indices 1 2 3 4 5 6 
#
# 1 0.029389 0.007546 -0.009545 0.000000 0.000000 -0.005567
# 2 0.007546 0.029389 -0.009545 0.000000 0.000000 0.005567
# 3 -0.009545 -0.009545 0.011613 0.000000 0.000000 0.000000
# 4 0.000000 0.000000 0.000000 0.035994 0.000000 0.000000
# 5 0.000000 0.000000 0.000000 0.000000 0.035994 0.000000
# 6 -0.005567 0.005567 0.000000 0.000000 0.000000 0.046436
#
#
# Mechanical properties :
#
#
# Convention : Reuss Voigt Hill
#
# Bulk Modulus (GPa) = 21.14056 44.29077 32.71566
# Shear Modulus (GPa) = 21.96154 26.96761 24.46458
#
# Velocity S-wave (km/s) = 3.23185 3.58130 3.41106
# Velocity P-wave (km/s) = 4.89703 6.17783 5.57434
#
# Compressibility (1/GPa) = 0.04730244
#
# Stress axis : x y z
#
# Youngs Moduli (GPa) = 34.02645 34.02644 86.11061
#
# Poissons Ratio (x) = -0.25676 0.82193
# Poissons Ratio (y) = -0.25676 0.82194
# Poissons Ratio (z) = 0.32479 0.32479
#
# Static dielectric constant tensor:
#      x y z
#    x 1.749100 0.000000 0.000000 
#    y 0.000000 1.749100 0.000000 
#    z 0.000000 0.000000 1.744900 
# 
# From -- ./inp_files/3435.got.cif
#   From: 2010.05.17/outbox.cif.g08.bks.cpg/sg82_2_cif.got.tgz:3435.got - 2010.06.03 18:52:26.
