data_PCOD9542303
_publ_section_title
;
Structure prediction by ZEFSAII (Michael W. Deem and Ramdas Pophale) SiO2 
 PCOD9542303
Probable space group: I 41
;
_chemical_formula_sum "Si O2"
_cell_formula_units_Z 32
_cell_length_a 7.113950
_cell_length_b 7.113950
_cell_length_c 25.040904
_cell_angle_alpha 90.000000
_cell_angle_beta 90.000000
_cell_angle_gamma 90.000000
_cell_volume 1267.277196
_symmetry_space_group_name_H-M "I 41"
_symmetry_group_IT_number 80
_symmetry_cell_setting 'tetragonal'
loop_
_space_group_symop_operation_xyz
x,y,z
-y,1/2+x,1/4+z
-x,-y,z
y,1/2-x,1/4+z
1/2+x,1/2+y,1/2+z
1/2-y,x,3/4+z
1/2-x,1/2-y,1/2+z
1/2+y,-x,3/4+z
loop_
_atom_site_type_symbol
_atom_site_label
_atom_site_fract_x
_atom_site_fract_y
_atom_site_fract_z
Si Si1 0.000000 0.000000 0.378741
Si Si2 0.666992 0.296937 0.693777
Si Si3 0.000000 0.000000 0.107714
Si Si4 0.720726 0.525294 0.261369
Si Si5 0.944734 0.780273 0.536721
O O1 0.900675 0.163852 0.411589
O O2 0.163881 0.081153 0.341100
O O3 0.492575 0.338314 0.655568
O O4 0.680012 0.397937 0.751089
O O5 0.715080 0.084516 0.708556
O O6 0.952427 0.156630 0.061400
O O7 0.500000 0.500000 0.271027
O O8 0.741282 0.747959 0.256850
O O9 0.000000 0.000000 0.543943
#
# Coordination Sequence:
#
# PCOD9542303 Si02
#       5
#     4   8   4   8   8
#     4  12  25  50  78 114 158 208 265 322 402 476
#     4  12  26  48  76 115 153 212 263 323 407 465
#     4  12  29  48  80 118 156 212 265 330 406 474
#     4  12  27  51  75 114 161 200 267 335 386 476
#     4  12  26  48  79 113 160 207 264 327 390 487
#
# _framework density 25.250983999999999
#
# number of rings (size 3 to 8) (size 9 to 14) (size 15 to 20)
#    0.000    0.000    6.250    2.250    3.500    5.000 
#    0.000    0.000    0.000    0.000    0.000    0.000 
#    0.000    0.000    0.000    0.000    0.000    0.000 
#
# Total GULP energy -89192.155090 kJ/mol
# GULP energy per Si atom -5574.509693 kJ/mol
# Density = 2.519351 g / cm^3
# Si number density = 25.250984 Si / 1000 Ang^3
#
#
#
# Elastic Constant Matrix: (Units=GPa)
#
#
# Indices 1 2 3 4 5 6 
#
# 1 155.3528 31.1289 65.4935 0.0000 0.0000 -5.6934
# 2 31.1289 155.3528 65.4935 0.0000 0.0000 5.6934
# 3 65.4935 65.4935 123.9434 0.0000 0.0000 0.0000
# 4 0.0000 0.0000 0.0000 20.6561 0.0000 0.0000
# 5 0.0000 0.0000 0.0000 0.0000 20.6561 0.0000
# 6 -5.6934 5.6934 0.0000 0.0000 0.0000 9.9873
#
#
#
# Elastic Compliance Matrix: (Units=1/GPa)
#
#
# Indices 1 2 3 4 5 6 
#
# 1 0.008511 0.000017 -0.004506 0.000000 0.000000 0.004842
# 2 0.000017 0.008511 -0.004506 0.000000 0.000000 -0.004842
# 3 -0.004506 -0.004506 0.012830 0.000000 0.000000 0.000000
# 4 0.000000 0.000000 0.000000 0.048412 0.000000 0.000000
# 5 0.000000 0.000000 0.000000 0.000000 0.048412 0.000000
# 6 0.004842 -0.004842 0.000000 0.000000 0.000000 0.105648
#
#
# Mechanical properties :
#
#
# Convention : Reuss Voigt Hill
#
# Bulk Modulus (GPa) = 84.30882 84.32008 84.31445
# Shear Modulus (GPa) = 19.66429 28.42876 24.04652
#
# Velocity S-wave (km/s) = 2.79364 3.35901 3.08928
# Velocity P-wave (km/s) = 6.62320 6.96485 6.79617
#
# Compressibility (1/GPa) = 0.01186116
#
# Stress axis : x y z
#
# Youngs Moduli (GPa) = 117.49906 117.49906 77.93999
#
# Poissons Ratio (x) = -0.00198 0.35121
# Poissons Ratio (y) = -0.00198 0.35121
# Poissons Ratio (z) = 0.52946 0.52946
#
# Static dielectric constant tensor:
#      x y z
#    x 2.017590 0.000000 0.000000 
#    y 0.000000 2.017590 0.000000 
#    z 0.000000 0.000000 1.938960 
# 
# From -- ./inp_files/1973.got.cif
#   From: 2010.05.17/outbox.cif.g08.bks.cpg/sg80_cif.got.tgz:1973.got - 2010.06.03 18:49:13.
