data_PCOD9542370
_publ_section_title
;
Structure prediction by ZEFSAII (Michael W. Deem and Ramdas Pophale) SiO2 
 PCOD9542370
Probable space group: P -4
;
_chemical_formula_sum "Si O2"
_cell_formula_units_Z 12
_cell_length_a 7.341501
_cell_length_b 7.341501
_cell_length_c 9.558597
_cell_angle_alpha 90.000000
_cell_angle_beta 90.000000
_cell_angle_gamma 90.000000
_cell_volume 515.185791
_symmetry_space_group_name_H-M "P -4"
_symmetry_group_IT_number 81
_symmetry_cell_setting 'tetragonal'
loop_
_space_group_symop_operation_xyz
x,y,z
y,-x,-z
-x,-y,z
-y,x,-z
loop_
_atom_site_type_symbol
_atom_site_label
_atom_site_fract_x
_atom_site_fract_y
_atom_site_fract_z
Si Si1 0.000000 0.000000 0.500000
Si Si2 0.715925 0.773606 0.671217
Si Si3 0.500000 0.500000 0.500000
Si Si4 0.000000 0.500000 0.783626
Si Si5 0.624961 0.776620 0.982658
O O1 0.829030 0.924704 0.588659
O O2 0.545549 0.678341 0.593806
O O3 0.849605 0.600495 0.694031
O O4 0.668892 0.841506 0.827214
O O5 0.910571 0.350566 0.887409
O O6 0.727659 0.588745 0.010854
#
# Coordination Sequence:
#
# PCOD9542370 Si02
#       5
#     1   4   1   2   4
#     4  12  28  40  58  96 140 164 188 258 324 372
#     4  11  24  41  62  91 126 165 210 250 310 370
#     4  12  24  44  70  84 120 180 220 242 276 388
#     4  10  20  38  64  90 120 158 208 266 312 358
#     4   9  19  37  62  89 115 155 212 264 304 359
#
# _framework density 23.292569
#
# number of rings (size 3 to 8) (size 9 to 14) (size 15 to 20)
#    0.000    1.667    0.000    6.000    0.000    8.000 
#    0.000    0.000    0.000    0.000    0.000    0.000 
#    0.000    0.000    0.000    0.000    0.000    0.000 
#
# Total GULP energy -67088.231115 kJ/mol
# GULP energy per Si atom -5590.685926 kJ/mol
# Density = 2.323955 g / cm^3
# Si number density = 23.292569 Si / 1000 Ang^3
#
#
#
# Elastic Constant Matrix: (Units=GPa)
#
#
# Indices 1 2 3 4 5 6 
#
# 1 50.1089 7.8204 22.0642 0.0000 0.0000 -3.0773
# 2 7.8204 50.1089 22.0642 0.0000 0.0000 3.0773
# 3 22.0642 22.0642 111.7667 0.0000 0.0000 0.0000
# 4 0.0000 0.0000 0.0000 23.2952 0.0000 0.0000
# 5 0.0000 0.0000 0.0000 0.0000 23.2952 0.0000
# 6 -3.0773 3.0773 0.0000 0.0000 0.0000 36.7292
#
#
#
# Elastic Compliance Matrix: (Units=1/GPa)
#
#
# Indices 1 2 3 4 5 6 
#
# 1 0.022128 -0.001811 -0.004011 0.000000 0.000000 0.002006
# 2 -0.001811 0.022128 -0.004011 0.000000 0.000000 -0.002006
# 3 -0.004011 -0.004011 0.010531 0.000000 0.000000 0.000000
# 4 0.000000 0.000000 0.000000 0.042927 0.000000 0.000000
# 5 0.000000 0.000000 0.000000 0.000000 0.042927 0.000000
# 6 0.002006 -0.002006 0.000000 0.000000 0.000000 0.027562
#
#
# Mechanical properties :
#
#
# Convention : Reuss Voigt Hill
#
# Bulk Modulus (GPa) = 28.47172 35.09799 31.78485
# Shear Modulus (GPa) = 25.05292 27.33295 26.19293
#
# Velocity S-wave (km/s) = 3.28315 3.42930 3.35702
# Velocity P-wave (km/s) = 5.15967 5.54808 5.35739
#
# Compressibility (1/GPa) = 0.03512257
#
# Stress axis : x y z
#
# Youngs Moduli (GPa) = 45.19074 45.19074 94.95899
#
# Poissons Ratio (x) = 0.08182 0.38088
# Poissons Ratio (y) = 0.08182 0.38088
# Poissons Ratio (z) = 0.18126 0.18126
#
# Static dielectric constant tensor:
#      x y z
#    x 1.888900 0.000000 0.000000 
#    y 0.000000 1.888900 0.000000 
#    z 0.000000 0.000000 1.873560 
# 
# From -- ./inp_files/507.got.cif
#   From: 2010.05.17/outbox.cif.g08.bks.cpg/sg81_cif.got.tgz:507.got - 2010.06.03 18:51:07.
