data_PCOD9542791
_publ_section_title
;
Structure prediction by ZEFSAII (Michael W. Deem and Ramdas Pophale) SiO2 
 PCOD9542791
Probable space group: I -4 
;
_chemical_formula_sum "Si O2"
_cell_formula_units_Z 48
_cell_length_a 14.523692
_cell_length_b 14.523692
_cell_length_c 11.210383
_cell_angle_alpha 90.000000
_cell_angle_beta 90.000000
_cell_angle_gamma 90.000000
_cell_volume 2364.691614
_symmetry_space_group_name_H-M "I -4 "
_symmetry_group_IT_number 82
_symmetry_cell_setting 'tetragonal'
loop_
_space_group_symop_operation_xyz
x,y,z
y,-x,-z
-x,-y,z
-y,x,-z
1/2+x,1/2+y,1/2+z
1/2+y,1/2-x,1/2-z
1/2-x,1/2-y,1/2+z
1/2-y,1/2+x,1/2-z
loop_
_atom_site_type_symbol
_atom_site_label
_atom_site_fract_x
_atom_site_fract_y
_atom_site_fract_z
Si Si1 0.300935 0.276491 0.188540
Si Si2 0.314019 0.481956 0.245540
Si Si3 0.667100 0.095146 0.883345
Si Si4 0.500000 0.000000 0.750000
Si Si5 0.610694 0.157821 0.134163
Si Si6 0.692309 0.474168 0.963602
Si Si7 0.000000 0.500000 0.750000
Si Si8 0.000000 0.000000 0.323162
O O1 0.322925 0.372135 0.256171
O O2 0.194950 0.294035 0.155075
O O3 0.316904 0.186997 0.268402
O O4 0.373332 0.273203 0.078261
O O5 0.237907 0.521187 0.332088
O O6 0.414791 0.522761 0.261386
O O7 0.297762 0.510346 0.105704
O O8 0.567756 0.065385 0.828191
O O9 0.657460 0.104480 0.024388
O O10 0.557077 0.248261 0.090831
O O11 0.532029 0.089107 0.178803
O O12 0.590312 0.481478 0.904978
#
# Coordination Sequence:
#
# PCOD9542791 Si02
#       8
#     8   8   8   2   8   8   2   4
#     4  11  24  40  68 100 135 177 230 286 342 410
#     4  11  22  42  66 101 135 175 226 285 344 406
#     4  12  25  44  69 104 139 179 229 288 344 419
#     4  12  22  48  72 102 136 186 236 284 350 400
#     4  12  25  46  67 103 137 182 234 281 358 409
#     4  11  21  42  66 102 131 176 235 283 339 407
#     4  12  26  52  72  94 140 186 232 296 338 432
#     4  10  21  36  72  99 134 179 226 284 337 400
#
# _framework density 20.298629999999999
#
# number of rings (size 3 to 8) (size 9 to 14) (size 15 to 20)
#    0.000    0.667    5.000    4.000    2.333    0.000 
#    3.000    0.000    0.000    1.000    0.000    0.000 
#    0.000    0.000    0.000    0.000    0.000    0.000 
#
# Total GULP energy -133960.544544 kJ/mol
# GULP energy per Si atom -5581.689356 kJ/mol
# Density = 2.025243 g / cm^3
# Si number density = 20.298630 Si / 1000 Ang^3
#
#
#
# Elastic Constant Matrix: (Units=GPa)
#
#
# Indices 1 2 3 4 5 6 
#
# 1 85.1235 8.8963 13.2721 0.0000 0.0000 4.1389
# 2 8.8963 85.1235 13.2721 0.0000 0.0000 -4.1389
# 3 13.2721 13.2721 23.7977 0.0000 0.0000 0.0000
# 4 0.0000 0.0000 0.0000 12.5922 0.0000 0.0000
# 5 0.0000 0.0000 0.0000 0.0000 12.5922 0.0000
# 6 4.1389 -4.1389 0.0000 0.0000 0.0000 38.2054
#
#
#
# Elastic Compliance Matrix: (Units=1/GPa)
#
#
# Indices 1 2 3 4 5 6 
#
# 1 0.012949 -0.000326 -0.007040 0.000000 0.000000 -0.001438
# 2 -0.000326 0.012949 -0.007040 0.000000 0.000000 0.001438
# 3 -0.007040 -0.007040 0.049874 0.000000 0.000000 0.000000
# 4 0.000000 0.000000 0.000000 0.079414 0.000000 0.000000
# 5 0.000000 0.000000 0.000000 0.000000 0.079414 0.000000
# 6 -0.001438 0.001438 0.000000 0.000000 0.000000 0.026486
#
#
# Mechanical properties :
#
#
# Convention : Reuss Voigt Hill
#
# Bulk Modulus (GPa) = 21.29480 29.43619 25.36549
# Shear Modulus (GPa) = 16.36382 23.25158 19.80770
#
# Velocity S-wave (km/s) = 2.84237 3.38816 3.12719
# Velocity P-wave (km/s) = 4.61363 5.46253 5.05593
#
# Compressibility (1/GPa) = 0.04695983
#
# Stress axis : x y z
#
# Youngs Moduli (GPa) = 77.22434 77.22434 20.05069
#
# Poissons Ratio (x) = 0.02514 0.14116
# Poissons Ratio (y) = 0.02514 0.14116
# Poissons Ratio (z) = 0.54368 0.54368
#
# Static dielectric constant tensor:
#      x y z
#    x 1.763770 0.000000 0.000000 
#    y 0.000000 1.763770 0.000000 
#    z 0.000000 0.000000 1.709720 
# 
# From -- ./inp_files/1815.got.cif
#   From: 2010.05.17/outbox.cif.g08.bks.cpg/sg82_1_cif.got.tgz:1815.got - 2010.06.03 18:52:26.
