data_PCOD9542969
_publ_section_title
;
Structure prediction by ZEFSAII (Michael W. Deem and Ramdas Pophale) SiO2 
 PCOD9542969
Probable space group: I -4 
;
_chemical_formula_sum "Si O2"
_cell_formula_units_Z 48
_cell_length_a 9.000830
_cell_length_b 9.000830
_cell_length_c 29.481135
_cell_angle_alpha 90.000000
_cell_angle_beta 90.000000
_cell_angle_gamma 90.000000
_cell_volume 2388.412403
_symmetry_space_group_name_H-M "I -4 "
_symmetry_group_IT_number 82
_symmetry_cell_setting 'tetragonal'
loop_
_space_group_symop_operation_xyz
x,y,z
y,-x,-z
-x,-y,z
-y,x,-z
1/2+x,1/2+y,1/2+z
1/2+y,1/2-x,1/2-z
1/2-x,1/2-y,1/2+z
1/2-y,1/2+x,1/2-z
loop_
_atom_site_type_symbol
_atom_site_label
_atom_site_fract_x
_atom_site_fract_y
_atom_site_fract_z
Si Si1 0.398175 0.674360 0.902763
Si Si2 0.221906 0.652668 0.037494
Si Si3 0.248968 0.487432 0.748094
Si Si4 0.840559 0.507759 0.946725
Si Si5 0.000000 0.000000 0.677155
Si Si6 0.494085 0.177981 0.620425
Si Si7 0.000000 0.000000 0.172176
O O1 0.509690 0.685351 0.944895
O O2 0.282370 0.544925 0.911639
O O3 0.483998 0.639149 0.856550
O O4 0.312735 0.826994 0.897551
O O5 0.331392 0.791947 0.035539
O O6 0.102766 0.674849 0.077176
O O7 0.157774 0.605272 0.989245
O O8 0.150350 0.636251 0.749752
O O9 0.357721 0.485933 0.791136
O O10 0.354737 0.482847 0.704107
O O11 0.000000 0.500000 0.924537
O O12 0.518869 0.336067 0.647188
O O13 0.500000 0.000000 0.638981
#
# Coordination Sequence:
#
# PCOD9542969 Si02
#       7
#     8   8   8   8   4   8   4
#     4  11  22  41  65  94 126 175 222 286 327 413
#     4  11  23  43  63  92 134 175 228 284 341 409
#     4  10  24  45  68  99 138 176 216 286 354 426
#     4  12  24  39  65  95 129 182 225 275 350 414
#     4  11  22  40  71  96 127 171 232 267 344 415
#     4  10  25  43  67  99 138 176 231 298 345 420
#     4  11  24  46  74 101 141 187 231 288 368 431
#
# _framework density 20.097031000000001
#
# number of rings (size 3 to 8) (size 9 to 14) (size 15 to 20)
#    0.000    1.167    3.333    2.500    7.000    0.000 
#    3.000    0.000    0.000    0.000    0.000    0.000 
#    0.000    0.000    0.000    0.000    0.000    0.000 
#
# Total GULP energy -133805.756871 kJ/mol
# GULP energy per Si atom -5575.239870 kJ/mol
# Density = 2.005129 g / cm^3
# Si number density = 20.097031 Si / 1000 Ang^3
#
#
#
# Elastic Constant Matrix: (Units=GPa)
#
#
# Indices 1 2 3 4 5 6 
#
# 1 104.3439 34.6576 28.3638 0.0000 0.0000 -3.8943
# 2 34.6576 104.3439 28.3638 0.0000 0.0000 3.8943
# 3 28.3638 28.3638 64.9329 0.0000 0.0000 0.0000
# 4 0.0000 0.0000 0.0000 25.8984 0.0000 0.0000
# 5 0.0000 0.0000 0.0000 0.0000 25.8984 0.0000
# 6 -3.8943 3.8943 0.0000 0.0000 0.0000 20.9615
#
#
#
# Elastic Compliance Matrix: (Units=1/GPa)
#
#
# Indices 1 2 3 4 5 6 
#
# 1 0.011705 -0.002950 -0.003824 0.000000 0.000000 0.002723
# 2 -0.002950 0.011705 -0.003824 0.000000 0.000000 -0.002723
# 3 -0.003824 -0.003824 0.018742 0.000000 0.000000 0.000000
# 4 0.000000 0.000000 0.000000 0.038612 0.000000 0.000000
# 5 0.000000 0.000000 0.000000 0.000000 0.038612 0.000000
# 6 0.002723 -0.002723 0.000000 0.000000 0.000000 0.048718
#
#
# Mechanical properties :
#
#
# Convention : Reuss Voigt Hill
#
# Bulk Modulus (GPa) = 47.72321 50.71016 49.21669
# Shear Modulus (GPa) = 25.47446 26.70070 26.08758
#
# Velocity S-wave (km/s) = 3.56416 3.64894 3.60680
# Velocity P-wave (km/s) = 6.38245 6.56052 6.47210
#
# Compressibility (1/GPa) = 0.02095416
#
# Stress axis : x y z
#
# Youngs Moduli (GPa) = 85.43647 85.43648 53.35737
#
# Poissons Ratio (x) = 0.25201 0.20405
# Poissons Ratio (y) = 0.25201 0.20405
# Poissons Ratio (z) = 0.32673 0.32673
#
# Static dielectric constant tensor:
#      x y z
#    x 1.738090 0.000000 0.000000 
#    y 0.000000 1.738090 0.000000 
#    z 0.000000 0.000000 1.682810 
# 
# From -- ./inp_files/4068.got.cif
#   From: 2010.05.17/outbox.cif.g08.bks.cpg/sg82_3_cif.got.tgz:4068.got - 2010.06.03 18:52:26.
