data_PCOD9542008
_publ_section_title
;
Structure prediction by ZEFSAII (Michael W. Deem and Ramdas Pophale) SiO2 
 PCOD9542008
Probable space group: I 4
;
_chemical_formula_sum "Si O2"
_cell_formula_units_Z 48
_cell_length_a 8.301646
_cell_length_b 8.301646
_cell_length_c 30.970284
_cell_angle_alpha 90.000000
_cell_angle_beta 90.000000
_cell_angle_gamma 90.000000
_cell_volume 2134.389168
_symmetry_space_group_name_H-M "I 4"
_symmetry_group_IT_number 79
_symmetry_cell_setting 'tetragonal'
loop_
_space_group_symop_operation_xyz
x,y,z
-y,x,z
-x,-y,z
y,-x,z
1/2+x,1/2+y,1/2+z
1/2-y,1/2+x,1/2+z
1/2-x,1/2-y,1/2+z
1/2+y,1/2-x,1/2+z
loop_
_atom_site_type_symbol
_atom_site_label
_atom_site_fract_x
_atom_site_fract_y
_atom_site_fract_z
Si Si1 0.500000 0.500000 0.786061
Si Si2 0.000000 0.500000 0.214057
Si Si3 0.758166 0.588686 0.050082
Si Si4 0.759484 0.586805 0.956129
Si Si5 0.739741 0.081321 0.875695
Si Si6 0.500000 0.500000 0.273845
Si Si7 0.414441 0.759617 0.144385
Si Si8 0.693906 0.195586 0.783706
O O1 0.660218 0.384959 0.786394
O O2 0.885277 0.604061 0.182459
O O3 0.897206 0.382960 0.243687
O O4 0.595357 0.695266 0.050096
O O5 0.835888 0.614813 0.096836
O O6 0.837256 0.616088 0.003541
O O7 0.596546 0.695383 0.953435
O O8 0.872637 0.635348 0.917021
O O9 0.654071 0.122378 0.830893
O O10 0.900170 0.193732 0.876577
O O11 0.382764 0.658202 0.276011
O O12 0.306085 0.598940 0.147623
#
# Coordination Sequence:
#
# PCOD9542008 Si02
#       8
#     2   4   8   8   8   2   8   8
#     4  12  32  48  68 116 148 182 232 332 396 396
#     4  12  28  40  66 102 130 182 240 306 360 436
#     4   7  12  31  58  89 124 164 209 271 339 421
#     4   9  19  34  61  95 129 163 210 277 352 409
#     4  11  24  43  62  89 126 183 241 282 333 435
#     4  12  24  56  80  96 132 218 260 276 360 476
#     4   9  20  39  66  93 128 175 228 282 352 437
#     4  12  27  47  71 100 144 186 243 304 362 436
#
# _framework density 22.488868
#
# number of rings (size 3 to 8) (size 9 to 14) (size 15 to 20)
#    0.000    2.000    1.667    3.000    7.000    0.667 
#    0.000    5.000    0.000    0.000    0.000    0.000 
#    0.000    0.000    0.000    0.000    0.000    0.000 
#
# Total GULP energy -133673.682489 kJ/mol
# GULP energy per Si atom -5569.736770 kJ/mol
# Density = 2.243768 g / cm^3
# Si number density = 22.488868 Si / 1000 Ang^3
#
#
#
# Elastic Constant Matrix: (Units=GPa)
#
#
# Indices 1 2 3 4 5 6 
#
# 1 67.2788 32.8457 45.2140 0.0000 0.0000 3.9374
# 2 32.8457 67.2788 45.2140 0.0000 0.0000 -3.9374
# 3 45.2140 45.2140 218.6599 0.0000 0.0000 0.0000
# 4 0.0000 0.0000 0.0000 -41.8410 0.0000 0.0000
# 5 0.0000 0.0000 0.0000 0.0000 -41.8410 0.0000
# 6 3.9374 -3.9374 0.0000 0.0000 0.0000 50.5892
#
#
#
# Elastic Compliance Matrix: (Units=1/GPa)
#
#
# Indices 1 2 3 4 5 6 
#
# 1 0.020925 -0.008644 -0.002539 0.000000 0.000000 -0.002301
# 2 -0.008644 0.020925 -0.002539 0.000000 0.000000 0.002301
# 3 -0.002539 -0.002539 0.005624 0.000000 0.000000 0.000000
# 4 0.000000 0.000000 0.000000 -0.023900 0.000000 0.000000
# 5 0.000000 0.000000 0.000000 0.000000 -0.023900 0.000000
# 6 -0.002301 0.002301 0.000000 0.000000 0.000000 0.020125
#
#
# Mechanical properties :
#
#
# Convention : Reuss Voigt Hill
#
# Bulk Modulus (GPa) = 49.93041 66.64056 58.28548
# Shear Modulus (GPa) = 92.73200 8.71103 50.72151
#
# Velocity S-wave (km/s) = 6.42839 1.97025 4.75426
# Velocity P-wave (km/s) = 8.79485 5.90533 7.49073
#
# Compressibility (1/GPa) = 0.02002787
#
# Stress axis : x y z
#
# Youngs Moduli (GPa) = 47.79063 47.79063 177.82450
#
# Poissons Ratio (x) = 0.41308 0.45158
# Poissons Ratio (y) = 0.41308 0.45158
# Poissons Ratio (z) = 0.12136 0.12136
#
# Static dielectric constant tensor:
#      x y z
#    x 1.844050 0.000000 0.000000 
#    y 0.000000 1.844050 0.000000 
#    z 0.000000 0.000000 1.889260 
# 
# From -- ./inp_files/2180.got.cif
#   From: 2010.05.17/outbox.cif.g08.bks.cpg/sg79_cif.got.tgz:2180.got - 2010.06.03 18:47:27.
