data_PCOD9542038
_publ_section_title
;
Structure prediction by ZEFSAII (Michael W. Deem and Ramdas Pophale) SiO2 
 PCOD9542038
Probable space group: I 4
;
_chemical_formula_sum "Si O2"
_cell_formula_units_Z 38
_cell_length_a 8.546011
_cell_length_b 8.546011
_cell_length_c 24.652935
_cell_angle_alpha 90.000000
_cell_angle_beta 90.000000
_cell_angle_gamma 90.000000
_cell_volume 1800.509950
_symmetry_space_group_name_H-M "I 4"
_symmetry_group_IT_number 79
_symmetry_cell_setting 'tetragonal'
loop_
_space_group_symop_operation_xyz
x,y,z
-y,x,z
-x,-y,z
y,-x,z
1/2+x,1/2+y,1/2+z
1/2-y,1/2+x,1/2+z
1/2-x,1/2-y,1/2+z
1/2+y,1/2-x,1/2+z
loop_
_atom_site_type_symbol
_atom_site_label
_atom_site_fract_x
_atom_site_fract_y
_atom_site_fract_z
Si Si1 0.762187 0.089741 0.737680
Si Si2 0.500000 0.500000 0.642037
Si Si3 0.761784 0.883396 0.013412
Si Si4 0.908887 0.249063 0.891190
Si Si5 0.614476 0.146464 0.626531
Si Si6 0.000000 0.500000 0.810131
O O1 0.737038 0.116819 0.674130
O O2 0.603830 0.111449 0.771288
O O3 0.911593 0.192328 0.751947
O O4 0.525430 0.308344 0.639572
O O5 0.800532 0.069003 0.018424
O O6 0.661098 0.829262 0.064355
O O7 0.697590 0.870130 0.952639
O O8 0.090111 0.191474 0.884753
O O9 0.896959 0.389712 0.849313
O O10 0.500000 0.000000 0.629334
#
# Coordination Sequence:
#
# PCOD9542038 Si02
#       6
#     8   2   8   8   8   4
#     4  11  26  46  64  91 131 174 229 288 355 426
#     4  12  24  44  68 100 152 176 236 296 332 438
#     4   9  17  35  62  94 134 173 212 270 338 412
#     4   9  20  39  63  91 127 169 216 272 338 412
#     4  12  22  38  66 102 134 182 223 283 348 420
#     4  12  22  38  64  92 116 170 228 290 340 410
#
# _framework density 21.105131
#
# number of rings (size 3 to 8) (size 9 to 14) (size 15 to 20)
#    0.000    1.474    3.158    3.789    1.474    1.684 
#    0.000    0.000    0.000    5.684    0.000    0.000 
#    0.000    0.000    0.000    0.000    0.000    0.000 
#
# Total GULP energy -105812.431102 kJ/mol
# GULP energy per Si atom -5569.075321 kJ/mol
# Density = 2.105709 g / cm^3
# Si number density = 21.105131 Si / 1000 Ang^3
#
#
#
# Elastic Constant Matrix: (Units=GPa)
#
#
# Indices 1 2 3 4 5 6 
#
# 1 81.2721 12.3886 40.1602 0.0000 0.0000 0.5799
# 2 12.3886 81.2721 40.1602 0.0000 0.0000 -0.5799
# 3 40.1602 40.1602 144.5582 0.0000 0.0000 0.0000
# 4 0.0000 0.0000 0.0000 25.7271 0.0000 0.0000
# 5 0.0000 0.0000 0.0000 0.0000 25.7272 0.0000
# 6 0.5799 -0.5799 0.0000 0.0000 0.0000 1.2224
#
#
#
# Elastic Compliance Matrix: (Units=1/GPa)
#
#
# Indices 1 2 3 4 5 6 
#
# 1 0.014325 -0.000309 -0.003894 0.000000 0.000000 -0.006942
# 2 -0.000309 0.014325 -0.003894 0.000000 0.000000 0.006942
# 3 -0.003894 -0.003894 0.009081 0.000000 0.000000 0.000000
# 4 0.000000 0.000000 0.000000 0.038869 0.000000 0.000000
# 5 0.000000 0.000000 0.000000 0.000000 0.038869 0.000000
# 6 -0.006942 0.006942 0.000000 0.000000 0.000000 0.824682
#
#
# Mechanical properties :
#
#
# Convention : Reuss Voigt Hill
#
# Bulk Modulus (GPa) = 46.42976 54.72447 50.57712
# Shear Modulus (GPa) = 5.18928 24.82822 15.00875
#
# Velocity S-wave (km/s) = 1.56975 3.43360 2.66962
# Velocity P-wave (km/s) = 5.03314 6.45796 5.78955
#
# Compressibility (1/GPa) = 0.02153791
#
# Stress axis : x y z
#
# Youngs Moduli (GPa) = 69.80746 69.80746 110.11809
#
# Poissons Ratio (x) = 0.02157 0.42878
# Poissons Ratio (y) = 0.02157 0.42878
# Poissons Ratio (z) = 0.27182 0.27182
#
# Static dielectric constant tensor:
#      x y z
#    x 1.768620 0.000000 0.000000 
#    y 0.000000 1.768620 0.000000 
#    z 0.000000 0.000000 1.855850 
# 
# From -- ./inp_files/1911.got.cif
#   From: 2010.05.17/outbox.cif.g08.bks.cpg/sg79_cif.got.tgz:1911.got - 2010.06.03 18:47:27.
