data_PCOD9542046
_publ_section_title
;
Structure prediction by ZEFSAII (Michael W. Deem and Ramdas Pophale) SiO2 
 PCOD9542046
Probable space group: I 4
;
_chemical_formula_sum "Si O2"
_cell_formula_units_Z 64
_cell_length_a 10.024831
_cell_length_b 10.024831
_cell_length_c 24.194348
_cell_angle_alpha 90.000000
_cell_angle_beta 90.000000
_cell_angle_gamma 90.000000
_cell_volume 2431.465115
_symmetry_space_group_name_H-M "I 4"
_symmetry_group_IT_number 79
_symmetry_cell_setting 'tetragonal'
loop_
_space_group_symop_operation_xyz
x,y,z
-y,x,z
-x,-y,z
y,-x,z
1/2+x,1/2+y,1/2+z
1/2-y,1/2+x,1/2+z
1/2-x,1/2-y,1/2+z
1/2+y,1/2-x,1/2+z
loop_
_atom_site_type_symbol
_atom_site_label
_atom_site_fract_x
_atom_site_fract_y
_atom_site_fract_z
Si Si1 0.863930 0.338542 0.236510
Si Si2 0.338542 0.863930 0.171350
Si Si3 0.501811 0.724299 0.312594
Si Si4 0.998190 0.224300 0.595267
Si Si5 0.019775 0.773313 0.475220
Si Si6 0.219670 0.049490 0.355159
Si Si7 0.780331 0.049490 0.052702
Si Si8 0.019776 0.226687 0.932640
O O1 0.757706 0.242294 0.203930
O O2 0.809548 0.481998 0.257964
O O3 0.911085 0.288193 0.298158
O O4 1.000000 0.336838 0.203930
O O5 0.481999 0.809548 0.149896
O O6 0.288192 0.911085 0.109703
O O7 0.374197 0.629573 0.310367
O O8 0.507394 0.793102 0.372380
O O9 0.992608 0.293102 0.535480
O O10 0.125804 0.129573 0.597494
O O11 0.044079 0.708135 0.415467
O O12 0.883720 0.861688 0.475562
O O13 0.096579 0.153433 0.354974
O O14 0.903422 0.153433 0.052886
O O15 0.708135 0.044080 0.992393
O O16 0.883721 0.138313 0.932299
#
# Coordination Sequence:
#
# PCOD9542046 Si02
#       8
#     8   8   8   8   8   8   8   8
#     4  12  24  37  58  88 128 174 219 254 314 391
#     4  12  24  37  58  88 128 174 219 254 314 391
#     4   9  20  42  67  89 119 159 217 279 329 382
#     4   9  20  42  67  89 119 159 217 279 329 382
#     4   7  12  27  56  91 115 148 210 272 320 377
#     4   9  16  30  56  86 124 168 211 260 316 384
#     4   9  16  30  56  86 124 168 211 260 316 384
#     4   7  12  27  56  91 115 148 210 272 320 377
#
# _framework density 26.321579
#
# number of rings (size 3 to 8) (size 9 to 14) (size 15 to 20)
#    0.000    2.750    2.500    3.000    0.000    2.250 
#    0.000    3.750    0.000    0.000    0.000    0.000 
#    0.000    0.000    0.000    0.000    3.000    1.500 
#
# Total GULP energy -178656.242277 kJ/mol
# GULP energy per Si atom -5583.007571 kJ/mol
# Density = 2.626167 g / cm^3
# Si number density = 26.321579 Si / 1000 Ang^3
#
#
#
# Elastic Constant Matrix: (Units=GPa)
#
#
# Indices 1 2 3 4 5 6 
#
# 1 56.9816 14.8643 25.8588 0.0000 0.0000 -0.0044
# 2 14.8643 56.9816 25.8588 0.0000 0.0000 0.0044
# 3 25.8588 25.8588 228.8569 0.0000 0.0000 0.0000
# 4 0.0000 0.0000 0.0000 33.7721 0.0000 0.0000
# 5 0.0000 0.0000 0.0000 0.0000 33.7721 0.0000
# 6 -0.0044 0.0044 0.0000 0.0000 0.0000 50.9690
#
#
#
# Elastic Compliance Matrix: (Units=1/GPa)
#
#
# Indices 1 2 3 4 5 6 
#
# 1 0.019447 -0.004296 -0.001712 0.000000 0.000000 0.000002
# 2 -0.004296 0.019447 -0.001712 0.000000 0.000000 -0.000002
# 3 -0.001712 -0.001712 0.004756 0.000000 0.000000 0.000000
# 4 0.000000 0.000000 0.000000 0.029610 0.000000 0.000000
# 5 0.000000 0.000000 0.000000 0.000000 0.029610 0.000000
# 6 0.000002 -0.000002 0.000000 0.000000 0.000000 0.019620
#
#
# Mechanical properties :
#
#
# Convention : Reuss Voigt Hill
#
# Bulk Modulus (GPa) = 35.44759 52.88713 44.16736
# Shear Modulus (GPa) = 33.93641 42.11850 38.02745
#
# Velocity S-wave (km/s) = 3.59458 4.00453 3.80508
# Velocity P-wave (km/s) = 5.54295 6.44344 6.01009
#
# Compressibility (1/GPa) = 0.02821066
#
# Stress axis : x y z
#
# Youngs Moduli (GPa) = 51.42157 51.42158 210.24262
#
# Poissons Ratio (x) = 0.22091 0.35992
# Poissons Ratio (y) = 0.22091 0.35992
# Poissons Ratio (z) = 0.08803 0.08803
#
# Static dielectric constant tensor:
#      x y z
#    x 2.112960 0.000000 0.000000 
#    y 0.000000 2.112960 0.000000 
#    z 0.000000 0.000000 2.121960 
# 
# From -- ./inp_files/2017.got.cif
#   From: 2010.05.17/outbox.cif.g08.bks.cpg/sg79_cif.got.tgz:2017.got - 2010.06.03 18:47:27.
