data_PCOD9542351
_publ_section_title
;
Structure prediction by ZEFSAII (Michael W. Deem and Ramdas Pophale) SiO2 
 PCOD9542351
Probable space group: P -4
;
_chemical_formula_sum "Si O2"
_cell_formula_units_Z 26
_cell_length_a 12.536422
_cell_length_b 12.536422
_cell_length_c 5.801361
_cell_angle_alpha 90.000000
_cell_angle_beta 90.000000
_cell_angle_gamma 90.000000
_cell_volume 911.752781
_symmetry_space_group_name_H-M "P -4"
_symmetry_group_IT_number 81
_symmetry_cell_setting 'tetragonal'
loop_
_space_group_symop_operation_xyz
x,y,z
y,-x,-z
-x,-y,z
-y,x,-z
loop_
_atom_site_type_symbol
_atom_site_label
_atom_site_fract_x
_atom_site_fract_y
_atom_site_fract_z
Si Si1 0.294786 0.792936 0.219338
Si Si2 0.000000 0.000000 0.500000
Si Si3 0.707989 0.182311 0.717553
Si Si4 0.352021 0.524027 0.879167
Si Si5 0.932486 0.334083 0.268180
Si Si6 0.131434 0.622736 0.768488
Si Si7 0.500000 0.500000 0.500000
Si Si8 0.147026 0.974648 0.127103
O O1 0.345697 0.787462 0.473682
O O2 0.186191 0.722028 0.247685
O O3 0.251027 0.914374 0.198746
O O4 0.345285 0.786676 0.962195
O O5 0.101573 0.027560 0.354253
O O6 0.814288 0.257636 0.742111
O O7 0.718766 0.052654 0.717652
O O8 0.231155 0.546609 0.825301
O O9 0.412812 0.559917 0.650155
O O10 0.406137 0.596277 0.080143
O O11 0.920329 0.395369 0.515530
O O12 0.934129 0.384748 0.008969
O O13 0.062483 0.880181 0.063114
#
# Coordination Sequence:
#
# PCOD9542351 Si02
#       8
#     4   1   4   4   4   4   1   4
#     4  10  20  29  47  64  94 142 210 274 320 337
#     4   8  18  24  28  46  68 104 150 212 314 360
#     4  10  21  36  50  77 112 165 221 266 305 365
#     4   9  20  38  68 110 137 157 188 254 337 420
#     4  10  21  35  53  80 117 170 226 266 308 374
#     4  10  22  38  62  90 124 175 213 260 334 377
#     4   8  18  36  68 110 140 148 178 244 334 424
#     4   9  18  25  32  50  73 112 159 234 314 361
#
# _framework density 28.516501000000002
#
# number of rings (size 3 to 8) (size 9 to 14) (size 15 to 20)
#    0.000    2.769    0.000    1.846   10.769    1.231 
#    0.000    0.000    0.000   25.846    0.000    0.000 
#    0.000    0.000    0.000    0.000    0.000    0.000 
#
# Total GULP energy -144739.568130 kJ/mol
# GULP energy per Si atom -5566.906467 kJ/mol
# Density = 2.845160 g / cm^3
# Si number density = 28.516501 Si / 1000 Ang^3
#
#
#
# Elastic Constant Matrix: (Units=GPa)
#
#
# Indices 1 2 3 4 5 6 
#
# 1 86.1593 23.1546 37.5545 0.0000 0.0000 -12.3573
# 2 23.1546 86.1593 37.5545 0.0000 0.0000 12.3573
# 3 37.5545 37.5545 271.3517 0.0000 0.0000 0.0000
# 4 0.0000 0.0000 0.0000 6.5967 0.0000 0.0000
# 5 0.0000 0.0000 0.0000 0.0000 6.5967 0.0000
# 6 -12.3573 12.3573 0.0000 0.0000 0.0000 39.9635
#
#
#
# Elastic Compliance Matrix: (Units=1/GPa)
#
#
# Indices 1 2 3 4 5 6 
#
# 1 0.014086 -0.003977 -0.001399 0.000000 0.000000 0.005585
# 2 -0.003977 0.014086 -0.001399 0.000000 0.000000 -0.005585
# 3 -0.001399 -0.001399 0.004073 0.000000 0.000000 0.000000
# 4 0.000000 0.000000 0.000000 0.151591 0.000000 0.000000
# 5 0.000000 0.000000 0.000000 0.000000 0.151591 0.000000
# 6 0.005585 -0.005585 0.000000 0.000000 0.000000 0.028477
#
#
# Mechanical properties :
#
#
# Convention : Reuss Voigt Hill
#
# Bulk Modulus (GPa) = 53.49119 71.13307 62.31213
# Shear Modulus (GPa) = 13.03150 33.65848 23.34499
#
# Velocity S-wave (km/s) = 2.14003 3.43930 2.86431
# Velocity P-wave (km/s) = 4.99049 6.38517 5.73042
#
# Compressibility (1/GPa) = 0.01869467
#
# Stress axis : x y z
#
# Youngs Moduli (GPa) = 70.99237 70.99237 245.54818
#
# Poissons Ratio (x) = 0.28232 0.34355
# Poissons Ratio (y) = 0.28232 0.34355
# Poissons Ratio (z) = 0.09933 0.09933
#
# Static dielectric constant tensor:
#      x y z
#    x 2.305730 0.000000 0.000000 
#    y 0.000000 2.305730 0.000000 
#    z 0.000000 0.000000 2.268790 
# 
# From -- ./inp_files/385.got.cif
#   From: 2010.05.17/outbox.cif.g08.bks.cpg/sg81_cif.got.tgz:385.got - 2010.06.03 18:51:07.
