data_PCOD9542965
_publ_section_title
;
Structure prediction by ZEFSAII (Michael W. Deem and Ramdas Pophale) SiO2 
 PCOD9542965
Probable space group: I -4 
;
_chemical_formula_sum "Si O2"
_cell_formula_units_Z 34
_cell_length_a 8.794167
_cell_length_b 8.794167
_cell_length_c 19.850867
_cell_angle_alpha 90.000000
_cell_angle_beta 90.000000
_cell_angle_gamma 90.000000
_cell_volume 1535.213910
_symmetry_space_group_name_H-M "I -4 "
_symmetry_group_IT_number 82
_symmetry_cell_setting 'tetragonal'
loop_
_space_group_symop_operation_xyz
x,y,z
y,-x,-z
-x,-y,z
-y,x,-z
1/2+x,1/2+y,1/2+z
1/2+y,1/2-x,1/2-z
1/2-x,1/2-y,1/2+z
1/2-y,1/2+x,1/2-z
loop_
_atom_site_type_symbol
_atom_site_label
_atom_site_fract_x
_atom_site_fract_y
_atom_site_fract_z
Si Si1 0.088431 0.306082 0.637063
Si Si2 0.247855 0.523301 0.005430
Si Si3 0.000000 0.500000 0.750000
Si Si4 0.500000 0.000000 0.879121
Si Si5 0.336109 0.566591 0.320077
Si Si6 0.500000 0.500000 0.811179
O O1 0.060294 0.350990 0.560973
O O2 0.256655 0.343558 0.661224
O O3 0.060706 0.128821 0.641043
O O4 0.977983 0.367199 0.696146
O O5 0.368729 0.660346 0.009632
O O6 0.145620 0.508697 0.071409
O O7 0.666430 0.008967 0.841379
O O8 0.500000 0.500000 0.348454
O O9 0.363313 0.540684 0.240396
#
# Coordination Sequence:
#
# PCOD9542965 Si02
#       6
#     8   8   2   4   8   4
#     4  12  23  45  71 104 145 193 239 308 378 456
#     4  11  25  45  70 103 145 189 245 300 368 465
#     4  12  22  40  76  96 138 188 232 290 380 432
#     4  12  25  48  79 107 145 202 252 314 396 440
#     4  10  25  48  70 114 147 190 253 320 381 457
#     4  10  24  44  75 107 150 186 246 318 374 458
#
# _framework density 22.146751999999999
#
# number of rings (size 3 to 8) (size 9 to 14) (size 15 to 20)
#    0.706    0.235    4.706    2.118    0.000    7.529 
#    0.000    0.000    0.000    0.000    0.000    0.000 
#    0.000    0.000    0.000    0.000    0.000    0.000 
#
# Total GULP energy -94780.533177 kJ/mol
# GULP energy per Si atom -5575.325481 kJ/mol
# Density = 2.209635 g / cm^3
# Si number density = 22.146752 Si / 1000 Ang^3
#
#
#
# Elastic Constant Matrix: (Units=GPa)
#
#
# Indices 1 2 3 4 5 6 
#
# 1 96.0935 20.0584 13.7565 0.0000 0.0000 3.2543
# 2 20.0584 96.0935 13.7565 0.0000 0.0000 -3.2543
# 3 13.7565 13.7565 91.7049 0.0000 0.0000 0.0000
# 4 0.0000 0.0000 0.0000 -341.3718 0.0001 0.0000
# 5 0.0000 0.0000 0.0000 0.0001 -341.3719 0.0000
# 6 3.2543 -3.2543 0.0000 0.0000 0.0000 37.9999
#
#
#
# Elastic Compliance Matrix: (Units=1/GPa)
#
#
# Indices 1 2 3 4 5 6 
#
# 1 0.011088 -0.002161 -0.001339 0.000000 0.000000 -0.001135
# 2 -0.002161 0.011088 -0.001339 0.000000 0.000000 0.001135
# 3 -0.001339 -0.001339 0.011306 0.000000 0.000000 0.000000
# 4 0.000000 0.000000 0.000000 -0.002929 0.000000 0.000000
# 5 0.000000 0.000000 0.000000 0.000000 -0.002929 0.000000
# 6 -0.001135 0.001135 0.000000 0.000000 0.000000 0.026510
#
#
# Mechanical properties :
#
#
# Convention : Reuss Voigt Hill
#
# Bulk Modulus (GPa) = 42.01111 42.11497 42.06304
# Shear Modulus (GPa) = 69.68998 -113.19407 -21.75204
#
# Velocity S-wave (km/s) = 5.61566 -7.15695 -3.13737
# Velocity P-wave (km/s) = 7.81397 7.01700 2.43104
#
# Compressibility (1/GPa) = 0.02380323
#
# Stress axis : x y z
#
# Youngs Moduli (GPa) = 90.18947 90.18947 88.44640
#
# Poissons Ratio (x) = 0.19492 0.11844
# Poissons Ratio (y) = 0.19492 0.11844
# Poissons Ratio (z) = 0.12077 0.12077
#
# Static dielectric constant tensor:
#      x y z
#    x 2.562030 0.000000 0.000000 
#    y 0.000000 2.562030 0.000000 
#    z 0.000000 0.000000 1.796860 
# 
# From -- ./inp_files/3000.got.cif
#   From: 2010.05.17/outbox.cif.g08.bks.cpg/sg82_2_cif.got.tgz:3000.got - 2010.06.03 18:52:26.
