data_PCOD9542006
_publ_section_title
;
Structure prediction by ZEFSAII (Michael W. Deem and Ramdas Pophale) SiO2 
 PCOD9542006
Probable space group: I 4
;
_chemical_formula_sum "Si O2"
_cell_formula_units_Z 36
_cell_length_a 8.047668
_cell_length_b 8.047668
_cell_length_c 25.023360
_cell_angle_alpha 90.000000
_cell_angle_beta 90.000000
_cell_angle_gamma 90.000000
_cell_volume 1620.636915
_symmetry_space_group_name_H-M "I 4"
_symmetry_group_IT_number 79
_symmetry_cell_setting 'tetragonal'
loop_
_space_group_symop_operation_xyz
x,y,z
-y,x,z
-x,-y,z
y,-x,z
1/2+x,1/2+y,1/2+z
1/2-y,1/2+x,1/2+z
1/2-x,1/2-y,1/2+z
1/2+y,1/2-x,1/2+z
loop_
_atom_site_type_symbol
_atom_site_label
_atom_site_fract_x
_atom_site_fract_y
_atom_site_fract_z
Si Si1 0.410423 0.764888 0.281810
Si Si2 0.000000 0.500000 0.871301
Si Si3 0.264069 0.906519 0.174965
Si Si4 0.093481 0.735931 0.567638
Si Si5 0.589576 0.764888 0.460793
O O1 0.297867 0.600513 0.283854
O O2 0.368093 0.858030 0.227094
O O3 0.391011 0.885174 0.332225
O O4 0.108988 0.385174 0.910377
O O5 0.361998 0.861998 0.121301
O O6 0.096284 0.795615 0.175552
O O7 0.141970 0.631906 0.515508
O O8 0.903715 0.795615 0.567051
O O9 0.399487 0.702133 0.458748
#
# Coordination Sequence:
#
# PCOD9542006 Si02
#       5
#     8   4   8   8   8
#     4  11  24  43  68  98 132 175 225 277 342 415
#     4  12  24  42  66  94 128 170 220 280 336 398
#     4  11  24  42  66  99 137 177 224 280 344 412
#     4  11  24  42  66  99 137 177 224 280 344 412
#     4  11  24  43  68  98 132 175 225 277 342 415
#
# _framework density 22.213491000000001
#
# number of rings (size 3 to 8) (size 9 to 14) (size 15 to 20)
#    0.000    0.889    0.000    6.667    0.000    9.778 
#    0.000    0.000    0.000    2.667    0.000    0.000 
#    0.000    0.000    0.000    0.000    0.000    0.000 
#
# Total GULP energy -100930.539664 kJ/mol
# GULP energy per Si atom -5607.252204 kJ/mol
# Density = 2.216293 g / cm^3
# Si number density = 22.213491 Si / 1000 Ang^3
#
#
#
# Elastic Constant Matrix: (Units=GPa)
#
#
# Indices 1 2 3 4 5 6 
#
# 1 134.4857 69.6376 90.0357 0.0000 0.0000 0.0000
# 2 69.6376 134.4857 90.0357 0.0000 0.0000 0.0000
# 3 90.0357 90.0357 245.9875 0.0000 0.0000 0.0000
# 4 0.0000 0.0000 0.0000 53.2865 0.0000 0.0000
# 5 0.0000 0.0000 0.0000 0.0000 53.2865 0.0000
# 6 0.0000 0.0000 0.0000 0.0000 0.0000 39.7030
#
#
#
# Elastic Compliance Matrix: (Units=1/GPa)
#
#
# Indices 1 2 3 4 5 6 
#
# 1 0.011328 -0.004093 -0.002648 0.000000 0.000000 0.000000
# 2 -0.004093 0.011328 -0.002648 0.000000 0.000000 0.000000
# 3 -0.002648 -0.002648 0.006004 0.000000 0.000000 0.000000
# 4 0.000000 0.000000 0.000000 0.018766 0.000000 0.000000
# 5 0.000000 0.000000 0.000000 0.000000 0.018766 0.000000
# 6 0.000000 0.000000 0.000000 0.000000 0.000000 0.025187
#
#
# Mechanical properties :
#
#
# Convention : Reuss Voigt Hill
#
# Bulk Modulus (GPa) = 101.20070 112.70855 106.95462
# Shear Modulus (GPa) = 44.07166 46.93854 45.50510
#
# Velocity S-wave (km/s) = 4.45905 4.60180 4.53098
# Velocity P-wave (km/s) = 8.49517 8.89293 8.69633
#
# Compressibility (1/GPa) = 0.00988135
#
# Stress axis : x y z
#
# Youngs Moduli (GPa) = 88.27763 88.27763 166.56072
#
# Poissons Ratio (x) = 0.36130 0.44108
# Poissons Ratio (y) = 0.36130 0.44108
# Poissons Ratio (z) = 0.23378 0.23378
#
# Static dielectric constant tensor:
#      x y z
#    x 1.822980 0.000000 0.000000 
#    y 0.000000 1.822980 0.000000 
#    z 0.000000 0.000000 1.754850 
# 
# From -- ./inp_files/1723.got.cif
#   From: 2010.05.17/outbox.cif.g08.bks.cpg/sg79_cif.got.tgz:1723.got - 2010.06.03 18:47:27.
