data_PCOD9542377
_publ_section_title
;
Structure prediction by ZEFSAII (Michael W. Deem and Ramdas Pophale) SiO2 
 PCOD9542377
Probable space group: P -4
;
_chemical_formula_sum "Si O2"
_cell_formula_units_Z 26
_cell_length_a 13.855946
_cell_length_b 13.855946
_cell_length_c 5.759373
_cell_angle_alpha 90.000000
_cell_angle_beta 90.000000
_cell_angle_gamma 90.000000
_cell_volume 1105.726124
_symmetry_space_group_name_H-M "P -4"
_symmetry_group_IT_number 81
_symmetry_cell_setting 'tetragonal'
loop_
_space_group_symop_operation_xyz
x,y,z
y,-x,-z
-x,-y,z
-y,x,-z
loop_
_atom_site_type_symbol
_atom_site_label
_atom_site_fract_x
_atom_site_fract_y
_atom_site_fract_z
Si Si1 0.757831 0.948137 0.354161
Si Si2 0.468439 0.887460 0.021325
Si Si3 0.869710 0.129789 0.267082
Si Si4 0.408971 0.928519 0.533666
Si Si5 0.500000 0.500000 0.500000
Si Si6 0.000000 0.000000 0.000000
Si Si7 0.803010 0.320405 0.013045
Si Si8 0.606534 0.401701 0.107701
O O1 0.850949 0.899477 0.468794
O O2 0.793333 0.044819 0.224011
O O3 0.681736 0.999366 0.523378
O O4 0.706820 0.861763 0.218748
O O5 0.405452 0.875125 0.784345
O O6 0.568330 0.834147 0.956763
O O7 0.500000 0.000000 0.036778
O O8 0.423717 0.871270 0.284060
O O9 0.836674 0.234068 0.179956
O O10 0.964834 0.090129 0.147503
O O11 0.500000 0.000000 0.544399
O O12 0.582925 0.441107 0.363216
O O13 0.688046 0.326105 0.045270
O O14 0.500800 0.369352 0.026933
#
# Coordination Sequence:
#
# PCOD9542377 Si02
#       8
#     4   4   4   4   1   1   4   4
#     4  12  26  46  68 103 145 196 253 314 376 462
#     4  10  20  40  66 101 144 190 229 307 391 439
#     4  12  27  45  71  97 143 196 260 307 382 451
#     4  10  20  40  68  99 138 190 233 304 389 437
#     4   8  18  48  80 102 152 200 230 296 396 466
#     4  12  24  50  72  92 142 208 252 338 380 450
#     4  12  25  45  73 108 144 194 259 313 380 469
#     4   9  22  47  75 108 150 192 243 307 384 471
#
# _framework density 23.513960000000001
#
# number of rings (size 3 to 8) (size 9 to 14) (size 15 to 20)
#    0.000    1.385    4.615    2.769    0.000    3.692 
#    5.538    0.000    0.000    0.000    0.000    0.000 
#    0.000    0.000    0.000    0.000    0.000    0.000 
#
# Total GULP energy -144818.198369 kJ/mol
# GULP energy per Si atom -5569.930707 kJ/mol
# Density = 2.346044 g / cm^3
# Si number density = 23.513960 Si / 1000 Ang^3
#
#
#
# Elastic Constant Matrix: (Units=GPa)
#
#
# Indices 1 2 3 4 5 6 
#
# 1 77.3226 49.2017 24.5469 0.0000 0.0000 -14.4701
# 2 49.2017 77.3226 24.5469 0.0000 0.0000 14.4701
# 3 24.5469 24.5469 110.3050 0.0000 0.0000 0.0000
# 4 0.0000 0.0000 0.0000 44.8675 0.0000 0.0000
# 5 0.0000 0.0000 0.0000 0.0000 44.8675 0.0000
# 6 -14.4701 14.4701 0.0000 0.0000 0.0000 34.8741
#
#
#
# Elastic Compliance Matrix: (Units=1/GPa)
#
#
# Indices 1 2 3 4 5 6 
#
# 1 0.035356 -0.026706 -0.001925 0.000000 0.000000 0.025751
# 2 -0.026706 0.035356 -0.001925 0.000000 0.000000 -0.025751
# 3 -0.001925 -0.001925 0.009923 0.000000 0.000000 0.000000
# 4 0.000000 0.000000 0.000000 0.022288 0.000000 0.000000
# 5 0.000000 0.000000 0.000000 0.000000 0.022288 0.000000
# 6 0.025751 -0.025751 0.000000 0.000000 0.000000 0.050044
#
#
# Mechanical properties :
#
#
# Convention : Reuss Voigt Hill
#
# Bulk Modulus (GPa) = 51.22042 51.28232 51.25137
# Shear Modulus (GPa) = 20.58671 36.03213 28.30942
#
# Velocity S-wave (km/s) = 2.96211 3.91880 3.47355
# Velocity P-wave (km/s) = 5.79043 6.50635 6.15880
#
# Compressibility (1/GPa) = 0.01952346
#
# Stress axis : x y z
#
# Youngs Moduli (GPa) = 28.28340 28.28340 100.78031
#
# Poissons Ratio (x) = 0.75533 0.19401
# Poissons Ratio (y) = 0.75533 0.19401
# Poissons Ratio (z) = 0.05445 0.05445
#
# Static dielectric constant tensor:
#      x y z
#    x 1.784560 0.000000 0.000000 
#    y 0.000000 1.784560 0.000000 
#    z 0.000000 0.000000 2.065940 
# 
# From -- ./inp_files/376.got.cif
#   From: 2010.05.17/outbox.cif.g08.bks.cpg/sg81_cif.got.tgz:376.got - 2010.06.03 18:51:07.
