data_PCOD9542892
_publ_section_title
;
Structure prediction by ZEFSAII (Michael W. Deem and Ramdas Pophale) SiO2 
 PCOD9542892
Probable space group: I -4 
;
_chemical_formula_sum "Si O2"
_cell_formula_units_Z 48
_cell_length_a 9.338537
_cell_length_b 9.338537
_cell_length_c 23.357888
_cell_angle_alpha 90.000000
_cell_angle_beta 90.000000
_cell_angle_gamma 90.000000
_cell_volume 2037.001080
_symmetry_space_group_name_H-M "I -4 "
_symmetry_group_IT_number 82
_symmetry_cell_setting 'tetragonal'
loop_
_space_group_symop_operation_xyz
x,y,z
y,-x,-z
-x,-y,z
-y,x,-z
1/2+x,1/2+y,1/2+z
1/2+y,1/2-x,1/2-z
1/2-x,1/2-y,1/2+z
1/2-y,1/2+x,1/2-z
loop_
_atom_site_type_symbol
_atom_site_label
_atom_site_fract_x
_atom_site_fract_y
_atom_site_fract_z
Si Si1 0.366092 0.704694 0.165852
Si Si2 0.182957 0.622884 0.265088
Si Si3 0.809853 0.188019 0.376167
Si Si4 0.548919 0.836428 0.926830
Si Si5 0.376530 0.666699 0.518114
Si Si6 0.158229 0.517686 0.604130
O O1 0.325619 0.661110 0.230110
O O2 0.524173 0.663184 0.143351
O O3 0.247996 0.631277 0.124364
O O4 0.357814 0.876292 0.157947
O O5 0.170044 0.453420 0.273294
O O6 0.158701 0.707306 0.323281
O O7 0.641772 0.204815 0.384405
O O8 0.905483 0.240136 0.429719
O O9 0.664577 0.842464 0.978480
O O10 0.500000 0.000000 0.915571
O O11 0.546828 0.651081 0.531287
O O12 0.270181 0.595914 0.563820
O O13 0.000000 0.500000 0.577823
#
# Coordination Sequence:
#
# PCOD9542892 Si02
#       6
#     8   8   8   8   8   8
#     4  10  22  43  64  98 142 184 236 289 334 419
#     4  11  23  39  57  95 139 185 245 288 328 396
#     4  11  23  40  71  96 137 194 229 285 357 408
#     4  11  23  42  71  99 135 182 223 284 357 424
#     4  10  24  45  70 103 136 172 228 294 359 440
#     4   9  22  45  69 101 137 181 232 287 365 427
#
# _framework density 23.564052
#
# number of rings (size 3 to 8) (size 9 to 14) (size 15 to 20)
#    0.000    1.667    1.667    1.500    7.000    0.667 
#    0.000    0.000    3.667    0.000    0.000    0.000 
#    0.000    0.000    0.000    0.000    0.000    0.000 
#
# Total GULP energy -133916.671173 kJ/mol
# GULP energy per Si atom -5579.861299 kJ/mol
# Density = 2.351042 g / cm^3
# Si number density = 23.564052 Si / 1000 Ang^3
#
#
#
# Elastic Constant Matrix: (Units=GPa)
#
#
# Indices 1 2 3 4 5 6 
#
# 1 163.0658 44.1597 22.5105 0.0000 0.0000 17.4211
# 2 44.1597 163.0658 22.5105 0.0000 0.0000 -17.4211
# 3 22.5105 22.5105 24.8222 0.0000 0.0000 0.0000
# 4 0.0000 0.0000 0.0000 31.3022 0.0000 0.0000
# 5 0.0000 0.0000 0.0000 0.0000 31.3022 0.0000
# 6 17.4211 -17.4211 0.0000 0.0000 0.0000 38.5297
#
#
#
# Elastic Compliance Matrix: (Units=1/GPa)
#
#
# Indices 1 2 3 4 5 6 
#
# 1 0.007852 -0.001842 -0.005450 0.000000 0.000000 -0.004383
# 2 -0.001842 0.007852 -0.005450 0.000000 0.000000 0.004383
# 3 -0.005450 -0.005450 0.050171 0.000000 0.000000 0.000000
# 4 0.000000 0.000000 0.000000 0.031947 0.000000 0.000000
# 5 0.000000 0.000000 0.000000 0.000000 0.031947 0.000000
# 6 -0.004383 0.004383 0.000000 0.000000 0.000000 0.029918
#
#
# Mechanical properties :
#
#
# Convention : Reuss Voigt Hill
#
# Bulk Modulus (GPa) = 24.75816 58.81278 41.78547
# Shear Modulus (GPa) = 25.17183 37.67838 31.42511
#
# Velocity S-wave (km/s) = 3.27192 4.00306 3.65582
# Velocity P-wave (km/s) = 4.98032 6.81020 5.96584
#
# Compressibility (1/GPa) = 0.04039073
#
# Stress axis : x y z
#
# Youngs Moduli (GPa) = 127.35510 127.35510 19.93169
#
# Poissons Ratio (x) = 0.23463 0.10863
# Poissons Ratio (y) = 0.23463 0.10863
# Poissons Ratio (z) = 0.69409 0.69409
#
# Static dielectric constant tensor:
#      x y z
#    x 1.956450 0.000000 0.000000 
#    y 0.000000 1.956450 0.000000 
#    z 0.000000 0.000000 1.909400 
# 
# From -- ./inp_files/4028.got.cif
#   From: 2010.05.17/outbox.cif.g08.bks.cpg/sg82_3_cif.got.tgz:4028.got - 2010.06.03 18:52:26.
