data_PCOD9542936
_publ_section_title
;
Structure prediction by ZEFSAII (Michael W. Deem and Ramdas Pophale) SiO2 
 PCOD9542936
Probable space group: I -4 
;
_chemical_formula_sum "Si O2"
_cell_formula_units_Z 26
_cell_length_a 8.292516
_cell_length_b 8.292516
_cell_length_c 14.155059
_cell_angle_alpha 90.000000
_cell_angle_beta 90.000000
_cell_angle_gamma 90.000000
_cell_volume 973.384262
_symmetry_space_group_name_H-M "I -4 "
_symmetry_group_IT_number 82
_symmetry_cell_setting 'tetragonal'
loop_
_space_group_symop_operation_xyz
x,y,z
y,-x,-z
-x,-y,z
-y,x,-z
1/2+x,1/2+y,1/2+z
1/2+y,1/2-x,1/2-z
1/2-x,1/2-y,1/2+z
1/2-y,1/2+x,1/2-z
loop_
_atom_site_type_symbol
_atom_site_label
_atom_site_fract_x
_atom_site_fract_y
_atom_site_fract_z
Si Si1 0.850343 0.327116 0.204178
Si Si2 0.815184 0.457267 0.616891
Si Si3 0.000000 0.000000 0.000000
Si Si4 0.231667 0.032612 0.528000
O O1 0.805642 0.457655 0.284737
O O2 0.756839 0.160325 0.197970
O O3 0.796768 0.421662 0.110195
O O4 0.652315 0.538419 0.570968
O O5 0.865801 0.365105 0.521157
O O6 0.000000 0.500000 0.646900
O O7 0.085932 0.153453 0.551713
#
# Coordination Sequence:
#
# PCOD9542936 Si02
#       4
#     8   8   2   8
#     4  10  23  42  80 122 169 220 281 361 452 499
#     4  11  24  47  80 121 171 227 293 352 426 534
#     4  12  28  44  92 128 164 220 322 344 420 524
#     4   9  19  40  77 112 154 219 285 340 425 522
#
# _framework density 26.710933000000001
#
# number of rings (size 3 to 8) (size 9 to 14) (size 15 to 20)
#    0.000    1.846    0.000    3.692   12.923    0.000 
#    0.000    6.154    6.769    0.000    0.000    0.000 
#    0.000    0.000    0.000    0.000    0.000    0.000 
#
# Total GULP energy -72399.235898 kJ/mol
# GULP energy per Si atom -5569.171992 kJ/mol
# Density = 2.665014 g / cm^3
# Si number density = 26.710933 Si / 1000 Ang^3
#
#
#
# Elastic Constant Matrix: (Units=GPa)
#
#
# Indices 1 2 3 4 5 6 
#
# 1 137.2158 66.5929 51.7292 0.0000 0.0000 -1.0565
# 2 66.5929 137.2158 51.7292 0.0000 0.0000 1.0565
# 3 51.7292 51.7292 87.1535 0.0000 0.0000 0.0000
# 4 0.0000 0.0000 0.0000 51.0956 0.0000 0.0000
# 5 0.0000 0.0000 0.0000 0.0000 51.0956 0.0000
# 6 -1.0565 1.0565 0.0000 0.0000 0.0000 65.9708
#
#
#
# Elastic Compliance Matrix: (Units=1/GPa)
#
#
# Indices 1 2 3 4 5 6 
#
# 1 0.010594 -0.003572 -0.004168 0.000000 0.000000 0.000227
# 2 -0.003572 0.010594 -0.004168 0.000000 0.000000 -0.000227
# 3 -0.004168 -0.004168 0.016422 0.000000 0.000000 0.000000
# 4 0.000000 0.000000 0.000000 0.019571 0.000000 0.000000
# 5 0.000000 0.000000 0.000000 0.000000 0.019571 0.000000
# 6 0.000227 -0.000227 0.000000 0.000000 0.000000 0.015165
#
#
# Mechanical properties :
#
#
# Convention : Reuss Voigt Hill
#
# Bulk Modulus (GPa) = 72.49358 77.96531 75.22945
# Shear Modulus (GPa) = 41.55134 46.40133 43.97634
#
# Velocity S-wave (km/s) = 3.94838 4.17245 4.06196
# Velocity P-wave (km/s) = 6.92714 7.24323 7.08695
#
# Compressibility (1/GPa) = 0.01379432
#
# Stress axis : x y z
#
# Youngs Moduli (GPa) = 94.38916 94.38916 60.89439
#
# Poissons Ratio (x) = 0.33716 0.25381
# Poissons Ratio (y) = 0.33716 0.25381
# Poissons Ratio (z) = 0.39342 0.39342
#
# Static dielectric constant tensor:
#      x y z
#    x 2.227370 0.000000 0.000000 
#    y 0.000000 2.227370 0.000000 
#    z 0.000000 0.000000 2.095060 
# 
# From -- ./inp_files/2426.got.cif
#   From: 2010.05.17/outbox.cif.g08.bks.cpg/sg82_2_cif.got.tgz:2426.got - 2010.06.03 18:52:26.
