data_PCOD9542883
_publ_section_title
;
Structure prediction by ZEFSAII (Michael W. Deem and Ramdas Pophale) SiO2 
 PCOD9542883
Probable space group: I -4 
;
_chemical_formula_sum "Si O2"
_cell_formula_units_Z 40
_cell_length_a 8.702508
_cell_length_b 8.702508
_cell_length_c 23.656567
_cell_angle_alpha 90.000000
_cell_angle_beta 90.000000
_cell_angle_gamma 90.000000
_cell_volume 1791.598059
_symmetry_space_group_name_H-M "I -4 "
_symmetry_group_IT_number 82
_symmetry_cell_setting 'tetragonal'
loop_
_space_group_symop_operation_xyz
x,y,z
y,-x,-z
-x,-y,z
-y,x,-z
1/2+x,1/2+y,1/2+z
1/2+y,1/2-x,1/2-z
1/2-x,1/2-y,1/2+z
1/2-y,1/2+x,1/2-z
loop_
_atom_site_type_symbol
_atom_site_label
_atom_site_fract_x
_atom_site_fract_y
_atom_site_fract_z
Si Si1 0.374630 0.880961 0.876243
Si Si2 0.860525 0.807659 0.015443
Si Si3 0.335936 0.674648 0.777431
Si Si4 0.849960 0.108140 0.563457
Si Si5 0.851540 0.194126 0.687072
O O1 0.254089 0.923939 0.924513
O O2 0.287600 0.797224 0.825236
O O3 0.487974 0.775970 0.914542
O O4 0.500000 0.000000 0.852376
O O5 0.721071 0.710771 0.985995
O O6 0.015918 0.806609 0.978167
O O7 0.295390 0.728073 0.714924
O O8 0.515127 0.661084 0.793951
O O9 0.254810 0.511964 0.786259
O O10 0.872672 0.207999 0.620241
O O11 0.000000 0.000000 0.555539
#
# Coordination Sequence:
#
# PCOD9542883 Si02
#       5
#     8   8   8   8   8
#     4  11  23  42  65 102 133 180 232 276 344 418
#     4  11  26  44  67 102 143 181 229 288 355 412
#     4  10  23  40  64  94 132 170 224 277 332 409
#     4  11  23  44  68  97 139 179 231 285 337 421
#     4  10  22  42  62  97 129 173 222 274 343 398
#
# _framework density 22.326439000000001
#
# number of rings (size 3 to 8) (size 9 to 14) (size 15 to 20)
#    0.000    1.400    6.000    0.000    8.400    2.000 
#    0.000    4.000    0.000    0.000    0.000    0.000 
#    0.000    0.000    0.000    0.000    0.000    0.000 
#
# Total GULP energy -111417.873692 kJ/mol
# GULP energy per Si atom -5570.893685 kJ/mol
# Density = 2.227562 g / cm^3
# Si number density = 22.326439 Si / 1000 Ang^3
#
#
#
# Elastic Constant Matrix: (Units=GPa)
#
#
# Indices 1 2 3 4 5 6 
#
# 1 59.2501 17.6897 17.4026 0.0000 0.0000 2.5374
# 2 17.6897 59.2501 17.4026 0.0000 0.0000 -2.5374
# 3 17.4026 17.4026 93.7072 0.0000 0.0000 0.0000
# 4 0.0000 0.0000 0.0000 20.3028 0.0000 0.0000
# 5 0.0000 0.0000 0.0000 0.0000 20.3028 0.0000
# 6 2.5374 -2.5374 0.0000 0.0000 0.0000 26.3777
#
#
#
# Elastic Compliance Matrix: (Units=1/GPa)
#
#
# Indices 1 2 3 4 5 6 
#
# 1 0.019268 -0.005079 -0.002635 0.000000 0.000000 -0.002342
# 2 -0.005079 0.019268 -0.002635 0.000000 0.000000 0.002342
# 3 -0.002635 -0.002635 0.011650 0.000000 0.000000 0.000000
# 4 0.000000 0.000000 0.000000 0.049254 0.000000 0.000000
# 5 0.000000 0.000000 0.000000 0.000000 0.049254 0.000000
# 6 -0.002342 0.002342 0.000000 0.000000 0.000000 0.038361
#
#
# Mechanical properties :
#
#
# Convention : Reuss Voigt Hill
#
# Bulk Modulus (GPa) = 33.91179 35.24413 34.57796
# Shear Modulus (GPa) = 22.97955 24.04416 23.51186
#
# Velocity S-wave (km/s) = 3.21168 3.28523 3.24866
# Velocity P-wave (km/s) = 5.38286 5.49640 5.43993
#
# Compressibility (1/GPa) = 0.02948827
#
# Stress axis : x y z
#
# Youngs Moduli (GPa) = 51.89876 51.89875 85.83475
#
# Poissons Ratio (x) = 0.26360 0.22619
# Poissons Ratio (y) = 0.26360 0.22619
# Poissons Ratio (z) = 0.13676 0.13676
#
# Static dielectric constant tensor:
#      x y z
#    x 1.915520 0.000000 0.000000 
#    y 0.000000 1.915520 0.000000 
#    z 0.000000 0.000000 1.876930 
# 
# From -- ./inp_files/3325.got.cif
#   From: 2010.05.17/outbox.cif.g08.bks.cpg/sg82_2_cif.got.tgz:3325.got - 2010.06.03 18:52:26.
