data_PCOD9542005
_publ_section_title
;
Structure prediction by ZEFSAII (Michael W. Deem and Ramdas Pophale) SiO2 
 PCOD9542005
Probable space group: I 4
;
_chemical_formula_sum "Si O2"
_cell_formula_units_Z 40
_cell_length_a 7.931279
_cell_length_b 7.931279
_cell_length_c 28.962646
_cell_angle_alpha 90.000000
_cell_angle_beta 90.000000
_cell_angle_gamma 90.000000
_cell_volume 1821.900650
_symmetry_space_group_name_H-M "I 4"
_symmetry_group_IT_number 79
_symmetry_cell_setting 'tetragonal'
loop_
_space_group_symop_operation_xyz
x,y,z
-y,x,z
-x,-y,z
y,-x,z
1/2+x,1/2+y,1/2+z
1/2-y,1/2+x,1/2+z
1/2-x,1/2-y,1/2+z
1/2+y,1/2-x,1/2+z
loop_
_atom_site_type_symbol
_atom_site_label
_atom_site_fract_x
_atom_site_fract_y
_atom_site_fract_z
Si Si1 0.765350 0.605085 0.226790
Si Si2 0.500000 0.000000 0.303814
Si Si3 0.773437 0.440207 0.469036
Si Si4 0.732968 0.098471 0.130585
Si Si5 0.000000 0.500000 0.057614
Si Si6 0.082323 0.730480 0.381903
O O1 0.591861 0.710499 0.226663
O O2 0.866790 0.664288 0.181693
O O3 0.886501 0.617789 0.271016
O O4 0.609316 0.886567 0.338575
O O5 0.690730 0.621380 0.463316
O O6 0.854800 0.461763 0.519368
O O7 0.894715 0.367203 0.429842
O O8 0.578594 0.131736 0.095516
O O9 0.903357 0.207992 0.123322
O O10 0.891980 0.798008 0.379409
#
# Coordination Sequence:
#
# PCOD9542005 Si02
#       6
#     8   4   8   8   4   8
#     4  11  24  42  66  97 134 177 228 284 337 396
#     4  12  22  40  64  94 136 180 226 276 340 410
#     4  11  24  43  67  95 132 177 223 275 336 403
#     4  11  24  43  67  95 132 177 223 275 336 403
#     4  12  22  38  64  96 128 160 214 270 316 390
#     4  11  24  42  66  97 134 177 228 284 337 396
#
# _framework density 21.955096000000001
#
# number of rings (size 3 to 8) (size 9 to 14) (size 15 to 20)
#    0.000    0.800    0.000    8.400    0.000    1.600 
#    0.000    4.000    0.000    7.200    0.000    0.000 
#    0.000    0.000    0.000    0.000    0.000    0.000 
#
# Total GULP energy -111466.158954 kJ/mol
# GULP energy per Si atom -5573.307948 kJ/mol
# Density = 2.190513 g / cm^3
# Si number density = 21.955096 Si / 1000 Ang^3
#
#
#
# Elastic Constant Matrix: (Units=GPa)
#
#
# Indices 1 2 3 4 5 6 
#
# 1 88.0918 13.3216 35.1400 0.0000 0.0000 8.8093
# 2 13.3216 88.0918 35.1400 0.0000 0.0000 -8.8093
# 3 35.1400 35.1400 114.9204 0.0000 0.0000 0.0000
# 4 0.0000 0.0000 0.0000 34.0713 0.0000 0.0000
# 5 0.0000 0.0000 0.0000 0.0000 34.0713 0.0000
# 6 8.8093 -8.8093 0.0000 0.0000 0.0000 41.6605
#
#
#
# Elastic Compliance Matrix: (Units=1/GPa)
#
#
# Indices 1 2 3 4 5 6 
#
# 1 0.013294 -0.000782 -0.003826 0.000000 0.000000 -0.002976
# 2 -0.000782 0.013294 -0.003826 0.000000 0.000000 0.002976
# 3 -0.003826 -0.003826 0.011041 0.000000 0.000000 0.000000
# 4 0.000000 0.000000 0.000000 0.029350 0.000000 0.000000
# 5 0.000000 0.000000 0.000000 0.000000 0.029350 0.000000
# 6 -0.002976 0.002976 0.000000 0.000000 0.000000 0.025262
#
#
# Mechanical properties :
#
#
# Convention : Reuss Voigt Hill
#
# Bulk Modulus (GPa) = 48.16525 50.92305 49.54415
# Shear Modulus (GPa) = 34.39276 35.79414 35.09345
#
# Velocity S-wave (km/s) = 3.96220 4.04212 4.00236
# Velocity P-wave (km/s) = 6.55117 6.71040 6.63126
#
# Compressibility (1/GPa) = 0.02076185
#
# Stress axis : x y z
#
# Youngs Moduli (GPa) = 75.22298 75.22300 90.56821
#
# Poissons Ratio (x) = 0.05881 0.34650
# Poissons Ratio (y) = 0.05881 0.34650
# Poissons Ratio (z) = 0.28779 0.28779
#
# Static dielectric constant tensor:
#      x y z
#    x 1.764980 0.000000 0.000000 
#    y 0.000000 1.764980 0.000000 
#    z 0.000000 0.000000 1.769600 
# 
# From -- ./inp_files/2045.got.cif
#   From: 2010.05.17/outbox.cif.g08.bks.cpg/sg79_cif.got.tgz:2045.got - 2010.06.03 18:47:27.
