data_PCOD9542383
_publ_section_title
;
Structure prediction by ZEFSAII (Michael W. Deem and Ramdas Pophale) SiO2 
 PCOD9542383
Probable space group: P -4
;
_chemical_formula_sum "Si O2"
_cell_formula_units_Z 22
_cell_length_a 9.238022
_cell_length_b 9.238022
_cell_length_c 13.483699
_cell_angle_alpha 90.000000
_cell_angle_beta 90.000000
_cell_angle_gamma 90.000000
_cell_volume 1150.713037
_symmetry_space_group_name_H-M "P -4"
_symmetry_group_IT_number 81
_symmetry_cell_setting 'tetragonal'
loop_
_space_group_symop_operation_xyz
x,y,z
y,-x,-z
-x,-y,z
-y,x,-z
loop_
_atom_site_type_symbol
_atom_site_label
_atom_site_fract_x
_atom_site_fract_y
_atom_site_fract_z
Si Si1 0.291274 0.817936 0.549646
Si Si2 0.000000 0.500000 0.921877
Si Si3 0.680028 0.217371 0.211036
Si Si4 0.826310 0.482608 0.607602
Si Si5 0.078249 0.845752 0.361802
Si Si6 0.433463 0.287824 0.965640
O O1 0.225904 0.681197 0.605851
O O2 0.445522 0.789510 0.498908
O O3 0.188109 0.847354 0.454558
O O4 0.277634 0.959899 0.616549
O O5 0.915979 0.615424 0.852809
O O6 0.872482 0.432503 0.989001
O O7 0.568554 0.243913 0.301230
O O8 0.829934 0.178554 0.263563
O O9 0.699306 0.352984 0.138733
O O10 0.000000 0.500000 0.618287
O O11 0.000000 0.000000 0.359043
O O12 0.346981 0.402102 0.035550
#
# Coordination Sequence:
#
# PCOD9542383 Si02
#       6
#     4   2   4   4   4   4
#     4  11  20  37  61  85 126 178 202 251 308 351
#     4  10  20  42  68  90 124 158 200 260 330 374
#     4  10  22  39  64  94 118 163 212 256 310 374
#     4  11  21  38  64  88 129 167 213 255 300 365
#     4  11  19  36  60  87 124 166 219 245 302 366
#     4   9  20  44  70  88 121 161 200 253 328 383
#
# _framework density 19.118582
#
# number of rings (size 3 to 8) (size 9 to 14) (size 15 to 20)
#    0.000    1.636    4.545    1.091    0.000    0.364 
#    6.545   20.000    0.000    0.000    0.000    0.000 
#    0.000    0.000    0.000    0.000    0.000    0.000 
#
# Total GULP energy -122852.948887 kJ/mol
# GULP energy per Si atom -5584.224949 kJ/mol
# Density = 1.907507 g / cm^3
# Si number density = 19.118582 Si / 1000 Ang^3
#
#
#
# Elastic Constant Matrix: (Units=GPa)
#
#
# Indices 1 2 3 4 5 6 
#
# 1 89.4809 14.8710 45.2858 0.0000 0.0000 0.1626
# 2 14.8710 89.4809 45.2858 0.0000 0.0000 -0.1626
# 3 45.2858 45.2858 95.9764 0.0000 0.0000 0.0000
# 4 0.0000 0.0000 0.0000 20.5450 0.0000 0.0000
# 5 0.0000 0.0000 0.0000 0.0000 20.5450 0.0000
# 6 0.1626 -0.1626 0.0000 0.0000 0.0000 17.2433
#
#
#
# Elastic Compliance Matrix: (Units=1/GPa)
#
#
# Indices 1 2 3 4 5 6 
#
# 1 0.014817 0.001413 -0.007658 0.000000 0.000000 -0.000126
# 2 0.001413 0.014817 -0.007658 0.000000 0.000000 0.000126
# 3 -0.007658 -0.007658 0.017646 0.000000 0.000000 0.000000
# 4 0.000000 0.000000 0.000000 0.048674 0.000000 0.000000
# 5 0.000000 0.000000 0.000000 0.000000 0.048674 0.000000
# 6 -0.000126 0.000126 0.000000 0.000000 0.000000 0.057996
#
#
# Mechanical properties :
#
#
# Convention : Reuss Voigt Hill
#
# Bulk Modulus (GPa) = 51.35144 53.98036 52.66590
# Shear Modulus (GPa) = 21.10432 22.96638 22.03535
#
# Velocity S-wave (km/s) = 3.32605 3.46968 3.39862
# Velocity P-wave (km/s) = 6.45507 6.65938 6.55802
#
# Compressibility (1/GPa) = 0.01947365
#
# Stress axis : x y z
#
# Youngs Moduli (GPa) = 67.49216 67.49216 56.67092
#
# Poissons Ratio (x) = -0.09536 0.43397
# Poissons Ratio (y) = -0.09536 0.43397
# Poissons Ratio (z) = 0.51684 0.51684
#
# Static dielectric constant tensor:
#      x y z
#    x 1.681850 0.000000 0.000000 
#    y 0.000000 1.681850 0.000000 
#    z 0.000000 0.000000 1.654610 
# 
# From -- ./inp_files/1519.got.cif
#   From: 2010.05.17/outbox.cif.g08.bks.cpg/sg81_cif.got.tgz:1519.got - 2010.06.03 18:51:07.
