data_PCOD9542326
_publ_section_title
;
Structure prediction by ZEFSAII (Michael W. Deem and Ramdas Pophale) SiO2 
 PCOD9542326
Probable space group: P -4
;
_chemical_formula_sum "Si O2"
_cell_formula_units_Z 20
_cell_length_a 8.023769
_cell_length_b 8.023769
_cell_length_c 12.387398
_cell_angle_alpha 90.000000
_cell_angle_beta 90.000000
_cell_angle_gamma 90.000000
_cell_volume 797.511447
_symmetry_space_group_name_H-M "P -4"
_symmetry_group_IT_number 81
_symmetry_cell_setting 'tetragonal'
loop_
_space_group_symop_operation_xyz
x,y,z
y,-x,-z
-x,-y,z
-y,x,-z
loop_
_atom_site_type_symbol
_atom_site_label
_atom_site_fract_x
_atom_site_fract_y
_atom_site_fract_z
Si Si1 0.182019 0.425823 0.347977
Si Si2 0.189548 0.054998 0.246993
Si Si3 0.211035 0.591695 0.926474
Si Si4 0.241243 0.884842 0.462148
Si Si5 0.297633 0.587225 0.142280
O O1 0.187435 0.238706 0.301683
O O2 0.204573 0.392706 0.475863
O O3 0.286801 0.543381 0.268338
O O4 0.000000 0.500000 0.331684
O O5 0.301346 0.087796 0.144367
O O6 0.260820 0.929443 0.337435
O O7 0.000000 0.000000 0.224630
O O8 0.405250 0.652047 0.909223
O O9 0.250927 0.411780 0.874999
O O10 0.156547 0.617450 0.051349
O O11 0.066247 0.789156 0.480556
#
# Coordination Sequence:
#
# PCOD9542326 Si02
#       5
#     4   4   4   4   4
#     4  10  19  31  55  82 116 169 209 254 322 393
#     4  10  17  32  61  87 122 166 212 263 336 399
#     4   8  15  29  57  87 118 164 205 263 328 393
#     4   9  15  31  53  82 114 156 200 256 318 387
#     4   8  15  31  53  84 122 160 209 263 325 388
#
# _framework density 25.078012999999999
#
# number of rings (size 3 to 8) (size 9 to 14) (size 15 to 20)
#    0.000    3.000    4.000    1.200    0.000    0.000 
#    0.000    4.000   13.200    0.000    0.000    0.000 
#   18.000    0.000    0.000    0.000    0.000    0.000 
#
# Total GULP energy -111338.437882 kJ/mol
# GULP energy per Si atom -5566.921894 kJ/mol
# Density = 2.502093 g / cm^3
# Si number density = 25.078013 Si / 1000 Ang^3
#
#
#
# Elastic Constant Matrix: (Units=GPa)
#
#
# Indices 1 2 3 4 5 6 
#
# 1 65.8667 13.3042 56.0702 0.0000 0.0000 12.3507
# 2 13.3042 65.8667 56.0702 0.0000 0.0000 -12.3507
# 3 56.0702 56.0702 180.0084 0.0000 0.0000 0.0000
# 4 0.0000 0.0000 0.0000 14.5083 0.0000 0.0000
# 5 0.0000 0.0000 0.0000 0.0000 14.5083 0.0000
# 6 12.3507 -12.3507 0.0000 0.0000 0.0000 28.9121
#
#
#
# Elastic Compliance Matrix: (Units=1/GPa)
#
#
# Indices 1 2 3 4 5 6 
#
# 1 0.023204 -0.000600 -0.007041 0.000000 0.000000 -0.010168
# 2 -0.000600 0.023204 -0.007041 0.000000 0.000000 0.010168
# 3 -0.007041 -0.007041 0.009941 0.000000 0.000000 0.000000
# 4 0.000000 0.000000 0.000000 0.068926 0.000000 0.000000
# 5 0.000000 0.000000 0.000000 0.000000 0.068926 0.000000
# 6 -0.010168 0.010168 0.000000 0.000000 0.000000 0.043275
#
#
# Mechanical properties :
#
#
# Convention : Reuss Voigt Hill
#
# Bulk Modulus (GPa) = 37.05648 62.51458 49.78553
# Shear Modulus (GPa) = 18.12684 24.00556 21.06620
#
# Velocity S-wave (km/s) = 2.69144 3.09728 2.90147
# Velocity P-wave (km/s) = 4.94642 6.14597 5.57853
#
# Compressibility (1/GPa) = 0.02698583
#
# Stress axis : x y z
#
# Youngs Moduli (GPa) = 43.09676 43.09676 100.58854
#
# Poissons Ratio (x) = 0.02586 0.70822
# Poissons Ratio (y) = 0.02586 0.70822
# Poissons Ratio (z) = 0.30343 0.30343
#
# Static dielectric constant tensor:
#      x y z
#    x 2.106160 0.000000 0.000000 
#    y 0.000000 2.106160 0.000000 
#    z 0.000000 0.000000 2.179260 
# 
# From -- ./inp_files/1227.got.cif
#   From: 2010.05.17/outbox.cif.g08.bks.cpg/sg81_cif.got.tgz:1227.got - 2010.06.03 18:51:07.
