data_PCOD9542689
_publ_section_title
;
Structure prediction by ZEFSAII (Michael W. Deem and Ramdas Pophale) SiO2 
 PCOD9542689
Probable space group: I -4 
;
_chemical_formula_sum "Si O2"
_cell_formula_units_Z 28
_cell_length_a 13.372245
_cell_length_b 13.372245
_cell_length_c 5.555106
_cell_angle_alpha 90.000000
_cell_angle_beta 90.000000
_cell_angle_gamma 90.000000
_cell_volume 993.347036
_symmetry_space_group_name_H-M "I -4 "
_symmetry_group_IT_number 82
_symmetry_cell_setting 'tetragonal'
loop_
_space_group_symop_operation_xyz
x,y,z
y,-x,-z
-x,-y,z
-y,x,-z
1/2+x,1/2+y,1/2+z
1/2+y,1/2-x,1/2-z
1/2-x,1/2-y,1/2+z
1/2-y,1/2+x,1/2-z
loop_
_atom_site_type_symbol
_atom_site_label
_atom_site_fract_x
_atom_site_fract_y
_atom_site_fract_z
Si Si1 0.593707 0.616645 0.388712
Si Si2 0.000000 0.500000 0.750000
Si Si3 0.684817 0.974468 0.487438
Si Si4 0.500000 0.500000 0.000000
Si Si5 0.864341 0.292825 0.007493
O O1 0.627268 0.500926 0.439039
O O2 0.546593 0.598150 0.128491
O O3 0.685154 0.690270 0.447563
O O4 0.942987 0.430189 0.567950
O O5 0.684862 0.096630 0.490834
O O6 0.706646 0.926414 0.742338
O O7 0.727636 0.925299 0.241600
#
# Coordination Sequence:
#
# PCOD9542689 Si02
#       5
#     8   2   8   2   8
#     4   9  21  39  62  84 103 152 198 245 282 338
#     4   8  16  34  52  78 116 150 208 206 256 342
#     4  10  20  32  56  85 118 156 181 236 277 337
#     4   8  18  40  64  86 100 152 210 248 290 316
#     4  11  21  37  57  88 119 149 195 226 288 344
#
# _framework density 28.187533999999999
#
# number of rings (size 3 to 8) (size 9 to 14) (size 15 to 20)
#    0.000    2.571    0.000    5.143    8.000    1.143 
#    0.000    2.857    0.000    0.000    0.000    0.000 
#    0.000    0.000    0.000    0.000    0.000    0.000 
#
# Total GULP energy -77940.626488 kJ/mol
# GULP energy per Si atom -5567.187606 kJ/mol
# Density = 2.812338 g / cm^3
# Si number density = 28.187534 Si / 1000 Ang^3
#
#
#
# Elastic Constant Matrix: (Units=GPa)
#
#
# Indices 1 2 3 4 5 6 
#
# 1 117.2404 -21.8205 47.2981 0.0000 0.0000 7.8847
# 2 -21.8205 117.2404 47.2981 0.0000 0.0000 -7.8847
# 3 47.2981 47.2981 172.6460 0.0000 0.0000 0.0000
# 4 0.0000 0.0000 0.0000 46.4117 0.0000 0.0000
# 5 0.0000 0.0000 0.0000 0.0000 46.4117 0.0000
# 6 7.8847 -7.8847 0.0000 0.0000 0.0000 14.2257
#
#
#
# Elastic Compliance Matrix: (Units=1/GPa)
#
#
# Indices 1 2 3 4 5 6 
#
# 1 0.011030 0.003357 -0.003942 0.000000 0.000000 -0.004253
# 2 0.003357 0.011030 -0.003942 0.000000 0.000000 0.004253
# 3 -0.003942 -0.003942 0.007952 0.000000 0.000000 0.000000
# 4 0.000000 0.000000 0.000000 0.021546 0.000000 0.000000
# 5 0.000000 0.000000 0.000000 0.000000 0.021546 0.000000
# 6 -0.004253 0.004253 0.000000 0.000000 0.000000 0.075010
#
#
# Mechanical properties :
#
#
# Convention : Reuss Voigt Hill
#
# Bulk Modulus (GPa) = 47.70864 61.40871 54.55868
# Shear Modulus (GPa) = 30.45911 43.69989 37.07950
#
# Velocity S-wave (km/s) = 3.29080 3.94169 3.63086
# Velocity P-wave (km/s) = 5.60369 6.52296 6.08072
#
# Compressibility (1/GPa) = 0.02096056
#
# Stress axis : x y z
#
# Youngs Moduli (GPa) = 90.65788 90.65788 125.75620
#
# Poissons Ratio (x) = -0.30435 0.49568
# Poissons Ratio (y) = -0.30435 0.49568
# Poissons Ratio (z) = 0.35734 0.35734
#
# Static dielectric constant tensor:
#      x y z
#    x 2.319770 0.000000 0.000000 
#    y 0.000000 2.319770 0.000000 
#    z 0.000000 0.000000 2.223680 
# 
# From -- ./inp_files/140.got.cif
#   From: 2010.05.17/outbox.cif.g08.bks.cpg/sg82_1_cif.got.tgz:140.got - 2010.06.03 18:52:26.
