data_PCOD9542033
_publ_section_title
;
Structure prediction by ZEFSAII (Michael W. Deem and Ramdas Pophale) SiO2 
 PCOD9542033
Probable space group: I 4
;
_chemical_formula_sum "Si O2"
_cell_formula_units_Z 48
_cell_length_a 8.497334
_cell_length_b 8.497334
_cell_length_c 29.295612
_cell_angle_alpha 90.000000
_cell_angle_beta 90.000000
_cell_angle_gamma 90.000000
_cell_volume 2115.280439
_symmetry_space_group_name_H-M "I 4"
_symmetry_group_IT_number 79
_symmetry_cell_setting 'tetragonal'
loop_
_space_group_symop_operation_xyz
x,y,z
-y,x,z
-x,-y,z
y,-x,z
1/2+x,1/2+y,1/2+z
1/2-y,1/2+x,1/2+z
1/2-x,1/2-y,1/2+z
1/2+y,1/2-x,1/2+z
loop_
_atom_site_type_symbol
_atom_site_label
_atom_site_fract_x
_atom_site_fract_y
_atom_site_fract_z
Si Si1 0.843111 0.395945 0.255500
Si Si2 0.732562 0.389004 0.062761
Si Si3 0.407062 0.741457 0.850241
Si Si4 0.751394 0.580065 0.484067
Si Si5 0.500000 0.500000 0.266013
Si Si6 0.500000 0.000000 0.913851
Si Si7 0.000000 0.000000 0.140492
Si Si8 0.341078 0.102934 0.154668
O O1 0.872854 0.281056 0.297780
O O2 0.693206 0.505128 0.265033
O O3 0.828591 0.318120 0.205590
O O4 0.000000 0.500000 0.253974
O O5 0.702285 0.571484 0.051443
O O6 0.767157 0.367665 0.115987
O O7 0.876610 0.321637 0.033408
O O8 0.304701 0.588030 0.859568
O O9 0.387408 0.894625 0.881649
O O10 0.598256 0.690010 0.479205
O O11 0.888523 0.601894 0.447102
O O12 0.005094 0.193174 0.141939
O O13 0.500000 0.000000 0.154662
#
# Coordination Sequence:
#
# PCOD9542033 Si02
#       8
#     8   8   8   8   2   4   2   8
#     4  11  26  48  71 115 155 201 261 316 375 454
#     4  11  26  46  74 108 147 195 245 307 379 451
#     4  11  25  45  74 108 148 194 248 316 382 456
#     4  11  26  46  73 106 143 187 243 314 382 461
#     4  12  28  44  84 104 153 220 249 320 384 452
#     4  12  24  48  74 104 144 188 248 310 392 470
#     4  12  28  44  76 108 145 220 249 312 388 444
#     4  11  28  45  72 112 155 199 263 312 370 454
#
# _framework density 22.692028000000001
#
# number of rings (size 3 to 8) (size 9 to 14) (size 15 to 20)
#    0.000    0.833    0.833    4.000   15.167    0.000 
#    0.000    1.667    0.000    0.000    0.000    0.000 
#    0.000    0.000    0.000    0.000    0.000    0.000 
#
# Total GULP energy -133791.319622 kJ/mol
# GULP energy per Si atom -5574.638318 kJ/mol
# Density = 2.264038 g / cm^3
# Si number density = 22.692028 Si / 1000 Ang^3
#
#
#
# Elastic Constant Matrix: (Units=GPa)
#
#
# Indices 1 2 3 4 5 6 
#
# 1 104.0088 21.3058 24.6965 0.0000 0.0000 24.5002
# 2 21.3058 104.0088 24.6965 0.0000 0.0000 -24.5001
# 3 24.6965 24.6965 115.1164 0.0000 0.0000 0.0000
# 4 0.0000 0.0000 0.0000 24.7457 0.0000 0.0000
# 5 0.0000 0.0000 0.0000 0.0000 24.7457 0.0000
# 6 24.5002 -24.5001 0.0000 0.0000 0.0000 -196.6152
#
#
#
# Elastic Compliance Matrix: (Units=1/GPa)
#
#
# Indices 1 2 3 4 5 6 
#
# 1 0.009989 -0.001272 -0.001870 0.000000 0.000000 0.001403
# 2 -0.001272 0.009989 -0.001870 0.000000 0.000000 -0.001403
# 3 -0.001870 -0.001870 0.009489 0.000000 0.000000 0.000000
# 4 0.000000 0.000000 0.000000 0.040411 0.000000 0.000000
# 5 0.000000 0.000000 0.000000 0.000000 0.040411 0.000000
# 6 0.001403 -0.001403 0.000000 0.000000 0.000000 -0.004736
#
#
# Mechanical properties :
#
#
# Convention : Reuss Voigt Hill
#
# Bulk Modulus (GPa) = 51.43269 51.61461 51.52365
# Shear Modulus (GPa) = 40.96458 -12.59576 14.18441
#
# Velocity S-wave (km/s) = 4.25342 -2.35856 2.50288
# Velocity P-wave (km/s) = 6.84375 3.92148 5.57741
#
# Compressibility (1/GPa) = 0.01944289
#
# Stress axis : x y z
#
# Youngs Moduli (GPa) = 100.11434 100.11434 105.38220
#
# Poissons Ratio (x) = 0.12730 0.19708
# Poissons Ratio (y) = 0.12730 0.19708
# Poissons Ratio (z) = 0.18722 0.18722
#
# Static dielectric constant tensor:
#      x y z
#    x 1.829150 0.000000 0.000000 
#    y 0.000000 1.829150 0.000000 
#    z 0.000000 0.000000 1.850110 
# 
# From -- ./inp_files/2196.got.cif
#   From: 2010.05.17/outbox.cif.g08.bks.cpg/sg79_cif.got.tgz:2196.got - 2010.06.03 18:47:27.
