data_PCOD9542525
_publ_section_title
;
Structure prediction by ZEFSAII (Michael W. Deem and Ramdas Pophale) SiO2 
 PCOD9542525
Probable space group: P -4
;
_chemical_formula_sum "Si O2"
_cell_formula_units_Z 13
_cell_length_a 8.993592
_cell_length_b 8.993592
_cell_length_c 7.450482
_cell_angle_alpha 90.000000
_cell_angle_beta 90.000000
_cell_angle_gamma 90.000000
_cell_volume 602.629980
_symmetry_space_group_name_H-M "P -4"
_symmetry_group_IT_number 81
_symmetry_cell_setting 'tetragonal'
loop_
_space_group_symop_operation_xyz
x,y,z
y,-x,-z
-x,-y,z
-y,x,-z
loop_
_atom_site_type_symbol
_atom_site_label
_atom_site_fract_x
_atom_site_fract_y
_atom_site_fract_z
Si Si1 0.963878 0.660675 0.875765
Si Si2 0.255173 0.296992 0.176989
Si Si3 0.854541 0.801757 0.536259
Si Si4 0.500000 0.500000 0.000000
O O1 0.854260 0.743671 0.738516
O O2 0.000000 0.500000 0.795054
O O3 0.122945 0.740352 0.881275
O O4 0.884244 0.640353 0.065616
O O5 0.232357 0.294860 0.390158
O O6 0.400263 0.386623 0.116345
O O7 0.028091 0.801839 0.477090
#
# Coordination Sequence:
#
# PCOD9542525 Si02
#       4
#     4   4   4   1
#     4  11  22  40  64  94 126 169 215 261 327 380
#     4  11  23  43  65  92 131 166 215 269 315 388
#     4   9  20  40  66  95 120 161 222 273 313 367
#     4  12  24  44  62 100 136 174 208 256 342 396
#
# _framework density 21.572108
#
# number of rings (size 3 to 8) (size 9 to 14) (size 15 to 20)
#    0.000    1.538    3.077    1.846    0.000    4.308 
#   11.077    1.538    0.000    0.000    0.000    0.000 
#    0.000    0.000    0.000    0.000    0.000    0.000 
#
# Total GULP energy -72638.511535 kJ/mol
# GULP energy per Si atom -5587.577810 kJ/mol
# Density = 2.152301 g / cm^3
# Si number density = 21.572108 Si / 1000 Ang^3
#
#
#
# Elastic Constant Matrix: (Units=GPa)
#
#
# Indices 1 2 3 4 5 6 
#
# 1 50.5787 11.8064 30.4224 0.0000 0.0000 -1.1493
# 2 11.8064 50.5787 30.4224 0.0000 0.0000 1.1493
# 3 30.4224 30.4224 86.9787 0.0000 0.0000 0.0000
# 4 0.0000 0.0000 0.0000 18.6723 0.0000 0.0000
# 5 0.0000 0.0000 0.0000 0.0000 18.6723 0.0000
# 6 -1.1493 1.1493 0.0000 0.0000 0.0000 31.0755
#
#
#
# Elastic Compliance Matrix: (Units=1/GPa)
#
#
# Indices 1 2 3 4 5 6 
#
# 1 0.025089 -0.000760 -0.008509 0.000000 0.000000 0.000956
# 2 -0.000760 0.025089 -0.008509 0.000000 0.000000 -0.000956
# 3 -0.008509 -0.008509 0.017450 0.000000 0.000000 0.000000
# 4 0.000000 0.000000 0.000000 0.053555 0.000000 0.000000
# 5 0.000000 0.000000 0.000000 0.000000 0.053555 0.000000
# 6 0.000956 -0.000956 0.000000 0.000000 0.000000 0.032250
#
#
# Mechanical properties :
#
#
# Convention : Reuss Voigt Hill
#
# Bulk Modulus (GPa) = 31.18222 37.04871 34.11546
# Shear Modulus (GPa) = 19.74453 21.38303 20.56378
#
# Velocity S-wave (km/s) = 3.02864 3.15180 3.09084
# Velocity P-wave (km/s) = 5.16880 5.51877 5.34665
#
# Compressibility (1/GPa) = 0.03206956
#
# Stress axis : x y z
#
# Youngs Moduli (GPa) = 39.85884 39.85884 57.30749
#
# Poissons Ratio (x) = 0.03028 0.48765
# Poissons Ratio (y) = 0.03028 0.48765
# Poissons Ratio (z) = 0.33918 0.33918
#
# Static dielectric constant tensor:
#      x y z
#    x 1.875070 0.000000 0.000000 
#    y 0.000000 1.875070 0.000000 
#    z 0.000000 0.000000 1.755240 
# 
# From -- ./inp_files/466.got.cif
#   From: 2010.05.17/outbox.cif.g08.bks.cpg/sg81_cif.got.tgz:466.got - 2010.06.03 18:51:07.
