data_PCOD9542024
_publ_section_title
;
Structure prediction by ZEFSAII (Michael W. Deem and Ramdas Pophale) SiO2 
 PCOD9542024
Probable space group: I 4
;
_chemical_formula_sum "Si O2"
_cell_formula_units_Z 56
_cell_length_a 10.761127
_cell_length_b 10.761127
_cell_length_c 22.878661
_cell_angle_alpha 90.000000
_cell_angle_beta 90.000000
_cell_angle_gamma 90.000000
_cell_volume 2649.391368
_symmetry_space_group_name_H-M "I 4"
_symmetry_group_IT_number 79
_symmetry_cell_setting 'tetragonal'
loop_
_space_group_symop_operation_xyz
x,y,z
-y,x,z
-x,-y,z
y,-x,z
1/2+x,1/2+y,1/2+z
1/2-y,1/2+x,1/2+z
1/2-x,1/2-y,1/2+z
1/2+y,1/2-x,1/2+z
loop_
_atom_site_type_symbol
_atom_site_label
_atom_site_fract_x
_atom_site_fract_y
_atom_site_fract_z
Si Si1 0.962071 0.648261 0.035830
Si Si2 0.704403 0.458032 0.910582
Si Si3 0.483547 0.291045 0.784914
Si Si4 0.830752 0.877618 0.854201
Si Si5 0.062391 0.364922 0.171058
Si Si6 0.264841 0.204167 0.978272
Si Si7 0.319684 0.395029 0.222942
O O1 0.962924 0.675000 0.105087
O O2 0.000000 0.500000 0.028666
O O3 0.831655 0.698566 0.007286
O O4 0.070766 0.734124 0.008895
O O5 0.639156 0.590620 0.910929
O O6 0.775988 0.466947 0.848196
O O7 0.766265 0.412336 0.970419
O O8 0.608713 0.372633 0.784504
O O9 0.486339 0.212263 0.726254
O O10 0.767689 0.818105 0.910030
O O11 0.780806 0.855964 0.788812
O O12 0.973284 0.833433 0.857723
O O13 0.211421 0.361044 0.179108
O O14 0.000000 0.500000 0.177395
O O15 0.456373 0.337613 0.216759
#
# Coordination Sequence:
#
# PCOD9542024 Si02
#       7
#     8   8   8   8   8   8   8
#     4  11  28  43  61  95 129 173 231 264 312 385
#     4   9  19  38  63  90 122 164 208 263 325 385
#     4   9  20  39  63  92 125 163 210 258 320 392
#     4   9  17  34  60  95 125 150 199 252 319 392
#     4  11  25  41  59  89 130 166 216 273 306 373
#     4  12  21  41  65  89 130 174 205 270 324 378
#     4   9  20  39  67  94 123 163 204 263 331 379
#
# _framework density 21.136931000000001
#
# number of rings (size 3 to 8) (size 9 to 14) (size 15 to 20)
#    0.000    2.000    1.429    3.429    4.000    1.429 
#    2.571    1.429    0.000    1.714    0.000    0.000 
#    0.000    0.000    0.000    0.000    0.000    0.000 
#
# Total GULP energy -155940.042976 kJ/mol
# GULP energy per Si atom -5569.287249 kJ/mol
# Density = 2.108882 g / cm^3
# Si number density = 21.136931 Si / 1000 Ang^3
#
#
#
# Elastic Constant Matrix: (Units=GPa)
#
#
# Indices 1 2 3 4 5 6 
#
# 1 56.8455 24.5234 38.2416 0.0000 0.0000 5.1701
# 2 24.5234 56.8455 38.2416 0.0000 0.0000 -5.1701
# 3 38.2416 38.2416 108.4486 0.0000 0.0000 0.0000
# 4 0.0000 0.0000 0.0000 28.4422 0.0000 0.0000
# 5 0.0000 0.0000 0.0000 0.0000 28.4422 0.0000
# 6 5.1701 -5.1701 0.0000 0.0000 0.0000 14.5127
#
#
#
# Elastic Compliance Matrix: (Units=1/GPa)
#
#
# Indices 1 2 3 4 5 6 
#
# 1 0.026650 -0.008268 -0.006482 0.000000 0.000000 -0.012439
# 2 -0.008268 0.026650 -0.006482 0.000000 0.000000 0.012439
# 3 -0.006482 -0.006482 0.013793 0.000000 0.000000 0.000000
# 4 0.000000 0.000000 0.000000 0.035159 0.000000 0.000000
# 5 0.000000 0.000000 0.000000 0.000000 0.035159 0.000000
# 6 -0.012439 0.012439 0.000000 0.000000 0.000000 0.077768
#
#
# Mechanical properties :
#
#
# Convention : Reuss Voigt Hill
#
# Bulk Modulus (GPa) = 40.60231 47.12809 43.86520
# Shear Modulus (GPa) = 18.80736 22.35496 20.58116
#
# Velocity S-wave (km/s) = 2.98617 3.25564 3.12381
# Velocity P-wave (km/s) = 5.58036 6.03964 5.81454
#
# Compressibility (1/GPa) = 0.02462914
#
# Stress axis : x y z
#
# Youngs Moduli (GPa) = 37.52286 37.52286 72.50314
#
# Poissons Ratio (x) = 0.31023 0.46998
# Poissons Ratio (y) = 0.31023 0.46998
# Poissons Ratio (z) = 0.24323 0.24323
#
# Static dielectric constant tensor:
#      x y z
#    x 1.828810 0.000000 0.000000 
#    y 0.000000 1.828810 0.000000 
#    z 0.000000 0.000000 1.761520 
# 
# From -- ./inp_files/1816.got.cif
#   From: 2010.05.17/outbox.cif.g08.bks.cpg/sg79_cif.got.tgz:1816.got - 2010.06.03 18:47:27.
