data_PCOD9542594
_publ_section_title
;
Structure prediction by ZEFSAII (Michael W. Deem and Ramdas Pophale) SiO2 
 PCOD9542594
Probable space group: P -4
;
_chemical_formula_sum "Si O2"
_cell_formula_units_Z 16
_cell_length_a 10.208236
_cell_length_b 10.208236
_cell_length_c 6.092894
_cell_angle_alpha 90.000000
_cell_angle_beta 90.000000
_cell_angle_gamma 90.000000
_cell_volume 634.928799
_symmetry_space_group_name_H-M "P -4"
_symmetry_group_IT_number 81
_symmetry_cell_setting 'tetragonal'
loop_
_space_group_symop_operation_xyz
x,y,z
y,-x,-z
-x,-y,z
-y,x,-z
loop_
_atom_site_type_symbol
_atom_site_label
_atom_site_fract_x
_atom_site_fract_y
_atom_site_fract_z
Si Si1 0.290782 0.643102 0.280462
Si Si2 0.500000 0.000000 0.270884
Si Si3 0.500000 0.500000 0.000000
Si Si4 0.944030 0.272516 0.027535
Si Si5 0.000000 0.000000 0.000000
Si Si6 0.633980 0.167835 0.634157
O O1 0.426212 0.607278 0.155329
O O2 0.217364 0.504327 0.275917
O O3 0.301260 0.702450 0.526436
O O4 0.193347 0.740492 0.154472
O O5 0.592159 0.087173 0.420399
O O6 0.601250 0.924961 0.119910
O O7 0.064158 0.300637 0.198568
O O8 0.973982 0.140595 0.890967
#
# Coordination Sequence:
#
# PCOD9542594 Si02
#       6
#     4   2   1   4   1   4
#     4  12  25  47  74 112 155 201 262 328 387 469
#     4  12  22  50  76 100 148 208 260 312 392 476
#     4  12  28  46  80 124 150 212 272 330 392 468
#     4  12  27  51  74 115 154 210 260 318 407 471
#     4  12  32  44  82 120 160 210 252 340 398 488
#     4  12  26  46  76 109 147 206 261 322 394 469
#
# _framework density 25.199674999999999
#
# number of rings (size 3 to 8) (size 9 to 14) (size 15 to 20)
#    0.000    0.000    5.000    4.500    7.000    2.000 
#    0.000    1.250    0.000    0.000    0.000    0.000 
#    0.000    0.000    0.000    0.000    0.000    0.000 
#
# Total GULP energy -89359.794060 kJ/mol
# GULP energy per Si atom -5584.987129 kJ/mol
# Density = 2.514232 g / cm^3
# Si number density = 25.199675 Si / 1000 Ang^3
#
#
#
# Elastic Constant Matrix: (Units=GPa)
#
#
# Indices 1 2 3 4 5 6 
#
# 1 124.4832 31.8571 41.1391 0.0000 0.0000 4.8202
# 2 31.8571 124.4832 41.1391 0.0000 0.0000 -4.8202
# 3 41.1391 41.1391 94.4896 0.0000 0.0000 0.0000
# 4 0.0000 0.0000 0.0000 36.6476 0.0000 0.0000
# 5 0.0000 0.0000 0.0000 0.0000 36.6476 0.0000
# 6 4.8202 -4.8202 0.0000 0.0000 0.0000 26.4249
#
#
#
# Elastic Compliance Matrix: (Units=1/GPa)
#
#
# Indices 1 2 3 4 5 6 
#
# 1 0.009651 -0.001354 -0.003613 0.000000 0.000000 -0.002007
# 2 -0.001354 0.009651 -0.003613 0.000000 0.000000 0.002007
# 3 -0.003613 -0.003613 0.013729 0.000000 0.000000 0.000000
# 4 0.000000 0.000000 0.000000 0.027287 0.000000 0.000000
# 5 0.000000 0.000000 0.000000 0.000000 0.027287 0.000000
# 6 -0.002007 0.002007 0.000000 0.000000 0.000000 0.038576
#
#
# Mechanical properties :
#
#
# Convention : Reuss Voigt Hill
#
# Bulk Modulus (GPa) = 62.99780 63.52516 63.26148
# Shear Modulus (GPa) = 33.64062 35.23207 34.43635
#
# Velocity S-wave (km/s) = 3.65768 3.74320 3.70068
# Velocity P-wave (km/s) = 6.54919 6.62914 6.58928
#
# Compressibility (1/GPa) = 0.01587357
#
# Stress axis : x y z
#
# Youngs Moduli (GPa) = 103.61321 103.61321 72.83911
#
# Poissons Ratio (x) = 0.14027 0.26314
# Poissons Ratio (y) = 0.14027 0.26314
# Poissons Ratio (z) = 0.37431 0.37431
#
# Static dielectric constant tensor:
#      x y z
#    x 2.071950 0.000000 0.000000 
#    y 0.000000 2.071950 0.000000 
#    z 0.000000 0.000000 2.010780 
# 
# From -- ./inp_files/146.got.cif
#   From: 2010.05.17/outbox.cif.g08.bks.cpg/sg81_cif.got.tgz:146.got - 2010.06.03 18:51:07.
