data_PCOD9542862
_publ_section_title
;
Structure prediction by ZEFSAII (Michael W. Deem and Ramdas Pophale) SiO2 
 PCOD9542862
Probable space group: I -4 
;
_chemical_formula_sum "Si O2"
_cell_formula_units_Z 34
_cell_length_a 12.112762
_cell_length_b 12.112762
_cell_length_c 11.785010
_cell_angle_alpha 90.000000
_cell_angle_beta 90.000000
_cell_angle_gamma 90.000000
_cell_volume 1729.084921
_symmetry_space_group_name_H-M "I -4 "
_symmetry_group_IT_number 82
_symmetry_cell_setting 'tetragonal'
loop_
_space_group_symop_operation_xyz
x,y,z
y,-x,-z
-x,-y,z
-y,x,-z
1/2+x,1/2+y,1/2+z
1/2+y,1/2-x,1/2-z
1/2-x,1/2-y,1/2+z
1/2-y,1/2+x,1/2-z
loop_
_atom_site_type_symbol
_atom_site_label
_atom_site_fract_x
_atom_site_fract_y
_atom_site_fract_z
Si Si1 0.151489 0.270067 0.748694
Si Si2 0.925353 0.841277 0.535214
Si Si3 0.155473 0.350861 0.375146
Si Si4 0.365375 0.017992 0.085596
Si Si5 0.000000 0.500000 0.250000
O O1 0.078424 0.192708 0.666418
O O2 0.257443 0.198515 0.786184
O O3 0.163271 0.382222 0.673591
O O4 0.089596 0.309788 0.861559
O O5 0.870821 0.746181 0.461978
O O6 0.047480 0.859766 0.489365
O O7 0.182774 0.451560 0.461801
O O8 0.044074 0.394346 0.317191
O O9 0.500000 0.000000 0.081026
#
# Coordination Sequence:
#
# PCOD9542862 Si02
#       5
#     8   8   8   8   2
#     4  11  21  39  66  95 121 175 221 273 329 401
#     4  10  22  40  61  90 127 168 220 273 326 394
#     4  11  25  36  65  93 129 169 216 276 330 400
#     4  11  21  40  67  93 129 169 224 271 325 408
#     4  12  24  44  56  90 136 168 212 276 348 386
#
# _framework density 19.66358
#
# number of rings (size 3 to 8) (size 9 to 14) (size 15 to 20)
#    0.000    1.176    3.529    2.824    3.294    3.765 
#    0.000    4.706    0.000    0.000    0.000    0.000 
#    0.000    0.000    0.000    0.000    0.000    0.000 
#
# Total GULP energy -94784.606951 kJ/mol
# GULP energy per Si atom -5575.565115 kJ/mol
# Density = 1.961883 g / cm^3
# Si number density = 19.663580 Si / 1000 Ang^3
#
#
#
# Elastic Constant Matrix: (Units=GPa)
#
#
# Indices 1 2 3 4 5 6 
#
# 1 65.1540 6.9967 6.6611 0.0000 0.0000 -1.0545
# 2 6.9967 65.1540 6.6611 0.0000 0.0000 1.0545
# 3 6.6611 6.6611 42.5872 0.0000 0.0000 0.0000
# 4 0.0000 0.0000 0.0000 24.6194 0.0000 0.0000
# 5 0.0000 0.0000 0.0000 0.0000 24.6194 0.0000
# 6 -1.0545 1.0545 0.0000 0.0000 0.0000 44.3851
#
#
#
# Elastic Compliance Matrix: (Units=1/GPa)
#
#
# Indices 1 2 3 4 5 6 
#
# 1 0.015741 -0.001469 -0.002232 0.000000 0.000000 0.000409
# 2 -0.001469 0.015741 -0.002232 0.000000 0.000000 -0.000409
# 3 -0.002232 -0.002232 0.024180 0.000000 0.000000 0.000000
# 4 0.000000 0.000000 0.000000 0.040618 0.000000 0.000000
# 5 0.000000 0.000000 0.000000 0.000000 0.040618 0.000000
# 6 0.000409 -0.000409 0.000000 0.000000 0.000000 0.022550
#
#
# Mechanical properties :
#
#
# Convention : Reuss Voigt Hill
#
# Bulk Modulus (GPa) = 22.83395 23.72589 23.27992
# Shear Modulus (GPa) = 26.89441 28.89654 27.89547
#
# Velocity S-wave (km/s) = 3.70229 3.83762 3.77057
# Velocity P-wave (km/s) = 5.46932 5.63281 5.55167
#
# Compressibility (1/GPa) = 0.04379445
#
# Stress axis : x y z
#
# Youngs Moduli (GPa) = 63.52911 63.52911 41.35726
#
# Poissons Ratio (x) = 0.09331 0.09232
# Poissons Ratio (y) = 0.09331 0.09232
# Poissons Ratio (z) = 0.14182 0.14182
#
# Static dielectric constant tensor:
#      x y z
#    x 1.705100 0.000000 0.000000 
#    y 0.000000 1.705100 0.000000 
#    z 0.000000 0.000000 1.726390 
# 
# From -- ./inp_files/1526.got.cif
#   From: 2010.05.17/outbox.cif.g08.bks.cpg/sg82_1_cif.got.tgz:1526.got - 2010.06.03 18:52:26.
