data_PCOD9542475
_publ_section_title
;
Structure prediction by ZEFSAII (Michael W. Deem and Ramdas Pophale) SiO2 
 PCOD9542475
Probable space group: P -4
;
_chemical_formula_sum "Si O2"
_cell_formula_units_Z 16
_cell_length_a 5.118855
_cell_length_b 5.118855
_cell_length_c 25.556115
_cell_angle_alpha 90.000000
_cell_angle_beta 90.000000
_cell_angle_gamma 90.000000
_cell_volume 669.638614
_symmetry_space_group_name_H-M "P -4"
_symmetry_group_IT_number 81
_symmetry_cell_setting 'tetragonal'
loop_
_space_group_symop_operation_xyz
x,y,z
y,-x,-z
-x,-y,z
-y,x,-z
loop_
_atom_site_type_symbol
_atom_site_label
_atom_site_fract_x
_atom_site_fract_y
_atom_site_fract_z
Si Si1 0.187142 0.247658 0.585123
Si Si2 0.820716 0.752878 0.698154
Si Si3 0.500000 0.500000 0.140565
Si Si4 0.000000 0.500000 0.929156
Si Si5 0.000000 0.500000 0.208801
Si Si6 0.000000 0.000000 0.000000
Si Si7 0.500000 0.500000 0.500000
O O1 0.325507 0.261364 0.642404
O O2 0.388126 0.280697 0.538361
O O3 0.000000 0.500000 0.584054
O O4 0.000000 0.000000 0.578800
O O5 0.671557 0.830143 0.750408
O O6 0.000000 0.500000 0.705960
O O7 0.000000 0.000000 0.688970
O O8 0.575089 0.249828 0.105932
O O9 0.240345 0.406015 0.172485
O O10 0.932549 0.250389 0.964643
#
# Coordination Sequence:
#
# PCOD9542475 Si02
#       7
#     4   4   2   2   2   1   1
#     4  10  26  47  71 105 141 187 250 316 386 478
#     4  10  23  45  70  99 140 191 254 303 374 473
#     4  12  28  44  74 114 166 188 264 316 386 438
#     4  12  26  49  74 120 150 211 258 320 368 446
#     4  12  26  43  74 104 148 209 238 320 386 454
#     4  12  24  48  84 100 160 208 268 304 380 434
#     4  12  28  42  76  96 152 178 244 316 420 450
#
# _framework density 23.893484999999998
#
# number of rings (size 3 to 8) (size 9 to 14) (size 15 to 20)
#    0.000    1.000    0.000    4.500    8.750    7.000 
#    0.000    0.000    0.000    0.000    0.000    0.000 
#    0.000    0.000    0.000    0.000    0.000    0.000 
#
# Total GULP energy -89494.196347 kJ/mol
# GULP energy per Si atom -5593.387272 kJ/mol
# Density = 2.383910 g / cm^3
# Si number density = 23.893485 Si / 1000 Ang^3
#
#
#
# Elastic Constant Matrix: (Units=GPa)
#
#
# Indices 1 2 3 4 5 6 
#
# 1 134.6550 21.4655 37.4863 0.0000 0.0000 2.8824
# 2 21.4655 134.6550 37.4863 0.0000 0.0000 -2.8824
# 3 37.4863 37.4863 127.0526 0.0000 0.0000 0.0000
# 4 0.0000 0.0000 0.0000 23.6622 0.0000 0.0000
# 5 0.0000 0.0000 0.0000 0.0000 23.6622 0.0000
# 6 2.8824 -2.8824 0.0000 0.0000 0.0000 52.5366
#
#
#
# Elastic Compliance Matrix: (Units=1/GPa)
#
#
# Indices 1 2 3 4 5 6 
#
# 1 0.008161 -0.000698 -0.002202 0.000000 0.000000 -0.000486
# 2 -0.000698 0.008161 -0.002202 0.000000 0.000000 0.000486
# 3 -0.002202 -0.002202 0.009170 0.000000 0.000000 0.000000
# 4 0.000000 0.000000 0.000000 0.042262 0.000000 0.000000
# 5 0.000000 0.000000 0.000000 0.000000 0.042262 0.000000
# 6 -0.000486 0.000486 0.000000 0.000000 0.000000 0.019088
#
#
# Mechanical properties :
#
#
# Convention : Reuss Voigt Hill
#
# Bulk Modulus (GPa) = 65.41049 65.47100 65.44074
# Shear Modulus (GPa) = 34.62530 39.96717 37.29624
#
# Velocity S-wave (km/s) = 3.81090 4.09433 3.95516
# Velocity P-wave (km/s) = 6.84100 7.05777 6.95023
#
# Compressibility (1/GPa) = 0.01528807
#
# Stress axis : x y z
#
# Youngs Moduli (GPa) = 122.53271 122.53271 109.05082
#
# Poissons Ratio (x) = 0.08558 0.24011
# Poissons Ratio (y) = 0.08558 0.24011
# Poissons Ratio (z) = 0.26980 0.26980
#
# Static dielectric constant tensor:
#      x y z
#    x 1.945830 0.000000 0.000000 
#    y 0.000000 1.945830 0.000000 
#    z 0.000000 0.000000 2.012150 
# 
# From -- ./inp_files/1860.got.cif
#   From: 2010.05.17/outbox.cif.g08.bks.cpg/sg81_cif.got.tgz:1860.got - 2010.06.03 18:51:07.
