data_PCOD9542343
_publ_section_title
;
Structure prediction by ZEFSAII (Michael W. Deem and Ramdas Pophale) SiO2 
 PCOD9542343
Probable space group: P -4
;
_chemical_formula_sum "Si O2"
_cell_formula_units_Z 18
_cell_length_a 8.256928
_cell_length_b 8.256928
_cell_length_c 11.882111
_cell_angle_alpha 90.000000
_cell_angle_beta 90.000000
_cell_angle_gamma 90.000000
_cell_volume 810.085018
_symmetry_space_group_name_H-M "P -4"
_symmetry_group_IT_number 81
_symmetry_cell_setting 'tetragonal'
loop_
_space_group_symop_operation_xyz
x,y,z
y,-x,-z
-x,-y,z
-y,x,-z
loop_
_atom_site_type_symbol
_atom_site_label
_atom_site_fract_x
_atom_site_fract_y
_atom_site_fract_z
Si Si1 0.195010 0.881377 0.952888
Si Si2 0.251641 0.595000 0.527044
Si Si3 0.500000 0.000000 0.861837
Si Si4 0.100357 0.751320 0.319180
Si Si5 0.246413 0.087727 0.276825
O O1 0.129538 0.762784 0.855424
O O2 0.387290 0.885334 0.939028
O O3 0.076707 0.841291 0.056969
O O4 0.415721 0.699335 0.511139
O O5 0.127202 0.670774 0.439156
O O6 0.175591 0.616155 0.650664
O O7 0.388234 0.101429 0.775356
O O8 0.922893 0.831048 0.316435
O O9 0.226805 0.897047 0.298457
#
# Coordination Sequence:
#
# PCOD9542343 Si02
#       5
#     4   4   2   4   4
#     4  10  19  37  61  85 117 156 207 263 313 371
#     4  11  23  37  55  87 132 170 202 254 323 388
#     4  10  20  36  64  90 114 158 212 266 326 378
#     4  10  19  35  59  85 116 154 203 258 312 381
#     4  10  21  37  61  89 114 158 214 258 307 379
#
# _framework density 22.219888999999998
#
# number of rings (size 3 to 8) (size 9 to 14) (size 15 to 20)
#    0.000    1.778    0.000    9.333    0.000    4.444 
#    0.000    6.667    0.000    6.000    0.000    0.000 
#    0.000    0.000    0.000    0.000    0.000    0.000 
#
# Total GULP energy -100328.806779 kJ/mol
# GULP energy per Si atom -5573.822599 kJ/mol
# Density = 2.216932 g / cm^3
# Si number density = 22.219889 Si / 1000 Ang^3
#
#
#
# Elastic Constant Matrix: (Units=GPa)
#
#
# Indices 1 2 3 4 5 6 
#
# 1 84.3711 7.7855 16.5993 0.0000 0.0000 3.9938
# 2 7.7855 84.3711 16.5993 0.0000 0.0000 -3.9938
# 3 16.5993 16.5993 74.5075 0.0000 0.0000 0.0000
# 4 0.0000 0.0000 0.0000 32.0240 0.0000 0.0000
# 5 0.0000 0.0000 0.0000 0.0000 32.0240 0.0000
# 6 3.9938 -3.9938 0.0000 0.0000 0.0000 22.0787
#
#
#
# Elastic Compliance Matrix: (Units=1/GPa)
#
#
# Indices 1 2 3 4 5 6 
#
# 1 0.012553 -0.000755 -0.002628 0.000000 0.000000 -0.002407
# 2 -0.000755 0.012553 -0.002628 0.000000 0.000000 0.002407
# 3 -0.002628 -0.002628 0.014593 0.000000 0.000000 0.000000
# 4 0.000000 0.000000 0.000000 0.031227 0.000000 0.000000
# 5 0.000000 0.000000 0.000000 0.000000 0.031227 0.000000
# 6 -0.002407 0.002407 0.000000 0.000000 0.000000 0.046163
#
#
# Mechanical properties :
#
#
# Convention : Reuss Voigt Hill
#
# Bulk Modulus (GPa) = 36.13392 36.13532 36.13462
# Shear Modulus (GPa) = 29.48728 30.70971 30.09849
#
# Velocity S-wave (km/s) = 3.64684 3.72167 3.68445
# Velocity P-wave (km/s) = 5.83352 5.89624 5.86496
#
# Compressibility (1/GPa) = 0.02767483
#
# Stress axis : x y z
#
# Youngs Moduli (GPa) = 79.66124 79.66124 68.52771
#
# Poissons Ratio (x) = 0.06016 0.18012
# Poissons Ratio (y) = 0.06016 0.18012
# Poissons Ratio (z) = 0.20938 0.20938
#
# Static dielectric constant tensor:
#      x y z
#    x 1.883620 0.000000 0.000000 
#    y 0.000000 1.883620 0.000000 
#    z 0.000000 0.000000 1.883140 
# 
# From -- ./inp_files/1226.got.cif
#   From: 2010.05.17/outbox.cif.g08.bks.cpg/sg81_cif.got.tgz:1226.got - 2010.06.03 18:51:07.
