data_PCOD9542145
_publ_section_title
;
Structure prediction by ZEFSAII (Michael W. Deem and Ramdas Pophale) SiO2 
 PCOD9542145
Probable space group: I 41
;
_chemical_formula_sum "Si O2"
_cell_formula_units_Z 44
_cell_length_a 11.421433
_cell_length_b 11.421433
_cell_length_c 17.051436
_cell_angle_alpha 90.000000
_cell_angle_beta 90.000000
_cell_angle_gamma 90.000000
_cell_volume 2224.345022
_symmetry_space_group_name_H-M "I 41"
_symmetry_group_IT_number 80
_symmetry_cell_setting 'tetragonal'
loop_
_space_group_symop_operation_xyz
x,y,z
-y,1/2+x,1/4+z
-x,-y,z
y,1/2-x,1/4+z
1/2+x,1/2+y,1/2+z
1/2-y,x,3/4+z
1/2-x,1/2-y,1/2+z
1/2+y,-x,3/4+z
loop_
_atom_site_type_symbol
_atom_site_label
_atom_site_fract_x
_atom_site_fract_y
_atom_site_fract_z
Si Si1 0.763806 0.573528 0.729690
Si Si2 0.578686 0.606693 0.594406
Si Si3 0.135810 0.032769 0.382951
Si Si4 0.000000 0.500000 0.193832
Si Si5 0.698396 0.386681 0.351166
Si Si6 0.799168 0.197288 0.461350
O O1 0.686661 0.606250 0.653251
O O2 0.886727 0.634705 0.710598
O O3 0.694220 0.597848 0.809279
O O4 0.791690 0.434852 0.734967
O O5 0.500000 0.500000 0.628425
O O6 0.591563 0.562183 0.504182
O O7 0.504505 0.726144 0.587616
O O8 0.203370 0.914365 0.404204
O O9 0.000000 0.000000 0.364171
O O10 0.084975 0.573786 0.139248
O O11 0.771499 0.314467 0.414558
O O12 0.686824 0.299915 0.277533
#
# Coordination Sequence:
#
# PCOD9542145 Si02
#       6
#     8   8   8   4   8   8
#     4  11  22  39  63 100 129 165 215 273 327 373
#     4  10  21  36  63  94 129 160 205 276 320 377
#     4  10  24  40  64  97 129 171 220 264 319 393
#     4  10  24  40  54 100 128 160 220 258 314 390
#     4  12  22  41  67  92 128 172 217 257 326 392
#     4  11  21  42  68  89 127 174 217 260 320 400
#
# _framework density 19.781103999999999
#
# number of rings (size 3 to 8) (size 9 to 14) (size 15 to 20)
#    0.545    0.727    5.455    0.545    2.545    0.000 
#    3.273    1.818    0.000    0.000    0.000    0.000 
#    0.000    0.000    0.000    0.000    0.000    0.000 
#
# Total GULP energy -122577.332208 kJ/mol
# GULP energy per Si atom -5571.696919 kJ/mol
# Density = 1.973608 g / cm^3
# Si number density = 19.781104 Si / 1000 Ang^3
#
#
#
# Elastic Constant Matrix: (Units=GPa)
#
#
# Indices 1 2 3 4 5 6 
#
# 1 29.4419 31.2521 22.0880 0.0000 0.0000 -3.3480
# 2 31.2521 29.4419 22.0880 0.0000 0.0000 3.3480
# 3 22.0880 22.0880 97.1850 0.0000 0.0000 0.0000
# 4 0.0000 0.0000 0.0000 -4.7518 0.0000 0.0000
# 5 0.0000 0.0000 0.0000 0.0000 -4.7518 0.0000
# 6 -3.3480 3.3480 0.0000 0.0000 0.0000 34.2459
#
#
#
# Elastic Compliance Matrix: (Units=1/GPa)
#
#
# Indices 1 2 3 4 5 6 
#
# 1 -0.192978 0.212720 -0.004487 0.000000 0.000000 -0.039663
# 2 0.212720 -0.192978 -0.004487 0.000000 0.000000 0.039663
# 3 -0.004487 -0.004487 0.012329 0.000000 0.000000 0.000000
# 4 0.000000 0.000000 0.000000 -0.210445 0.000000 0.000000
# 5 0.000000 0.000000 0.000000 0.000000 -0.210445 0.000000
# 6 -0.039663 0.039663 0.000000 0.000000 0.000000 0.021446
#
#
# Mechanical properties :
#
#
# Convention : Reuss Voigt Hill
#
# Bulk Modulus (GPa) = 29.52869 34.10279 31.81574
# Shear Modulus (GPa) = -4.27615 10.32447 3.02416
#
# Velocity S-wave (km/s) = -1.47188 2.28707 1.23779
# Velocity P-wave (km/s) = 3.47442 4.92461 4.26165
#
# Compressibility (1/GPa) = 0.03386537
#
# Stress axis : x y z
#
# Youngs Moduli (GPa) = -5.18193 -5.18193 81.10820
#
# Poissons Ratio (x) = 1.10230 0.36392
# Poissons Ratio (y) = 1.10230 0.36392
# Poissons Ratio (z) = -0.02325 -0.02325
#
# Static dielectric constant tensor:
#      x y z
#    x 1.714950 0.000000 0.000000 
#    y 0.000000 1.714950 0.000000 
#    z 0.000000 0.000000 1.702930 
# 
# From -- ./inp_files/1506.got.cif
#   From: 2010.05.17/outbox.cif.g08.bks.cpg/sg80_cif.got.tgz:1506.got - 2010.06.03 18:49:13.
