data_PCOD9542882
_publ_section_title
;
Structure prediction by ZEFSAII (Michael W. Deem and Ramdas Pophale) SiO2 
 PCOD9542882
Probable space group: I -4 
;
_chemical_formula_sum "Si O2"
_cell_formula_units_Z 60
_cell_length_a 11.885627
_cell_length_b 11.885627
_cell_length_c 19.584896
_cell_angle_alpha 90.000000
_cell_angle_beta 90.000000
_cell_angle_gamma 90.000000
_cell_volume 2766.721618
_symmetry_space_group_name_H-M "I -4 "
_symmetry_group_IT_number 82
_symmetry_cell_setting 'tetragonal'
loop_
_space_group_symop_operation_xyz
x,y,z
y,-x,-z
-x,-y,z
-y,x,-z
1/2+x,1/2+y,1/2+z
1/2+y,1/2-x,1/2-z
1/2-x,1/2-y,1/2+z
1/2-y,1/2+x,1/2-z
loop_
_atom_site_type_symbol
_atom_site_label
_atom_site_fract_x
_atom_site_fract_y
_atom_site_fract_z
Si Si1 0.729007 0.907959 0.360363
Si Si2 0.720084 0.219061 0.998043
Si Si3 0.633548 0.494363 0.647293
Si Si4 0.587414 0.597813 0.090928
Si Si5 0.794955 0.158413 0.770344
Si Si6 0.214536 0.478270 0.524022
Si Si7 0.182107 0.091340 0.737581
Si Si8 0.500000 0.000000 0.118443
O O1 0.722305 0.823990 0.424200
O O2 0.796747 0.852536 0.298985
O O3 0.793439 0.014524 0.390751
O O4 0.604870 0.950436 0.340003
O O5 0.641581 0.309223 0.956358
O O6 0.852113 0.252866 0.998112
O O7 0.702817 0.087788 0.974252
O O8 0.500000 0.500000 0.639341
O O9 0.682476 0.613791 0.671574
O O10 0.689633 0.475584 0.575225
O O11 0.648466 0.405712 0.709255
O O12 0.500000 0.500000 0.067944
O O13 0.629708 0.557983 0.165088
O O14 0.679587 0.222068 0.778322
O O15 0.778270 0.025053 0.769712
O O16 0.100909 0.465085 0.567929
#
# Coordination Sequence:
#
# PCOD9542882 Si02
#       8
#     8   8   8   8   8   8   8   4
#     4  11  23  43  65  97 136 180 234 291 351 417
#     4  11  27  41  69 103 138 192 232 290 352 436
#     4  10  22  42  70  98 129 178 228 288 342 419
#     4  12  23  43  72 100 135 186 243 283 352 432
#     4  11  23  42  69  97 138 176 229 290 352 420
#     4  11  24  45  66  97 143 179 233 285 351 424
#     4  11  22  43  67 100 134 176 234 288 347 425
#     4  10  22  42  61  90 136 168 221 298 330 396
#
# _framework density 21.686316000000001
#
# number of rings (size 3 to 8) (size 9 to 14) (size 15 to 20)
#    0.000    1.067    4.000    2.800    3.733    0.267 
#    2.400    0.667    0.000    0.000    0.000    0.000 
#    0.000    0.000    0.000    0.000    0.000    0.000 
#
# Total GULP energy -167549.412243 kJ/mol
# GULP energy per Si atom -5584.980408 kJ/mol
# Density = 2.163696 g / cm^3
# Si number density = 21.686316 Si / 1000 Ang^3
#
#
#
# Elastic Constant Matrix: (Units=GPa)
#
#
# Indices 1 2 3 4 5 6 
#
# 1 97.1635 43.8283 11.8569 0.0000 0.0000 -9.8278
# 2 43.8283 97.1635 11.8569 0.0000 0.0000 9.8278
# 3 11.8569 11.8569 45.9268 0.0000 0.0000 0.0000
# 4 0.0000 0.0000 0.0000 17.9828 0.0000 0.0000
# 5 0.0000 0.0000 0.0000 0.0000 17.9828 0.0000
# 6 -9.8278 9.8278 0.0000 0.0000 0.0000 42.1736
#
#
#
# Elastic Compliance Matrix: (Units=1/GPa)
#
#
# Indices 1 2 3 4 5 6 
#
# 1 0.013963 -0.006548 -0.001914 0.000000 0.000000 0.004780
# 2 -0.006548 0.013963 -0.001914 0.000000 0.000000 -0.004780
# 3 -0.001914 -0.001914 0.022762 0.000000 0.000000 0.000000
# 4 0.000000 0.000000 0.000000 0.055609 0.000000 0.000000
# 5 0.000000 0.000000 0.000000 0.000000 0.055609 0.000000
# 6 0.004780 -0.004780 0.000000 0.000000 0.000000 0.025939
#
#
# Mechanical properties :
#
#
# Convention : Reuss Voigt Hill
#
# Bulk Modulus (GPa) = 33.40634 41.70421 37.55527
# Shear Modulus (GPa) = 22.87543 27.14196 25.00870
#
# Velocity S-wave (km/s) = 3.25134 3.54159 3.39957
# Velocity P-wave (km/s) = 5.43440 5.99969 5.72403
#
# Compressibility (1/GPa) = 0.02993444
#
# Stress axis : x y z
#
# Youngs Moduli (GPa) = 71.61942 71.61942 43.93259
#
# Poissons Ratio (x) = 0.46897 0.08410
# Poissons Ratio (y) = 0.46897 0.08410
# Poissons Ratio (z) = 0.13709 0.13709
#
# Static dielectric constant tensor:
#      x y z
#    x 1.872660 0.000000 0.000000 
#    y 0.000000 1.872660 0.000000 
#    z 0.000000 0.000000 1.813060 
# 
# From -- ./inp_files/3184.got.cif
#   From: 2010.05.17/outbox.cif.g08.bks.cpg/sg82_2_cif.got.tgz:3184.got - 2010.06.03 18:52:26.
