data_PCOD9542223
_publ_section_title
;
Structure prediction by ZEFSAII (Michael W. Deem and Ramdas Pophale) SiO2 
 PCOD9542223
Probable space group: I 41
;
_chemical_formula_sum "Si O2"
_cell_formula_units_Z 48
_cell_length_a 13.843358
_cell_length_b 13.843358
_cell_length_c 11.555371
_cell_angle_alpha 90.000000
_cell_angle_beta 90.000000
_cell_angle_gamma 90.000000
_cell_volume 2214.454667
_symmetry_space_group_name_H-M "I 41"
_symmetry_group_IT_number 80
_symmetry_cell_setting 'tetragonal'
loop_
_space_group_symop_operation_xyz
x,y,z
-y,1/2+x,1/4+z
-x,-y,z
y,1/2-x,1/4+z
1/2+x,1/2+y,1/2+z
1/2-y,x,3/4+z
1/2-x,1/2-y,1/2+z
1/2+y,-x,3/4+z
loop_
_atom_site_type_symbol
_atom_site_label
_atom_site_fract_x
_atom_site_fract_y
_atom_site_fract_z
Si Si1 0.162329 0.809622 0.787860
Si Si2 0.272848 0.619494 0.514263
Si Si3 0.510307 0.822596 0.198925
Si Si4 0.201415 0.200707 0.740354
Si Si5 0.004384 0.391017 0.939664
Si Si6 0.055358 0.594797 0.456382
O O1 0.267867 0.760653 0.803048
O O2 0.082600 0.740274 0.735190
O O3 0.160428 0.901476 0.703026
O O4 0.151053 0.865557 0.910207
O O5 0.169998 0.578268 0.476255
O O6 0.319198 0.555470 0.613760
O O7 0.601898 0.752882 0.203722
O O8 0.527659 0.896666 0.303356
O O9 0.491593 0.871433 0.076592
O O10 0.222901 0.232235 0.874950
O O11 0.176514 0.086980 0.742695
O O12 0.000000 0.500000 0.987234
O O13 0.000000 0.500000 0.415088
#
# Coordination Sequence:
#
# PCOD9542223 Si02
#       6
#     8   8   8   8   8   8
#     4  11  20  40  66 102 130 178 229 291 349 409
#     4  10  24  42  67 100 141 177 225 288 358 411
#     4  11  22  39  69  95 137 179 232 283 348 425
#     4  10  24  47  65  99 137 187 239 291 358 425
#     4  11  22  37  67  99 128 172 236 289 341 415
#     4  11  25  44  68 106 142 183 230 291 358 426
#
# _framework density 21.675764999999998
#
# number of rings (size 3 to 8) (size 9 to 14) (size 15 to 20)
#    0.000    1.333    3.333    2.500    2.333    3.333 
#    9.000    0.000    0.000    0.000    0.000    0.000 
#    0.000    0.000    0.000    0.000    0.000    0.000 
#
# Total GULP energy -133833.579469 kJ/mol
# GULP energy per Si atom -5576.399145 kJ/mol
# Density = 2.162643 g / cm^3
# Si number density = 21.675765 Si / 1000 Ang^3
#
#
#
# Elastic Constant Matrix: (Units=GPa)
#
#
# Indices 1 2 3 4 5 6 
#
# 1 68.7691 32.6525 -8.3274 0.0000 0.0000 -5.2504
# 2 32.6525 68.7691 -8.3274 0.0000 0.0000 5.2504
# 3 -8.3274 -8.3274 58.8647 0.0000 0.0000 0.0000
# 4 0.0000 0.0000 0.0000 27.7480 0.0000 0.0000
# 5 0.0000 0.0000 0.0000 0.0000 27.7480 0.0000
# 6 -5.2504 5.2504 0.0000 0.0000 0.0000 43.4909
#
#
#
# Elastic Compliance Matrix: (Units=1/GPa)
#
#
# Indices 1 2 3 4 5 6 
#
# 1 0.019395 -0.009301 0.001428 0.000000 0.000000 0.003464
# 2 -0.009301 0.019395 0.001428 0.000000 0.000000 -0.003464
# 3 0.001428 0.001428 0.017392 0.000000 0.000000 0.000000
# 4 0.000000 0.000000 0.000000 0.036039 0.000000 0.000000
# 5 0.000000 0.000000 0.000000 0.000000 0.036039 0.000000
# 6 0.003464 -0.003464 0.000000 0.000000 0.000000 0.023830
#
#
# Mechanical properties :
#
#
# Convention : Reuss Voigt Hill
#
# Bulk Modulus (GPa) = 23.09851 25.37760 24.23806
# Shear Modulus (GPa) = 27.86929 31.82435 29.84682
#
# Velocity S-wave (km/s) = 3.58960 3.83587 3.71478
# Velocity P-wave (km/s) = 5.27824 5.59926 5.44112
#
# Compressibility (1/GPa) = 0.04329283
#
# Stress axis : x y z
#
# Youngs Moduli (GPa) = 51.56007 51.56007 57.49723
#
# Poissons Ratio (x) = 0.47954 -0.08211
# Poissons Ratio (y) = 0.47954 -0.08211
# Poissons Ratio (z) = -0.07363 -0.07363
#
# Static dielectric constant tensor:
#      x y z
#    x 1.791830 0.000000 0.000000 
#    y 0.000000 1.791830 0.000000 
#    z 0.000000 0.000000 1.915320 
# 
# From -- ./inp_files/1023.got.cif
#   From: 2010.05.17/outbox.cif.g08.bks.cpg/sg80_cif.got.tgz:1023.got - 2010.06.03 18:49:13.
