data_PCOD9542402
_publ_section_title
;
Structure prediction by ZEFSAII (Michael W. Deem and Ramdas Pophale) SiO2 
 PCOD9542402
Probable space group: P -4
;
_chemical_formula_sum "Si O2"
_cell_formula_units_Z 22
_cell_length_a 8.765461
_cell_length_b 8.765461
_cell_length_c 14.447089
_cell_angle_alpha 90.000000
_cell_angle_beta 90.000000
_cell_angle_gamma 90.000000
_cell_volume 1110.017618
_symmetry_space_group_name_H-M "P -4"
_symmetry_group_IT_number 81
_symmetry_cell_setting 'tetragonal'
loop_
_space_group_symop_operation_xyz
x,y,z
y,-x,-z
-x,-y,z
-y,x,-z
loop_
_atom_site_type_symbol
_atom_site_label
_atom_site_fract_x
_atom_site_fract_y
_atom_site_fract_z
Si Si1 0.606292 0.346285 0.612683
Si Si2 0.828350 0.339379 0.289823
Si Si3 0.497302 0.686640 0.211269
Si Si4 0.746785 0.510201 0.986309
Si Si5 0.500000 0.000000 0.865201
Si Si6 0.840034 0.182268 0.476379
O O1 0.500000 0.500000 0.596829
O O2 0.495193 0.216612 0.654410
O O3 0.709393 0.394062 0.700664
O O4 0.708427 0.283211 0.527953
O O5 0.672002 0.281429 0.245285
O O6 0.941271 0.372230 0.205834
O O7 0.874090 0.229408 0.371452
O O8 0.500000 0.500000 0.191764
O O9 0.532860 0.782278 0.119703
O O10 0.651615 0.367241 0.023672
O O11 0.868942 0.549255 0.063763
O O12 0.004281 0.203347 0.524117
#
# Coordination Sequence:
#
# PCOD9542402 Si02
#       6
#     4   4   4   4   2   4
#     4   9  21  39  66  96 125 163 223 276 316 372
#     4  10  21  37  61  90 122 161 219 264 313 375
#     4   9  17  36  61  88 119 154 202 274 311 361
#     4  11  19  37  63  85 120 160 206 256 317 377
#     4  12  22  36  64  96 124 162 216 266 316 386
#     4  11  25  43  62  90 135 181 208 257 333 406
#
# _framework density 19.819507000000002
#
# number of rings (size 3 to 8) (size 9 to 14) (size 15 to 20)
#    0.000    2.182    3.636    2.182    5.091    0.727 
#    3.273    0.000    0.000    0.545    0.000    0.000 
#    0.000    0.000    0.000    0.000    0.000    0.000 
#
# Total GULP energy -122573.895006 kJ/mol
# GULP energy per Si atom -5571.540682 kJ/mol
# Density = 1.977440 g / cm^3
# Si number density = 19.819507 Si / 1000 Ang^3
#
#
#
# Elastic Constant Matrix: (Units=GPa)
#
#
# Indices 1 2 3 4 5 6 
#
# 1 43.3192 26.2625 20.0797 0.0000 0.0000 -1.1337
# 2 26.2625 43.3192 20.0797 0.0000 0.0000 1.1337
# 3 20.0797 20.0797 127.1373 0.0000 0.0000 0.0000
# 4 0.0000 0.0000 0.0000 8.0212 0.0000 0.0000
# 5 0.0000 0.0000 0.0000 0.0000 8.0212 0.0000
# 6 -1.1337 1.1337 0.0000 0.0000 0.0000 12.5596
#
#
#
# Elastic Compliance Matrix: (Units=1/GPa)
#
#
# Indices 1 2 3 4 5 6 
#
# 1 0.037576 -0.021763 -0.002497 0.000000 0.000000 0.005356
# 2 -0.021763 0.037576 -0.002497 0.000000 0.000000 -0.005356
# 3 -0.002497 -0.002497 0.008654 0.000000 0.000000 0.000000
# 4 0.000000 0.000000 0.000000 0.124670 0.000000 0.000000
# 5 0.000000 0.000000 0.000000 0.000000 0.124670 0.000000
# 6 0.005356 -0.005356 0.000000 0.000000 0.000000 0.080587
#
#
# Mechanical properties :
#
#
# Convention : Reuss Voigt Hill
#
# Bulk Modulus (GPa) = 33.01361 38.51332 35.76346
# Shear Modulus (GPa) = 10.47454 15.54399 13.00926
#
# Velocity S-wave (km/s) = 2.30140 2.80353 2.56478
# Velocity P-wave (km/s) = 4.87393 5.47302 5.18214
#
# Compressibility (1/GPa) = 0.03029054
#
# Stress axis : x y z
#
# Youngs Moduli (GPa) = 26.61240 26.61240 115.54823
#
# Poissons Ratio (x) = 0.57918 0.28858
# Poissons Ratio (y) = 0.57918 0.28858
# Poissons Ratio (z) = 0.06646 0.06646
#
# Static dielectric constant tensor:
#      x y z
#    x 1.755820 0.000000 0.000000 
#    y 0.000000 1.755820 0.000000 
#    z 0.000000 0.000000 1.779620 
# 
# From -- ./inp_files/1590.got.cif
#   From: 2010.05.17/outbox.cif.g08.bks.cpg/sg81_cif.got.tgz:1590.got - 2010.06.03 18:51:07.
