data_PCOD9542802
_publ_section_title
;
Structure prediction by ZEFSAII (Michael W. Deem and Ramdas Pophale) SiO2 
 PCOD9542802
Probable space group: I -4 
;
_chemical_formula_sum "Si O2"
_cell_formula_units_Z 44
_cell_length_a 8.785634
_cell_length_b 8.785634
_cell_length_c 27.603829
_cell_angle_alpha 90.000000
_cell_angle_beta 90.000000
_cell_angle_gamma 90.000000
_cell_volume 2130.666818
_symmetry_space_group_name_H-M "I -4 "
_symmetry_group_IT_number 82
_symmetry_cell_setting 'tetragonal'
loop_
_space_group_symop_operation_xyz
x,y,z
y,-x,-z
-x,-y,z
-y,x,-z
1/2+x,1/2+y,1/2+z
1/2+y,1/2-x,1/2-z
1/2-x,1/2-y,1/2+z
1/2-y,1/2+x,1/2-z
loop_
_atom_site_type_symbol
_atom_site_label
_atom_site_fract_x
_atom_site_fract_y
_atom_site_fract_z
Si Si1 0.489862 0.746575 0.251975
Si Si2 0.000000 0.000000 0.164163
Si Si3 0.204690 0.816290 0.892960
Si Si4 0.292474 0.349276 0.007215
Si Si5 0.335129 0.521641 0.853348
Si Si6 0.143647 0.594881 0.578085
O O1 0.637803 0.850265 0.243464
O O2 0.509007 0.642406 0.298857
O O3 0.466959 0.658859 0.201648
O O4 0.026335 0.155388 0.132632
O O5 0.297073 0.790011 0.943119
O O6 0.289334 0.698319 0.857527
O O7 0.035137 0.751522 0.902144
O O8 0.297058 0.531782 0.997371
O O9 0.195408 0.281308 0.963259
O O10 0.500000 0.500000 0.877505
O O11 0.206078 0.426763 0.881472
O O12 0.000000 0.500000 0.557339
#
# Coordination Sequence:
#
# PCOD9542802 Si02
#       6
#     8   4   8   8   8   8
#     4  11  23  40  71  96 129 178 232 283 342 422
#     4  12  24  44  63 104 144 177 230 300 360 430
#     4  11  24  40  64  97 137 180 224 283 358 418
#     4  11  21  39  69  99 134 177 234 291 344 419
#     4  11  20  38  65  96 125 170 233 280 332 409
#     4  10  21  38  60  93 132 167 225 274 328 424
#
# _framework density 20.650811999999998
#
# number of rings (size 3 to 8) (size 9 to 14) (size 15 to 20)
#    0.000    1.091    6.364    2.182    5.091    1.455 
#    0.000    0.000    0.000    7.091    0.000    0.000 
#    0.000    0.000    0.000    0.000    0.000    0.000 
#
# Total GULP energy -122715.499269 kJ/mol
# GULP energy per Si atom -5577.977239 kJ/mol
# Density = 2.060381 g / cm^3
# Si number density = 20.650812 Si / 1000 Ang^3
#
#
#
# Elastic Constant Matrix: (Units=GPa)
#
#
# Indices 1 2 3 4 5 6 
#
# 1 80.2024 17.5614 21.3659 0.0000 0.0000 9.4224
# 2 17.5614 80.2024 21.3659 0.0000 0.0000 -9.4224
# 3 21.3659 21.3659 114.9859 0.0000 0.0000 0.0000
# 4 0.0000 0.0000 0.0000 26.5882 0.0000 0.0000
# 5 0.0000 0.0000 0.0000 0.0000 26.5882 0.0000
# 6 9.4224 -9.4224 0.0000 0.0000 0.0000 20.0190
#
#
#
# Elastic Compliance Matrix: (Units=1/GPa)
#
#
# Indices 1 2 3 4 5 6 
#
# 1 0.014865 -0.003732 -0.002069 0.000000 0.000000 -0.008753
# 2 -0.003732 0.014865 -0.002069 0.000000 0.000000 0.008753
# 3 -0.002069 -0.002069 0.009465 0.000000 0.000000 0.000000
# 4 0.000000 0.000000 0.000000 0.037611 0.000000 0.000000
# 5 0.000000 0.000000 0.000000 0.000000 0.037611 0.000000
# 6 -0.008753 0.008753 0.000000 0.000000 0.000000 0.058193
#
#
# Mechanical properties :
#
#
# Convention : Reuss Voigt Hill
#
# Bulk Modulus (GPa) = 42.63167 43.99747 43.31457
# Shear Modulus (GPa) = 25.48843 28.97891 27.23367
#
# Velocity S-wave (km/s) = 3.51701 3.75010 3.63543
# Velocity P-wave (km/s) = 6.09765 6.33267 6.21627
#
# Compressibility (1/GPa) = 0.02345674
#
# Stress axis : x y z
#
# Youngs Moduli (GPa) = 67.27159 67.27159 105.64701
#
# Poissons Ratio (x) = 0.25107 0.21855
# Poissons Ratio (y) = 0.25107 0.21855
# Poissons Ratio (z) = 0.13916 0.13916
#
# Static dielectric constant tensor:
#      x y z
#    x 1.780330 0.000000 0.000000 
#    y 0.000000 1.780330 0.000000 
#    z 0.000000 0.000000 1.789500 
# 
# From -- ./inp_files/3954.got.cif
#   From: 2010.05.17/outbox.cif.g08.bks.cpg/sg82_2_cif.got.tgz:3954.got - 2010.06.03 18:52:26.
