data_PCOD9542380
_publ_section_title
;
Structure prediction by ZEFSAII (Michael W. Deem and Ramdas Pophale) SiO2 
 PCOD9542380
Probable space group: P -4
;
_chemical_formula_sum "Si O2"
_cell_formula_units_Z 14
_cell_length_a 9.630715
_cell_length_b 9.630715
_cell_length_c 8.142258
_cell_angle_alpha 90.000000
_cell_angle_beta 90.000000
_cell_angle_gamma 90.000000
_cell_volume 755.199896
_symmetry_space_group_name_H-M "P -4"
_symmetry_group_IT_number 81
_symmetry_cell_setting 'tetragonal'
loop_
_space_group_symop_operation_xyz
x,y,z
y,-x,-z
-x,-y,z
-y,x,-z
loop_
_atom_site_type_symbol
_atom_site_label
_atom_site_fract_x
_atom_site_fract_y
_atom_site_fract_z
Si Si1 0.000000 0.500000 0.817551
Si Si2 0.852554 0.618297 0.519653
Si Si3 0.860503 0.333300 0.379288
Si Si4 0.222256 0.049781 0.971952
O O1 0.875011 0.540578 0.693352
O O2 0.965719 0.362703 0.921976
O O3 0.838324 0.499397 0.382320
O O4 0.733986 0.729453 0.533289
O O5 0.998935 0.692038 0.481867
O O6 0.886189 0.267638 0.202135
O O7 0.101911 0.149536 0.045924
#
# Coordination Sequence:
#
# PCOD9542380 Si02
#       4
#     2   4   4   4
#     4  10  20  42  56  94 126 156 206 260 322 370
#     4  10  23  39  66  86 124 162 211 263 302 376
#     4  10  22  40  60  94 117 167 202 257 310 365
#     4  11  23  38  66  94 126 163 208 263 319 376
#
# _framework density 18.538139000000001
#
# number of rings (size 3 to 8) (size 9 to 14) (size 15 to 20)
#    0.000    2.000    2.857    1.714    8.000    1.143 
#    0.000    0.000    0.000    0.857    0.000    0.000 
#    0.000    0.000    0.000    0.000    0.000    0.000 
#
# Total GULP energy -78053.868782 kJ/mol
# GULP energy per Si atom -5575.276342 kJ/mol
# Density = 1.849595 g / cm^3
# Si number density = 18.538139 Si / 1000 Ang^3
#
#
#
# Elastic Constant Matrix: (Units=GPa)
#
#
# Indices 1 2 3 4 5 6 
#
# 1 93.8468 52.0174 17.6083 0.0000 0.0000 3.5259
# 2 52.0174 93.8468 17.6083 0.0000 0.0000 -3.5259
# 3 17.6083 17.6083 48.7857 0.0000 0.0000 0.0000
# 4 0.0000 0.0000 0.0000 27.0545 0.0000 0.0000
# 5 0.0000 0.0000 0.0000 0.0000 27.0545 0.0000
# 6 3.5259 -3.5259 0.0000 0.0000 0.0000 37.8127
#
#
#
# Elastic Compliance Matrix: (Units=1/GPa)
#
#
# Indices 1 2 3 4 5 6 
#
# 1 0.015899 -0.008389 -0.002711 0.000000 0.000000 -0.002265
# 2 -0.008389 0.015899 -0.002711 0.000000 0.000000 0.002265
# 3 -0.002711 -0.002711 0.022455 0.000000 0.000000 0.000000
# 4 0.000000 0.000000 0.000000 0.036962 0.000000 0.000000
# 5 0.000000 0.000000 0.000000 0.000000 0.036962 0.000000
# 6 -0.002265 0.002265 0.000000 0.000000 0.000000 0.026869
#
#
# Mechanical properties :
#
#
# Convention : Reuss Voigt Hill
#
# Bulk Modulus (GPa) = 37.54851 45.66081 41.60466
# Shear Modulus (GPa) = 26.10358 28.33404 27.21881
#
# Velocity S-wave (km/s) = 3.75654 3.91374 3.83595
# Velocity P-wave (km/s) = 6.25413 6.71620 6.48928
#
# Compressibility (1/GPa) = 0.02663221
#
# Stress axis : x y z
#
# Youngs Moduli (GPa) = 62.89596 62.89596 44.53444
#
# Poissons Ratio (x) = 0.52764 0.12072
# Poissons Ratio (y) = 0.52764 0.12072
# Poissons Ratio (z) = 0.17049 0.17049
#
# Static dielectric constant tensor:
#      x y z
#    x 1.641070 0.000000 0.000000 
#    y 0.000000 1.641070 0.000000 
#    z 0.000000 0.000000 1.665100 
# 
# From -- ./inp_files/462.got.cif
#   From: 2010.05.17/outbox.cif.g08.bks.cpg/sg81_cif.got.tgz:462.got - 2010.06.03 18:51:07.
