data_PCOD9542765
_publ_section_title
;
Structure prediction by ZEFSAII (Michael W. Deem and Ramdas Pophale) SiO2 
 PCOD9542765
Probable space group: I -4 
;
_chemical_formula_sum "Si O2"
_cell_formula_units_Z 42
_cell_length_a 8.514306
_cell_length_b 8.514306
_cell_length_c 25.200381
_cell_angle_alpha 90.000000
_cell_angle_beta 90.000000
_cell_angle_gamma 90.000000
_cell_volume 1826.861468
_symmetry_space_group_name_H-M "I -4 "
_symmetry_group_IT_number 82
_symmetry_cell_setting 'tetragonal'
loop_
_space_group_symop_operation_xyz
x,y,z
y,-x,-z
-x,-y,z
-y,x,-z
1/2+x,1/2+y,1/2+z
1/2+y,1/2-x,1/2-z
1/2-x,1/2-y,1/2+z
1/2-y,1/2+x,1/2-z
loop_
_atom_site_type_symbol
_atom_site_label
_atom_site_fract_x
_atom_site_fract_y
_atom_site_fract_z
Si Si1 0.329259 0.060263 0.179573
Si Si2 0.322696 0.938804 0.430855
Si Si3 0.000000 0.000000 0.000000
Si Si4 0.167132 0.076993 0.868003
Si Si5 0.379224 0.195874 0.726505
Si Si6 0.245605 0.230189 0.965053
O O1 0.353233 0.167868 0.126041
O O2 0.248112 0.164950 0.225064
O O3 0.500000 0.000000 0.192679
O O4 0.226545 0.908327 0.162314
O O5 0.267356 0.834480 0.479760
O O6 0.500000 0.000000 0.440168
O O7 0.232825 0.103195 0.436137
O O8 0.832931 0.068542 0.022279
O O9 0.279401 0.109440 0.917423
O O10 0.260426 0.971740 0.826972
O O11 0.000000 0.000000 0.885931
O O12 0.521782 0.194659 0.769476
#
# Coordination Sequence:
#
# PCOD9542765 Si02
#       6
#     8   8   2   8   8   8
#     4  10  20  45  74 108 146 192 248 310 368 451
#     4  11  23  39  65 106 155 187 244 294 351 436
#     4  12  20  32  72 100 144 196 248 280 340 424
#     4  10  20  40  71 102 142 191 246 301 367 443
#     4  10  24  48  70 105 147 184 246 315 374 443
#     4  12  22  39  64 107 147 197 241 293 348 440
#
# _framework density 22.990251000000001
#
# number of rings (size 3 to 8) (size 9 to 14) (size 15 to 20)
#    0.000    1.333    6.667    0.000    2.667    0.381 
#   20.571    0.000    0.000    0.000    0.000    0.000 
#    0.000    0.000    0.000    0.000    0.000    0.000 
#
# Total GULP energy -116942.001666 kJ/mol
# GULP energy per Si atom -5568.666746 kJ/mol
# Density = 2.293792 g / cm^3
# Si number density = 22.990251 Si / 1000 Ang^3
#
#
#
# Elastic Constant Matrix: (Units=GPa)
#
#
# Indices 1 2 3 4 5 6 
#
# 1 81.8328 34.5160 43.2422 0.0000 0.0000 -5.1404
# 2 34.5160 81.8328 43.2422 0.0000 0.0000 5.1404
# 3 43.2422 43.2422 102.0776 0.0000 0.0000 0.0000
# 4 0.0000 0.0000 0.0000 32.5729 0.0000 0.0000
# 5 0.0000 0.0000 0.0000 0.0000 32.5729 0.0000
# 6 -5.1404 5.1404 0.0000 0.0000 0.0000 35.2026
#
#
#
# Elastic Compliance Matrix: (Units=1/GPa)
#
#
# Indices 1 2 3 4 5 6 
#
# 1 0.017186 -0.004641 -0.005314 0.000000 0.000000 0.003187
# 2 -0.004641 0.017186 -0.005314 0.000000 0.000000 -0.003187
# 3 -0.005314 -0.005314 0.014299 0.000000 0.000000 0.000000
# 4 0.000000 0.000000 0.000000 0.030700 0.000000 0.000000
# 5 0.000000 0.000000 0.000000 0.000000 0.030700 0.000000
# 6 0.003187 -0.003187 0.000000 0.000000 0.000000 0.029338
#
#
# Mechanical properties :
#
#
# Convention : Reuss Voigt Hill
#
# Bulk Modulus (GPa) = 55.15178 56.41599 55.78388
# Shear Modulus (GPa) = 28.41034 29.71920 29.06477
#
# Velocity S-wave (km/s) = 3.51915 3.59930 3.55945
# Velocity P-wave (km/s) = 6.36819 6.47036 6.41948
#
# Compressibility (1/GPa) = 0.01813178
#
# Stress axis : x y z
#
# Youngs Moduli (GPa) = 58.18732 58.18731 69.93490
#
# Poissons Ratio (x) = 0.27003 0.37166
# Poissons Ratio (y) = 0.27003 0.37166
# Poissons Ratio (z) = 0.30923 0.30923
#
# Static dielectric constant tensor:
#      x y z
#    x 1.947900 0.000000 0.000000 
#    y 0.000000 1.947900 0.000000 
#    z 0.000000 0.000000 1.971470 
# 
# From -- ./inp_files/3714.got.cif
#   From: 2010.05.17/outbox.cif.g08.bks.cpg/sg82_2_cif.got.tgz:3714.got - 2010.06.03 18:52:26.
