data_PCOD9542324
_publ_section_title
;
Structure prediction by ZEFSAII (Michael W. Deem and Ramdas Pophale) SiO2 
 PCOD9542324
Probable space group: P -4
;
_chemical_formula_sum "Si O2"
_cell_formula_units_Z 16
_cell_length_a 10.238134
_cell_length_b 10.238134
_cell_length_c 6.872065
_cell_angle_alpha 90.000000
_cell_angle_beta 90.000000
_cell_angle_gamma 90.000000
_cell_volume 720.325646
_symmetry_space_group_name_H-M "P -4"
_symmetry_group_IT_number 81
_symmetry_cell_setting 'tetragonal'
loop_
_space_group_symop_operation_xyz
x,y,z
y,-x,-z
-x,-y,z
-y,x,-z
loop_
_atom_site_type_symbol
_atom_site_label
_atom_site_fract_x
_atom_site_fract_y
_atom_site_fract_z
Si Si1 0.658100 0.224043 0.889013
Si Si2 0.656485 0.493470 0.779630
Si Si3 0.750200 0.212189 0.304391
Si Si4 0.992882 0.644053 0.432388
O O1 0.704788 0.345767 0.758102
O O2 0.630683 0.101154 0.756076
O O3 0.533877 0.287710 0.004486
O O4 0.751246 0.192439 0.070838
O O5 0.500000 0.500000 0.756302
O O6 0.718233 0.609627 0.655063
O O7 0.742763 0.077418 0.420020
O O8 0.868642 0.302110 0.366711
O O9 0.000000 0.500000 0.524121
#
# Coordination Sequence:
#
# PCOD9542324 Si02
#       4
#     4   4   4   4
#     4  10  20  40  73  99 139 181 241 300 370 419
#     4  10  16  41  68 105 134 174 239 304 360 417
#     4  10  27  43  70 104 148 192 235 308 356 453
#     4  12  26  46  67 109 149 189 245 298 375 441
#
# _framework density 22.212174999999998
#
# number of rings (size 3 to 8) (size 9 to 14) (size 15 to 20)
#    1.500    0.000    2.500    3.000    3.500    3.500 
#    0.000    1.250    0.000    0.000    0.000    0.000 
#    0.000    0.000    0.000    0.000    0.000    0.000 
#
# Total GULP energy -89278.588098 kJ/mol
# GULP energy per Si atom -5579.911756 kJ/mol
# Density = 2.216162 g / cm^3
# Si number density = 22.212175 Si / 1000 Ang^3
#
#
#
# Elastic Constant Matrix: (Units=GPa)
#
#
# Indices 1 2 3 4 5 6 
#
# 1 100.5446 23.7212 23.9075 0.0000 0.0000 4.6193
# 2 23.7212 100.5446 23.9075 0.0000 0.0000 -4.6193
# 3 23.9075 23.9075 83.1209 0.0000 0.0000 0.0000
# 4 0.0000 0.0000 0.0000 17.7963 0.0000 0.0000
# 5 0.0000 0.0000 0.0000 0.0000 17.7963 0.0000
# 6 4.6193 -4.6193 0.0000 0.0000 0.0000 32.1569
#
#
#
# Elastic Compliance Matrix: (Units=1/GPa)
#
#
# Indices 1 2 3 4 5 6 
#
# 1 0.011147 -0.002098 -0.002603 0.000000 0.000000 -0.001903
# 2 -0.002098 0.011147 -0.002603 0.000000 0.000000 0.001903
# 3 -0.002603 -0.002603 0.013528 0.000000 0.000000 0.000000
# 4 0.000000 0.000000 0.000000 0.056191 0.000000 0.000000
# 5 0.000000 0.000000 0.000000 0.000000 0.056191 0.000000
# 6 -0.001903 0.001903 0.000000 0.000000 0.000000 0.031644
#
#
# Mechanical properties :
#
#
# Convention : Reuss Voigt Hill
#
# Bulk Modulus (GPa) = 47.13699 47.47581 47.30640
# Shear Modulus (GPa) = 24.81043 27.72817 26.26930
#
# Velocity S-wave (km/s) = 3.34574 3.53701 3.44270
# Velocity P-wave (km/s) = 6.01603 6.17258 6.09481
#
# Compressibility (1/GPa) = 0.02121476
#
# Stress axis : x y z
#
# Youngs Moduli (GPa) = 89.70871 89.70871 73.92177
#
# Poissons Ratio (x) = 0.18825 0.19239
# Poissons Ratio (y) = 0.18825 0.19239
# Poissons Ratio (z) = 0.23348 0.23348
#
# Static dielectric constant tensor:
#      x y z
#    x 1.838400 0.000000 0.000000 
#    y 0.000000 1.838400 0.000000 
#    z 0.000000 0.000000 1.885010 
# 
# From -- ./inp_files/607.got.cif
#   From: 2010.05.17/outbox.cif.g08.bks.cpg/sg81_cif.got.tgz:607.got - 2010.06.03 18:51:07.
