data_PCOD9542847
_publ_section_title
;
Structure prediction by ZEFSAII (Michael W. Deem and Ramdas Pophale) SiO2 
 PCOD9542847
Probable space group: I -4 
;
_chemical_formula_sum "Si O2"
_cell_formula_units_Z 48
_cell_length_a 20.154728
_cell_length_b 20.154728
_cell_length_c 5.192753
_cell_angle_alpha 90.000000
_cell_angle_beta 90.000000
_cell_angle_gamma 90.000000
_cell_volume 2109.364090
_symmetry_space_group_name_H-M "I -4 "
_symmetry_group_IT_number 82
_symmetry_cell_setting 'tetragonal'
loop_
_space_group_symop_operation_xyz
x,y,z
y,-x,-z
-x,-y,z
-y,x,-z
1/2+x,1/2+y,1/2+z
1/2+y,1/2-x,1/2-z
1/2-x,1/2-y,1/2+z
1/2-y,1/2+x,1/2-z
loop_
_atom_site_type_symbol
_atom_site_label
_atom_site_fract_x
_atom_site_fract_y
_atom_site_fract_z
Si Si1 0.939821 0.593016 0.773876
Si Si2 0.697426 0.489552 0.303384
Si Si3 0.211408 0.240429 0.070795
Si Si4 0.413003 0.173736 0.764072
Si Si5 0.883667 0.129781 0.014440
Si Si6 0.904864 0.016147 0.431748
O O1 0.911978 0.519614 0.726137
O O2 0.916845 0.644425 0.551551
O O3 0.918408 0.616035 0.055710
O O4 0.774424 0.473569 0.289680
O O5 0.668896 0.545747 0.495911
O O6 0.661121 0.418037 0.332272
O O7 0.665112 0.509621 0.032125
O O8 0.244770 0.275834 0.823853
O O9 0.185998 0.171638 0.943042
O O10 0.153481 0.286126 0.191822
O O11 0.896693 0.075631 0.236715
O O12 0.953374 0.050526 0.649897
#
# Coordination Sequence:
#
# PCOD9542847 Si02
#       6
#     8   8   8   8   8   8
#     4  11  25  48  76 104 134 169 223 301 371 415
#     4  10  22  37  61  93 132 174 226 273 335 397
#     4  11  26  45  67  97 141 190 228 275 340 418
#     4  11  25  43  73 104 139 179 229 282 342 427
#     4  10  22  38  62  90 128 176 224 284 331 399
#     4   9  18  34  59  90 126 168 220 278 333 386
#
# _framework density 22.755671
#
# number of rings (size 3 to 8) (size 9 to 14) (size 15 to 20)
#    0.000    1.667    0.000    3.000    9.333    7.000 
#    0.000    0.000    0.000    0.000    0.000    0.000 
#    0.000    0.000    0.000    0.000    0.000    0.000 
#
# Total GULP energy -133607.365883 kJ/mol
# GULP energy per Si atom -5566.973578 kJ/mol
# Density = 2.270388 g / cm^3
# Si number density = 22.755671 Si / 1000 Ang^3
#
#
#
# Elastic Constant Matrix: (Units=GPa)
#
#
# Indices 1 2 3 4 5 6 
#
# 1 62.2573 14.1756 0.3316 0.0000 0.0000 0.8203
# 2 14.1756 62.2573 0.3316 0.0000 0.0000 -0.8203
# 3 0.3316 0.3316 72.0530 0.0000 0.0000 0.0000
# 4 0.0000 0.0000 0.0000 18.6914 0.0000 0.0000
# 5 0.0000 0.0000 0.0000 0.0000 18.6914 0.0000
# 6 0.8203 -0.8203 0.0000 0.0000 0.0000 19.0627
#
#
#
# Elastic Compliance Matrix: (Units=1/GPa)
#
#
# Indices 1 2 3 4 5 6 
#
# 1 0.016956 -0.003872 -0.000060 0.000000 0.000000 -0.000896
# 2 -0.003872 0.016956 -0.000060 0.000000 0.000000 0.000896
# 3 -0.000060 -0.000060 0.013879 0.000000 0.000000 0.000000
# 4 0.000000 0.000000 0.000000 0.053500 0.000000 0.000000
# 5 0.000000 0.000000 0.000000 0.000000 0.053500 0.000000
# 6 -0.000896 0.000896 0.000000 0.000000 0.000000 0.052536
#
#
# Mechanical properties :
#
#
# Convention : Reuss Voigt Hill
#
# Bulk Modulus (GPa) = 25.12172 25.13834 25.13003
# Shear Modulus (GPa) = 21.87396 23.40437 22.63917
#
# Velocity S-wave (km/s) = 3.10377 3.21051 3.15759
# Velocity P-wave (km/s) = 4.88961 4.98139 4.93571
#
# Compressibility (1/GPa) = 0.03980619
#
# Stress axis : x y z
#
# Youngs Moduli (GPa) = 58.97539 58.97539 72.05009
#
# Poissons Ratio (x) = 0.22837 0.00434
# Poissons Ratio (y) = 0.22837 0.00434
# Poissons Ratio (z) = 0.00355 0.00355
#
# Static dielectric constant tensor:
#      x y z
#    x 1.952830 0.000000 0.000000 
#    y 0.000000 1.952830 0.000000 
#    z 0.000000 0.000000 1.928930 
# 
# From -- ./inp_files/358.got.cif
#   From: 2010.05.17/outbox.cif.g08.bks.cpg/sg82_1_cif.got.tgz:358.got - 2010.06.03 18:52:26.
