data_PCOD9542931
_publ_section_title
;
Structure prediction by ZEFSAII (Michael W. Deem and Ramdas Pophale) SiO2 
 PCOD9542931
Probable space group: I -4 
;
_chemical_formula_sum "Si O2"
_cell_formula_units_Z 48
_cell_length_a 19.058478
_cell_length_b 19.058478
_cell_length_c 5.133219
_cell_angle_alpha 90.000000
_cell_angle_beta 90.000000
_cell_angle_gamma 90.000000
_cell_volume 1864.516467
_symmetry_space_group_name_H-M "I -4 "
_symmetry_group_IT_number 82
_symmetry_cell_setting 'tetragonal'
loop_
_space_group_symop_operation_xyz
x,y,z
y,-x,-z
-x,-y,z
-y,x,-z
1/2+x,1/2+y,1/2+z
1/2+y,1/2-x,1/2-z
1/2-x,1/2-y,1/2+z
1/2-y,1/2+x,1/2-z
loop_
_atom_site_type_symbol
_atom_site_label
_atom_site_fract_x
_atom_site_fract_y
_atom_site_fract_z
Si Si1 0.563999 0.182019 0.218366
Si Si2 0.656991 0.796326 0.474778
Si Si3 0.820812 0.986699 0.007350
Si Si4 0.343999 0.634429 0.339760
Si Si5 0.919159 0.658393 0.490571
Si Si6 0.918486 0.064295 0.421979
O O1 0.536394 0.244958 0.392018
O O2 0.587457 0.115295 0.391350
O O3 0.502182 0.162164 0.022267
O O4 0.637364 0.206493 0.086678
O O5 0.682812 0.721291 0.578579
O O6 0.615361 0.786542 0.200803
O O7 0.608626 0.828677 0.703048
O O8 0.855286 0.909612 0.960937
O O9 0.869709 0.021594 0.227336
O O10 0.808925 0.056384 0.837708
O O11 0.382346 0.630239 0.063166
O O12 0.075330 0.999563 0.645974
#
# Coordination Sequence:
#
# PCOD9542931 Si02
#       6
#     8   8   8   8   8   8
#     4  10  23  42  66  93 136 173 229 276 354 394
#     4  10  24  42  67  95 132 173 223 272 336 408
#     4  11  21  40  63  96 131 181 220 285 337 408
#     4  11  22  38  65  94 132 180 228 280 342 405
#     4  10  23  42  70  94 133 170 225 275 340 407
#     4   9  19  34  58  94 131 171 223 276 328 402
#
# _framework density 25.743941
#
# number of rings (size 3 to 8) (size 9 to 14) (size 15 to 20)
#    1.000    0.833    1.667    2.000    2.333    3.333 
#    3.000    0.000    0.000    0.000    0.000    0.000 
#    0.000    0.000    0.000    0.000    0.000    0.000 
#
# Total GULP energy -133759.886471 kJ/mol
# GULP energy per Si atom -5573.328603 kJ/mol
# Density = 2.568535 g / cm^3
# Si number density = 25.743941 Si / 1000 Ang^3
#
#
#
# Elastic Constant Matrix: (Units=GPa)
#
#
# Indices 1 2 3 4 5 6 
#
# 1 101.5093 6.0194 -4.0953 0.0000 0.0000 -4.6977
# 2 6.0194 101.5093 -4.0953 0.0000 0.0000 4.6977
# 3 -4.0953 -4.0953 67.9590 0.0000 0.0000 0.0000
# 4 0.0000 0.0000 0.0000 25.6416 0.0000 0.0000
# 5 0.0000 0.0000 0.0000 0.0000 25.6416 0.0000
# 6 -4.6977 4.6977 0.0000 0.0000 0.0000 47.0250
#
#
#
# Elastic Compliance Matrix: (Units=1/GPa)
#
#
# Indices 1 2 3 4 5 6 
#
# 1 0.009959 -0.000617 0.000563 0.000000 0.000000 0.001057
# 2 -0.000617 0.009959 0.000563 0.000000 0.000000 -0.001057
# 3 0.000563 0.000563 0.014783 0.000000 0.000000 0.000000
# 4 0.000000 0.000000 0.000000 0.038999 0.000000 0.000000
# 5 0.000000 0.000000 0.000000 0.000000 0.038999 0.000000
# 6 0.001057 -0.001057 0.000000 0.000000 0.000000 0.021476
#
#
# Mechanical properties :
#
#
# Convention : Reuss Voigt Hill
#
# Bulk Modulus (GPa) = 27.99545 29.62612 28.81078
# Shear Modulus (GPa) = 34.46747 37.87158 36.16952
#
# Velocity S-wave (km/s) = 3.66301 3.83964 3.75236
# Velocity P-wave (km/s) = 5.36548 5.58481 5.47624
#
# Compressibility (1/GPa) = 0.03572009
#
# Stress axis : x y z
#
# Youngs Moduli (GPa) = 100.40666 100.40666 67.64708
#
# Poissons Ratio (x) = 0.06193 -0.03809
# Poissons Ratio (y) = 0.06193 -0.03809
# Poissons Ratio (z) = -0.05653 -0.05653
#
# Static dielectric constant tensor:
#      x y z
#    x 2.143380 0.000000 0.000000 
#    y 0.000000 2.143380 0.000000 
#    z 0.000000 0.000000 1.760280 
# 
# From -- ./inp_files/346.got.cif
#   From: 2010.05.17/outbox.cif.g08.bks.cpg/sg82_1_cif.got.tgz:346.got - 2010.06.03 18:52:26.
