data_PCOD9542434
_publ_section_title
;
Structure prediction by ZEFSAII (Michael W. Deem and Ramdas Pophale) SiO2 
 PCOD9542434
Probable space group: P -4
;
_chemical_formula_sum "Si O2"
_cell_formula_units_Z 24
_cell_length_a 11.456283
_cell_length_b 11.456283
_cell_length_c 8.989770
_cell_angle_alpha 90.000000
_cell_angle_beta 90.000000
_cell_angle_gamma 90.000000
_cell_volume 1179.875131
_symmetry_space_group_name_H-M "P -4"
_symmetry_group_IT_number 81
_symmetry_cell_setting 'tetragonal'
loop_
_space_group_symop_operation_xyz
x,y,z
y,-x,-z
-x,-y,z
-y,x,-z
loop_
_atom_site_type_symbol
_atom_site_label
_atom_site_fract_x
_atom_site_fract_y
_atom_site_fract_z
Si Si1 0.199311 0.267113 0.757835
Si Si2 0.100157 0.407729 0.182062
Si Si3 0.050533 0.831630 0.457998
Si Si4 0.603203 0.075789 0.470007
Si Si5 0.191057 0.959209 0.996451
Si Si6 0.405507 0.662011 0.006550
O O1 0.195685 0.143398 0.671042
O O2 0.184372 0.362429 0.629765
O O3 0.083962 0.263197 0.860733
O O4 0.301108 0.310952 0.867037
O O5 0.110777 0.420902 0.359643
O O6 0.000000 0.500000 0.132887
O O7 0.051418 0.280028 0.139354
O O8 0.226001 0.415344 0.102510
O O9 0.924502 0.891876 0.426880
O O10 0.012398 0.711905 0.529074
O O11 0.500000 0.000000 0.405949
O O12 0.084981 0.866843 0.984414
O O13 0.538460 0.637495 0.061503
#
# Coordination Sequence:
#
# PCOD9542434 Si02
#       6
#     4   4   4   4   4   4
#     4  10  22  40  64  93 126 166 215 268 327 403
#     4  10  23  39  66  90 131 172 216 276 341 397
#     4   9  19  36  62  93 130 168 206 263 333 397
#     4  10  22  39  58  96 127 170 208 262 330 400
#     4  10  22  37  60  94 127 163 208 262 328 403
#     4  10  24  46  69  92 124 176 232 285 337 399
#
# _framework density 20.341137
#
# number of rings (size 3 to 8) (size 9 to 14) (size 15 to 20)
#    0.000    2.167    0.000    1.000    9.333   14.667 
#    6.000    0.000    0.000    2.000    0.000    0.000 
#    0.000    0.000    0.000    0.000    0.000    0.000 
#
# Total GULP energy -133727.042096 kJ/mol
# GULP energy per Si atom -5571.960087 kJ/mol
# Density = 2.029484 g / cm^3
# Si number density = 20.341137 Si / 1000 Ang^3
#
#
#
# Elastic Constant Matrix: (Units=GPa)
#
#
# Indices 1 2 3 4 5 6 
#
# 1 92.4977 33.0346 10.4152 0.0000 0.0000 0.7204
# 2 33.0346 92.4977 10.4152 0.0000 0.0000 -0.7204
# 3 10.4152 10.4152 48.1593 0.0000 0.0000 0.0000
# 4 0.0000 0.0000 0.0000 26.3907 0.0000 0.0000
# 5 0.0000 0.0000 0.0000 0.0000 26.3907 0.0000
# 6 0.7204 -0.7204 0.0000 0.0000 0.0000 31.2363
#
#
#
# Elastic Compliance Matrix: (Units=1/GPa)
#
#
# Indices 1 2 3 4 5 6 
#
# 1 0.012545 -0.004282 -0.001787 0.000000 0.000000 -0.000388
# 2 -0.004282 0.012545 -0.001787 0.000000 0.000000 0.000388
# 3 -0.001787 -0.001787 0.021537 0.000000 0.000000 0.000000
# 4 0.000000 0.000000 0.000000 0.037892 0.000000 0.000000
# 5 0.000000 0.000000 0.000000 0.000000 0.037892 0.000000
# 6 -0.000388 0.000388 0.000000 0.000000 0.000000 0.032032
#
#
# Mechanical properties :
#
#
# Convention : Reuss Voigt Hill
#
# Bulk Modulus (GPa) = 32.34694 37.87610 35.11152
# Shear Modulus (GPa) = 27.70708 28.75618 28.23163
#
# Velocity S-wave (km/s) = 3.69470 3.76399 3.72951
# Velocity P-wave (km/s) = 5.84275 6.12789 5.98702
#
# Compressibility (1/GPa) = 0.03091483
#
# Stress axis : x y z
#
# Youngs Moduli (GPa) = 79.71576 79.71576 46.43105
#
# Poissons Ratio (x) = 0.34134 0.08297
# Poissons Ratio (y) = 0.34134 0.08297
# Poissons Ratio (z) = 0.14245 0.14245
#
# Static dielectric constant tensor:
#      x y z
#    x 1.756310 0.000000 0.000000 
#    y 0.000000 1.756310 0.000000 
#    z 0.000000 0.000000 1.774080 
# 
# From -- ./inp_files/831.got.cif
#   From: 2010.05.17/outbox.cif.g08.bks.cpg/sg81_cif.got.tgz:831.got - 2010.06.03 18:51:07.
