data_PCOD9542470
_publ_section_title
;
Structure prediction by ZEFSAII (Michael W. Deem and Ramdas Pophale) SiO2 
 PCOD9542470
Probable space group: P -4
;
_chemical_formula_sum "Si O2"
_cell_formula_units_Z 25
_cell_length_a 14.276309
_cell_length_b 14.276309
_cell_length_c 5.267076
_cell_angle_alpha 90.000000
_cell_angle_beta 90.000000
_cell_angle_gamma 90.000000
_cell_volume 1073.498554
_symmetry_space_group_name_H-M "P -4"
_symmetry_group_IT_number 81
_symmetry_cell_setting 'tetragonal'
loop_
_space_group_symop_operation_xyz
x,y,z
y,-x,-z
-x,-y,z
-y,x,-z
loop_
_atom_site_type_symbol
_atom_site_label
_atom_site_fract_x
_atom_site_fract_y
_atom_site_fract_z
Si Si1 0.791331 0.684938 0.954750
Si Si2 0.309579 0.576527 0.034215
Si Si3 0.434120 0.927872 0.728411
Si Si4 0.578989 0.803948 0.466134
Si Si5 0.941404 0.744319 0.566872
Si Si6 0.500000 0.500000 0.000000
Si Si7 0.785276 0.856292 0.325966
O O1 0.684242 0.661494 0.922647
O O2 0.838759 0.607331 0.129231
O O3 0.790195 0.787396 0.085897
O O4 0.859350 0.691695 0.717758
O O5 0.229167 0.568495 0.823243
O O6 0.272636 0.551689 0.316891
O O7 0.398386 0.528464 0.896545
O O8 0.509419 0.890085 0.522893
O O9 0.335936 0.972206 0.632952
O O10 0.500000 0.000000 0.882452
O O11 0.691474 0.824611 0.482121
O O12 0.884269 0.832958 0.459943
O O13 0.033557 0.772720 0.720293
#
# Coordination Sequence:
#
# PCOD9542470 Si02
#       7
#     4   4   4   4   4   1   4
#     4  10  24  43  68  98 141 184 232 296 363 419
#     4  11  26  45  69  98 144 187 234 292 349 432
#     4  11  24  40  68 106 132 179 240 295 350 429
#     4  11  24  46  71 100 143 184 235 294 361 412
#     4  11  23  44  68  98 140 180 239 295 367 432
#     4  12  28  42  68 106 136 194 240 278 356 426
#     4  10  23  43  68 100 135 186 230 298 364 429
#
# _framework density 23.288340999999999
#
# number of rings (size 3 to 8) (size 9 to 14) (size 15 to 20)
#    0.000    1.280    3.200    0.960    4.480    8.000 
#    0.000    0.000    0.000    0.000    0.000    0.000 
#    0.000    0.000    0.000    0.000    0.000    0.000 
#
# Total GULP energy -139284.788366 kJ/mol
# GULP energy per Si atom -5571.391535 kJ/mol
# Density = 2.323534 g / cm^3
# Si number density = 23.288341 Si / 1000 Ang^3
#
#
#
# Elastic Constant Matrix: (Units=GPa)
#
#
# Indices 1 2 3 4 5 6 
#
# 1 91.6231 7.2254 0.7440 0.0000 0.0000 4.0526
# 2 7.2254 91.6231 0.7440 0.0000 0.0000 -4.0526
# 3 0.7440 0.7440 50.4688 0.0000 0.0000 0.0000
# 4 0.0000 0.0000 0.0000 -42.9039 0.0000 0.0000
# 5 0.0000 0.0000 0.0000 0.0000 -42.9039 0.0000
# 6 4.0526 -4.0526 0.0000 0.0000 0.0000 34.2977
#
#
#
# Elastic Compliance Matrix: (Units=1/GPa)
#
#
# Indices 1 2 3 4 5 6 
#
# 1 0.011052 -0.000933 -0.000149 0.000000 0.000000 -0.001416
# 2 -0.000933 0.011052 -0.000149 0.000000 0.000000 0.001416
# 3 -0.000149 -0.000149 0.019819 0.000000 0.000000 0.000000
# 4 0.000000 0.000000 0.000000 -0.023308 0.000000 0.000000
# 5 0.000000 0.000000 0.000000 0.000000 -0.023308 0.000000
# 6 -0.001416 0.001416 0.000000 0.000000 0.000000 0.029491
#
#
# Mechanical properties :
#
#
# Convention : Reuss Voigt Hill
#
# Bulk Modulus (GPa) = 25.34252 27.90466 26.62359
# Shear Modulus (GPa) = 123.72220 4.69807 64.21013
#
# Velocity S-wave (km/s) = 7.29668 1.42187 5.25658
# Velocity P-wave (km/s) = 9.04956 3.83457 6.94976
#
# Compressibility (1/GPa) = 0.03945938
#
# Stress axis : x y z
#
# Youngs Moduli (GPa) = 90.48384 90.48384 50.45764
#
# Poissons Ratio (x) = 0.08442 0.00753
# Poissons Ratio (y) = 0.08442 0.00753
# Poissons Ratio (z) = 0.01350 0.01350
#
# Static dielectric constant tensor:
#      x y z
#    x 2.003290 0.000000 0.000000 
#    y 0.000000 2.003290 0.000000 
#    z 0.000000 0.000000 1.905440 
# 
# From -- ./inp_files/342.got.cif
#   From: 2010.05.17/outbox.cif.g08.bks.cpg/sg81_cif.got.tgz:342.got - 2010.06.03 18:51:07.
