data_PCOD9542563
_publ_section_title
;
Structure prediction by ZEFSAII (Michael W. Deem and Ramdas Pophale) SiO2 
 PCOD9542563
Probable space group: P -4
;
_chemical_formula_sum "Si O2"
_cell_formula_units_Z 14
_cell_length_a 8.792159
_cell_length_b 8.792159
_cell_length_c 7.392866
_cell_angle_alpha 90.000000
_cell_angle_beta 90.000000
_cell_angle_gamma 90.000000
_cell_volume 571.483770
_symmetry_space_group_name_H-M "P -4"
_symmetry_group_IT_number 81
_symmetry_cell_setting 'tetragonal'
loop_
_space_group_symop_operation_xyz
x,y,z
y,-x,-z
-x,-y,z
-y,x,-z
loop_
_atom_site_type_symbol
_atom_site_label
_atom_site_fract_x
_atom_site_fract_y
_atom_site_fract_z
Si Si1 0.753644 0.065887 0.518988
Si Si2 0.429116 0.766976 0.241736
Si Si3 0.000000 0.000000 0.000000
Si Si4 0.222279 0.243976 0.131633
Si Si5 0.500000 0.500000 0.500000
O O1 0.635034 0.098699 0.363466
O O2 0.683298 0.120104 0.709669
O O3 0.897524 0.177643 0.477347
O O4 0.606533 0.774753 0.197471
O O5 0.412284 0.615819 0.366838
O O6 0.336673 0.767576 0.054425
O O7 0.134688 0.084078 0.104808
#
# Coordination Sequence:
#
# PCOD9542563 Si02
#       5
#     4   4   1   4   1
#     4  11  25  48  76 112 158 206 263 328 388 463
#     4  12  26  47  80 110 157 206 265 319 400 462
#     4  12  28  52  78 112 164 194 264 324 386 472
#     4  12  26  49  78 117 154 210 260 326 390 472
#     4  12  24  54  68 124 162 208 264 338 384 484
#
# _framework density 24.497631999999999
#
# number of rings (size 3 to 8) (size 9 to 14) (size 15 to 20)
#    0.000    0.286    2.857    6.857    0.000    4.571 
#    0.000    5.714    0.000    0.000    0.000    0.000 
#    0.000    0.000    0.000    0.000    0.000    0.000 
#
# Total GULP energy -78491.000474 kJ/mol
# GULP energy per Si atom -5606.500034 kJ/mol
# Density = 2.444187 g / cm^3
# Si number density = 24.497632 Si / 1000 Ang^3
#
#
#
# Elastic Constant Matrix: (Units=GPa)
#
#
# Indices 1 2 3 4 5 6 
#
# 1 92.6383 28.3351 50.0892 0.0000 0.0000 5.4536
# 2 28.3351 92.6383 50.0892 0.0000 0.0000 -5.4536
# 3 50.0892 50.0892 191.2257 0.0000 0.0000 0.0000
# 4 0.0000 0.0000 0.0000 24.4968 0.0000 0.0000
# 5 0.0000 0.0000 0.0000 0.0000 24.4968 0.0000
# 6 5.4536 -5.4536 0.0000 0.0000 0.0000 37.5987
#
#
#
# Elastic Compliance Matrix: (Units=1/GPa)
#
#
# Indices 1 2 3 4 5 6 
#
# 1 0.013250 -0.002694 -0.002765 0.000000 0.000000 -0.002313
# 2 -0.002694 0.013250 -0.002765 0.000000 0.000000 0.002313
# 3 -0.002765 -0.002765 0.006678 0.000000 0.000000 0.000000
# 4 0.000000 0.000000 0.000000 0.040822 0.000000 0.000000
# 5 0.000000 0.000000 0.000000 0.000000 0.040822 0.000000
# 6 -0.002313 0.002313 0.000000 0.000000 0.000000 0.027268
#
#
# Mechanical properties :
#
#
# Convention : Reuss Voigt Hill
#
# Bulk Modulus (GPa) = 59.77325 70.39216 65.08271
# Shear Modulus (GPa) = 30.46686 33.85103 32.15894
#
# Velocity S-wave (km/s) = 3.53039 3.72130 3.62710
# Velocity P-wave (km/s) = 6.40865 6.87465 6.64573
#
# Compressibility (1/GPa) = 0.01672989
#
# Stress axis : x y z
#
# Youngs Moduli (GPa) = 75.47285 75.47285 149.74663
#
# Poissons Ratio (x) = 0.20331 0.41405
# Poissons Ratio (y) = 0.20331 0.41405
# Poissons Ratio (z) = 0.20868 0.20868
#
# Static dielectric constant tensor:
#      x y z
#    x 1.940030 0.000000 0.000000 
#    y 0.000000 1.940030 0.000000 
#    z 0.000000 0.000000 2.020820 
# 
# From -- ./inp_files/521.got.cif
#   From: 2010.05.17/outbox.cif.g08.bks.cpg/sg81_cif.got.tgz:521.got - 2010.06.03 18:51:07.
