data_PCOD9542140
_publ_section_title
;
Structure prediction by ZEFSAII (Michael W. Deem and Ramdas Pophale) SiO2 
 PCOD9542140
Probable space group: I 41
;
_chemical_formula_sum "Si O2"
_cell_formula_units_Z 52
_cell_length_a 19.276334
_cell_length_b 19.276334
_cell_length_c 6.648080
_cell_angle_alpha 90.000000
_cell_angle_beta 90.000000
_cell_angle_gamma 90.000000
_cell_volume 2470.273971
_symmetry_space_group_name_H-M "I 41"
_symmetry_group_IT_number 80
_symmetry_cell_setting 'tetragonal'
loop_
_space_group_symop_operation_xyz
x,y,z
-y,1/2+x,1/4+z
-x,-y,z
y,1/2-x,1/4+z
1/2+x,1/2+y,1/2+z
1/2-y,x,3/4+z
1/2-x,1/2-y,1/2+z
1/2+y,-x,3/4+z
loop_
_atom_site_type_symbol
_atom_site_label
_atom_site_fract_x
_atom_site_fract_y
_atom_site_fract_z
Si Si1 0.820466 0.484816 0.863340
Si Si2 0.400063 0.081655 0.075733
Si Si3 0.721918 0.925032 0.748822
Si Si4 0.289743 0.331800 0.969950
Si Si5 0.500000 0.500000 0.584471
Si Si6 0.049446 0.739200 0.227773
Si Si7 0.904992 0.127587 0.956215
O O1 0.879804 0.521263 0.731347
O O2 0.760657 0.468240 0.704805
O O3 0.799969 0.537643 0.041064
O O4 0.843682 0.416809 0.982020
O O5 0.391764 0.154272 0.185077
O O6 0.341346 0.083141 0.902036
O O7 0.470776 0.061970 0.971460
O O8 0.750638 0.852316 0.674942
O O9 0.774531 0.976840 0.861428
O O10 0.239934 0.326611 0.778322
O O11 0.463333 0.566116 0.478229
O O12 0.079380 0.808604 0.112137
O O13 0.097367 0.671891 0.225722
#
# Coordination Sequence:
#
# PCOD9542140 Si02
#       7
#     8   8   8   8   4   8   8
#     4  10  20  46  66  92 141 176 221 289 351 400
#     4  11  24  43  65  99 138 174 243 289 328 432
#     4  10  22  43  62  96 141 175 226 290 333 412
#     4  12  25  40  67 101 139 193 231 278 360 425
#     4  12  24  44  70 102 132 180 240 286 346 414
#     4  10  24  45  69 101 138 179 229 296 350 424
#     4  11  25  45  70 104 140 180 234 291 349 426
#
# _framework density 21.050295999999999
#
# number of rings (size 3 to 8) (size 9 to 14) (size 15 to 20)
#    0.000    1.231    6.154    0.923    2.154    6.769 
#    2.769    0.000    0.000    0.000    0.000    0.000 
#    0.000    0.000    0.000    0.000    0.000    0.000 
#
# Total GULP energy -145156.968267 kJ/mol
# GULP energy per Si atom -5582.960318 kJ/mol
# Density = 2.100238 g / cm^3
# Si number density = 21.050296 Si / 1000 Ang^3
#
#
#
# Elastic Constant Matrix: (Units=GPa)
#
#
# Indices 1 2 3 4 5 6 
#
# 1 59.7226 8.6230 13.8678 0.0000 0.0000 12.9216
# 2 8.6230 59.7226 13.8678 0.0000 0.0000 -12.9216
# 3 13.8678 13.8678 108.7469 0.0000 0.0000 0.0000
# 4 0.0000 0.0000 0.0000 21.7046 0.0000 0.0000
# 5 0.0000 0.0000 0.0000 0.0000 21.7046 0.0000
# 6 12.9216 -12.9216 0.0000 0.0000 0.0000 31.4773
#
#
#
# Elastic Compliance Matrix: (Units=1/GPa)
#
#
# Indices 1 2 3 4 5 6 
#
# 1 0.020064 -0.004633 -0.001968 0.000000 0.000000 -0.010138
# 2 -0.004633 0.020064 -0.001968 0.000000 0.000000 0.010138
# 3 -0.001968 -0.001968 0.009698 0.000000 0.000000 0.000000
# 4 0.000000 0.000000 0.000000 0.046073 0.000000 0.000000
# 5 0.000000 0.000000 0.000000 0.000000 0.046073 0.000000
# 6 -0.010138 0.010138 0.000000 0.000000 0.000000 0.040093
#
#
# Mechanical properties :
#
#
# Convention : Reuss Voigt Hill
#
# Bulk Modulus (GPa) = 30.59340 33.43440 32.01390
# Shear Modulus (GPa) = 23.79857 27.76620 25.78238
#
# Velocity S-wave (km/s) = 3.36602 3.63580 3.50351
# Velocity P-wave (km/s) = 5.44719 5.79163 5.62205
#
# Compressibility (1/GPa) = 0.03268678
#
# Stress axis : x y z
#
# Youngs Moduli (GPa) = 49.84174 49.84174 103.11916
#
# Poissons Ratio (x) = 0.23094 0.20291
# Poissons Ratio (y) = 0.23094 0.20291
# Poissons Ratio (z) = 0.09807 0.09807
#
# Static dielectric constant tensor:
#      x y z
#    x 1.802050 0.000000 0.000000 
#    y 0.000000 1.802050 0.000000 
#    z 0.000000 0.000000 1.747460 
# 
# From -- ./inp_files/335.got.cif
#   From: 2010.05.17/outbox.cif.g08.bks.cpg/sg80_cif.got.tgz:335.got - 2010.06.03 18:49:13.
