data_PCOD9542704
_publ_section_title
;
Structure prediction by ZEFSAII (Michael W. Deem and Ramdas Pophale) SiO2 
 PCOD9542704
Probable space group: I -4 
;
_chemical_formula_sum "Si O2"
_cell_formula_units_Z 46
_cell_length_a 9.135736
_cell_length_b 9.135736
_cell_length_c 30.928527
_cell_angle_alpha 90.000000
_cell_angle_beta 90.000000
_cell_angle_gamma 90.000000
_cell_volume 2581.346584
_symmetry_space_group_name_H-M "I -4 "
_symmetry_group_IT_number 82
_symmetry_cell_setting 'tetragonal'
loop_
_space_group_symop_operation_xyz
x,y,z
y,-x,-z
-x,-y,z
-y,x,-z
1/2+x,1/2+y,1/2+z
1/2+y,1/2-x,1/2-z
1/2-x,1/2-y,1/2+z
1/2-y,1/2+x,1/2-z
loop_
_atom_site_type_symbol
_atom_site_label
_atom_site_fract_x
_atom_site_fract_y
_atom_site_fract_z
Si Si1 0.544783 0.287672 0.484417
Si Si2 0.948045 0.787826 0.514960
Si Si3 0.781344 0.336907 0.682314
Si Si4 0.429645 0.213680 0.760101
Si Si5 0.500000 0.500000 0.293819
Si Si6 0.000000 0.500000 0.750000
Si Si7 0.881549 0.373272 0.586799
O O1 0.424339 0.343374 0.519037
O O2 0.643863 0.146928 0.495981
O O3 0.449264 0.245192 0.442320
O O4 0.073780 0.839164 0.481531
O O5 0.040323 0.749533 0.557657
O O6 0.734412 0.178928 0.700221
O O7 0.639286 0.441097 0.680481
O O8 0.893328 0.407740 0.717749
O O9 0.839964 0.322205 0.634152
O O10 0.590297 0.149313 0.769496
O O11 0.448445 0.365833 0.735912
O O12 0.000000 0.500000 0.593084
#
# Coordination Sequence:
#
# PCOD9542704 Si02
#       7
#     8   8   8   8   4   2   8
#     4  10  20  36  62  89 117 154 204 247 312 373
#     4  10  20  38  63  82 119 158 206 242 312 373
#     4  11  21  37  61  87 124 153 209 250 302 366
#     4   9  19  36  59  84 118 161 202 244 305 364
#     4  10  20  34  60  88 113 164 199 246 302 366
#     4  12  20  36  60  88 112 164 200 240 304 364
#     4  10  21  37  60  93 119 158 202 265 295 359
#
# _framework density 17.820157999999999
#
# number of rings (size 3 to 8) (size 9 to 14) (size 15 to 20)
#    0.000    1.913    4.348    0.000    0.000    1.391 
#    0.000    1.739    7.652    6.261    0.000    0.000 
#    0.000    0.000    0.000    0.000    0.000    0.000 
#
# Total GULP energy -128056.293449 kJ/mol
# GULP energy per Si atom -5567.664933 kJ/mol
# Density = 1.777960 g / cm^3
# Si number density = 17.820158 Si / 1000 Ang^3
#
#
#
# Elastic Constant Matrix: (Units=GPa)
#
#
# Indices 1 2 3 4 5 6 
#
# 1 111.3221 53.0460 60.0218 0.0000 0.0000 -2.9533
# 2 53.0460 111.3221 60.0218 0.0000 0.0000 2.9533
# 3 60.0218 60.0218 99.6720 0.0000 0.0000 0.0000
# 4 0.0000 0.0000 0.0000 16.0511 0.0000 0.0000
# 5 0.0000 0.0000 0.0000 0.0000 16.0511 0.0000
# 6 -2.9533 2.9533 0.0000 0.0000 0.0000 41.9392
#
#
#
# Elastic Compliance Matrix: (Units=1/GPa)
#
#
# Indices 1 2 3 4 5 6 
#
# 1 0.014072 -0.003211 -0.006540 0.000000 0.000000 0.001217
# 2 -0.003211 0.014072 -0.006540 0.000000 0.000000 -0.001217
# 3 -0.006540 -0.006540 0.017910 0.000000 0.000000 0.000000
# 4 0.000000 0.000000 0.000000 0.062301 0.000000 0.000000
# 5 0.000000 0.000000 0.000000 0.000000 0.062301 0.000000
# 6 0.001217 -0.001217 0.000000 0.000000 0.000000 0.024015
#
#
# Mechanical properties :
#
#
# Convention : Reuss Voigt Hill
#
# Bulk Modulus (GPa) = 74.23800 74.27728 74.25764
# Shear Modulus (GPa) = 21.57562 24.75673 23.16617
#
# Velocity S-wave (km/s) = 3.48335 3.73131 3.60946
# Velocity P-wave (km/s) = 7.61106 7.76761 7.68973
#
# Compressibility (1/GPa) = 0.01347019
#
# Stress axis : x y z
#
# Youngs Moduli (GPa) = 71.06474 71.06474 55.83596
#
# Poissons Ratio (x) = 0.22822 0.36517
# Poissons Ratio (y) = 0.22822 0.36517
# Poissons Ratio (z) = 0.46476 0.46476
#
# Static dielectric constant tensor:
#      x y z
#    x 1.652350 0.000000 0.000000 
#    y 0.000000 1.652350 0.000000 
#    z 0.000000 0.000000 1.578210 
# 
# From -- ./inp_files/3979.got.cif
#   From: 2010.05.17/outbox.cif.g08.bks.cpg/sg82_2_cif.got.tgz:3979.got - 2010.06.03 18:52:26.
