data_PCOD9542980
_publ_section_title
;
Structure prediction by ZEFSAII (Michael W. Deem and Ramdas Pophale) SiO2 
 PCOD9542980
Probable space group: I -4 
;
_chemical_formula_sum "Si O2"
_cell_formula_units_Z 16
_cell_length_a 5.196678
_cell_length_b 5.196678
_cell_length_c 25.005630
_cell_angle_alpha 90.000000
_cell_angle_beta 90.000000
_cell_angle_gamma 90.000000
_cell_volume 675.288597
_symmetry_space_group_name_H-M "I -4 "
_symmetry_group_IT_number 82
_symmetry_cell_setting 'tetragonal'
loop_
_space_group_symop_operation_xyz
x,y,z
y,-x,-z
-x,-y,z
-y,x,-z
1/2+x,1/2+y,1/2+z
1/2+y,1/2-x,1/2-z
1/2-x,1/2-y,1/2+z
1/2-y,1/2+x,1/2-z
loop_
_atom_site_type_symbol
_atom_site_label
_atom_site_fract_x
_atom_site_fract_y
_atom_site_fract_z
Si Si1 0.162564 0.734487 0.852403
Si Si2 0.000000 0.500000 0.750000
Si Si3 0.000000 0.000000 0.000000
Si Si4 0.000000 0.500000 0.427925
O O1 0.414632 0.779063 0.886734
O O2 0.000000 0.500000 0.877056
O O3 0.187979 0.649334 0.790620
O O4 0.000000 0.000000 0.853149
O O5 0.252310 0.050700 0.964366
#
# Coordination Sequence:
#
# PCOD9542980 Si02
#       4
#     8   2   2   4
#     4  10  24  48  78 117 163 209 260 329 396 497
#     4   8  24  46  80 124 160 210 256 316 416 490
#     4  12  32  48  84 116 152 224 272 344 400 466
#     4  12  28  55  81 118 162 210 280 336 404 474
#
# _framework density 23.693569
#
# number of rings (size 3 to 8) (size 9 to 14) (size 15 to 20)
#    1.500    0.000    2.500    0.000    3.500   11.000 
#    0.000    0.000    0.000    0.000    0.000    0.000 
#    0.000    0.000    0.000    0.000    0.000    0.000 
#
# Total GULP energy -44683.693831 kJ/mol
# GULP energy per Si atom -5585.461729 kJ/mol
# Density = 2.363964 g / cm^3
# Si number density = 23.693569 Si / 1000 Ang^3
#
#
#
# Elastic Constant Matrix: (Units=GPa)
#
#
# Indices 1 2 3 4 5 6 
#
# 1 165.8622 63.8408 83.3831 -0.0010 -0.0026 2.1772
# 2 63.8408 165.8625 83.3834 0.0076 0.0107 -2.1773
# 3 83.3831 83.3834 202.1479 0.0030 0.0163 0.0000
# 4 -0.0010 0.0076 0.0030 5857.7032 0.5057 0.0000
# 5 -0.0026 0.0107 0.0163 0.5057 5858.5176 -0.0022
# 6 2.1772 -2.1773 0.0000 0.0000 -0.0022 46.0816
#
#
#
# Elastic Compliance Matrix: (Units=1/GPa)
#
#
# Indices 1 2 3 4 5 6 
#
# 1 0.008018 -0.001804 -0.002563 0.000000 0.000000 -0.000464
# 2 -0.001804 0.008018 -0.002563 0.000000 0.000000 0.000464
# 3 -0.002563 -0.002563 0.007062 0.000000 0.000000 0.000000
# 4 0.000000 0.000000 0.000000 0.000171 0.000000 0.000000
# 5 0.000000 0.000000 0.000000 0.000000 0.000171 0.000000
# 6 -0.000464 0.000464 0.000000 0.000000 0.000000 0.021744
#
#
# Mechanical properties :
#
#
# Convention : Reuss Voigt Hill
#
# Bulk Modulus (GPa) = 108.26014 110.56527 109.41270
# Shear Modulus (GPa) = 80.48500 2372.67818 1226.58159
#
# Velocity S-wave (km/s) = 5.83463 31.67926 22.77739
# Velocity P-wave (km/s) = 9.54890 37.21380 27.16660
#
# Compressibility (1/GPa) = 0.00923701
#
# Stress axis : x y z
#
# Youngs Moduli (GPa) = 124.71815 124.71828 141.61093
#
# Poissons Ratio (x) = 0.22494 0.36300
# Poissons Ratio (y) = 0.22494 0.36301
# Poissons Ratio (z) = 0.31970 0.31970
#
# Static dielectric constant tensor:
#      x y z
#    x -3.356330 0.000480 0.000000 
#    y 0.000480 -3.355650 0.000000 
#    z 0.000000 0.000000 1.912000 
# 
# From -- ./inp_files/3203.got.cif
#   From: 2010.05.17/outbox.cif.g08.bks.cpg/sg82_2_cif.got.tgz:3203.got - 2010.06.03 18:52:26.
