data_PCOD9542735
_publ_section_title
;
Structure prediction by ZEFSAII (Michael W. Deem and Ramdas Pophale) SiO2 
 PCOD9542735
Probable space group: I -4 
;
_chemical_formula_sum "Si O2"
_cell_formula_units_Z 52
_cell_length_a 17.387228
_cell_length_b 17.387228
_cell_length_c 8.229273
_cell_angle_alpha 90.000000
_cell_angle_beta 90.000000
_cell_angle_gamma 90.000000
_cell_volume 2487.838407
_symmetry_space_group_name_H-M "I -4 "
_symmetry_group_IT_number 82
_symmetry_cell_setting 'tetragonal'
loop_
_space_group_symop_operation_xyz
x,y,z
y,-x,-z
-x,-y,z
-y,x,-z
1/2+x,1/2+y,1/2+z
1/2+y,1/2-x,1/2-z
1/2-x,1/2-y,1/2+z
1/2-y,1/2+x,1/2-z
loop_
_atom_site_type_symbol
_atom_site_label
_atom_site_fract_x
_atom_site_fract_y
_atom_site_fract_z
Si Si1 0.646175 0.755703 0.189995
Si Si2 0.571923 0.200444 0.722549
Si Si3 0.871996 0.113816 0.718866
Si Si4 0.629561 0.603217 0.397250
Si Si5 0.663586 0.241769 0.036424
Si Si6 0.418836 0.195460 0.886374
Si Si7 0.000000 0.000000 0.260698
O O1 0.624039 0.678139 0.283459
O O2 0.682453 0.807681 0.329799
O O3 0.714473 0.732864 0.061239
O O4 0.577644 0.789577 0.080711
O O5 0.568035 0.286092 0.643891
O O6 0.488679 0.169095 0.771700
O O7 0.630561 0.146829 0.625481
O O8 0.613230 0.206965 0.896013
O O9 0.884786 0.193473 0.627816
O O10 0.782579 0.095797 0.680222
O O11 0.936564 0.054701 0.654483
O O12 0.880120 0.122867 0.912144
O O13 0.557728 0.551964 0.344594
#
# Coordination Sequence:
#
# PCOD9542735 Si02
#       7
#     8   8   8   8   8   8   4
#     4  10  20  38  63  90 122 164 213 255 307 377
#     4  11  24  43  64  92 122 163 219 266 322 370
#     4  11  21  39  63  93 133 173 206 246 308 385
#     4  11  21  39  63  93 133 173 206 246 308 385
#     4  10  20  38  63  90 122 164 213 255 307 377
#     4  11  24  43  64  92 122 163 219 266 322 370
#     4  12  25  36  57 102 143 172 195 238 313 388
#
# _framework density 20.901679999999999
#
# number of rings (size 3 to 8) (size 9 to 14) (size 15 to 20)
#    0.000    1.231    1.538    7.846    2.154    0.308 
#    0.000    8.462    0.000    0.000    0.000    0.000 
#    0.000    0.000    0.000    0.000    0.000    0.000 
#
# Total GULP energy -145087.969365 kJ/mol
# GULP energy per Si atom -5580.306514 kJ/mol
# Density = 2.085411 g / cm^3
# Si number density = 20.901680 Si / 1000 Ang^3
#
#
#
# Elastic Constant Matrix: (Units=GPa)
#
#
# Indices 1 2 3 4 5 6 
#
# 1 54.2511 16.3859 6.5619 0.0000 0.0000 -2.0023
# 2 16.3859 54.2511 6.5619 0.0000 0.0000 2.0023
# 3 6.5619 6.5619 81.7083 0.0000 0.0000 0.0000
# 4 0.0000 0.0000 0.0000 20.8820 0.0000 0.0000
# 5 0.0000 0.0000 0.0000 0.0000 20.8820 0.0000
# 6 -2.0023 2.0023 0.0000 0.0000 0.0000 29.0899
#
#
#
# Elastic Compliance Matrix: (Units=1/GPa)
#
#
# Indices 1 2 3 4 5 6 
#
# 1 0.020487 -0.006116 -0.001154 0.000000 0.000000 0.001831
# 2 -0.006116 0.020487 -0.001154 0.000000 0.000000 -0.001831
# 3 -0.001154 -0.001154 0.012424 0.000000 0.000000 0.000000
# 4 0.000000 0.000000 0.000000 0.047888 0.000000 0.000000
# 5 0.000000 0.000000 0.000000 0.000000 0.047888 0.000000
# 6 0.001831 -0.001831 0.000000 0.000000 0.000000 0.034628
#
#
# Mechanical properties :
#
#
# Convention : Reuss Voigt Hill
#
# Bulk Modulus (GPa) = 27.35969 27.69219 27.52594
# Shear Modulus (GPa) = 23.49242 24.88419 24.18831
#
# Velocity S-wave (km/s) = 3.35617 3.45416 3.40552
# Velocity P-wave (km/s) = 5.30440 5.40239 5.35362
#
# Compressibility (1/GPa) = 0.03655012
#
# Stress axis : x y z
#
# Youngs Moduli (GPa) = 48.81095 48.81095 80.48918
#
# Poissons Ratio (x) = 0.29852 0.09290
# Poissons Ratio (y) = 0.29852 0.09290
# Poissons Ratio (z) = 0.05633 0.05633
#
# Static dielectric constant tensor:
#      x y z
#    x 1.724330 0.000000 0.000000 
#    y 0.000000 1.724330 0.000000 
#    z 0.000000 0.000000 1.751660 
# 
# From -- ./inp_files/1111.got.cif
#   From: 2010.05.17/outbox.cif.g08.bks.cpg/sg82_1_cif.got.tgz:1111.got - 2010.06.03 18:52:26.
