data_PCOD9542519
_publ_section_title
;
Structure prediction by ZEFSAII (Michael W. Deem and Ramdas Pophale) SiO2 
 PCOD9542519
Probable space group: P -4
;
_chemical_formula_sum "Si O2"
_cell_formula_units_Z 17
_cell_length_a 9.703007
_cell_length_b 9.703007
_cell_length_c 9.883743
_cell_angle_alpha 90.000000
_cell_angle_beta 90.000000
_cell_angle_gamma 90.000000
_cell_volume 930.538044
_symmetry_space_group_name_H-M "P -4"
_symmetry_group_IT_number 81
_symmetry_cell_setting 'tetragonal'
loop_
_space_group_symop_operation_xyz
x,y,z
y,-x,-z
-x,-y,z
-y,x,-z
loop_
_atom_site_type_symbol
_atom_site_label
_atom_site_fract_x
_atom_site_fract_y
_atom_site_fract_z
Si Si1 0.664312 0.329621 0.817696
Si Si2 0.290656 0.405145 0.480650
Si Si3 0.858791 0.585915 0.750056
Si Si4 0.500000 0.500000 0.000000
Si Si5 0.871644 0.816229 0.980943
O O1 0.634685 0.261440 0.673484
O O2 0.740963 0.476007 0.793683
O O3 0.529011 0.370778 0.902772
O O4 0.753762 0.230367 0.908791
O O5 0.326875 0.567428 0.482205
O O6 0.179121 0.374435 0.595838
O O7 0.866798 0.716511 0.850070
O O8 0.000000 0.500000 0.755112
O O9 0.026399 0.824423 0.040494
#
# Coordination Sequence:
#
# PCOD9542519 Si02
#       5
#     4   4   4   1   4
#     4  11  21  37  61  93 120 163 206 260 317 368
#     4   9  20  38  59  87 122 155 198 259 317 361
#     4  11  21  40  62  87 120 164 212 257 307 377
#     4  12  20  32  70  96 124 152 214 276 320 364
#     4  11  24  42  61  90 130 166 204 259 318 373
#
# _framework density 18.269002
#
# number of rings (size 3 to 8) (size 9 to 14) (size 15 to 20)
#    0.000    1.412    4.706    2.824    0.000    0.000 
#    8.471    0.000    0.000    2.824    0.000    0.000 
#    0.000    0.000    0.000    0.000    0.000    0.000 
#
# Total GULP energy -94858.151514 kJ/mol
# GULP energy per Si atom -5579.891266 kJ/mol
# Density = 1.822742 g / cm^3
# Si number density = 18.269002 Si / 1000 Ang^3
#
#
#
# Elastic Constant Matrix: (Units=GPa)
#
#
# Indices 1 2 3 4 5 6 
#
# 1 60.5515 26.5532 45.0268 0.0000 0.0000 0.8403
# 2 26.5532 60.5515 45.0268 0.0000 0.0000 -0.8403
# 3 45.0268 45.0268 120.3724 0.0000 0.0000 0.0000
# 4 0.0000 0.0000 0.0000 24.5239 0.0000 0.0000
# 5 0.0000 0.0000 0.0000 0.0000 24.5239 0.0000
# 6 0.8403 -0.8403 0.0000 0.0000 0.0000 29.6975
#
#
#
# Elastic Compliance Matrix: (Units=1/GPa)
#
#
# Indices 1 2 3 4 5 6 
#
# 1 0.024087 -0.005367 -0.007002 0.000000 0.000000 -0.000833
# 2 -0.005367 0.024087 -0.007002 0.000000 0.000000 0.000833
# 3 -0.007002 -0.007002 0.013546 0.000000 0.000000 0.000000
# 4 0.000000 0.000000 0.000000 0.040777 0.000000 0.000000
# 5 0.000000 0.000000 0.000000 0.000000 0.040777 0.000000
# 6 -0.000833 0.000833 0.000000 0.000000 0.000000 0.033720
#
#
# Mechanical properties :
#
#
# Convention : Reuss Voigt Hill
#
# Bulk Modulus (GPa) = 43.52288 52.74322 48.13305
# Shear Modulus (GPa) = 22.38168 24.07360 23.22764
#
# Velocity S-wave (km/s) = 3.50397 3.63399 3.56957
# Velocity P-wave (km/s) = 6.34393 6.82209 6.58735
#
# Compressibility (1/GPa) = 0.02297642
#
# Stress axis : x y z
#
# Youngs Moduli (GPa) = 41.51582 41.51582 73.82115
#
# Poissons Ratio (x) = 0.22283 0.51693
# Poissons Ratio (y) = 0.22283 0.51693
# Poissons Ratio (z) = 0.29071 0.29071
#
# Static dielectric constant tensor:
#      x y z
#    x 1.638680 0.000000 0.000000 
#    y 0.000000 1.638680 0.000000 
#    z 0.000000 0.000000 1.633870 
# 
# From -- ./inp_files/1137.got.cif
#   From: 2010.05.17/outbox.cif.g08.bks.cpg/sg81_cif.got.tgz:1137.got - 2010.06.03 18:51:07.
