data_PCOD9542335
_publ_section_title
;
Structure prediction by ZEFSAII (Michael W. Deem and Ramdas Pophale) SiO2 
 PCOD9542335
Probable space group: P -4
;
_chemical_formula_sum "Si O2"
_cell_formula_units_Z 32
_cell_length_a 18.666608
_cell_length_b 18.666608
_cell_length_c 5.358797
_cell_angle_alpha 90.000000
_cell_angle_beta 90.000000
_cell_angle_gamma 90.000000
_cell_volume 1867.231307
_symmetry_space_group_name_H-M "P -4"
_symmetry_group_IT_number 81
_symmetry_cell_setting 'tetragonal'
loop_
_space_group_symop_operation_xyz
x,y,z
y,-x,-z
-x,-y,z
-y,x,-z
loop_
_atom_site_type_symbol
_atom_site_label
_atom_site_fract_x
_atom_site_fract_y
_atom_site_fract_z
Si Si1 0.366069 0.714075 0.832475
Si Si2 0.412325 0.000705 0.942210
Si Si3 0.508108 0.319140 0.465237
Si Si4 0.165239 0.603951 0.068941
Si Si5 0.640004 0.750255 0.444285
Si Si6 0.192531 0.454228 0.888072
Si Si7 0.055812 0.432870 0.561759
Si Si8 0.431966 0.585383 0.096026
O O1 0.437883 0.710248 0.668748
O O2 0.298563 0.705529 0.651253
O O3 0.377976 0.786003 0.992382
O O4 0.371914 0.641213 0.000262
O O5 0.384388 0.080595 0.905572
O O6 0.500000 0.000000 0.966026
O O7 0.397181 0.949566 0.708007
O O8 0.386021 0.973738 0.209490
O O9 0.424524 0.306279 0.504526
O O10 0.521646 0.267458 0.228098
O O11 0.536946 0.394090 0.364498
O O12 0.205126 0.642032 0.299270
O O13 0.171251 0.516942 0.079977
O O14 0.198362 0.622887 0.795666
O O15 0.133234 0.454541 0.669279
O O16 0.000000 0.500000 0.538264
O O17 0.503590 0.592018 0.924124
#
# Coordination Sequence:
#
# PCOD9542335 Si02
#       8
#     4   4   4   4   4   4   4   4
#     4  11  23  34  48  64  87 127 161 208 248 310
#     4  10  19  30  51  74  98 112 142 174 244 312
#     4  10  22  31  48  59  87 111 160 196 258 291
#     4  11  21  37  52  71  92 125 148 199 244 313
#     4  11  24  36  51  66  91 122 166 198 248 300
#     4  10  21  33  48  70  95 122 147 196 249 311
#     4  10  19  29  50  74  99 113 141 173 242 316
#     4  10  21  34  44  57  77 105 152 210 266 301
#
# _framework density 17.137672999999999
#
# number of rings (size 3 to 8) (size 9 to 14) (size 15 to 20)
#    0.000    1.625    5.000    0.750   12.250    0.000 
#    0.000    1.250    0.000    0.000    0.000    0.000 
#    0.000    0.000    0.000    0.000    0.000    0.000 
#
# Total GULP energy -178373.211305 kJ/mol
# GULP energy per Si atom -5574.162853 kJ/mol
# Density = 1.709867 g / cm^3
# Si number density = 17.137673 Si / 1000 Ang^3
#
#
#
# Elastic Constant Matrix: (Units=GPa)
#
#
# Indices 1 2 3 4 5 6 
#
# 1 36.3658 8.8730 3.6492 0.0000 0.0000 0.5692
# 2 8.8730 36.3658 3.6492 0.0000 0.0000 -0.5692
# 3 3.6492 3.6492 78.0056 0.0000 0.0000 0.0000
# 4 0.0000 0.0000 0.0000 9.5851 0.0000 0.0000
# 5 0.0000 0.0000 0.0000 0.0000 9.5851 0.0000
# 6 0.5692 -0.5692 0.0000 0.0000 0.0000 8.2202
#
#
#
# Elastic Compliance Matrix: (Units=1/GPa)
#
#
# Indices 1 2 3 4 5 6 
#
# 1 0.029375 -0.007102 -0.001042 0.000000 0.000000 -0.002526
# 2 -0.007102 0.029375 -0.001042 0.000000 0.000000 0.002526
# 3 -0.001042 -0.001042 0.012917 0.000000 0.000000 0.000000
# 4 0.000000 0.000000 0.000000 0.104329 0.000000 0.000000
# 5 0.000000 0.000000 0.000000 0.000000 0.104329 0.000000
# 6 -0.002526 0.002526 0.000000 0.000000 0.000000 0.122001
#
#
# Mechanical properties :
#
#
# Convention : Reuss Voigt Hill
#
# Bulk Modulus (GPa) = 18.76340 20.34224 19.55282
# Shear Modulus (GPa) = 11.40342 14.44911 12.92626
#
# Velocity S-wave (km/s) = 2.58233 2.90680 2.74936
# Velocity P-wave (km/s) = 4.45687 4.81266 4.63817
#
# Compressibility (1/GPa) = 0.05329523
#
# Stress axis : x y z
#
# Youngs Moduli (GPa) = 34.04207 34.04207 77.41690
#
# Poissons Ratio (x) = 0.24178 0.08067
# Poissons Ratio (y) = 0.24178 0.08067
# Poissons Ratio (z) = 0.03547 0.03547
#
# Static dielectric constant tensor:
#      x y z
#    x 1.632830 0.000000 0.000000 
#    y 0.000000 1.632830 0.000000 
#    z 0.000000 0.000000 1.764480 
# 
# From -- ./inp_files/415.got.cif
#   From: 2010.05.17/outbox.cif.g08.bks.cpg/sg81_cif.got.tgz:415.got - 2010.06.03 18:51:07.
