data_PCOD9542020
_publ_section_title
;
Structure prediction by ZEFSAII (Michael W. Deem and Ramdas Pophale) SiO2 
 PCOD9542020
Probable space group: I 4
;
_chemical_formula_sum "Si O2"
_cell_formula_units_Z 42
_cell_length_a 14.172835
_cell_length_b 14.172835
_cell_length_c 8.612676
_cell_angle_alpha 90.000000
_cell_angle_beta 90.000000
_cell_angle_gamma 90.000000
_cell_volume 1730.021785
_symmetry_space_group_name_H-M "I 4"
_symmetry_group_IT_number 79
_symmetry_cell_setting 'tetragonal'
loop_
_space_group_symop_operation_xyz
x,y,z
-y,x,z
-x,-y,z
y,-x,z
1/2+x,1/2+y,1/2+z
1/2-y,1/2+x,1/2+z
1/2-x,1/2-y,1/2+z
1/2+y,1/2-x,1/2+z
loop_
_atom_site_type_symbol
_atom_site_label
_atom_site_fract_x
_atom_site_fract_y
_atom_site_fract_z
Si Si1 0.000000 0.000000 0.680161
Si Si2 0.705433 0.492280 0.171454
Si Si3 0.578951 0.919515 0.191483
Si Si4 0.959631 0.247866 0.023544
Si Si5 0.763576 0.632864 0.941962
Si Si6 0.721841 0.344285 0.675587
O O1 0.943847 0.897383 0.683212
O O2 0.810513 0.445993 0.156711
O O3 0.718556 0.529054 0.347409
O O4 0.703413 0.548268 0.009213
O O5 0.640039 0.954811 0.044591
O O6 0.652831 0.907313 0.334299
O O7 0.500000 0.000000 0.219479
O O8 0.864801 0.202338 0.085025
O O9 0.045549 0.216188 0.135472
O O10 0.697429 0.705877 0.846946
O O11 0.807034 0.683838 0.093013
#
# Coordination Sequence:
#
# PCOD9542020 Si02
#       6
#     2   8   8   8   8   8
#     4  12  32  52  76 118 152 228 276 334 404 492
#     4  12  27  49  80 113 162 214 282 340 418 504
#     4  11  27  48  77 122 162 207 273 349 434 499
#     4  11  25  46  77 109 153 208 266 342 413 500
#     4  11  26  47  78 110 159 211 266 344 411 503
#     4  11  24  47  68 112 148 207 261 328 414 487
#
# _framework density 24.277151
#
# number of rings (size 3 to 8) (size 9 to 14) (size 15 to 20)
#    0.000    0.762    1.905    3.429    8.000    3.429 
#    0.000    0.000    0.000    0.000    0.000    0.000 
#    0.000    0.000    0.000    0.000    0.000    0.000 
#
# Total GULP energy -117025.146343 kJ/mol
# GULP energy per Si atom -5572.626016 kJ/mol
# Density = 2.422189 g / cm^3
# Si number density = 24.277151 Si / 1000 Ang^3
#
#
#
# Elastic Constant Matrix: (Units=GPa)
#
#
# Indices 1 2 3 4 5 6 
#
# 1 70.2897 61.8691 27.3239 0.0000 0.0000 13.7767
# 2 61.8691 70.2897 27.3239 0.0000 0.0000 -13.7767
# 3 27.3239 27.3239 94.0187 0.0000 0.0000 0.0000
# 4 0.0000 0.0000 0.0000 29.5074 0.0000 0.0000
# 5 0.0000 0.0000 0.0000 0.0000 29.5074 0.0000
# 6 13.7767 -13.7767 0.0000 0.0000 0.0000 4.8596
#
#
#
# Elastic Compliance Matrix: (Units=1/GPa)
#
#
# Indices 1 2 3 4 5 6 
#
# 1 -0.002874 0.011475 -0.002499 0.000000 0.000000 0.040678
# 2 0.011475 -0.002874 -0.002499 0.000000 0.000000 -0.040678
# 3 -0.002499 -0.002499 0.012089 0.000000 0.000000 0.000000
# 4 0.000000 0.000000 0.000000 0.033890 0.000000 0.000000
# 5 0.000000 0.000000 0.000000 0.000000 0.033890 0.000000
# 6 0.040678 -0.040678 0.000000 0.000000 0.000000 -0.024863
#
#
# Mechanical properties :
#
#
# Convention : Reuss Voigt Hill
#
# Bulk Modulus (GPa) = 51.83584 51.95911 51.89747
# Shear Modulus (GPa) = 116.99848 20.64697 68.82272
#
# Velocity S-wave (km/s) = 6.94964 2.91944 5.33013
# Velocity P-wave (km/s) = 9.26254 5.72828 7.70090
#
# Compressibility (1/GPa) = 0.01929167
#
# Stress axis : x y z
#
# Youngs Moduli (GPa) = -347.90586 -347.90586 82.72025
#
# Poissons Ratio (x) = 3.99205 0.20675
# Poissons Ratio (y) = 3.99205 0.20675
# Poissons Ratio (z) = -0.86955 -0.86955
#
# Static dielectric constant tensor:
#      x y z
#    x 2.037020 0.000000 0.000000 
#    y 0.000000 2.037020 0.000000 
#    z 0.000000 0.000000 1.951730 
# 
# From -- ./inp_files/585.got.cif
#   From: 2010.05.17/outbox.cif.g08.bks.cpg/sg79_cif.got.tgz:585.got - 2010.06.03 18:47:27.
