data_PCOD9542437
_publ_section_title
;
Structure prediction by ZEFSAII (Michael W. Deem and Ramdas Pophale) SiO2 
 PCOD9542437
Probable space group: P -4
;
_chemical_formula_sum "Si O2"
_cell_formula_units_Z 25
_cell_length_a 9.062499
_cell_length_b 9.062499
_cell_length_c 14.569379
_cell_angle_alpha 90.000000
_cell_angle_beta 90.000000
_cell_angle_gamma 90.000000
_cell_volume 1196.566898
_symmetry_space_group_name_H-M "P -4"
_symmetry_group_IT_number 81
_symmetry_cell_setting 'tetragonal'
loop_
_space_group_symop_operation_xyz
x,y,z
y,-x,-z
-x,-y,z
-y,x,-z
loop_
_atom_site_type_symbol
_atom_site_label
_atom_site_fract_x
_atom_site_fract_y
_atom_site_fract_z
Si Si1 0.348988 0.443364 0.331972
Si Si2 0.715993 0.891562 0.132518
Si Si3 0.500000 0.500000 0.500000
Si Si4 0.505168 0.842344 0.306677
Si Si5 0.781865 0.213222 0.203985
Si Si6 0.922125 0.641373 0.205793
Si Si7 0.394737 0.286301 0.974596
O O1 0.500000 0.500000 0.278790
O O2 0.364168 0.523890 0.429515
O O3 0.396227 0.276602 0.356292
O O4 0.198267 0.428719 0.276257
O O5 0.588702 0.864409 0.208514
O O6 0.836163 0.763663 0.147883
O O7 0.780830 0.052812 0.154210
O O8 0.647274 0.857779 0.033719
O O9 0.340891 0.791592 0.282753
O O10 0.500000 0.000000 0.353567
O O11 0.729135 0.327873 0.126172
O O12 0.938950 0.264275 0.242768
O O13 0.000000 0.500000 0.158861
O O14 0.319936 0.431653 0.020503
#
# Coordination Sequence:
#
# PCOD9542437 Si02
#       7
#     4   4   1   4   4   4   4
#     4   9  19  38  66  90 126 151 194 240 307 376
#     4  10  22  39  54  81 119 168 213 263 322 363
#     4   8  20  40  68  96 128 150 184 248 312 384
#     4   9  18  36  60  83 116 159 202 249 301 371
#     4  11  22  37  58  83 120 162 220 262 313 366
#     4  11  22  37  60  93 117 160 207 259 307 375
#     4  11  23  37  54  80 122 168 220 283 325 360
#
# _framework density 20.893108000000002
#
# number of rings (size 3 to 8) (size 9 to 14) (size 15 to 20)
#    0.480    1.440    1.600    2.400    2.240    1.280 
#    0.000    0.800    0.000    0.000    0.000    0.000 
#    0.000    0.000    0.000    0.000    0.000    0.000 
#
# Total GULP energy -139300.193252 kJ/mol
# GULP energy per Si atom -5572.007730 kJ/mol
# Density = 2.084555 g / cm^3
# Si number density = 20.893108 Si / 1000 Ang^3
#
#
#
# Elastic Constant Matrix: (Units=GPa)
#
#
# Indices 1 2 3 4 5 6 
#
# 1 116.6658 40.8476 24.1296 0.0000 0.0000 16.6987
# 2 40.8476 116.6658 24.1296 0.0000 0.0000 -16.6987
# 3 24.1296 24.1296 50.1872 0.0000 0.0000 0.0000
# 4 0.0000 0.0000 0.0000 12.7137 0.0000 0.0000
# 5 0.0000 0.0000 0.0000 0.0000 12.7137 0.0000
# 6 16.6987 -16.6987 0.0000 0.0000 0.0000 47.2079
#
#
#
# Elastic Compliance Matrix: (Units=1/GPa)
#
#
# Indices 1 2 3 4 5 6 
#
# 1 0.011535 -0.004089 -0.003580 0.000000 0.000000 -0.005527
# 2 -0.004089 0.011535 -0.003580 0.000000 0.000000 0.005527
# 3 -0.003580 -0.003580 0.023368 0.000000 0.000000 0.000000
# 4 0.000000 0.000000 0.000000 0.078655 0.000000 0.000000
# 5 0.000000 0.000000 0.000000 0.000000 0.078655 0.000000
# 6 -0.005527 0.005527 0.000000 0.000000 0.000000 0.025093
#
#
# Mechanical properties :
#
#
# Convention : Reuss Voigt Hill
#
# Bulk Modulus (GPa) = 41.77173 51.30361 46.53767
# Shear Modulus (GPa) = 19.28142 27.48787 23.38464
#
# Velocity S-wave (km/s) = 3.04116 3.63111 3.34915
# Velocity P-wave (km/s) = 5.68929 6.49527 6.10559
#
# Compressibility (1/GPa) = 0.02393963
#
# Stress axis : x y z
#
# Youngs Moduli (GPa) = 86.69530 86.69530 42.79429
#
# Poissons Ratio (x) = 0.35452 0.15319
# Poissons Ratio (y) = 0.35452 0.15319
# Poissons Ratio (z) = 0.31034 0.31034
#
# Static dielectric constant tensor:
#      x y z
#    x 1.827270 0.000000 0.000000 
#    y 0.000000 1.827270 0.000000 
#    z 0.000000 0.000000 1.750570 
# 
# From -- ./inp_files/1743.got.cif
#   From: 2010.05.17/outbox.cif.g08.bks.cpg/sg81_cif.got.tgz:1743.got - 2010.06.03 18:51:07.
