data_PCOD9542155
_publ_section_title
;
Structure prediction by ZEFSAII (Michael W. Deem and Ramdas Pophale) SiO2 
 PCOD9542155
Probable space group: I 41
;
_chemical_formula_sum "Si O2"
_cell_formula_units_Z 48
_cell_length_a 19.090142
_cell_length_b 19.090142
_cell_length_c 5.355561
_cell_angle_alpha 90.000000
_cell_angle_beta 90.000000
_cell_angle_gamma 90.000000
_cell_volume 1951.745955
_symmetry_space_group_name_H-M "I 41"
_symmetry_group_IT_number 80
_symmetry_cell_setting 'tetragonal'
loop_
_space_group_symop_operation_xyz
x,y,z
-y,1/2+x,1/4+z
-x,-y,z
y,1/2-x,1/4+z
1/2+x,1/2+y,1/2+z
1/2-y,x,3/4+z
1/2-x,1/2-y,1/2+z
1/2+y,-x,3/4+z
loop_
_atom_site_type_symbol
_atom_site_label
_atom_site_fract_x
_atom_site_fract_y
_atom_site_fract_z
Si Si1 0.683283 0.823599 0.525510
Si Si2 0.097751 0.618381 0.672428
Si Si3 0.935459 0.737065 0.297924
Si Si4 0.270741 0.946409 0.399310
Si Si5 0.900913 0.011402 0.914009
Si Si6 0.540279 0.637686 0.447035
O O1 0.765034 0.830602 0.573490
O O2 0.642884 0.791855 0.768581
O O3 0.651835 0.899837 0.487038
O O4 0.099264 0.702790 0.708105
O O5 0.176087 0.588117 0.700519
O O6 0.049677 0.587338 0.898540
O O7 0.062365 0.601892 0.405382
O O8 0.936696 0.814145 0.178543
O O9 0.978563 0.678019 0.141579
O O10 0.980811 0.738542 0.546521
O O11 0.324028 0.969619 0.614674
O O12 0.951369 0.945071 0.976147
#
# Coordination Sequence:
#
# PCOD9542155 Si02
#       6
#     8   8   8   8   8   8
#     4   9  19  33  56  92 127 178 233 277 331 410
#     4  11  26  47  73 101 137 182 234 298 356 424
#     4   9  20  41  60  92 135 183 223 289 340 398
#     4  11  25  45  73  98 138 183 233 301 361 418
#     4  10  23  44  68 103 139 181 234 282 348 429
#     4  10  21  40  65  94 140 184 226 280 353 413
#
# _framework density 24.593364000000001
#
# number of rings (size 3 to 8) (size 9 to 14) (size 15 to 20)
#    0.000    2.000    1.667    0.000    7.000    0.667 
#    0.000    3.333    0.000    0.000    0.000    0.000 
#    0.000    0.000    0.000    0.000    0.000    0.000 
#
# Total GULP energy -133983.573785 kJ/mol
# GULP energy per Si atom -5582.648908 kJ/mol
# Density = 2.453739 g / cm^3
# Si number density = 24.593364 Si / 1000 Ang^3
#
#
#
# Elastic Constant Matrix: (Units=GPa)
#
#
# Indices 1 2 3 4 5 6 
#
# 1 86.0576 44.0967 25.2497 0.0000 0.0000 -7.9156
# 2 44.0967 86.0576 25.2497 0.0000 0.0000 7.9156
# 3 25.2497 25.2497 98.8128 0.0000 0.0000 0.0000
# 4 0.0000 0.0000 0.0000 29.5555 0.0000 0.0000
# 5 0.0000 0.0000 0.0000 0.0000 29.5555 0.0000
# 6 -7.9156 7.9156 0.0000 0.0000 0.0000 37.6111
#
#
#
# Elastic Compliance Matrix: (Units=1/GPa)
#
#
# Indices 1 2 3 4 5 6 
#
# 1 0.017208 -0.008679 -0.002179 0.000000 0.000000 0.005448
# 2 -0.008679 0.017208 -0.002179 0.000000 0.000000 -0.005448
# 3 -0.002179 -0.002179 0.011234 0.000000 0.000000 0.000000
# 4 0.000000 0.000000 0.000000 0.033835 0.000000 0.000000
# 5 0.000000 0.000000 0.000000 0.000000 0.033835 0.000000
# 6 0.005448 -0.005448 0.000000 0.000000 0.000000 0.028881
#
#
# Mechanical properties :
#
#
# Convention : Reuss Voigt Hill
#
# Bulk Modulus (GPa) = 51.08808 51.12445 51.10627
# Shear Modulus (GPa) = 28.60395 31.09988 29.85191
#
# Velocity S-wave (km/s) = 3.41409 3.55993 3.48777
# Velocity P-wave (km/s) = 6.02989 6.14251 6.08646
#
# Compressibility (1/GPa) = 0.01957404
#
# Stress axis : x y z
#
# Youngs Moduli (GPa) = 58.11254 58.11254 89.01603
#
# Poissons Ratio (x) = 0.50437 0.19400
# Poissons Ratio (y) = 0.50437 0.19400
# Poissons Ratio (z) = 0.12665 0.12665
#
# Static dielectric constant tensor:
#      x y z
#    x 2.022220 0.000000 0.000000 
#    y 0.000000 2.022220 0.000000 
#    z 0.000000 0.000000 1.984230 
# 
# From -- ./inp_files/284.got.cif
#   From: 2010.05.17/outbox.cif.g08.bks.cpg/sg80_cif.got.tgz:284.got - 2010.06.03 18:49:13.
