data_PCOD9542179
_publ_section_title
;
Structure prediction by ZEFSAII (Michael W. Deem and Ramdas Pophale) SiO2 
 PCOD9542179
Probable space group: I 41
;
_chemical_formula_sum "Si O2"
_cell_formula_units_Z 52
_cell_length_a 18.746496
_cell_length_b 18.746496
_cell_length_c 7.098609
_cell_angle_alpha 90.000000
_cell_angle_beta 90.000000
_cell_angle_gamma 90.000000
_cell_volume 2494.672056
_symmetry_space_group_name_H-M "I 41"
_symmetry_group_IT_number 80
_symmetry_cell_setting 'tetragonal'
loop_
_space_group_symop_operation_xyz
x,y,z
-y,1/2+x,1/4+z
-x,-y,z
y,1/2-x,1/4+z
1/2+x,1/2+y,1/2+z
1/2-y,x,3/4+z
1/2-x,1/2-y,1/2+z
1/2+y,-x,3/4+z
loop_
_atom_site_type_symbol
_atom_site_label
_atom_site_fract_x
_atom_site_fract_y
_atom_site_fract_z
Si Si1 0.940681 0.646499 0.950010
Si Si2 0.660766 0.204933 0.406871
Si Si3 0.056819 0.855762 0.479833
Si Si4 0.489028 0.221132 0.072185
Si Si5 0.500000 0.000000 0.386811
Si Si6 0.657511 0.715531 0.076428
Si Si7 0.762772 0.034689 0.946371
O O1 0.968399 0.669405 0.740809
O O2 0.855450 0.638349 0.945609
O O3 0.979465 0.572046 0.998703
O O4 0.965932 0.710776 0.082496
O O5 0.729205 0.181591 0.526788
O O6 0.636267 0.140087 0.272878
O O7 0.599675 0.222397 0.557769
O O8 0.040462 0.817187 0.280947
O O9 0.029769 0.794308 0.628108
O O10 0.017429 0.929671 0.514819
O O11 0.414856 0.253174 0.990063
O O12 0.533490 0.192613 0.893993
O O13 0.689296 0.780906 0.191027
#
# Coordination Sequence:
#
# PCOD9542179 Si02
#       7
#     8   8   8   8   4   8   8
#     4  11  21  43  66  93 134 181 221 282 339 397
#     4  12  24  41  69 101 134 175 223 275 334 412
#     4  10  23  41  65  97 134 175 230 277 339 401
#     4   9  22  43  63  93 137 173 222 278 339 396
#     4  12  22  42  72  96 134 186 220 292 342 394
#     4  10  22  38  64  97 132 176 223 280 336 404
#     4  10  23  41  68  93 134 180 221 272 339 405
#
# _framework density 20.844422999999999
#
# number of rings (size 3 to 8) (size 9 to 14) (size 15 to 20)
#    0.923    0.615    3.077    1.846    2.154    1.231 
#    0.000    0.769    0.000    0.000    0.000    0.000 
#    0.000    0.000    0.000    0.000    0.000    0.000 
#
# Total GULP energy -144882.204444 kJ/mol
# GULP energy per Si atom -5572.392479 kJ/mol
# Density = 2.079698 g / cm^3
# Si number density = 20.844423 Si / 1000 Ang^3
#
#
#
# Elastic Constant Matrix: (Units=GPa)
#
#
# Indices 1 2 3 4 5 6 
#
# 1 87.3368 17.6687 18.8321 0.0000 0.0000 3.0297
# 2 17.6687 87.3368 18.8321 0.0000 0.0000 -3.0297
# 3 18.8321 18.8321 66.2970 0.0000 0.0000 0.0000
# 4 0.0000 0.0000 0.0000 27.3275 0.0000 0.0000
# 5 0.0000 0.0000 0.0000 0.0000 27.3275 0.0000
# 6 3.0297 -3.0297 0.0000 0.0000 0.0000 31.9278
#
#
#
# Elastic Compliance Matrix: (Units=1/GPa)
#
#
# Indices 1 2 3 4 5 6 
#
# 1 0.012538 -0.001935 -0.003012 0.000000 0.000000 -0.001373
# 2 -0.001935 0.012538 -0.003012 0.000000 0.000000 0.001373
# 3 -0.003012 -0.003012 0.016795 0.000000 0.000000 0.000000
# 4 0.000000 0.000000 0.000000 0.036593 0.000000 0.000000
# 5 0.000000 0.000000 0.000000 0.000000 0.036593 0.000000
# 6 -0.001373 0.001373 0.000000 0.000000 0.000000 0.031581
#
#
# Mechanical properties :
#
#
# Convention : Reuss Voigt Hill
#
# Bulk Modulus (GPa) = 38.52970 39.07073 38.80022
# Shear Modulus (GPa) = 29.20414 29.69238 29.44826
#
# Velocity S-wave (km/s) = 3.74712 3.77832 3.76275
# Velocity P-wave (km/s) = 6.10293 6.14971 6.12637
#
# Compressibility (1/GPa) = 0.02595400
#
# Stress axis : x y z
#
# Youngs Moduli (GPa) = 79.75461 79.75461 59.54212
#
# Poissons Ratio (x) = 0.15431 0.17934
# Poissons Ratio (y) = 0.15431 0.17934
# Poissons Ratio (z) = 0.24023 0.24023
#
# Static dielectric constant tensor:
#      x y z
#    x 1.787580 0.000000 0.000000 
#    y 0.000000 1.787580 0.000000 
#    z 0.000000 0.000000 1.764850 
# 
# From -- ./inp_files/703.got.cif
#   From: 2010.05.17/outbox.cif.g08.bks.cpg/sg80_cif.got.tgz:703.got - 2010.06.03 18:49:13.
