data_PCOD9542829
_publ_section_title
;
Structure prediction by ZEFSAII (Michael W. Deem and Ramdas Pophale) SiO2 
 PCOD9542829
Probable space group: I -4 
;
_chemical_formula_sum "Si O2"
_cell_formula_units_Z 36
_cell_length_a 10.913540
_cell_length_b 10.913540
_cell_length_c 13.548922
_cell_angle_alpha 90.000000
_cell_angle_beta 90.000000
_cell_angle_gamma 90.000000
_cell_volume 1613.749169
_symmetry_space_group_name_H-M "I -4 "
_symmetry_group_IT_number 82
_symmetry_cell_setting 'tetragonal'
loop_
_space_group_symop_operation_xyz
x,y,z
y,-x,-z
-x,-y,z
-y,x,-z
1/2+x,1/2+y,1/2+z
1/2+y,1/2-x,1/2-z
1/2-x,1/2-y,1/2+z
1/2-y,1/2+x,1/2-z
loop_
_atom_site_type_symbol
_atom_site_label
_atom_site_fract_x
_atom_site_fract_y
_atom_site_fract_z
Si Si1 0.168418 0.956096 0.440040
Si Si2 0.645358 0.856856 0.763445
Si Si3 0.000000 0.000000 0.252754
Si Si4 0.809679 0.622199 0.478045
Si Si5 0.204750 0.899962 0.894426
O O1 0.307148 0.909910 0.457300
O O2 0.079587 0.858018 0.496339
O O3 0.112985 0.976309 0.329739
O O4 0.498589 0.837457 0.761696
O O5 0.695578 0.773634 0.676934
O O6 0.690223 0.817734 0.869809
O O7 0.027511 0.111830 0.177672
O O8 0.811900 0.479572 0.446897
O O9 0.677186 0.632579 0.526517
#
# Coordination Sequence:
#
# PCOD9542829 Si02
#       5
#     8   8   4   8   8
#     4   9  20  39  65  92 122 167 218 267 317 395
#     4   9  20  38  61  88 120 162 210 262 320 381
#     4  10  21  41  62  90 130 176 220 256 332 406
#     4  11  23  38  63  96 126 166 220 268 326 395
#     4  11  23  38  63  92 131 167 212 271 324 396
#
# _framework density 22.308299999999999
#
# number of rings (size 3 to 8) (size 9 to 14) (size 15 to 20)
#    0.000    2.222    0.000    4.000    9.333    0.000 
#    0.000    0.000    0.000    0.000    0.000    0.000 
#    0.000    0.000    0.000    0.000    0.000    0.000 
#
# Total GULP energy -100296.932272 kJ/mol
# GULP energy per Si atom -5572.051793 kJ/mol
# Density = 2.225753 g / cm^3
# Si number density = 22.308300 Si / 1000 Ang^3
#
#
#
# Elastic Constant Matrix: (Units=GPa)
#
#
# Indices 1 2 3 4 5 6 
#
# 1 43.0547 9.9353 32.1618 0.0000 0.0000 0.6203
# 2 9.9353 43.0547 32.1618 0.0000 0.0000 -0.6203
# 3 32.1618 32.1618 130.4260 0.0000 0.0000 0.0000
# 4 0.0000 0.0000 0.0000 26.0491 0.0000 0.0000
# 5 0.0000 0.0000 0.0000 0.0000 26.0491 0.0000
# 6 0.6203 -0.6203 0.0000 0.0000 0.0000 22.0337
#
#
#
# Elastic Compliance Matrix: (Units=1/GPa)
#
#
# Indices 1 2 3 4 5 6 
#
# 1 0.028580 -0.001646 -0.006642 0.000000 0.000000 -0.000851
# 2 -0.001646 0.028580 -0.006642 0.000000 0.000000 0.000851
# 3 -0.006642 -0.006642 0.010943 0.000000 0.000000 0.000000
# 4 0.000000 0.000000 0.000000 0.038389 0.000000 0.000000
# 5 0.000000 0.000000 0.000000 0.000000 0.038389 0.000000
# 6 -0.000851 0.000851 0.000000 0.000000 0.000000 0.045433
#
#
# Mechanical properties :
#
#
# Convention : Reuss Voigt Hill
#
# Bulk Modulus (GPa) = 26.14816 40.56147 33.35481
# Shear Modulus (GPa) = 21.46667 24.31147 22.88907
#
# Velocity S-wave (km/s) = 3.10542 3.30479 3.20665
# Velocity P-wave (km/s) = 4.96033 5.72572 5.35671
#
# Compressibility (1/GPa) = 0.03824361
#
# Stress axis : x y z
#
# Youngs Moduli (GPa) = 34.98994 34.98994 91.38528
#
# Poissons Ratio (x) = 0.05759 0.60694
# Poissons Ratio (y) = 0.05759 0.60694
# Poissons Ratio (z) = 0.23239 0.23239
#
# Static dielectric constant tensor:
#      x y z
#    x 1.895810 0.000000 0.000000 
#    y 0.000000 1.895810 0.000000 
#    z 0.000000 0.000000 1.827750 
# 
# From -- ./inp_files/1589.got.cif
#   From: 2010.05.17/outbox.cif.g08.bks.cpg/sg82_1_cif.got.tgz:1589.got - 2010.06.03 18:52:26.
