data_PCOD9542311
_publ_section_title
;
Structure prediction by ZEFSAII (Michael W. Deem and Ramdas Pophale) SiO2 
 PCOD9542311
Probable space group: I 41
;
_chemical_formula_sum "Si O2"
_cell_formula_units_Z 36
_cell_length_a 9.413555
_cell_length_b 9.413555
_cell_length_c 13.331844
_cell_angle_alpha 90.000000
_cell_angle_beta 90.000000
_cell_angle_gamma 90.000000
_cell_volume 1181.401593
_symmetry_space_group_name_H-M "I 41"
_symmetry_group_IT_number 80
_symmetry_cell_setting 'tetragonal'
loop_
_space_group_symop_operation_xyz
x,y,z
-y,1/2+x,1/4+z
-x,-y,z
y,1/2-x,1/4+z
1/2+x,1/2+y,1/2+z
1/2-y,x,3/4+z
1/2-x,1/2-y,1/2+z
1/2+y,-x,3/4+z
loop_
_atom_site_type_symbol
_atom_site_label
_atom_site_fract_x
_atom_site_fract_y
_atom_site_fract_z
Si Si1 0.840029 0.547057 0.777220
Si Si2 0.328890 0.348916 0.481812
Si Si3 0.547056 0.159971 0.537688
Si Si4 0.828890 0.348917 0.583095
Si Si5 0.500000 0.500000 0.657453
O O1 0.758561 0.698089 0.758643
O O2 0.816541 0.453171 0.676641
O O3 0.747396 0.465536 0.860815
O O4 0.000000 0.500000 0.798814
O O5 0.465535 0.252603 0.454092
O O6 0.385917 0.441520 0.576197
O O7 0.453170 0.183460 0.638267
O O8 0.698089 0.241440 0.556265
O O9 0.500000 0.000000 0.516095
O O10 0.885918 0.441520 0.488709
#
# Coordination Sequence:
#
# PCOD9542311 Si02
#       5
#     8   8   8   8   4
#     4  12  30  58  88 142 184 255 307 398 464 573
#     4  12  30  55  96 134 195 241 322 376 489 562
#     4  12  30  58  88 142 184 255 307 398 464 573
#     4  12  30  55  96 134 195 241 322 376 489 562
#     4  12  28  56 104 144 176 258 308 400 472 576
#
# _framework density 30.472276999999998
#
# number of rings (size 3 to 8) (size 9 to 14) (size 15 to 20)
#    0.000    0.000    2.222    4.000   12.444    9.778 
#    0.000    0.000    0.000    0.000    0.000    0.000 
#    0.000    0.000    0.000    0.000    0.000    0.000 
#
# Total GULP energy -100633.164919 kJ/mol
# GULP energy per Si atom -5590.731384 kJ/mol
# Density = 3.040292 g / cm^3
# Si number density = 30.472277 Si / 1000 Ang^3
#
#
#
# Elastic Constant Matrix: (Units=GPa)
#
#
# Indices 1 2 3 4 5 6 
#
# 1 231.0395 65.8286 72.0429 0.0000 0.0000 21.4202
# 2 65.8286 231.0395 72.0429 0.0000 0.0000 -21.4202
# 3 72.0429 72.0429 151.1881 0.0000 0.0000 0.0000
# 4 0.0000 0.0000 0.0000 54.0736 0.0000 0.0000
# 5 0.0000 0.0000 0.0000 0.0000 54.0736 0.0000
# 6 21.4202 -21.4202 0.0000 0.0000 0.0000 63.4821
#
#
#
# Elastic Compliance Matrix: (Units=1/GPa)
#
#
# Indices 1 2 3 4 5 6 
#
# 1 0.005508 -0.001126 -0.002088 0.000000 0.000000 -0.002238
# 2 -0.001126 0.005508 -0.002088 0.000000 0.000000 0.002238
# 3 -0.002088 -0.002088 0.008604 0.000000 0.000000 0.000000
# 4 0.000000 0.000000 0.000000 0.018493 0.000000 0.000000
# 5 0.000000 0.000000 0.000000 0.000000 0.018493 0.000000
# 6 -0.002238 0.002238 0.000000 0.000000 0.000000 0.017263
#
#
# Mechanical properties :
#
#
# Convention : Reuss Voigt Hill
#
# Bulk Modulus (GPa) = 110.91478 114.78841 112.85159
# Shear Modulus (GPa) = 57.15739 61.21603 59.18671
#
# Velocity S-wave (km/s) = 4.33565 4.48695 4.41195
# Velocity P-wave (km/s) = 7.84484 8.03711 7.94156
#
# Compressibility (1/GPa) = 0.00901593
#
# Stress axis : x y z
#
# Youngs Moduli (GPa) = 181.56755 181.56755 116.22194
#
# Poissons Ratio (x) = 0.20438 0.24268
# Poissons Ratio (y) = 0.20438 0.24268
# Poissons Ratio (z) = 0.37912 0.37912
#
# Static dielectric constant tensor:
#      x y z
#    x 2.774680 0.000000 0.000000 
#    y 0.000000 2.774680 0.000000 
#    z 0.000000 0.000000 2.421730 
# 
# From -- ./inp_files/1753.got.cif
#   From: 2010.05.17/outbox.cif.g08.bks.cpg/sg80_cif.got.tgz:1753.got - 2010.06.03 18:49:13.
