data_PCOD9542723
_publ_section_title
;
Structure prediction by ZEFSAII (Michael W. Deem and Ramdas Pophale) SiO2 
 PCOD9542723
Probable space group: I -4 
;
_chemical_formula_sum "Si O2"
_cell_formula_units_Z 32
_cell_length_a 8.229428
_cell_length_b 8.229428
_cell_length_c 19.088505
_cell_angle_alpha 90.000000
_cell_angle_beta 90.000000
_cell_angle_gamma 90.000000
_cell_volume 1292.740086
_symmetry_space_group_name_H-M "I -4 "
_symmetry_group_IT_number 82
_symmetry_cell_setting 'tetragonal'
loop_
_space_group_symop_operation_xyz
x,y,z
y,-x,-z
-x,-y,z
-y,x,-z
1/2+x,1/2+y,1/2+z
1/2+y,1/2-x,1/2-z
1/2-x,1/2-y,1/2+z
1/2-y,1/2+x,1/2-z
loop_
_atom_site_type_symbol
_atom_site_label
_atom_site_fract_x
_atom_site_fract_y
_atom_site_fract_z
Si Si1 0.837266 0.083496 0.192787
Si Si2 0.073071 0.682259 0.590813
Si Si3 0.773896 0.764973 0.672288
Si Si4 0.728648 0.378250 0.471293
O O1 0.737527 0.181627 0.135800
O O2 0.874264 0.196935 0.259462
O O3 0.733207 0.917644 0.206796
O O4 0.000000 0.000000 0.165388
O O5 0.126257 0.710444 0.512007
O O6 0.000000 0.500000 0.593902
O O7 0.937336 0.787555 0.627351
O O8 0.638398 0.770021 0.611119
O O9 0.557915 0.292380 0.494006
#
# Coordination Sequence:
#
# PCOD9542723 Si02
#       4
#     8   8   8   8
#     4  11  21  39  65  95 122 166 218 265 314 380
#     4  10  20  37  61  90 124 167 206 255 317 382
#     4  11  22  39  67  90 127 168 214 262 317 385
#     4  11  21  36  62  95 124 163 213 259 312 380
#
# _framework density 24.753622
#
# number of rings (size 3 to 8) (size 9 to 14) (size 15 to 20)
#    0.000    1.250    7.500    1.500    0.000    0.000 
#    4.500    0.000    0.000    0.000    0.000    0.000 
#    0.000    0.000    0.000    0.000    0.000    0.000 
#
# Total GULP energy -89204.554402 kJ/mol
# GULP energy per Si atom -5575.284650 kJ/mol
# Density = 2.469728 g / cm^3
# Si number density = 24.753622 Si / 1000 Ang^3
#
#
#
# Elastic Constant Matrix: (Units=GPa)
#
#
# Indices 1 2 3 4 5 6 
#
# 1 55.8873 -16.5969 -3.8116 0.0000 0.0000 -7.9432
# 2 -16.5969 55.8873 -3.8116 0.0000 0.0000 7.9432
# 3 -3.8116 -3.8116 105.2319 0.0000 0.0000 0.0000
# 4 0.0000 0.0000 0.0000 36.5819 0.0000 0.0000
# 5 0.0000 0.0000 0.0000 0.0000 36.5819 0.0000
# 6 -7.9432 7.9432 0.0000 0.0000 0.0000 4.1114
#
#
#
# Elastic Compliance Matrix: (Units=1/GPa)
#
#
# Indices 1 2 3 4 5 6 
#
# 1 0.024780 0.000852 0.000928 0.000000 0.000000 0.046228
# 2 0.000852 0.024780 0.000928 0.000000 0.000000 -0.046228
# 3 0.000928 0.000928 0.009570 0.000000 0.000000 0.000000
# 4 0.000000 0.000000 0.000000 0.027336 0.000000 0.000000
# 5 0.000000 0.000000 0.000000 0.000000 0.027336 0.000000
# 6 0.046228 -0.046228 0.000000 0.000000 0.000000 0.421844
#
#
# Mechanical properties :
#
#
# Convention : Reuss Voigt Hill
#
# Bulk Modulus (GPa) = 15.49258 18.72958 17.11108
# Shear Modulus (GPa) = 9.06217 31.53682 20.29950
#
# Velocity S-wave (km/s) = 1.91544 3.57323 2.86678
# Velocity P-wave (km/s) = 3.34128 4.96052 4.22912
#
# Compressibility (1/GPa) = 0.06454702
#
# Stress axis : x y z
#
# Youngs Moduli (GPa) = 40.35552 40.35552 104.49233
#
# Poissons Ratio (x) = -0.03438 -0.09701
# Poissons Ratio (y) = -0.03438 -0.09701
# Poissons Ratio (z) = -0.03747 -0.03747
#
# Static dielectric constant tensor:
#      x y z
#    x 2.061730 0.000000 0.000000 
#    y 0.000000 2.061730 0.000000 
#    z 0.000000 0.000000 1.991410 
# 
# From -- ./inp_files/2859.got.cif
#   From: 2010.05.17/outbox.cif.g08.bks.cpg/sg82_2_cif.got.tgz:2859.got - 2010.06.03 18:52:26.
