data_PCOD9542387
_publ_section_title
;
Structure prediction by ZEFSAII (Michael W. Deem and Ramdas Pophale) SiO2 
 PCOD9542387
Probable space group: P -4
;
_chemical_formula_sum "Si O2"
_cell_formula_units_Z 16
_cell_length_a 10.390044
_cell_length_b 10.390044
_cell_length_c 6.745344
_cell_angle_alpha 90.000000
_cell_angle_beta 90.000000
_cell_angle_gamma 90.000000
_cell_volume 728.180217
_symmetry_space_group_name_H-M "P -4"
_symmetry_group_IT_number 81
_symmetry_cell_setting 'tetragonal'
loop_
_space_group_symop_operation_xyz
x,y,z
y,-x,-z
-x,-y,z
-y,x,-z
loop_
_atom_site_type_symbol
_atom_site_label
_atom_site_fract_x
_atom_site_fract_y
_atom_site_fract_z
Si Si1 0.717678 0.942706 0.626211
Si Si2 0.500000 0.500000 0.000000
Si Si3 0.612878 0.146255 0.936764
Si Si4 0.000000 0.000000 0.500000
Si Si5 0.500000 0.000000 0.304156
Si Si6 0.284656 0.647585 0.161698
O O1 0.619622 0.961828 0.444217
O O2 0.721550 0.789319 0.666801
O O3 0.862975 0.991391 0.608376
O O4 0.660140 0.025356 0.810424
O O5 0.432424 0.603488 0.142832
O O6 0.721763 0.254791 0.974182
O O7 0.560682 0.103430 0.152168
O O8 0.489123 0.211902 0.837306
#
# Coordination Sequence:
#
# PCOD9542387 Si02
#       6
#     4   1   4   1   2   4
#     4  12  25  48  69 108 149 196 256 300 386 460
#     4   8  20  36  72 102 124 188 254 300 368 430
#     4  11  23  42  72  99 139 197 239 310 378 446
#     4  12  32  44  74 120 156 202 248 328 370 468
#     4  12  22  44  72  98 136 200 248 296 376 452
#     4  10  20  43  67 100 141 182 246 308 367 446
#
# _framework density 21.972580000000001
#
# number of rings (size 3 to 8) (size 9 to 14) (size 15 to 20)
#    0.000    1.000    5.000    1.500    3.500    2.000 
#    0.000    1.250    0.000    0.000    0.000    0.000 
#    0.000    0.000    0.000    0.000    0.000    0.000 
#
# Total GULP energy -89067.850971 kJ/mol
# GULP energy per Si atom -5566.740686 kJ/mol
# Density = 2.192257 g / cm^3
# Si number density = 21.972580 Si / 1000 Ang^3
#
#
#
# Elastic Constant Matrix: (Units=GPa)
#
#
# Indices 1 2 3 4 5 6 
#
# 1 100.5464 22.9064 24.5124 0.0000 0.0000 4.5608
# 2 22.9064 100.5464 24.5124 0.0000 0.0000 -4.5608
# 3 24.5124 24.5124 59.6370 0.0000 0.0000 0.0000
# 4 0.0000 0.0000 0.0000 25.6252 0.0000 0.0000
# 5 0.0000 0.0000 0.0000 0.0000 25.6252 0.0000
# 6 4.5608 -4.5608 0.0000 0.0000 0.0000 36.0080
#
#
#
# Elastic Compliance Matrix: (Units=1/GPa)
#
#
# Indices 1 2 3 4 5 6 
#
# 1 0.011377 -0.001697 -0.003979 0.000000 0.000000 -0.001656
# 2 -0.001697 0.011377 -0.003979 0.000000 0.000000 0.001656
# 3 -0.003979 -0.003979 0.020039 0.000000 0.000000 0.000000
# 4 0.000000 0.000000 0.000000 0.039024 0.000000 0.000000
# 5 0.000000 0.000000 0.000000 0.000000 0.039024 0.000000
# 6 -0.001656 0.001656 0.000000 0.000000 0.000000 0.028191
#
#
# Mechanical properties :
#
#
# Convention : Reuss Voigt Hill
#
# Bulk Modulus (GPa) = 42.58197 44.95470 43.76834
# Shear Modulus (GPa) = 28.38153 30.03824 29.20989
#
# Velocity S-wave (km/s) = 3.59789 3.70141 3.65002
# Velocity P-wave (km/s) = 6.05652 6.22665 6.14217
#
# Compressibility (1/GPa) = 0.02348412
#
# Stress axis : x y z
#
# Youngs Moduli (GPa) = 87.89336 87.89336 49.90274
#
# Poissons Ratio (x) = 0.14916 0.19856
# Poissons Ratio (y) = 0.14916 0.19856
# Poissons Ratio (z) = 0.34972 0.34972
#
# Static dielectric constant tensor:
#      x y z
#    x 1.909090 0.000000 0.000000 
#    y 0.000000 1.909090 0.000000 
#    z 0.000000 0.000000 1.827060 
# 
# From -- ./inp_files/123.got.cif
#   From: 2010.05.17/outbox.cif.g08.bks.cpg/sg81_cif.got.tgz:123.got - 2010.06.03 18:51:07.
