data_PCOD9542597
_publ_section_title
;
Structure prediction by ZEFSAII (Michael W. Deem and Ramdas Pophale) SiO2 
 PCOD9542597
Probable space group: P -4
;
_chemical_formula_sum "Si O2"
_cell_formula_units_Z 24
_cell_length_a 11.055305
_cell_length_b 11.055305
_cell_length_c 8.500652
_cell_angle_alpha 90.000000
_cell_angle_beta 90.000000
_cell_angle_gamma 90.000000
_cell_volume 1038.947721
_symmetry_space_group_name_H-M "P -4"
_symmetry_group_IT_number 81
_symmetry_cell_setting 'tetragonal'
loop_
_space_group_symop_operation_xyz
x,y,z
y,-x,-z
-x,-y,z
-y,x,-z
loop_
_atom_site_type_symbol
_atom_site_label
_atom_site_fract_x
_atom_site_fract_y
_atom_site_fract_z
Si Si1 0.118947 0.358041 0.720385
Si Si2 0.000000 0.000000 0.000000
Si Si3 0.500000 0.000000 0.048769
Si Si4 0.500000 0.500000 0.500000
Si Si5 0.098328 0.803575 0.755338
Si Si6 0.866976 0.239756 0.409410
Si Si7 0.501870 0.228831 0.575930
Si Si8 0.336952 0.916077 0.794971
O O1 0.179646 0.225864 0.714135
O O2 0.171117 0.418929 0.564270
O O3 0.977726 0.319886 0.735403
O O4 0.120193 0.461008 0.853175
O O5 0.108419 0.030631 0.121259
O O6 0.617404 0.999879 0.935791
O O7 0.516499 0.372999 0.591210
O O8 0.109203 0.836086 0.568209
O O9 0.234844 0.814071 0.820573
O O10 0.800667 0.363340 0.458754
O O11 0.990416 0.278105 0.327223
O O12 0.548175 0.154092 0.725448
#
# Coordination Sequence:
#
# PCOD9542597 Si02
#       8
#     4   1   2   1   4   4   4   4
#     4  12  26  44  74 116 154 211 268 337 411 491
#     4  12  28  44  66 116 180 198 260 340 424 470
#     4  12  28  44  72 110 166 210 268 336 424 478
#     4  12  24  44  76 118 140 200 260 346 380 472
#     4  12  24  44  71 111 152 211 259 331 404 494
#     4  12  23  45  79 106 151 209 277 326 403 496
#     4  12  23  46  77 109 152 198 275 332 398 487
#     4  12  25  47  76 109 152 211 262 337 408 491
#
# _framework density 23.100299
#
# number of rings (size 3 to 8) (size 9 to 14) (size 15 to 20)
#    0.000    0.000    6.667    3.000    0.000    2.667 
#    0.000    0.000    0.000    1.000    0.000    0.000 
#    0.000    0.000    0.000    0.000    0.000    0.000 
#
# Total GULP energy -133745.393621 kJ/mol
# GULP energy per Si atom -5572.724734 kJ/mol
# Density = 2.304772 g / cm^3
# Si number density = 23.100299 Si / 1000 Ang^3
#
#
#
# Elastic Constant Matrix: (Units=GPa)
#
#
# Indices 1 2 3 4 5 6 
#
# 1 105.4490 37.6927 41.3947 0.0000 0.0000 14.5875
# 2 37.6927 105.4490 41.3947 0.0000 0.0000 -14.5875
# 3 41.3947 41.3947 79.6772 0.0000 0.0000 0.0000
# 4 0.0000 0.0000 0.0000 34.8164 0.0000 0.0000
# 5 0.0000 0.0000 0.0000 0.0000 34.8164 0.0000
# 6 14.5875 -14.5875 0.0000 0.0000 0.0000 50.6653
#
#
#
# Elastic Compliance Matrix: (Units=1/GPa)
#
#
# Indices 1 2 3 4 5 6 
#
# 1 0.013417 -0.003430 -0.005189 0.000000 0.000000 -0.004851
# 2 -0.003430 0.013417 -0.005189 0.000000 0.000000 0.004851
# 3 -0.005189 -0.005189 0.017942 0.000000 0.000000 0.000000
# 4 0.000000 0.000000 0.000000 0.028722 0.000000 0.000000
# 5 0.000000 0.000000 0.000000 0.000000 0.028722 0.000000
# 6 -0.004851 0.004851 0.000000 0.000000 0.000000 0.022531
#
#
# Mechanical properties :
#
#
# Convention : Reuss Voigt Hill
#
# Bulk Modulus (GPa) = 58.26937 59.05991 58.66464
# Shear Modulus (GPa) = 31.62831 35.39915 33.51373
#
# Velocity S-wave (km/s) = 3.70425 3.91885 3.81306
# Velocity P-wave (km/s) = 6.60110 6.78961 6.69602
#
# Compressibility (1/GPa) = 0.01716168
#
# Stress axis : x y z
#
# Youngs Moduli (GPa) = 74.53117 74.53117 55.73566
#
# Poissons Ratio (x) = 0.25566 0.28919
# Poissons Ratio (y) = 0.25566 0.28919
# Poissons Ratio (z) = 0.38671 0.38671
#
# Static dielectric constant tensor:
#      x y z
#    x 1.924170 0.000000 0.000000 
#    y 0.000000 1.924170 0.000000 
#    z 0.000000 0.000000 1.975480 
# 
# From -- ./inp_files/904.got.cif
#   From: 2010.05.17/outbox.cif.g08.bks.cpg/sg81_cif.got.tgz:904.got - 2010.06.03 18:51:07.
