data_PCOD9542261
_publ_section_title
;
Structure prediction by ZEFSAII (Michael W. Deem and Ramdas Pophale) SiO2 
 PCOD9542261
Probable space group: I 41
;
_chemical_formula_sum "Si O2"
_cell_formula_units_Z 52
_cell_length_a 19.004526
_cell_length_b 19.004526
_cell_length_c 6.037651
_cell_angle_alpha 90.000000
_cell_angle_beta 90.000000
_cell_angle_gamma 90.000000
_cell_volume 2180.630538
_symmetry_space_group_name_H-M "I 41"
_symmetry_group_IT_number 80
_symmetry_cell_setting 'tetragonal'
loop_
_space_group_symop_operation_xyz
x,y,z
-y,1/2+x,1/4+z
-x,-y,z
y,1/2-x,1/4+z
1/2+x,1/2+y,1/2+z
1/2-y,x,3/4+z
1/2-x,1/2-y,1/2+z
1/2+y,-x,3/4+z
loop_
_atom_site_type_symbol
_atom_site_label
_atom_site_fract_x
_atom_site_fract_y
_atom_site_fract_z
Si Si1 0.657237 0.801750 0.500000
Si Si2 0.523029 0.770271 0.800655
Si Si3 0.956460 0.635228 0.709172
Si Si4 0.554224 0.356561 0.590535
Si Si5 0.412010 0.849934 0.522941
Si Si6 0.000000 0.000000 0.188436
Si Si7 0.184290 0.825393 0.388179
O O1 0.729045 0.827127 0.617154
O O2 0.596463 0.791634 0.684844
O O3 0.618884 0.855035 0.328303
O O4 0.505000 0.695031 0.686381
O O5 0.453265 0.812372 0.721902
O O6 0.531379 0.794822 0.056011
O O7 0.020249 0.626683 0.881773
O O8 0.965347 0.564641 0.569807
O O9 0.596158 0.352433 0.358954
O O10 0.527570 0.435085 0.552831
O O11 0.612683 0.354268 0.782914
O O12 0.369724 0.799443 0.358048
O O13 0.172879 0.745828 0.462271
#
# Coordination Sequence:
#
# PCOD9542261 Si02
#       7
#     8   8   8   8   8   4   8
#     4  11  30  49  79 113 150 201 259 326 393 469
#     4  11  26  47  76 108 156 199 253 321 395 458
#     4  11  26  50  73 113 152 202 257 324 386 469
#     4  12  26  44  74 107 151 200 245 324 374 471
#     4  11  22  48  69 104 151 193 257 308 385 459
#     4  12  26  46  74 108 150 200 256 310 388 460
#     4  12  27  43  70 106 148 199 253 313 383 456
#
# _framework density 23.846314
#
# number of rings (size 3 to 8) (size 9 to 14) (size 15 to 20)
#    0.000    0.615    3.077    2.769   10.769    3.077 
#    0.000    0.000    0.000    0.000    0.000    0.000 
#    0.000    0.000    0.000    0.000    0.000    0.000 
#
# Total GULP energy -145124.590359 kJ/mol
# GULP energy per Si atom -5581.715014 kJ/mol
# Density = 2.379204 g / cm^3
# Si number density = 23.846314 Si / 1000 Ang^3
#
#
#
# Elastic Constant Matrix: (Units=GPa)
#
#
# Indices 1 2 3 4 5 6 
#
# 1 81.6234 17.3716 13.2254 0.0000 0.0000 5.7279
# 2 17.3716 81.6234 13.2254 0.0000 0.0000 -5.7279
# 3 13.2254 13.2254 73.8954 0.0000 0.0000 0.0000
# 4 0.0000 0.0000 0.0000 -4.7510 0.0000 0.0000
# 5 0.0000 0.0000 0.0000 0.0000 -4.7510 0.0000
# 6 5.7279 -5.7279 0.0000 0.0000 0.0000 36.2605
#
#
#
# Elastic Compliance Matrix: (Units=1/GPa)
#
#
# Indices 1 2 3 4 5 6 
#
# 1 0.013312 -0.002703 -0.001899 0.000000 0.000000 -0.002530
# 2 -0.002703 0.013312 -0.001899 0.000000 0.000000 0.002530
# 3 -0.001899 -0.001899 0.014212 0.000000 0.000000 0.000000
# 4 0.000000 0.000000 0.000000 -0.210482 0.000000 0.000000
# 5 0.000000 0.000000 0.000000 0.000000 -0.210482 0.000000
# 6 -0.002530 0.002530 0.000000 0.000000 0.000000 0.028377
#
#
# Mechanical properties :
#
#
# Convention : Reuss Voigt Hill
#
# Bulk Modulus (GPa) = 35.92586 36.08746 36.00666
# Shear Modulus (GPa) = -15.17580 18.23968 1.53194
#
# Velocity S-wave (km/s) = -2.52543 2.76866 0.80238
# Velocity P-wave (km/s) = 2.56798 5.03853 3.99883
#
# Compressibility (1/GPa) = 0.02783510
#
# Stress axis : x y z
#
# Youngs Moduli (GPa) = 75.12118 75.12118 70.36165
#
# Poissons Ratio (x) = 0.20305 0.13360
# Poissons Ratio (y) = 0.20305 0.13360
# Poissons Ratio (z) = 0.14263 0.14263
#
# Static dielectric constant tensor:
#      x y z
#    x 1.957750 0.000000 0.000000 
#    y 0.000000 1.957750 0.000000 
#    z 0.000000 0.000000 1.943070 
# 
# From -- ./inp_files/343.got.cif
#   From: 2010.05.17/outbox.cif.g08.bks.cpg/sg80_cif.got.tgz:343.got - 2010.06.03 18:49:13.
