data_PCOD9542856
_publ_section_title
;
Structure prediction by ZEFSAII (Michael W. Deem and Ramdas Pophale) SiO2 
 PCOD9542856
Probable space group: I -4 
;
_chemical_formula_sum "Si O2"
_cell_formula_units_Z 60
_cell_length_a 11.459965
_cell_length_b 11.459965
_cell_length_c 21.097959
_cell_angle_alpha 90.000000
_cell_angle_beta 90.000000
_cell_angle_gamma 90.000000
_cell_volume 2770.811787
_symmetry_space_group_name_H-M "I -4 "
_symmetry_group_IT_number 82
_symmetry_cell_setting 'tetragonal'
loop_
_space_group_symop_operation_xyz
x,y,z
y,-x,-z
-x,-y,z
-y,x,-z
1/2+x,1/2+y,1/2+z
1/2+y,1/2-x,1/2-z
1/2-x,1/2-y,1/2+z
1/2-y,1/2+x,1/2-z
loop_
_atom_site_type_symbol
_atom_site_label
_atom_site_fract_x
_atom_site_fract_y
_atom_site_fract_z
Si Si1 0.668195 0.584235 0.999875
Si Si2 0.299812 0.176775 0.602797
Si Si3 0.000000 0.500000 0.930399
Si Si4 0.802938 0.416814 0.831213
Si Si5 0.583493 0.837986 0.729166
Si Si6 0.285822 0.698488 0.579047
Si Si7 0.757110 0.665752 0.788961
Si Si8 0.019252 0.266504 0.008077
O O1 0.751071 0.572048 0.060725
O O2 0.639542 0.454727 0.977051
O O3 0.731459 0.675517 0.953166
O O4 0.188644 0.234332 0.635654
O O5 0.390333 0.144426 0.655856
O O6 0.371583 0.258110 0.554891
O O7 0.100524 0.541541 0.881987
O O8 0.024217 0.395079 0.978306
O O9 0.735023 0.535630 0.814602
O O10 0.843966 0.358454 0.764669
O O11 0.447311 0.850581 0.739564
O O12 0.643385 0.722312 0.756285
O O13 0.251347 0.704991 0.653043
O O14 0.403088 0.753365 0.549249
O O15 0.300141 0.563162 0.555373
#
# Coordination Sequence:
#
# PCOD9542856 Si02
#       8
#     8   8   4   8   8   8   8   8
#     4  10  22  39  63  97 136 174 213 283 348 409
#     4  10  23  41  61  99 137 173 224 282 345 412
#     4  12  22  41  72 104 135 180 238 292 354 418
#     4  11  23  43  67 102 140 175 234 292 348 422
#     4  10  23  43  68  96 133 183 236 282 337 421
#     4  11  24  42  65 101 135 183 233 281 349 429
#     4  11  23  42  72  99 139 181 230 292 354 419
#     4  11  25  40  69  97 139 182 227 290 350 420
#
# _framework density 21.654302999999999
#
# number of rings (size 3 to 8) (size 9 to 14) (size 15 to 20)
#    0.000    1.333    1.333    4.000    7.467    1.333 
#    0.000    2.000    2.933    0.000    0.000    0.000 
#    0.000    0.000    0.000    0.000    0.000    0.000 
#
# Total GULP energy -167188.949824 kJ/mol
# GULP energy per Si atom -5572.964994 kJ/mol
# Density = 2.160502 g / cm^3
# Si number density = 21.654303 Si / 1000 Ang^3
#
#
#
# Elastic Constant Matrix: (Units=GPa)
#
#
# Indices 1 2 3 4 5 6 
#
# 1 72.6552 -3.6284 14.7049 0.0000 0.0000 -1.5981
# 2 -3.6284 72.6552 14.7049 0.0000 0.0000 1.5981
# 3 14.7049 14.7049 101.5447 0.0000 0.0000 0.0000
# 4 0.0000 0.0000 0.0000 59.8658 0.0000 0.0000
# 5 0.0000 0.0000 0.0000 0.0000 59.8658 0.0000
# 6 -1.5981 1.5981 0.0000 0.0000 0.0000 15.7558
#
#
#
# Elastic Compliance Matrix: (Units=1/GPa)
#
#
# Indices 1 2 3 4 5 6 
#
# 1 0.014302 0.001137 -0.002236 0.000000 0.000000 0.001335
# 2 0.001137 0.014302 -0.002236 0.000000 0.000000 -0.001335
# 3 -0.002236 -0.002236 0.010495 0.000000 0.000000 0.000000
# 4 0.000000 0.000000 0.000000 0.016704 0.000000 0.000000
# 5 0.000000 0.000000 0.000000 0.000000 0.016704 0.000000
# 6 0.001335 -0.001335 0.000000 0.000000 0.000000 0.063739
#
#
# Mechanical properties :
#
#
# Convention : Reuss Voigt Hill
#
# Bulk Modulus (GPa) = 30.83421 33.15752 31.99587
# Shear Modulus (GPa) = 32.52524 41.83573 37.18048
#
# Velocity S-wave (km/s) = 3.87980 4.40020 4.14817
# Velocity P-wave (km/s) = 5.86009 6.41569 6.14418
#
# Compressibility (1/GPa) = 0.03243151
#
# Stress axis : x y z
#
# Youngs Moduli (GPa) = 69.91866 69.91866 95.27946
#
# Poissons Ratio (x) = -0.07953 0.21303
# Poissons Ratio (y) = -0.07953 0.21303
# Poissons Ratio (z) = 0.15633 0.15633
#
# Static dielectric constant tensor:
#      x y z
#    x 1.725540 0.000000 0.000000 
#    y 0.000000 1.725540 0.000000 
#    z 0.000000 0.000000 1.858350 
# 
# From -- ./inp_files/3175.got.cif
#   From: 2010.05.17/outbox.cif.g08.bks.cpg/sg82_2_cif.got.tgz:3175.got - 2010.06.03 18:52:26.
