data_PCOD9542774
_publ_section_title
;
Structure prediction by ZEFSAII (Michael W. Deem and Ramdas Pophale) SiO2 
 PCOD9542774
Probable space group: I -4 
;
_chemical_formula_sum "Si O2"
_cell_formula_units_Z 42
_cell_length_a 8.793207
_cell_length_b 8.793207
_cell_length_c 27.587304
_cell_angle_alpha 90.000000
_cell_angle_beta 90.000000
_cell_angle_gamma 90.000000
_cell_volume 2133.063845
_symmetry_space_group_name_H-M "I -4 "
_symmetry_group_IT_number 82
_symmetry_cell_setting 'tetragonal'
loop_
_space_group_symop_operation_xyz
x,y,z
y,-x,-z
-x,-y,z
-y,x,-z
1/2+x,1/2+y,1/2+z
1/2+y,1/2-x,1/2-z
1/2-x,1/2-y,1/2+z
1/2-y,1/2+x,1/2-z
loop_
_atom_site_type_symbol
_atom_site_label
_atom_site_fract_x
_atom_site_fract_y
_atom_site_fract_z
Si Si1 0.500000 0.500000 0.500000
Si Si2 0.743746 0.502041 0.830275
Si Si3 0.754288 0.503075 0.170037
Si Si4 0.500000 0.000000 0.750000
Si Si5 0.825517 0.528374 0.938422
Si Si6 0.500000 0.000000 0.250000
Si Si7 0.232061 0.702944 0.472503
Si Si8 0.000000 0.500000 0.410620
O O1 0.398785 0.625955 0.472398
O O2 0.649397 0.348679 0.841410
O O3 0.627317 0.635280 0.816658
O O4 0.815510 0.555103 0.881164
O O5 0.859317 0.477316 0.786504
O O6 0.860786 0.539433 0.215254
O O7 0.863653 0.451334 0.125899
O O8 0.737549 0.371896 0.950539
O O9 0.000000 0.500000 0.951076
O O10 0.774813 0.665588 0.973188
O O11 0.124940 0.583808 0.443831
#
# Coordination Sequence:
#
# PCOD9542774 Si02
#       8
#     2   8   8   2   8   2   8   4
#     4  12  24  40  64  88 132 176 216 272 316 396
#     4  11  24  41  63  96 125 174 215 279 323 402
#     4  10  23  40  67  89 127 157 219 266 337 389
#     4  10  20  44  64  90 116 160 200 278 328 398
#     4  12  25  42  65  98 135 175 224 270 334 400
#     4  12  24  42  68  90 136 170 228 268 340 386
#     4  12  25  42  66  96 136 176 220 273 335 398
#     4  11  22  42  64  98 124 174 214 275 330 402
#
# _framework density 19.689985
#
# number of rings (size 3 to 8) (size 9 to 14) (size 15 to 20)
#    0.000    0.762    5.714    1.143    5.333    0.381 
#    0.000    0.000    0.000    0.000    0.000    0.000 
#    0.000    0.000    0.000    0.000    0.000    0.000 
#
# Total GULP energy -117221.643270 kJ/mol
# GULP energy per Si atom -5581.983013 kJ/mol
# Density = 1.964517 g / cm^3
# Si number density = 19.689985 Si / 1000 Ang^3
#
#
#
# Elastic Constant Matrix: (Units=GPa)
#
#
# Indices 1 2 3 4 5 6 
#
# 1 75.2653 14.2662 23.0157 0.0000 0.0000 -2.4407
# 2 14.2662 75.2653 23.0157 0.0000 0.0000 2.4407
# 3 23.0157 23.0157 107.6120 0.0000 0.0000 0.0000
# 4 0.0000 0.0000 0.0000 28.8469 0.0000 0.0000
# 5 0.0000 0.0000 0.0000 0.0000 28.8469 0.0000
# 6 -2.4407 2.4407 0.0000 0.0000 0.0000 26.2640
#
#
#
# Elastic Compliance Matrix: (Units=1/GPa)
#
#
# Indices 1 2 3 4 5 6 
#
# 1 0.014533 -0.001984 -0.002684 0.000000 0.000000 0.001535
# 2 -0.001984 0.014533 -0.002684 0.000000 0.000000 -0.001535
# 3 -0.002684 -0.002684 0.010441 0.000000 0.000000 0.000000
# 4 0.000000 0.000000 0.000000 0.034666 0.000000 0.000000
# 5 0.000000 0.000000 0.000000 0.000000 0.034666 0.000000
# 6 0.001535 -0.001535 0.000000 0.000000 0.000000 0.038360
#
#
# Mechanical properties :
#
#
# Convention : Reuss Voigt Hill
#
# Bulk Modulus (GPa) = 40.31743 42.08199 41.19971
# Shear Modulus (GPa) = 29.38253 29.98122 29.68187
#
# Velocity S-wave (km/s) = 3.86717 3.90637 3.88681
# Velocity P-wave (km/s) = 6.36086 6.46258 6.41192
#
# Compressibility (1/GPa) = 0.02480317
#
# Stress axis : x y z
#
# Youngs Moduli (GPa) = 68.80965 68.80965 95.77876
#
# Poissons Ratio (x) = 0.13650 0.25707
# Poissons Ratio (y) = 0.13650 0.25707
# Poissons Ratio (z) = 0.18468 0.18468
#
# Static dielectric constant tensor:
#      x y z
#    x 1.688980 0.000000 0.000000 
#    y 0.000000 1.688980 0.000000 
#    z 0.000000 0.000000 1.683750 
# 
# From -- ./inp_files/3765.got.cif
#   From: 2010.05.17/outbox.cif.g08.bks.cpg/sg82_2_cif.got.tgz:3765.got - 2010.06.03 18:52:26.
