data_PCOD9542850
_publ_section_title
;
Structure prediction by ZEFSAII (Michael W. Deem and Ramdas Pophale) SiO2 
 PCOD9542850
Probable space group: I -4 
;
_chemical_formula_sum "Si O2"
_cell_formula_units_Z 52
_cell_length_a 19.884774
_cell_length_b 19.884774
_cell_length_c 6.242747
_cell_angle_alpha 90.000000
_cell_angle_beta 90.000000
_cell_angle_gamma 90.000000
_cell_volume 2468.408615
_symmetry_space_group_name_H-M "I -4 "
_symmetry_group_IT_number 82
_symmetry_cell_setting 'tetragonal'
loop_
_space_group_symop_operation_xyz
x,y,z
y,-x,-z
-x,-y,z
-y,x,-z
1/2+x,1/2+y,1/2+z
1/2+y,1/2-x,1/2-z
1/2-x,1/2-y,1/2+z
1/2-y,1/2+x,1/2-z
loop_
_atom_site_type_symbol
_atom_site_label
_atom_site_fract_x
_atom_site_fract_y
_atom_site_fract_z
Si Si1 0.350789 0.420037 0.022385
Si Si2 0.817020 0.215380 0.207158
Si Si3 0.686426 0.392227 0.337941
Si Si4 0.500000 0.500000 0.500000
Si Si5 0.973740 0.875728 0.788889
Si Si6 0.791564 0.358410 0.016359
Si Si7 0.556458 0.918400 0.131767
Si Si8 0.500000 0.000000 0.750000
O O1 0.292955 0.385657 0.159126
O O2 0.412402 0.418478 0.189063
O O3 0.374284 0.369352 0.837524
O O4 0.337218 0.489615 0.903109
O O5 0.811413 0.293113 0.154334
O O6 0.760832 0.175516 0.347488
O O7 0.813413 0.174527 0.985567
O O8 0.668907 0.449927 0.511605
O O9 0.752332 0.403402 0.192935
O O10 0.521729 0.435464 0.367365
O O11 0.852113 0.397643 0.897794
O O12 0.483410 0.909384 0.249365
O O13 0.537507 0.946480 0.898692
#
# Coordination Sequence:
#
# PCOD9542850 Si02
#       8
#     8   8   8   2   8   8   8   2
#     4  10  22  38  58  89 125 169 222 277 327 387
#     4  10  22  40  66  93 129 179 222 269 333 408
#     4  10  22  39  60  91 124 171 222 277 321 402
#     4  12  20  34  64  80 118 188 216 270 340 372
#     4  11  21  37  59  88 127 171 226 276 328 384
#     4  11  21  43  71  94 135 178 217 277 347 411
#     4   9  21  43  71 104 137 168 221 286 352 429
#     4   8  18  44  68  98 128 164 210 280 340 430
#
# _framework density 21.066202000000001
#
# number of rings (size 3 to 8) (size 9 to 14) (size 15 to 20)
#    0.000    2.000    3.077    0.923    0.000    2.462 
#    0.000   12.308    0.000    0.000    0.000    0.000 
#    0.000    0.000    0.000    0.000    0.000    0.000 
#
# Total GULP energy -144873.724835 kJ/mol
# GULP energy per Si atom -5572.066340 kJ/mol
# Density = 2.101825 g / cm^3
# Si number density = 21.066202 Si / 1000 Ang^3
#
#
#
# Elastic Constant Matrix: (Units=GPa)
#
#
# Indices 1 2 3 4 5 6 
#
# 1 78.0768 46.4077 42.8437 0.0000 0.0000 2.4379
# 2 46.4077 78.0768 42.8437 0.0000 0.0000 -2.4379
# 3 42.8437 42.8437 117.4301 0.0000 0.0000 0.0000
# 4 0.0000 0.0000 0.0000 33.4785 0.0000 0.0000
# 5 0.0000 0.0000 0.0000 0.0000 33.4785 0.0000
# 6 2.4379 -2.4379 0.0000 0.0000 0.0000 26.9712
#
#
#
# Elastic Compliance Matrix: (Units=1/GPa)
#
#
# Indices 1 2 3 4 5 6 
#
# 1 0.021375 -0.010647 -0.003914 0.000000 0.000000 -0.002894
# 2 -0.010647 0.021375 -0.003914 0.000000 0.000000 0.002894
# 3 -0.003914 -0.003914 0.011371 0.000000 0.000000 0.000000
# 4 0.000000 0.000000 0.000000 0.029870 0.000000 0.000000
# 5 0.000000 0.000000 0.000000 0.000000 0.029870 0.000000
# 6 -0.002894 0.002894 0.000000 0.000000 0.000000 0.037600
#
#
# Mechanical properties :
#
#
# Convention : Reuss Voigt Hill
#
# Bulk Modulus (GPa) = 58.23836 59.75264 58.99550
# Shear Modulus (GPa) = 25.75542 28.21820 26.98681
#
# Velocity S-wave (km/s) = 3.50036 3.66389 3.58306
# Velocity P-wave (km/s) = 6.63642 6.80622 6.72185
#
# Compressibility (1/GPa) = 0.01717081
#
# Stress axis : x y z
#
# Youngs Moduli (GPa) = 46.78453 46.78453 87.93920
#
# Poissons Ratio (x) = 0.49814 0.34417
# Poissons Ratio (y) = 0.49814 0.34417
# Poissons Ratio (z) = 0.18310 0.18310
#
# Static dielectric constant tensor:
#      x y z
#    x 1.824420 0.000000 0.000000 
#    y 0.000000 1.824420 0.000000 
#    z 0.000000 0.000000 1.783450 
# 
# From -- ./inp_files/383.got.cif
#   From: 2010.05.17/outbox.cif.g08.bks.cpg/sg82_1_cif.got.tgz:383.got - 2010.06.03 18:52:26.
