data_PCOD9542769
_publ_section_title
;
Structure prediction by ZEFSAII (Michael W. Deem and Ramdas Pophale) SiO2 
 PCOD9542769
Probable space group: I -4 
;
_chemical_formula_sum "Si O2"
_cell_formula_units_Z 48
_cell_length_a 8.986890
_cell_length_b 8.986890
_cell_length_c 26.680869
_cell_angle_alpha 90.000000
_cell_angle_beta 90.000000
_cell_angle_gamma 90.000000
_cell_volume 2154.858823
_symmetry_space_group_name_H-M "I -4 "
_symmetry_group_IT_number 82
_symmetry_cell_setting 'tetragonal'
loop_
_space_group_symop_operation_xyz
x,y,z
y,-x,-z
-x,-y,z
-y,x,-z
1/2+x,1/2+y,1/2+z
1/2+y,1/2-x,1/2-z
1/2-x,1/2-y,1/2+z
1/2-y,1/2+x,1/2-z
loop_
_atom_site_type_symbol
_atom_site_label
_atom_site_fract_x
_atom_site_fract_y
_atom_site_fract_z
Si Si1 0.080385 0.286252 0.773775
Si Si2 0.718537 0.329813 0.613653
Si Si3 0.740653 0.454007 0.509668
Si Si4 0.033279 0.723217 0.263422
Si Si5 0.174833 0.985038 0.630025
Si Si6 0.568742 0.844402 0.596627
O O1 0.177568 0.414986 0.746023
O O2 0.106643 0.279528 0.833737
O O3 0.139430 0.127060 0.755937
O O4 0.771994 0.432466 0.568031
O O5 0.780585 0.164669 0.601214
O O6 0.538325 0.293283 0.612990
O O7 0.613745 0.332611 0.498076
O O8 0.851394 0.432311 0.463746
O O9 0.151009 0.589097 0.272770
O O10 0.952745 0.769996 0.313717
O O11 0.261008 0.135419 0.613901
O O12 0.000000 0.000000 0.628469
O O13 0.500000 0.000000 0.616304
#
# Coordination Sequence:
#
# PCOD9542769 Si02
#       6
#     8   8   8   8   8   8
#     4  11  24  41  60  93 135 174 214 266 326 392
#     4  10  20  42  64  85 129 171 210 271 319 376
#     4   9  19  39  67  92 120 158 217 266 314 383
#     4  11  23  38  65  89 117 171 222 266 309 381
#     4  11  22  39  61  92 128 166 210 263 323 387
#     4   9  20  39  64  93 122 163 216 263 324 383
#
# _framework density 22.275243
#
# number of rings (size 3 to 8) (size 9 to 14) (size 15 to 20)
#    0.000    1.833    1.667    2.000    4.667    1.333 
#   12.000    3.333    0.000    0.000    0.000    0.000 
#    0.000    0.000    0.000    0.000    0.000    0.000 
#
# Total GULP energy -133883.087580 kJ/mol
# GULP energy per Si atom -5578.461983 kJ/mol
# Density = 2.222454 g / cm^3
# Si number density = 22.275243 Si / 1000 Ang^3
#
#
#
# Elastic Constant Matrix: (Units=GPa)
#
#
# Indices 1 2 3 4 5 6 
#
# 1 76.4285 15.0434 30.6519 0.0000 0.0000 4.5815
# 2 15.0434 76.4285 30.6519 0.0000 0.0000 -4.5815
# 3 30.6519 30.6519 132.5566 0.0000 0.0000 0.0000
# 4 0.0000 0.0000 0.0000 26.9163 0.0000 0.0000
# 5 0.0000 0.0000 0.0000 0.0000 26.9163 0.0000
# 6 4.5815 -4.5815 0.0000 0.0000 0.0000 29.4228
#
#
#
# Elastic Compliance Matrix: (Units=1/GPa)
#
#
# Indices 1 2 3 4 5 6 
#
# 1 0.014808 -0.001870 -0.002992 0.000000 0.000000 -0.002597
# 2 -0.001870 0.014808 -0.002992 0.000000 0.000000 0.002597
# 3 -0.002992 -0.002992 0.008927 0.000000 0.000000 0.000000
# 4 0.000000 0.000000 0.000000 0.037152 0.000000 0.000000
# 5 0.000000 0.000000 0.000000 0.000000 0.037152 0.000000
# 6 -0.002597 0.002597 0.000000 0.000000 0.000000 0.034796
#
#
# Mechanical properties :
#
#
# Convention : Reuss Voigt Hill
#
# Bulk Modulus (GPa) = 43.79106 48.67864 46.23485
# Shear Modulus (GPa) = 29.24621 30.58887 29.91754
#
# Velocity S-wave (km/s) = 3.62739 3.70972 3.66879
# Velocity P-wave (km/s) = 6.10293 6.34429 6.22478
#
# Compressibility (1/GPa) = 0.02283571
#
# Stress axis : x y z
#
# Youngs Moduli (GPa) = 67.53227 67.53226 112.01397
#
# Poissons Ratio (x) = 0.12632 0.33510
# Poissons Ratio (y) = 0.12632 0.33510
# Poissons Ratio (z) = 0.20203 0.20203
#
# Static dielectric constant tensor:
#      x y z
#    x 1.877860 0.000000 0.000000 
#    y 0.000000 1.877860 0.000000 
#    z 0.000000 0.000000 1.829540 
# 
# From -- ./inp_files/4022.got.cif
#   From: 2010.05.17/outbox.cif.g08.bks.cpg/sg82_3_cif.got.tgz:4022.got - 2010.06.03 18:52:26.
