data_PCOD9542866
_publ_section_title
;
Structure prediction by ZEFSAII (Michael W. Deem and Ramdas Pophale) SiO2 
 PCOD9542866
Probable space group: I -4 
;
_chemical_formula_sum "Si O2"
_cell_formula_units_Z 30
_cell_length_a 9.315937
_cell_length_b 9.315937
_cell_length_c 14.195234
_cell_angle_alpha 90.000000
_cell_angle_beta 90.000000
_cell_angle_gamma 90.000000
_cell_volume 1231.957262
_symmetry_space_group_name_H-M "I -4 "
_symmetry_group_IT_number 82
_symmetry_cell_setting 'tetragonal'
loop_
_space_group_symop_operation_xyz
x,y,z
y,-x,-z
-x,-y,z
-y,x,-z
1/2+x,1/2+y,1/2+z
1/2+y,1/2-x,1/2-z
1/2-x,1/2-y,1/2+z
1/2-y,1/2+x,1/2-z
loop_
_atom_site_type_symbol
_atom_site_label
_atom_site_fract_x
_atom_site_fract_y
_atom_site_fract_z
Si Si1 0.000000 0.000000 0.000000
Si Si2 0.000000 0.000000 0.731189
Si Si3 0.400401 0.669314 0.058003
Si Si4 0.476645 0.800836 0.693953
Si Si5 0.172116 0.525929 0.525649
O O1 0.162779 0.034215 0.045703
O O2 0.960811 0.127260 0.658861
O O3 0.865718 0.956852 0.792009
O O4 0.534504 0.684582 0.985773
O O5 0.310808 0.810399 0.057388
O O6 0.347972 0.889782 0.740216
O O7 0.506047 0.838729 0.586702
O O8 0.000000 0.500000 0.559815
#
# Coordination Sequence:
#
# PCOD9542866 Si02
#       5
#     2   4   8   8   8
#     4  12  30  40  72 106 148 184 246 296 366 444
#     4  10  22  40  68  98 128 182 238 300 354 458
#     4   9  19  36  66  95 131 182 240 287 362 435
#     4  11  22  39  68  95 132 175 234 289 367 438
#     4  12  24  43  64 103 144 186 230 306 365 437
#
# _framework density 24.351496999999998
#
# number of rings (size 3 to 8) (size 9 to 14) (size 15 to 20)
#    0.000    1.600    2.667    5.600    3.733    0.000 
#    0.000    0.000    0.000    0.000    0.000    0.000 
#    0.000    0.000    0.000    0.000    0.000    0.000 
#
# Total GULP energy -83594.445108 kJ/mol
# GULP energy per Si atom -5572.963007 kJ/mol
# Density = 2.429607 g / cm^3
# Si number density = 24.351497 Si / 1000 Ang^3
#
#
#
# Elastic Constant Matrix: (Units=GPa)
#
#
# Indices 1 2 3 4 5 6 
#
# 1 163.2129 26.7322 18.6380 0.0000 0.0000 8.6403
# 2 26.7322 163.2129 18.6380 0.0000 0.0000 -8.6403
# 3 18.6380 18.6380 80.9373 0.0000 0.0000 0.0000
# 4 0.0000 0.0000 0.0000 18.2953 0.0000 0.0000
# 5 0.0000 0.0000 0.0000 0.0000 18.2953 0.0000
# 6 8.6403 -8.6403 0.0000 0.0000 0.0000 29.8120
#
#
#
# Elastic Compliance Matrix: (Units=1/GPa)
#
#
# Indices 1 2 3 4 5 6 
#
# 1 0.006560 -0.001046 -0.001270 0.000000 0.000000 -0.002204
# 2 -0.001046 0.006560 -0.001270 0.000000 0.000000 0.002204
# 3 -0.001270 -0.001270 0.012940 0.000000 0.000000 0.000000
# 4 0.000000 0.000000 0.000000 0.054659 0.000000 0.000000
# 5 0.000000 0.000000 0.000000 0.000000 0.054659 0.000000
# 6 -0.002204 0.002204 0.000000 0.000000 0.000000 0.034821
#
#
# Mechanical properties :
#
#
# Convention : Reuss Voigt Hill
#
# Bulk Modulus (GPa) = 52.94122 59.48661 56.21391
# Shear Modulus (GPa) = 27.22323 36.17084 31.69703
#
# Velocity S-wave (km/s) = 3.34717 3.85822 3.61175
# Velocity P-wave (km/s) = 6.06017 6.65802 6.36612
#
# Compressibility (1/GPa) = 0.01888887
#
# Stress axis : x y z
#
# Youngs Moduli (GPa) = 152.43877 152.43877 77.27964
#
# Poissons Ratio (x) = 0.15947 0.09812
# Poissons Ratio (y) = 0.15947 0.09812
# Poissons Ratio (z) = 0.19355 0.19355
#
# Static dielectric constant tensor:
#      x y z
#    x 2.019810 0.000000 0.000000 
#    y 0.000000 2.019810 0.000000 
#    z 0.000000 0.000000 1.898150 
# 
# From -- ./inp_files/2910.got.cif
#   From: 2010.05.17/outbox.cif.g08.bks.cpg/sg82_2_cif.got.tgz:2910.got - 2010.06.03 18:52:26.
