data_PCOD9542490
_publ_section_title
;
Structure prediction by ZEFSAII (Michael W. Deem and Ramdas Pophale) SiO2 
 PCOD9542490
Probable space group: P -4
;
_chemical_formula_sum "Si O2"
_cell_formula_units_Z 20
_cell_length_a 8.353239
_cell_length_b 8.353239
_cell_length_c 14.233758
_cell_angle_alpha 90.000000
_cell_angle_beta 90.000000
_cell_angle_gamma 90.000000
_cell_volume 993.183264
_symmetry_space_group_name_H-M "P -4"
_symmetry_group_IT_number 81
_symmetry_cell_setting 'tetragonal'
loop_
_space_group_symop_operation_xyz
x,y,z
y,-x,-z
-x,-y,z
-y,x,-z
loop_
_atom_site_type_symbol
_atom_site_label
_atom_site_fract_x
_atom_site_fract_y
_atom_site_fract_z
Si Si1 0.500000 0.500000 0.000000
Si Si2 0.348445 0.603379 0.178560
Si Si3 0.665918 0.088815 0.309956
Si Si4 0.000000 0.000000 0.500000
Si Si5 0.500000 0.000000 0.775199
Si Si6 0.636905 0.282297 0.501445
Si Si7 0.802651 0.108281 0.657791
O O1 0.619233 0.591482 0.929145
O O2 0.500000 0.500000 0.220197
O O3 0.326706 0.762794 0.238788
O O4 0.174045 0.519208 0.176019
O O5 0.654388 0.155847 0.416985
O O6 0.500000 0.000000 0.290653
O O7 0.813133 0.962175 0.297436
O O8 0.147144 0.004827 0.570629
O O9 0.335131 0.974114 0.717146
O O10 0.452918 0.299160 0.531603
O O11 0.726446 0.251368 0.598650
#
# Coordination Sequence:
#
# PCOD9542490 Si02
#       7
#     1   4   4   1   2   4   4
#     4   8  24  52  80 108 134 172 224 300 400 464
#     4  10  24  49  74 105 134 178 226 301 379 459
#     4  12  23  39  65 102 141 186 248 295 355 429
#     4  12  24  36  52  84 136 182 240 280 336 372
#     4  12  26  44  72  98 142 190 246 296 366 428
#     4  11  24  37  57  89 138 195 248 290 338 402
#     4  12  25  38  57  96 140 195 239 293 338 409
#
# _framework density 20.137270999999998
#
# number of rings (size 3 to 8) (size 9 to 14) (size 15 to 20)
#    0.600    0.200    4.000    3.600    7.000    0.000 
#    1.800    0.000    0.000    0.000    0.000    0.000 
#    0.000    0.000    0.000    0.000    0.000    0.000 
#
# Total GULP energy -111455.289275 kJ/mol
# GULP energy per Si atom -5572.764464 kJ/mol
# Density = 2.009144 g / cm^3
# Si number density = 20.137271 Si / 1000 Ang^3
#
#
#
# Elastic Constant Matrix: (Units=GPa)
#
#
# Indices 1 2 3 4 5 6 
#
# 1 103.0475 45.0053 27.9531 0.0000 0.0000 8.3514
# 2 45.0053 103.0475 27.9531 0.0000 0.0000 -8.3514
# 3 27.9531 27.9531 69.3954 0.0000 0.0000 0.0000
# 4 0.0000 0.0000 0.0000 4.1377 0.0000 0.0000
# 5 0.0000 0.0000 0.0000 0.0000 4.1377 0.0000
# 6 8.3514 -8.3514 0.0000 0.0000 0.0000 43.5163
#
#
#
# Elastic Compliance Matrix: (Units=1/GPa)
#
#
# Indices 1 2 3 4 5 6 
#
# 1 0.013101 -0.005135 -0.003209 0.000000 0.000000 -0.003500
# 2 -0.005135 0.013101 -0.003209 0.000000 0.000000 0.003500
# 3 -0.003209 -0.003209 0.016995 0.000000 0.000000 0.000000
# 4 0.000000 0.000000 0.000000 0.241678 0.000000 0.000000
# 5 0.000000 0.000000 0.000000 0.000000 0.241678 0.000000
# 6 -0.003500 0.003500 0.000000 0.000000 0.000000 0.024323
#
#
# Mechanical properties :
#
#
# Convention : Reuss Voigt Hill
#
# Bulk Modulus (GPa) = 49.77071 53.03481 51.40276
# Shear Modulus (GPa) = 8.61060 21.99694 15.30377
#
# Velocity S-wave (km/s) = 2.07008 3.30866 2.75975
# Velocity P-wave (km/s) = 5.52114 6.40235 5.97801
#
# Compressibility (1/GPa) = 0.02009214
#
# Stress axis : x y z
#
# Youngs Moduli (GPa) = 76.33010 76.33010 58.84002
#
# Poissons Ratio (x) = 0.39195 0.18880
# Poissons Ratio (y) = 0.39195 0.18880
# Poissons Ratio (z) = 0.24493 0.24493
#
# Static dielectric constant tensor:
#      x y z
#    x 1.820730 0.000000 0.000000 
#    y 0.000000 1.820730 0.000000 
#    z 0.000000 0.000000 1.694700 
# 
# From -- ./inp_files/1490.got.cif
#   From: 2010.05.17/outbox.cif.g08.bks.cpg/sg81_cif.got.tgz:1490.got - 2010.06.03 18:51:07.
