data_PCOD9542670
_publ_section_title
;
Structure prediction by ZEFSAII (Michael W. Deem and Ramdas Pophale) SiO2 
 PCOD9542670
Probable space group: I -4 
;
_chemical_formula_sum "Si O2"
_cell_formula_units_Z 48
_cell_length_a 11.832603
_cell_length_b 11.832603
_cell_length_c 18.766552
_cell_angle_alpha 90.000000
_cell_angle_beta 90.000000
_cell_angle_gamma 90.000000
_cell_volume 2627.514212
_symmetry_space_group_name_H-M "I -4 "
_symmetry_group_IT_number 82
_symmetry_cell_setting 'tetragonal'
loop_
_space_group_symop_operation_xyz
x,y,z
y,-x,-z
-x,-y,z
-y,x,-z
1/2+x,1/2+y,1/2+z
1/2+y,1/2-x,1/2-z
1/2-x,1/2-y,1/2+z
1/2-y,1/2+x,1/2-z
loop_
_atom_site_type_symbol
_atom_site_label
_atom_site_fract_x
_atom_site_fract_y
_atom_site_fract_z
Si Si1 0.660190 0.953135 0.210936
Si Si2 0.392099 0.579636 0.314390
Si Si3 0.128824 0.497859 0.078921
Si Si4 0.746307 0.367267 0.455005
Si Si5 0.969971 0.678221 0.273843
Si Si6 0.077995 0.666632 0.956958
O O1 0.577401 0.871313 0.257440
O O2 0.793741 0.925108 0.211678
O O3 0.635592 0.937549 0.126039
O O4 0.500000 0.500000 0.318861
O O5 0.328418 0.582761 0.390630
O O6 0.298685 0.531233 0.261962
O O7 0.168772 0.370063 0.071824
O O8 0.193409 0.557521 0.142711
O O9 0.000000 0.500000 0.107494
O O10 0.115506 0.559576 0.003893
O O11 0.674081 0.258534 0.474700
O O12 0.776703 0.462189 0.513470
O O13 0.880292 0.592180 0.238345
#
# Coordination Sequence:
#
# PCOD9542670 Si02
#       6
#     8   8   8   8   8   8
#     4  10  25  44  62  88 127 178 214 266 321 402
#     4  11  25  39  63  96 131 165 212 268 331 393
#     4  10  19  37  61  89 115 160 210 258 317 375
#     4  10  22  38  59  88 124 157 200 273 311 380
#     4  11  19  37  64  90 121 160 203 260 321 382
#     4  10  23  38  63  91 123 162 218 262 325 388
#
# _framework density 18.268215999999999
#
# number of rings (size 3 to 8) (size 9 to 14) (size 15 to 20)
#    0.000    1.667    3.333    1.000   14.000    1.333 
#    0.000    0.000    0.000    0.000    0.000    0.000 
#    0.000    0.000    0.000    0.000    0.000    0.000 
#
# Total GULP energy -133718.155430 kJ/mol
# GULP energy per Si atom -5571.589810 kJ/mol
# Density = 1.822664 g / cm^3
# Si number density = 18.268216 Si / 1000 Ang^3
#
#
#
# Elastic Constant Matrix: (Units=GPa)
#
#
# Indices 1 2 3 4 5 6 
#
# 1 79.0827 32.6860 50.6092 0.0000 0.0000 6.3976
# 2 32.6860 79.0827 50.6092 0.0000 0.0000 -6.3976
# 3 50.6092 50.6092 106.8665 0.0000 0.0000 0.0000
# 4 0.0000 0.0000 0.0000 37.0053 0.0000 0.0000
# 5 0.0000 0.0000 0.0000 0.0000 37.0053 0.0000
# 6 6.3976 -6.3976 0.0000 0.0000 0.0000 18.4320
#
#
#
# Elastic Compliance Matrix: (Units=1/GPa)
#
#
# Indices 1 2 3 4 5 6 
#
# 1 0.019750 -0.004085 -0.007419 0.000000 0.000000 -0.008273
# 2 -0.004085 0.019750 -0.007419 0.000000 0.000000 0.008273
# 3 -0.007419 -0.007419 0.016384 0.000000 0.000000 0.000000
# 4 0.000000 0.000000 0.000000 0.027023 0.000000 0.000000
# 5 0.000000 0.000000 0.000000 0.000000 0.027023 0.000000
# 6 -0.008273 0.008273 0.000000 0.000000 0.000000 0.059996
#
#
# Mechanical properties :
#
#
# Convention : Reuss Voigt Hill
#
# Bulk Modulus (GPa) = 55.43213 59.20454 57.31833
# Shear Modulus (GPa) = 23.38801 27.23035 25.30918
#
# Velocity S-wave (km/s) = 3.58195 3.86500 3.72616
# Velocity P-wave (km/s) = 6.89322 7.23854 7.06799
#
# Compressibility (1/GPa) = 0.01804008
#
# Stress axis : x y z
#
# Youngs Moduli (GPa) = 50.63254 50.63254 61.03452
#
# Poissons Ratio (x) = 0.20681 0.45280
# Poissons Ratio (y) = 0.20681 0.45280
# Poissons Ratio (z) = 0.37563 0.37563
#
# Static dielectric constant tensor:
#      x y z
#    x 1.607310 0.000000 0.000000 
#    y 0.000000 1.607310 0.000000 
#    z 0.000000 0.000000 1.661750 
# 
# From -- ./inp_files/3070.got.cif
#   From: 2010.05.17/outbox.cif.g08.bks.cpg/sg82_2_cif.got.tgz:3070.got - 2010.06.03 18:52:26.
