data_PCOD9542002
_publ_section_title
;
Structure prediction by ZEFSAII (Michael W. Deem and Ramdas Pophale) SiO2 
 PCOD9542002
Probable space group: I 4
;
_chemical_formula_sum "Si O2"
_cell_formula_units_Z 46
_cell_length_a 8.190299
_cell_length_b 8.190299
_cell_length_c 30.577097
_cell_angle_alpha 90.000000
_cell_angle_beta 90.000000
_cell_angle_gamma 90.000000
_cell_volume 2051.142174
_symmetry_space_group_name_H-M "I 4"
_symmetry_group_IT_number 79
_symmetry_cell_setting 'tetragonal'
loop_
_space_group_symop_operation_xyz
x,y,z
-y,x,z
-x,-y,z
y,-x,z
1/2+x,1/2+y,1/2+z
1/2-y,1/2+x,1/2+z
1/2-x,1/2-y,1/2+z
1/2+y,1/2-x,1/2+z
loop_
_atom_site_type_symbol
_atom_site_label
_atom_site_fract_x
_atom_site_fract_y
_atom_site_fract_z
Si Si1 0.666490 0.907926 0.456870
Si Si2 0.000000 0.500000 0.302904
Si Si3 0.095611 0.249148 0.866455
Si Si4 0.247349 0.874790 0.138888
Si Si5 0.146964 0.235091 0.044592
Si Si6 0.000000 0.000000 0.435548
Si Si7 0.741589 0.102803 0.234353
O O1 0.617614 0.790376 0.417130
O O2 0.715415 0.829243 0.503074
O O3 0.803439 0.029945 0.438445
O O4 0.500000 0.000000 0.467375
O O5 0.902352 0.376681 0.334821
O O6 0.117692 0.395682 0.271097
O O7 0.908191 0.202942 0.857501
O O8 0.318594 0.823447 0.092004
O O9 0.068678 0.790800 0.138693
O O10 0.327551 0.850909 0.186150
O O11 0.949979 0.214925 0.042312
O O12 0.797175 0.911349 0.237724
#
# Coordination Sequence:
#
# PCOD9542002 Si02
#       7
#     8   4   8   8   8   2   8
#     4  12  24  43  62  94 130 174 214 264 335 390
#     4  12  22  36  58  88 118 156 210 274 338 394
#     4  11  24  42  61  86 121 165 213 268 331 407
#     4   7  12  26  51  82 114 151 202 256 310 375
#     4   9  16  30  58  90 121 165 212 260 316 389
#     4  12  28  44  72 100 140 184 220 292 320 400
#     4   9  18  35  56  83 117 154 200 264 324 387
#
# _framework density 22.426528000000001
#
# number of rings (size 3 to 8) (size 9 to 14) (size 15 to 20)
#    0.000    2.087    0.870    6.261    0.000    1.391 
#    1.565    0.000    0.000    0.000    0.000    0.000 
#    0.000    0.000    0.000    0.000    0.000    0.000 
#
# Total GULP energy -128080.412636 kJ/mol
# GULP energy per Si atom -5568.713593 kJ/mol
# Density = 2.237548 g / cm^3
# Si number density = 22.426528 Si / 1000 Ang^3
#
#
#
# Elastic Constant Matrix: (Units=GPa)
#
#
# Indices 1 2 3 4 5 6 
#
# 1 33.4688 -0.9861 12.8725 0.0000 0.0000 -10.7588
# 2 -0.9861 33.4688 12.8726 0.0000 0.0000 10.7588
# 3 12.8725 12.8726 159.1143 0.0000 0.0000 0.0000
# 4 0.0000 0.0000 0.0000 15.7136 0.0000 0.0000
# 5 0.0000 0.0000 0.0000 0.0000 15.7136 0.0000
# 6 -10.7588 10.7588 0.0000 0.0000 0.0000 17.8511
#
#
#
# Elastic Compliance Matrix: (Units=1/GPa)
#
#
# Indices 1 2 3 4 5 6 
#
# 1 0.039718 -0.006823 -0.002661 0.000000 0.000000 0.028050
# 2 -0.006823 0.039718 -0.002661 0.000000 0.000000 -0.028050
# 3 -0.002661 -0.002661 0.006715 0.000000 0.000000 0.000000
# 4 0.000000 0.000000 0.000000 0.063639 0.000000 0.000000
# 5 0.000000 0.000000 0.000000 0.000000 0.063639 0.000000
# 6 0.028050 -0.028050 0.000000 0.000000 0.000000 0.089830
#
#
# Mechanical properties :
#
#
# Convention : Reuss Voigt Hill
#
# Bulk Modulus (GPa) = 16.16549 30.61888 23.39219
# Shear Modulus (GPa) = 14.36076 23.27518 18.81797
#
# Velocity S-wave (km/s) = 2.53325 3.22505 2.89985
# Velocity P-wave (km/s) = 3.97245 5.24886 4.65462
#
# Compressibility (1/GPa) = 0.06186016
#
# Stress axis : x y z
#
# Youngs Moduli (GPa) = 25.17754 25.17755 148.91183
#
# Poissons Ratio (x) = 0.17179 0.39629
# Poissons Ratio (y) = 0.17179 0.39629
# Poissons Ratio (z) = 0.06700 0.06700
#
# Static dielectric constant tensor:
#      x y z
#    x 1.869660 0.000000 0.000000 
#    y 0.000000 1.869660 0.000000 
#    z 0.000000 0.000000 1.883250 
# 
# From -- ./inp_files/2104.got.cif
#   From: 2010.05.17/outbox.cif.g08.bks.cpg/sg79_cif.got.tgz:2104.got - 2010.06.03 18:47:27.
