data_PCOD9542489
_publ_section_title
;
Structure prediction by ZEFSAII (Michael W. Deem and Ramdas Pophale) SiO2 
 PCOD9542489
Probable space group: P -4
;
_chemical_formula_sum "Si O2"
_cell_formula_units_Z 16
_cell_length_a 9.951326
_cell_length_b 9.951326
_cell_length_c 6.894165
_cell_angle_alpha 90.000000
_cell_angle_beta 90.000000
_cell_angle_gamma 90.000000
_cell_volume 682.721502
_symmetry_space_group_name_H-M "P -4"
_symmetry_group_IT_number 81
_symmetry_cell_setting 'tetragonal'
loop_
_space_group_symop_operation_xyz
x,y,z
y,-x,-z
-x,-y,z
-y,x,-z
loop_
_atom_site_type_symbol
_atom_site_label
_atom_site_fract_x
_atom_site_fract_y
_atom_site_fract_z
Si Si1 0.756827 0.341733 0.395977
Si Si2 0.857179 0.810040 0.258660
Si Si3 0.727236 0.092269 0.144877
Si Si4 0.000000 0.000000 0.500000
Si Si5 0.500000 0.500000 0.500000
Si Si6 0.000000 0.500000 0.559612
O O1 0.754395 0.255481 0.597478
O O2 0.775114 0.237869 0.220358
O O3 0.617605 0.423719 0.381397
O O4 0.883284 0.438283 0.428463
O O5 0.981061 0.859335 0.390092
O O6 0.816876 0.957220 0.170773
O O7 0.891430 0.711491 0.084762
O O8 0.606150 0.063780 0.291229
#
# Coordination Sequence:
#
# PCOD9542489 Si02
#       6
#     4   4   4   1   1   2
#     4  11  24  48  73 106 148 198 255 310 378 458
#     4  11  24  41  69 109 148 190 245 313 384 454
#     4  11  23  45  69 110 149 194 249 312 384 460
#     4  12  20  42  72 108 162 192 236 322 408 452
#     4  12  24  52  78  96 148 210 248 308 382 460
#     4  10  24  46  74 110 156 194 258 312 380 462
#
# _framework density 23.435617000000001
#
# number of rings (size 3 to 8) (size 9 to 14) (size 15 to 20)
#    0.000    1.000    5.000    1.500    0.000    0.000 
#    9.000    3.750    0.000    0.000    0.000    0.000 
#    0.000    0.000    0.000    0.000    0.000    0.000 
#
# Total GULP energy -89439.501879 kJ/mol
# GULP energy per Si atom -5589.968867 kJ/mol
# Density = 2.338228 g / cm^3
# Si number density = 23.435617 Si / 1000 Ang^3
#
#
#
# Elastic Constant Matrix: (Units=GPa)
#
#
# Indices 1 2 3 4 5 6 
#
# 1 99.5235 43.9971 28.0824 0.0000 0.0000 -2.9602
# 2 43.9971 99.5235 28.0824 0.0000 0.0000 2.9602
# 3 28.0824 28.0824 90.2642 0.0000 0.0000 0.0000
# 4 0.0000 0.0000 0.0000 24.5925 0.0000 0.0000
# 5 0.0000 0.0000 0.0000 0.0000 24.5925 0.0000
# 6 -2.9602 2.9602 0.0000 0.0000 0.0000 47.5044
#
#
#
# Elastic Compliance Matrix: (Units=1/GPa)
#
#
# Indices 1 2 3 4 5 6 
#
# 1 0.013032 -0.005098 -0.002468 0.000000 0.000000 0.001130
# 2 -0.005098 0.013032 -0.002468 0.000000 0.000000 -0.001130
# 3 -0.002468 -0.002468 0.012614 0.000000 0.000000 0.000000
# 4 0.000000 0.000000 0.000000 0.040663 0.000000 0.000000
# 5 0.000000 0.000000 0.000000 0.000000 0.040663 0.000000
# 6 0.001130 -0.001130 0.000000 0.000000 0.000000 0.021191
#
#
# Mechanical properties :
#
#
# Convention : Reuss Voigt Hill
#
# Bulk Modulus (GPa) = 53.73875 54.40391 54.07133
# Shear Modulus (GPa) = 29.85660 31.94782 30.90221
#
# Velocity S-wave (km/s) = 3.57316 3.69618 3.63519
# Velocity P-wave (km/s) = 6.32483 6.44052 6.38294
#
# Compressibility (1/GPa) = 0.01860855
#
# Stress axis : x y z
#
# Youngs Moduli (GPa) = 76.73574 76.73574 79.27454
#
# Poissons Ratio (x) = 0.39121 0.19567
# Poissons Ratio (y) = 0.39121 0.19567
# Poissons Ratio (z) = 0.18940 0.18940
#
# Static dielectric constant tensor:
#      x y z
#    x 1.945980 0.000000 0.000000 
#    y 0.000000 1.945980 0.000000 
#    z 0.000000 0.000000 1.913920 
# 
# From -- ./inp_files/136.got.cif
#   From: 2010.05.17/outbox.cif.g08.bks.cpg/sg81_cif.got.tgz:136.got - 2010.06.03 18:51:07.
