data_PCOD9542195
_publ_section_title
;
Structure prediction by ZEFSAII (Michael W. Deem and Ramdas Pophale) SiO2 
 PCOD9542195
Probable space group: I 41
;
_chemical_formula_sum "Si O2"
_cell_formula_units_Z 40
_cell_length_a 7.664128
_cell_length_b 7.664128
_cell_length_c 29.598111
_cell_angle_alpha 90.000000
_cell_angle_beta 90.000000
_cell_angle_gamma 90.000000
_cell_volume 1738.559239
_symmetry_space_group_name_H-M "I 41"
_symmetry_group_IT_number 80
_symmetry_cell_setting 'tetragonal'
loop_
_space_group_symop_operation_xyz
x,y,z
-y,1/2+x,1/4+z
-x,-y,z
y,1/2-x,1/4+z
1/2+x,1/2+y,1/2+z
1/2-y,x,3/4+z
1/2-x,1/2-y,1/2+z
1/2+y,-x,3/4+z
loop_
_atom_site_type_symbol
_atom_site_label
_atom_site_fract_x
_atom_site_fract_y
_atom_site_fract_z
Si Si1 0.533549 0.702206 0.194390
Si Si2 0.773280 0.793607 0.779802
Si Si3 0.500000 0.500000 0.344319
Si Si4 0.717355 0.145076 0.913690
Si Si5 0.000000 0.500000 0.230492
Si Si6 0.182372 0.401340 0.618217
O O1 0.500000 0.500000 0.204578
O O2 0.636564 0.791390 0.235913
O O3 0.339770 0.765289 0.183895
O O4 0.653362 0.731599 0.149978
O O5 0.643124 0.705958 0.815639
O O6 0.927597 0.851660 0.812108
O O7 0.667881 0.959160 0.760443
O O8 0.344015 0.585565 0.373003
O O9 0.523370 0.171086 0.891569
O O10 0.818099 0.030644 0.952707
O O11 0.000000 0.500000 0.621655
#
# Coordination Sequence:
#
# PCOD9542195 Si02
#       6
#     8   8   4   8   4   8
#     4  11  21  44  66  92 135 177 234 278 344 415
#     4  12  23  40  67 102 130 180 234 285 340 421
#     4  11  22  40  68 102 134 176 232 282 345 414
#     4  10  22  42  64  97 136 180 222 284 350 407
#     4  11  22  38  66 100 140 178 232 288 345 424
#     4  10  25  43  66 101 141 183 229 290 353 414
#
# _framework density 23.007559000000001
#
# number of rings (size 3 to 8) (size 9 to 14) (size 15 to 20)
#    0.000    1.200    3.000    2.400    2.800    1.600 
#    0.000   13.000    0.000    0.000    0.000    0.000 
#    0.000    0.000    0.000    0.000    0.000    0.000 
#
# Total GULP energy -111358.291319 kJ/mol
# GULP energy per Si atom -5567.914566 kJ/mol
# Density = 2.295519 g / cm^3
# Si number density = 23.007559 Si / 1000 Ang^3
#
#
#
# Elastic Constant Matrix: (Units=GPa)
#
#
# Indices 1 2 3 4 5 6 
#
# 1 71.8763 3.3256 18.3575 0.0000 0.0000 -13.9204
# 2 3.3256 71.8763 18.3575 0.0000 0.0000 13.9204
# 3 18.3575 18.3575 128.2702 0.0000 0.0000 0.0000
# 4 0.0000 0.0000 0.0000 57.1792 0.0000 0.0000
# 5 0.0000 0.0000 0.0000 0.0000 57.1791 0.0000
# 6 -13.9204 13.9204 0.0000 0.0000 0.0000 21.3229
#
#
#
# Elastic Compliance Matrix: (Units=1/GPa)
#
#
# Indices 1 2 3 4 5 6 
#
# 1 0.017074 -0.002777 -0.002046 0.000000 0.000000 0.012960
# 2 -0.002777 0.017074 -0.002046 0.000000 0.000000 -0.012960
# 3 -0.002046 -0.002046 0.008382 0.000000 0.000000 0.000000
# 4 0.000000 0.000000 0.000000 0.017489 0.000000 0.000000
# 5 0.000000 0.000000 0.000000 0.000000 0.017489 0.000000
# 6 0.012960 -0.012960 0.000000 0.000000 0.000000 0.063819
#
#
# Mechanical properties :
#
#
# Convention : Reuss Voigt Hill
#
# Bulk Modulus (GPa) = 34.73380 39.12267 36.92823
# Shear Modulus (GPa) = 30.36527 42.60171 36.48349
#
# Velocity S-wave (km/s) = 3.63684 4.30774 3.98643
# Velocity P-wave (km/s) = 5.72407 6.46400 6.10525
#
# Compressibility (1/GPa) = 0.02879040
#
# Stress axis : x y z
#
# Youngs Moduli (GPa) = 58.56936 58.56937 119.30772
#
# Poissons Ratio (x) = 0.16267 0.24411
# Poissons Ratio (y) = 0.16267 0.24411
# Poissons Ratio (z) = 0.11984 0.11984
#
# Static dielectric constant tensor:
#      x y z
#    x 1.699210 0.000000 0.000000 
#    y 0.000000 1.699210 0.000000 
#    z 0.000000 0.000000 1.880290 
# 
# From -- ./inp_files/2509.got.cif
#   From: 2010.05.17/outbox.cif.g08.bks.cpg/sg80_cif.got.tgz:2509.got - 2010.06.03 18:49:13.
