data_PCOD9542743
_publ_section_title
;
Structure prediction by ZEFSAII (Michael W. Deem and Ramdas Pophale) SiO2 
 PCOD9542743
Probable space group: I -4 
;
_chemical_formula_sum "Si O2"
_cell_formula_units_Z 48
_cell_length_a 14.050581
_cell_length_b 14.050581
_cell_length_c 11.971197
_cell_angle_alpha 90.000000
_cell_angle_beta 90.000000
_cell_angle_gamma 90.000000
_cell_volume 2363.339663
_symmetry_space_group_name_H-M "I -4 "
_symmetry_group_IT_number 82
_symmetry_cell_setting 'tetragonal'
loop_
_space_group_symop_operation_xyz
x,y,z
y,-x,-z
-x,-y,z
-y,x,-z
1/2+x,1/2+y,1/2+z
1/2+y,1/2-x,1/2-z
1/2-x,1/2-y,1/2+z
1/2-y,1/2+x,1/2-z
loop_
_atom_site_type_symbol
_atom_site_label
_atom_site_fract_x
_atom_site_fract_y
_atom_site_fract_z
Si Si1 0.643748 0.457018 0.012208
Si Si2 0.093434 0.326627 0.816968
Si Si3 0.395927 0.833374 0.413966
Si Si4 0.851736 0.522180 0.976870
Si Si5 0.097096 0.619269 0.282195
Si Si6 0.732543 0.214556 0.605548
O O1 0.690240 0.371590 0.086954
O O2 0.556168 0.406235 0.945326
O O3 0.740495 0.497497 0.957508
O O4 0.120445 0.337953 0.688379
O O5 0.099888 0.430988 0.870648
O O6 0.183772 0.276093 0.870106
O O7 0.991203 0.290451 0.860317
O O8 0.328494 0.771783 0.491981
O O9 0.409187 0.924245 0.496807
O O10 0.857081 0.587665 0.086619
O O11 0.128453 0.510339 0.264267
O O12 0.167321 0.684270 0.210201
#
# Coordination Sequence:
#
# PCOD9542743 Si02
#       6
#     8   8   8   8   8   8
#     4  10  20  39  62  89 133 175 217 273 328 397
#     4  12  24  41  68  95 132 179 218 275 337 400
#     4  11  24  44  64  99 135 171 224 275 338 396
#     4  11  22  38  64  94 129 170 221 271 333 397
#     4  11  22  38  62  96 134 169 215 284 341 384
#     4  11  25  43  65 103 133 174 227 276 339 403
#
# _framework density 20.310241000000001
#
# number of rings (size 3 to 8) (size 9 to 14) (size 15 to 20)
#    0.000    1.000    6.667    1.500    4.667    0.000 
#    0.000    0.000    0.000    0.500    0.000    0.000 
#    0.000    0.000    0.000    0.000    0.000    0.000 
#
# Total GULP energy -133611.784776 kJ/mol
# GULP energy per Si atom -5567.157699 kJ/mol
# Density = 2.026401 g / cm^3
# Si number density = 20.310241 Si / 1000 Ang^3
#
#
#
# Elastic Constant Matrix: (Units=GPa)
#
#
# Indices 1 2 3 4 5 6 
#
# 1 70.4724 22.0760 15.8786 0.0000 0.0000 -5.6492
# 2 22.0760 70.4724 15.8786 0.0000 0.0000 5.6492
# 3 15.8786 15.8786 92.3975 0.0000 0.0000 0.0000
# 4 0.0000 0.0000 0.0000 26.6059 0.0000 0.0000
# 5 0.0000 0.0000 0.0000 0.0000 26.6059 0.0000
# 6 -5.6492 5.6492 0.0000 0.0000 0.0000 31.8584
#
#
#
# Elastic Compliance Matrix: (Units=1/GPa)
#
#
# Indices 1 2 3 4 5 6 
#
# 1 0.016519 -0.005036 -0.001973 0.000000 0.000000 0.003822
# 2 -0.005036 0.016519 -0.001973 0.000000 0.000000 -0.003822
# 3 -0.001973 -0.001973 0.011501 0.000000 0.000000 0.000000
# 4 0.000000 0.000000 0.000000 0.037586 0.000000 0.000000
# 5 0.000000 0.000000 0.000000 0.000000 0.037586 0.000000
# 6 0.003822 -0.003822 0.000000 0.000000 0.000000 0.032744
#
#
# Mechanical properties :
#
#
# Convention : Reuss Voigt Hill
#
# Bulk Modulus (GPa) = 37.63278 37.88985 37.76132
# Shear Modulus (GPa) = 27.88976 28.98130 28.43553
#
# Velocity S-wave (km/s) = 3.70967 3.78157 3.74580
# Velocity P-wave (km/s) = 6.07603 6.14517 6.11069
#
# Compressibility (1/GPa) = 0.02657258
#
# Stress axis : x y z
#
# Youngs Moduli (GPa) = 60.53769 60.53769 86.94885
#
# Poissons Ratio (x) = 0.30489 0.17157
# Poissons Ratio (y) = 0.30489 0.17157
# Poissons Ratio (z) = 0.11946 0.11946
#
# Static dielectric constant tensor:
#      x y z
#    x 1.782170 0.000000 0.000000 
#    y 0.000000 1.782170 0.000000 
#    z 0.000000 0.000000 1.788190 
# 
# From -- ./inp_files/1779.got.cif
#   From: 2010.05.17/outbox.cif.g08.bks.cpg/sg82_1_cif.got.tgz:1779.got - 2010.06.03 18:52:26.
