data_PCOD9542724
_publ_section_title
;
Structure prediction by ZEFSAII (Michael W. Deem and Ramdas Pophale) SiO2 
 PCOD9542724
Probable space group: I -4 
;
_chemical_formula_sum "Si O2"
_cell_formula_units_Z 40
_cell_length_a 17.227244
_cell_length_b 17.227244
_cell_length_c 6.755857
_cell_angle_alpha 90.000000
_cell_angle_beta 90.000000
_cell_angle_gamma 90.000000
_cell_volume 2004.989295
_symmetry_space_group_name_H-M "I -4 "
_symmetry_group_IT_number 82
_symmetry_cell_setting 'tetragonal'
loop_
_space_group_symop_operation_xyz
x,y,z
y,-x,-z
-x,-y,z
-y,x,-z
1/2+x,1/2+y,1/2+z
1/2+y,1/2-x,1/2-z
1/2-x,1/2-y,1/2+z
1/2-y,1/2+x,1/2-z
loop_
_atom_site_type_symbol
_atom_site_label
_atom_site_fract_x
_atom_site_fract_y
_atom_site_fract_z
Si Si1 0.753765 0.074397 0.215907
Si Si2 0.436019 0.390837 0.007188
Si Si3 0.287535 0.648535 0.320396
Si Si4 0.666456 0.191196 0.493906
Si Si5 0.526185 0.117800 0.302999
O O1 0.839097 0.065349 0.297753
O O2 0.716269 0.148987 0.321605
O O3 0.699697 0.002571 0.283239
O O4 0.756787 0.087901 0.982815
O O5 0.390129 0.345420 0.836565
O O6 0.401316 0.474642 0.050502
O O7 0.331422 0.718581 0.434092
O O8 0.213233 0.679121 0.196530
O O9 0.584245 0.145353 0.477309
O O10 0.443598 0.073265 0.334489
#
# Coordination Sequence:
#
# PCOD9542724 Si02
#       5
#     8   8   8   8   8
#     4  10  21  39  62  91 123 164 206 263 315 371
#     4  10  23  40  59  90 124 160 207 260 315 374
#     4  11  21  38  62  94 125 164 213 260 312 380
#     4  10  20  37  61  91 124 165 212 257 309 372
#     4   9  19  38  62  88 125 166 205 254 315 373
#
# _framework density 19.950232
#
# number of rings (size 3 to 8) (size 9 to 14) (size 15 to 20)
#    0.000    2.000    2.000    1.200    0.000    3.200 
#    0.000   12.000    0.000    4.800    0.000    0.000 
#    0.000    0.000    0.000    0.000    0.000    0.000 
#
# Total GULP energy -111393.410501 kJ/mol
# GULP energy per Si atom -5569.670525 kJ/mol
# Density = 1.990482 g / cm^3
# Si number density = 19.950232 Si / 1000 Ang^3
#
#
#
# Elastic Constant Matrix: (Units=GPa)
#
#
# Indices 1 2 3 4 5 6 
#
# 1 83.2713 60.6446 32.7094 0.0000 0.0000 -6.6613
# 2 60.6446 83.2713 32.7094 0.0000 0.0000 6.6613
# 3 32.7094 32.7094 78.1278 0.0000 0.0000 0.0000
# 4 0.0000 0.0000 0.0000 12.6995 0.0000 0.0000
# 5 0.0000 0.0000 0.0000 0.0000 12.6995 0.0000
# 6 -6.6613 6.6613 0.0000 0.0000 0.0000 23.8771
#
#
#
# Elastic Compliance Matrix: (Units=1/GPa)
#
#
# Indices 1 2 3 4 5 6 
#
# 1 0.030732 -0.022150 -0.003593 0.000000 0.000000 0.014753
# 2 -0.022150 0.030732 -0.003593 0.000000 0.000000 -0.014753
# 3 -0.003593 -0.003593 0.015808 0.000000 0.000000 0.000000
# 4 0.000000 0.000000 0.000000 0.078743 0.000000 0.000000
# 5 0.000000 0.000000 0.000000 0.000000 0.078743 0.000000
# 6 0.014753 -0.014753 0.000000 0.000000 0.000000 0.050113
#
#
# Mechanical properties :
#
#
# Convention : Reuss Voigt Hill
#
# Bulk Modulus (GPa) = 53.76373 55.19969 54.48171
# Shear Modulus (GPa) = 14.29622 17.76237 16.02929
#
# Velocity S-wave (km/s) = 2.67983 2.98708 2.83762
# Velocity P-wave (km/s) = 6.04837 6.29489 6.17286
#
# Compressibility (1/GPa) = 0.01859990
#
# Stress axis : x y z
#
# Youngs Moduli (GPa) = 32.53946 32.53946 63.25934
#
# Poissons Ratio (x) = 0.72076 0.22728
# Poissons Ratio (y) = 0.72076 0.22728
# Poissons Ratio (z) = 0.11691 0.11691
#
# Static dielectric constant tensor:
#      x y z
#    x 1.746200 0.000000 0.000000 
#    y 0.000000 1.746200 0.000000 
#    z 0.000000 0.000000 1.648950 
# 
# From -- ./inp_files/203.got.cif
#   From: 2010.05.17/outbox.cif.g08.bks.cpg/sg82_1_cif.got.tgz:203.got - 2010.06.03 18:52:26.
