data_PCOD9542917
_publ_section_title
;
Structure prediction by ZEFSAII (Michael W. Deem and Ramdas Pophale) SiO2 
 PCOD9542917
Probable space group: I -4 
;
_chemical_formula_sum "Si O2"
_cell_formula_units_Z 56
_cell_length_a 11.614949
_cell_length_b 11.614949
_cell_length_c 20.831421
_cell_angle_alpha 90.000000
_cell_angle_beta 90.000000
_cell_angle_gamma 90.000000
_cell_volume 2810.305352
_symmetry_space_group_name_H-M "I -4 "
_symmetry_group_IT_number 82
_symmetry_cell_setting 'tetragonal'
loop_
_space_group_symop_operation_xyz
x,y,z
y,-x,-z
-x,-y,z
-y,x,-z
1/2+x,1/2+y,1/2+z
1/2+y,1/2-x,1/2-z
1/2-x,1/2-y,1/2+z
1/2-y,1/2+x,1/2-z
loop_
_atom_site_type_symbol
_atom_site_label
_atom_site_fract_x
_atom_site_fract_y
_atom_site_fract_z
Si Si1 0.868459 0.062351 0.227969
Si Si2 0.860183 0.011863 0.083753
Si Si3 0.612768 0.353675 0.020555
Si Si4 0.675780 0.172481 0.732133
Si Si5 0.728398 0.341659 0.464542
Si Si6 0.627795 0.024735 0.859567
Si Si7 0.387346 0.413740 0.832774
O O1 0.830531 0.051307 0.155023
O O2 0.839310 0.192594 0.248064
O O3 0.811075 0.988638 0.284224
O O4 0.000000 0.000000 0.225308
O O5 0.806048 0.887168 0.071913
O O6 0.814511 0.095238 0.028807
O O7 0.000000 0.000000 0.078307
O O8 0.613596 0.339548 0.097310
O O9 0.482317 0.345309 0.995471
O O10 0.690595 0.262196 0.984361
O O11 0.631956 0.106492 0.796082
O O12 0.595113 0.166827 0.669896
O O13 0.793738 0.110261 0.707958
O O14 0.794140 0.426077 0.415654
O O15 0.500000 0.000000 0.883349
O O16 0.500000 0.500000 0.845802
#
# Coordination Sequence:
#
# PCOD9542917 Si02
#       7
#     8   8   8   8   8   8   8
#     4  10  23  39  72 100 135 183 232 281 358 430
#     4  11  21  45  65 102 135 176 233 288 350 425
#     4  11  26  45  64  97 141 187 238 289 345 434
#     4  12  23  44  70 106 145 177 238 302 355 431
#     4  12  25  39  72  96 140 185 226 294 358 424
#     4  12  26  39  63 106 145 177 221 302 368 414
#     4  11  23  42  73  97 136 191 240 286 355 430
#
# _framework density 19.926660999999999
#
# number of rings (size 3 to 8) (size 9 to 14) (size 15 to 20)
#    0.000    0.714    4.286    5.143    6.000    0.000 
#    0.000    0.000    0.000    0.429    0.000    0.000 
#    0.000    0.000    0.000    0.000    0.000    0.000 
#
# Total GULP energy -156006.431008 kJ/mol
# GULP energy per Si atom -5571.658250 kJ/mol
# Density = 1.988131 g / cm^3
# Si number density = 19.926661 Si / 1000 Ang^3
#
#
#
# Elastic Constant Matrix: (Units=GPa)
#
#
# Indices 1 2 3 4 5 6 
#
# 1 83.7840 41.1491 11.5333 0.0000 0.0000 9.5956
# 2 41.1491 83.7840 11.5333 0.0000 0.0000 -9.5956
# 3 11.5333 11.5333 80.4495 0.0000 0.0000 0.0000
# 4 0.0000 0.0000 0.0000 60.5883 0.0000 0.0000
# 5 0.0000 0.0000 0.0000 0.0000 60.5883 0.0000
# 6 9.5956 -9.5956 0.0000 0.0000 0.0000 21.2930
#
#
#
# Elastic Compliance Matrix: (Units=1/GPa)
#
#
# Indices 1 2 3 4 5 6 
#
# 1 0.018823 -0.010601 -0.001179 0.000000 0.000000 -0.013259
# 2 -0.010601 0.018823 -0.001179 0.000000 0.000000 0.013259
# 3 -0.001179 -0.001179 0.012768 0.000000 0.000000 0.000000
# 4 0.000000 0.000000 0.000000 0.016505 0.000000 0.000000
# 5 0.000000 0.000000 0.000000 0.000000 0.016505 0.000000
# 6 -0.013259 0.013259 0.000000 0.000000 0.000000 0.058914
#
#
# Mechanical properties :
#
#
# Convention : Reuss Voigt Hill
#
# Bulk Modulus (GPa) = 40.82109 41.82765 41.32437
# Shear Modulus (GPa) = 28.34155 40.74738 34.54447
#
# Velocity S-wave (km/s) = 3.77542 4.52693 4.16815
# Velocity P-wave (km/s) = 6.28770 6.95417 6.62932
#
# Compressibility (1/GPa) = 0.02449714
#
# Stress axis : x y z
#
# Youngs Moduli (GPa) = 53.12750 53.12750 78.32009
#
# Poissons Ratio (x) = 0.56319 0.09232
# Poissons Ratio (y) = 0.56319 0.09232
# Poissons Ratio (z) = 0.06262 0.06262
#
# Static dielectric constant tensor:
#      x y z
#    x 1.343390 0.000000 0.000000 
#    y 0.000000 1.343390 0.000000 
#    z 0.000000 0.000000 1.714020 
# 
# From -- ./inp_files/3130.got.cif
#   From: 2010.05.17/outbox.cif.g08.bks.cpg/sg82_2_cif.got.tgz:3130.got - 2010.06.03 18:52:26.
