data_PCOD9542364
_publ_section_title
;
Structure prediction by ZEFSAII (Michael W. Deem and Ramdas Pophale) SiO2 
 PCOD9542364
Probable space group: P -4
;
_chemical_formula_sum "Si O2"
_cell_formula_units_Z 25
_cell_length_a 11.994991
_cell_length_b 11.994991
_cell_length_c 9.516861
_cell_angle_alpha 90.000000
_cell_angle_beta 90.000000
_cell_angle_gamma 90.000000
_cell_volume 1369.284144
_symmetry_space_group_name_H-M "P -4"
_symmetry_group_IT_number 81
_symmetry_cell_setting 'tetragonal'
loop_
_space_group_symop_operation_xyz
x,y,z
y,-x,-z
-x,-y,z
-y,x,-z
loop_
_atom_site_type_symbol
_atom_site_label
_atom_site_fract_x
_atom_site_fract_y
_atom_site_fract_z
Si Si1 0.878946 0.622768 0.806661
Si Si2 0.356281 0.289550 0.906953
Si Si3 0.121168 0.308387 0.495436
Si Si4 0.638086 0.876549 0.154807
Si Si5 0.872796 0.494579 0.293972
Si Si6 0.500000 0.500000 0.000000
Si Si7 0.876054 0.300566 0.519821
O O1 0.764001 0.684488 0.840029
O O2 0.892143 0.620183 0.637845
O O3 0.871658 0.495622 0.854036
O O4 0.993677 0.671479 0.872786
O O5 0.439139 0.210853 0.816354
O O6 0.422177 0.406776 0.924674
O O7 0.327065 0.220746 0.048744
O O8 0.151071 0.384589 0.361408
O O9 0.214467 0.218033 0.522299
O O10 0.998898 0.254759 0.483011
O O11 0.675038 0.858672 0.315530
O O12 0.870219 0.412161 0.427924
O O13 0.000000 0.500000 0.238412
#
# Coordination Sequence:
#
# PCOD9542364 Si02
#       7
#     4   4   4   4   4   1   4
#     4  10  20  39  62  83 116 160 195 239 295 354
#     4  12  24  40  58  87 127 151 196 249 291 357
#     4  10  20  37  60  86 115 148 199 241 298 347
#     4  10  22  38  61  84 116 160 197 232 301 359
#     4  10  22  37  61  88 112 153 205 244 285 355
#     4  12  28  36  52  94 128 152 184 238 304 356
#     4  10  20  38  59  85 113 152 194 247 290 355
#
# _framework density 18.257717
#
# number of rings (size 3 to 8) (size 9 to 14) (size 15 to 20)
#    0.000    1.600    4.800    0.000    4.480    0.320 
#    2.880    0.000    0.000    1.440    0.000    0.000 
#    0.000    0.000    0.000    0.000    0.000    0.000 
#
# Total GULP energy -139258.801381 kJ/mol
# GULP energy per Si atom -5570.352055 kJ/mol
# Density = 1.821616 g / cm^3
# Si number density = 18.257717 Si / 1000 Ang^3
#
#
#
# Elastic Constant Matrix: (Units=GPa)
#
#
# Indices 1 2 3 4 5 6 
#
# 1 76.1141 29.8208 18.4035 0.0000 0.0000 2.1427
# 2 29.8208 76.1141 18.4035 0.0000 0.0000 -2.1427
# 3 18.4035 18.4035 62.1156 0.0000 0.0000 0.0000
# 4 0.0000 0.0000 0.0000 19.7638 0.0000 0.0000
# 5 0.0000 0.0000 0.0000 0.0000 19.7638 0.0000
# 6 2.1427 -2.1427 0.0000 0.0000 0.0000 21.5979
#
#
#
# Elastic Compliance Matrix: (Units=1/GPa)
#
#
# Indices 1 2 3 4 5 6 
#
# 1 0.016162 -0.005639 -0.003118 0.000000 0.000000 -0.002163
# 2 -0.005639 0.016162 -0.003118 0.000000 0.000000 0.002163
# 3 -0.003118 -0.003118 0.017946 0.000000 0.000000 0.000000
# 4 0.000000 0.000000 0.000000 0.050597 0.000000 0.000000
# 5 0.000000 0.000000 0.000000 0.000000 0.050597 0.000000
# 6 -0.002163 0.002163 0.000000 0.000000 0.000000 0.046730
#
#
# Mechanical properties :
#
#
# Convention : Reuss Voigt Hill
#
# Bulk Modulus (GPa) = 37.70520 38.62214 38.16367
# Shear Modulus (GPa) = 21.66510 22.07286 21.86898
#
# Velocity S-wave (km/s) = 3.44848 3.48078 3.46467
# Velocity P-wave (km/s) = 6.04587 6.11181 6.07893
#
# Compressibility (1/GPa) = 0.02652154
#
# Stress axis : x y z
#
# Youngs Moduli (GPa) = 61.87235 61.87235 55.72134
#
# Poissons Ratio (x) = 0.34892 0.17372
# Poissons Ratio (y) = 0.34892 0.17372
# Poissons Ratio (z) = 0.19290 0.19290
#
# Static dielectric constant tensor:
#      x y z
#    x 1.629590 0.000000 0.000000 
#    y 0.000000 1.629590 0.000000 
#    z 0.000000 0.000000 1.657010 
# 
# From -- ./inp_files/893.got.cif
#   From: 2010.05.17/outbox.cif.g08.bks.cpg/sg81_cif.got.tgz:893.got - 2010.06.03 18:51:07.
