data_PCOD9542458
_publ_section_title
;
Structure prediction by ZEFSAII (Michael W. Deem and Ramdas Pophale) SiO2 
 PCOD9542458
Probable space group: P -4
;
_chemical_formula_sum "Si O2"
_cell_formula_units_Z 22
_cell_length_a 8.753520
_cell_length_b 8.753520
_cell_length_c 12.484854
_cell_angle_alpha 90.000000
_cell_angle_beta 90.000000
_cell_angle_gamma 90.000000
_cell_volume 956.640856
_symmetry_space_group_name_H-M "P -4"
_symmetry_group_IT_number 81
_symmetry_cell_setting 'tetragonal'
loop_
_space_group_symop_operation_xyz
x,y,z
y,-x,-z
-x,-y,z
-y,x,-z
loop_
_atom_site_type_symbol
_atom_site_label
_atom_site_fract_x
_atom_site_fract_y
_atom_site_fract_z
Si Si1 0.000000 0.500000 0.659255
Si Si2 0.283913 0.267125 0.299315
Si Si3 0.485302 0.185312 0.866699
Si Si4 0.098528 0.226554 0.503127
Si Si5 0.320943 0.809022 0.060987
Si Si6 0.919865 0.159500 0.868566
O O1 0.161653 0.564806 0.707454
O O2 0.056625 0.354558 0.589523
O O3 0.274707 0.411281 0.219612
O O4 0.218300 0.296247 0.417102
O O5 0.157900 0.157246 0.245771
O O6 0.316804 0.252971 0.860919
O O7 0.500000 0.000000 0.852661
O O8 0.528018 0.219369 0.992240
O O9 0.931877 0.175467 0.456912
O O10 0.303558 0.968346 0.121141
O O11 0.204102 0.826768 0.961188
O O12 0.000000 0.000000 0.883080
#
# Coordination Sequence:
#
# PCOD9542458 Si02
#       6
#     2   4   4   4   4   4
#     4  10  22  44  66  96 140 166 218 286 352 412
#     4  10  24  39  68 102 124 174 226 280 338 398
#     4  11  23  40  65  95 136 176 227 275 321 402
#     4   9  20  42  70  96 127 170 217 283 346 404
#     4  11  20  39  61  88 132 184 210 262 337 373
#     4  11  19  35  63  91 124 166 235 274 306 377
#
# _framework density 22.997136000000001
#
# number of rings (size 3 to 8) (size 9 to 14) (size 15 to 20)
#    0.000    1.636    3.636    1.091    6.364    3.273 
#    0.000    0.000    0.000   17.455    0.000    0.000 
#    0.000    0.000    0.000    0.000    0.000    0.000 
#
# Total GULP energy -122689.602582 kJ/mol
# GULP energy per Si atom -5576.800117 kJ/mol
# Density = 2.294479 g / cm^3
# Si number density = 22.997136 Si / 1000 Ang^3
#
#
#
# Elastic Constant Matrix: (Units=GPa)
#
#
# Indices 1 2 3 4 5 6 
#
# 1 68.1320 18.4729 11.3674 0.0000 0.0000 -0.9594
# 2 18.4729 68.1320 11.3674 0.0000 0.0000 0.9594
# 3 11.3674 11.3674 36.5823 0.0000 0.0000 0.0000
# 4 0.0000 0.0000 0.0000 22.4486 0.0000 0.0000
# 5 0.0000 0.0000 0.0000 0.0000 22.4486 0.0000
# 6 -0.9594 0.9594 0.0000 0.0000 0.0000 32.4211
#
#
#
# Elastic Compliance Matrix: (Units=1/GPa)
#
#
# Indices 1 2 3 4 5 6 
#
# 1 0.016366 -0.003794 -0.003907 0.000000 0.000000 0.000597
# 2 -0.003794 0.016366 -0.003907 0.000000 0.000000 -0.000597
# 3 -0.003907 -0.003907 0.029763 0.000000 0.000000 0.000000
# 4 0.000000 0.000000 0.000000 0.044546 0.000000 0.000000
# 5 0.000000 0.000000 0.000000 0.000000 0.044546 0.000000
# 6 0.000597 -0.000597 0.000000 0.000000 0.000000 0.030879
#
#
# Mechanical properties :
#
#
# Convention : Reuss Voigt Hill
#
# Bulk Modulus (GPa) = 25.45734 28.36240 26.90987
# Shear Modulus (GPa) = 22.85440 24.23957 23.54699
#
# Velocity S-wave (km/s) = 3.15587 3.25010 3.20333
# Velocity P-wave (km/s) = 4.93692 5.14237 5.04069
#
# Compressibility (1/GPa) = 0.03928140
#
# Stress axis : x y z
#
# Youngs Moduli (GPa) = 61.10117 61.10117 33.59828
#
# Poissons Ratio (x) = 0.23182 0.13126
# Poissons Ratio (y) = 0.23182 0.13126
# Poissons Ratio (z) = 0.23870 0.23870
#
# Static dielectric constant tensor:
#      x y z
#    x 1.908120 0.000000 0.000000 
#    y 0.000000 1.908120 0.000000 
#    z 0.000000 0.000000 1.905390 
# 
# From -- ./inp_files/1513.got.cif
#   From: 2010.05.17/outbox.cif.g08.bks.cpg/sg81_cif.got.tgz:1513.got - 2010.06.03 18:51:07.
