data_PCOD9542493
_publ_section_title
;
Structure prediction by ZEFSAII (Michael W. Deem and Ramdas Pophale) SiO2 
 PCOD9542493
Probable space group: P -4
;
_chemical_formula_sum "Si O2"
_cell_formula_units_Z 26
_cell_length_a 10.698329
_cell_length_b 10.698329
_cell_length_c 9.335568
_cell_angle_alpha 90.000000
_cell_angle_beta 90.000000
_cell_angle_gamma 90.000000
_cell_volume 1068.495372
_symmetry_space_group_name_H-M "P -4"
_symmetry_group_IT_number 81
_symmetry_cell_setting 'tetragonal'
loop_
_space_group_symop_operation_xyz
x,y,z
y,-x,-z
-x,-y,z
-y,x,-z
loop_
_atom_site_type_symbol
_atom_site_label
_atom_site_fract_x
_atom_site_fract_y
_atom_site_fract_z
Si Si1 0.122735 0.863798 0.935684
Si Si2 0.000000 0.000000 0.500000
Si Si3 0.500000 0.500000 0.000000
Si Si4 0.708217 0.007191 0.434882
Si Si5 0.637949 0.264747 0.969966
Si Si6 0.888030 0.676090 0.273846
Si Si7 0.735250 0.622067 0.692513
Si Si8 0.638987 0.734900 0.432140
O O1 0.210034 0.742954 0.960058
O O2 0.183353 0.913554 0.788203
O O3 0.974995 0.846766 0.949611
O O4 0.016322 0.140607 0.566658
O O5 0.433458 0.612993 0.915214
O O6 0.658317 0.015749 0.599501
O O7 0.652250 0.122343 0.349502
O O8 0.659513 0.876306 0.380084
O O9 0.613983 0.268007 0.137965
O O10 0.602865 0.143409 0.873373
O O11 0.756591 0.668226 0.357981
O O12 0.655943 0.723418 0.603013
O O13 0.691329 0.493051 0.622327
#
# Coordination Sequence:
#
# PCOD9542493 Si02
#       8
#     4   1   1   4   4   4   4   4
#     4   9  21  40  68 105 144 170 211 289 351 431
#     4  12  20  40  76 102 136 188 216 278 360 440
#     4  12  24  52  68  94 132 188 228 314 336 428
#     4  11  23  41  68 100 141 175 223 278 353 425
#     4  10  25  41  73  97 132 180 242 281 365 410
#     4   9  22  41  65 100 136 171 230 274 342 427
#     4  11  25  43  67  97 131 179 232 288 350 405
#     4  11  24  43  65  96 137 178 228 284 342 417
#
# _framework density 24.333285
#
# number of rings (size 3 to 8) (size 9 to 14) (size 15 to 20)
#    0.923    0.769    3.077    1.385    4.308    5.231 
#    0.000    0.769    0.000    0.000    0.000    0.000 
#    0.000    0.000    0.000    0.000    0.000    0.000 
#
# Total GULP energy -144852.681221 kJ/mol
# GULP energy per Si atom -5571.256970 kJ/mol
# Density = 2.427790 g / cm^3
# Si number density = 24.333285 Si / 1000 Ang^3
#
#
#
# Elastic Constant Matrix: (Units=GPa)
#
#
# Indices 1 2 3 4 5 6 
#
# 1 72.5875 9.2066 -0.4827 0.0000 0.0000 -1.4657
# 2 9.2066 72.5875 -0.4827 0.0000 0.0000 1.4657
# 3 -0.4827 -0.4827 115.1422 0.0000 0.0000 0.0000
# 4 0.0000 0.0000 0.0000 17.3406 0.0000 0.0000
# 5 0.0000 0.0000 0.0000 0.0000 17.3406 0.0000
# 6 -1.4657 1.4657 0.0000 0.0000 0.0000 38.6049
#
#
#
# Elastic Compliance Matrix: (Units=1/GPa)
#
#
# Indices 1 2 3 4 5 6 
#
# 1 0.014016 -0.001789 0.000051 0.000000 0.000000 0.000600
# 2 -0.001789 0.014016 0.000051 0.000000 0.000000 -0.000600
# 3 0.000051 0.000051 0.008685 0.000000 0.000000 0.000000
# 4 0.000000 0.000000 0.000000 0.057668 0.000000 0.000000
# 5 0.000000 0.000000 0.000000 0.000000 0.057668 0.000000
# 6 0.000600 -0.000600 0.000000 0.000000 0.000000 0.025949
#
#
# Mechanical properties :
#
#
# Convention : Reuss Voigt Hill
#
# Bulk Modulus (GPa) = 29.99109 30.75549 30.37329
# Shear Modulus (GPa) = 25.97523 31.46226 28.71875
#
# Velocity S-wave (km/s) = 3.27077 3.59969 3.43917
# Velocity P-wave (km/s) = 5.15905 5.47209 5.31787
#
# Compressibility (1/GPa) = 0.03334323
#
# Stress axis : x y z
#
# Youngs Moduli (GPa) = 71.34748 71.34748 115.13646
#
# Poissons Ratio (x) = 0.12768 -0.00590
# Poissons Ratio (y) = 0.12768 -0.00590
# Poissons Ratio (z) = -0.00366 -0.00366
#
# Static dielectric constant tensor:
#      x y z
#    x 1.973570 0.000000 0.000000 
#    y 0.000000 1.973570 0.000000 
#    z 0.000000 0.000000 2.028730 
# 
# From -- ./inp_files/917.got.cif
#   From: 2010.05.17/outbox.cif.g08.bks.cpg/sg81_cif.got.tgz:917.got - 2010.06.03 18:51:07.
