data_PCOD9542498
_publ_section_title
;
Structure prediction by ZEFSAII (Michael W. Deem and Ramdas Pophale) SiO2 
 PCOD9542498
Probable space group: P -4
;
_chemical_formula_sum "Si O2"
_cell_formula_units_Z 21
_cell_length_a 5.320591
_cell_length_b 5.320591
_cell_length_c 28.687372
_cell_angle_alpha 90.000000
_cell_angle_beta 90.000000
_cell_angle_gamma 90.000000
_cell_volume 812.101880
_symmetry_space_group_name_H-M "P -4"
_symmetry_group_IT_number 81
_symmetry_cell_setting 'tetragonal'
loop_
_space_group_symop_operation_xyz
x,y,z
y,-x,-z
-x,-y,z
-y,x,-z
loop_
_atom_site_type_symbol
_atom_site_label
_atom_site_fract_x
_atom_site_fract_y
_atom_site_fract_z
Si Si1 0.500000 0.500000 0.153086
Si Si2 0.826540 0.793473 0.078381
Si Si3 0.249237 0.829942 0.228598
Si Si4 0.170379 0.248536 0.669952
Si Si5 0.000000 0.000000 0.500000
Si Si6 0.500000 0.000000 0.000051
Si Si7 0.658505 0.262651 0.431813
O O1 0.679041 0.659713 0.119305
O O2 0.306849 0.645427 0.186429
O O3 0.610266 0.809358 0.038454
O O4 0.000000 0.000000 0.103074
O O5 0.040702 0.708245 0.040836
O O6 0.237864 0.697478 0.279587
O O7 0.500000 0.000000 0.229240
O O8 0.000000 0.000000 0.223547
O O9 0.317804 0.259355 0.621541
O O10 0.000000 0.500000 0.670574
O O11 0.000000 0.000000 0.667496
O O12 0.888951 0.209906 0.465890
O O13 0.500000 0.500000 0.447365
O O14 0.500000 0.000000 0.431745
#
# Coordination Sequence:
#
# PCOD9542498 Si02
#       7
#     2   4   4   4   1   2   4
#     4  12  30  47  82 120 152 216 257 330 422 488
#     4  12  27  49  76 110 154 196 262 328 395 485
#     4  10  25  50  79 113 165 206 268 338 407 494
#     4   9  19  46  78 114 152 214 277 339 411 500
#     4  12  28  48  76 124 176 224 292 368 436 518
#     4  12  22  52  74 102 142 206 252 320 398 484
#     4  11  27  47  79 117 168 226 288 356 433 510
#
# _framework density 25.858823999999998
#
# number of rings (size 3 to 8) (size 9 to 14) (size 15 to 20)
#    0.000    1.143    2.857    1.143    5.333    3.048 
#    0.000    0.000    0.000    0.000    0.000    0.000 
#    0.000    0.000    0.000    0.000    0.000    0.000 
#
# Total GULP energy -117140.643929 kJ/mol
# GULP energy per Si atom -5578.125901 kJ/mol
# Density = 2.579997 g / cm^3
# Si number density = 25.858824 Si / 1000 Ang^3
#
#
#
# Elastic Constant Matrix: (Units=GPa)
#
#
# Indices 1 2 3 4 5 6 
#
# 1 122.5844 53.0340 66.8422 0.0000 0.0000 1.2743
# 2 53.0340 122.5844 66.8422 0.0000 0.0000 -1.2743
# 3 66.8422 66.8422 276.0044 0.0000 0.0000 0.0000
# 4 0.0000 0.0000 0.0000 -152.4035 0.0000 0.0000
# 5 0.0000 0.0000 0.0000 0.0000 -152.4035 0.0000
# 6 1.2743 -1.2743 0.0000 0.0000 0.0000 44.8786
#
#
#
# Elastic Compliance Matrix: (Units=1/GPa)
#
#
# Indices 1 2 3 4 5 6 
#
# 1 0.010687 -0.003706 -0.001691 0.000000 0.000000 -0.000409
# 2 -0.003706 0.010687 -0.001691 0.000000 0.000000 0.000409
# 3 -0.001691 -0.001691 0.004442 0.000000 0.000000 0.000000
# 4 0.000000 0.000000 0.000000 -0.006562 0.000000 0.000000
# 5 0.000000 0.000000 0.000000 0.000000 -0.006562 0.000000
# 6 -0.000409 0.000409 0.000000 0.000000 0.000000 0.022306
#
#
# Mechanical properties :
#
#
# Convention : Reuss Voigt Hill
#
# Bulk Modulus (GPa) = 85.89892 99.40112 92.65002
# Shear Modulus (GPa) = 94.24389 -29.68868 32.27761
#
# Velocity S-wave (km/s) = 6.04356 -3.39205 3.53685
# Velocity P-wave (km/s) = 9.05484 4.81477 7.25163
#
# Compressibility (1/GPa) = 0.01164159
#
# Stress axis : x y z
#
# Youngs Moduli (GPa) = 93.57085 93.57085 225.12269
#
# Poissons Ratio (x) = 0.34677 0.38061
# Poissons Ratio (y) = 0.34677 0.38061
# Poissons Ratio (z) = 0.15820 0.15820
#
# Static dielectric constant tensor:
#      x y z
#    x 1.982930 0.000000 0.000000 
#    y 0.000000 1.982930 0.000000 
#    z 0.000000 0.000000 1.957840 
# 
# From -- ./inp_files/1924.got.cif
#   From: 2010.05.17/outbox.cif.g08.bks.cpg/sg81_cif.got.tgz:1924.got - 2010.06.03 18:51:07.
