data_PCOD9542598
_publ_section_title
;
Structure prediction by ZEFSAII (Michael W. Deem and Ramdas Pophale) SiO2 
 PCOD9542598
Probable space group: P -4
;
_chemical_formula_sum "Si O2"
_cell_formula_units_Z 17
_cell_length_a 11.756832
_cell_length_b 11.756832
_cell_length_c 4.782080
_cell_angle_alpha 90.000000
_cell_angle_beta 90.000000
_cell_angle_gamma 90.000000
_cell_volume 660.993916
_symmetry_space_group_name_H-M "P -4"
_symmetry_group_IT_number 81
_symmetry_cell_setting 'tetragonal'
loop_
_space_group_symop_operation_xyz
x,y,z
y,-x,-z
-x,-y,z
-y,x,-z
loop_
_atom_site_type_symbol
_atom_site_label
_atom_site_fract_x
_atom_site_fract_y
_atom_site_fract_z
Si Si1 0.500000 0.500000 0.000000
Si Si2 0.236881 0.963486 0.619561
Si Si3 0.739373 0.441975 0.714292
Si Si4 0.770562 0.889747 0.130325
Si Si5 0.866774 0.536637 0.202946
O O1 0.462341 0.390994 0.191467
O O2 0.129910 0.894202 0.734622
O O3 0.335985 0.877587 0.699642
O O4 0.261518 0.996830 0.302476
O O5 0.236592 0.078447 0.805671
O O6 0.792482 0.320599 0.801252
O O7 0.778089 0.467343 0.397535
O O8 0.817155 0.527266 0.895323
O O9 0.000000 0.500000 0.216084
#
# Coordination Sequence:
#
# PCOD9542598 Si02
#       5
#     1   4   4   4   4
#     4  12  32  50  76 122 168 198 248 330 420 478
#     4  12  26  43  71 102 140 184 246 301 374 445
#     4  12  26  48  75 109 151 199 249 313 391 459
#     4  12  25  45  68 103 139 188 242 306 370 447
#     4  12  23  47  79 103 140 198 261 309 357 463
#
# _framework density 25.718845000000002
#
# number of rings (size 3 to 8) (size 9 to 14) (size 15 to 20)
#    0.000    0.000    4.706    4.941    0.000    9.412 
#    0.000    0.000    0.000    0.000    0.000    0.000 
#    0.000    0.000    0.000    0.000    0.000    0.000 
#
# Total GULP energy -95101.085352 kJ/mol
# GULP energy per Si atom -5594.181491 kJ/mol
# Density = 2.566031 g / cm^3
# Si number density = 25.718845 Si / 1000 Ang^3
#
#
#
# Elastic Constant Matrix: (Units=GPa)
#
#
# Indices 1 2 3 4 5 6 
#
# 1 76.2899 54.9928 -1.1802 0.0000 0.0000 -26.1209
# 2 54.9928 76.2899 -1.1802 0.0000 0.0000 26.1209
# 3 -1.1802 -1.1802 95.0400 0.0000 0.0000 0.0000
# 4 0.0000 0.0000 0.0000 23.2720 0.0000 0.0000
# 5 0.0000 0.0000 0.0000 0.0000 23.2720 0.0000
# 6 -26.1209 26.1209 0.0000 0.0000 0.0000 50.9128
#
#
#
# Elastic Compliance Matrix: (Units=1/GPa)
#
#
# Indices 1 2 3 4 5 6 
#
# 1 -0.087007 0.094626 0.000095 0.000000 0.000000 -0.093187
# 2 0.094626 -0.087007 0.000095 0.000000 0.000000 0.093187
# 3 0.000095 0.000095 0.010524 0.000000 0.000000 0.000000
# 4 0.000000 0.000000 0.000000 0.042970 0.000000 0.000000
# 5 0.000000 0.000000 0.000000 0.000000 0.042970 0.000000
# 6 -0.093187 0.093187 0.000000 0.000000 0.000000 -0.075978
#
#
# Mechanical properties :
#
#
# Convention : Reuss Voigt Hill
#
# Bulk Modulus (GPa) = 38.25498 39.20938 38.73218
# Shear Modulus (GPa) = -14.95012 32.49055 8.77022
#
# Velocity S-wave (km/s) = -2.41361 3.55815 1.84863
# Velocity P-wave (km/s) = 2.67193 5.67089 4.43273
#
# Compressibility (1/GPa) = 0.02614039
#
# Stress axis : x y z
#
# Youngs Moduli (GPa) = -11.49330 -11.49330 95.01881
#
# Poissons Ratio (x) = 1.08757 -0.00899
# Poissons Ratio (y) = 1.08757 -0.00899
# Poissons Ratio (z) = 0.00109 0.00109
#
# Static dielectric constant tensor:
#      x y z
#    x 2.091750 0.000000 0.000000 
#    y 0.000000 2.091750 0.000000 
#    z 0.000000 0.000000 2.030910 
# 
# From -- ./inp_files/121.got.cif
#   From: 2010.05.17/outbox.cif.g08.bks.cpg/sg81_cif.got.tgz:121.got - 2010.06.03 18:51:07.
