data_PCOD9542810
_publ_section_title
;
Structure prediction by ZEFSAII (Michael W. Deem and Ramdas Pophale) SiO2 
 PCOD9542810
Probable space group: I -4 
;
_chemical_formula_sum "Si O2"
_cell_formula_units_Z 40
_cell_length_a 14.857295
_cell_length_b 14.857295
_cell_length_c 8.406616
_cell_angle_alpha 90.000000
_cell_angle_beta 90.000000
_cell_angle_gamma 90.000000
_cell_volume 1855.669814
_symmetry_space_group_name_H-M "I -4 "
_symmetry_group_IT_number 82
_symmetry_cell_setting 'tetragonal'
loop_
_space_group_symop_operation_xyz
x,y,z
y,-x,-z
-x,-y,z
-y,x,-z
1/2+x,1/2+y,1/2+z
1/2+y,1/2-x,1/2-z
1/2-x,1/2-y,1/2+z
1/2-y,1/2+x,1/2-z
loop_
_atom_site_type_symbol
_atom_site_label
_atom_site_fract_x
_atom_site_fract_y
_atom_site_fract_z
Si Si1 0.853971 0.683465 0.875573
Si Si2 0.368622 0.555756 0.045156
Si Si3 0.823326 0.772274 0.202893
Si Si4 0.594936 0.096490 0.674668
Si Si5 0.179524 0.521154 0.889740
O O1 0.778746 0.701433 0.740735
O O2 0.830656 0.583006 0.931318
O O3 0.950801 0.678366 0.793036
O O4 0.844686 0.754276 0.018362
O O5 0.343243 0.610215 0.206775
O O6 0.450618 0.602441 0.949031
O O7 0.275510 0.555197 0.951599
O O8 0.835751 0.673927 0.282899
O O9 0.495347 0.120555 0.729410
O O10 0.602802 0.071345 0.490423
#
# Coordination Sequence:
#
# PCOD9542810 Si02
#       5
#     8   8   8   8   8
#     4  12  26  45  68 104 140 190 234 300 357 429
#     4  10  21  44  73 101 138 186 233 290 352 421
#     4  11  23  44  69 100 140 186 237 288 359 424
#     4  10  21  38  67  98 135 181 226 284 354 423
#     4  11  25  42  66 102 139 181 236 288 358 426
#
# _framework density 21.555558999999999
#
# number of rings (size 3 to 8) (size 9 to 14) (size 15 to 20)
#    0.000    1.200    4.000    2.400    2.800    0.400 
#    3.600    0.000    0.000    2.400    0.000    0.000 
#    0.000    0.000    0.000    0.000    0.000    0.000 
#
# Total GULP energy -111665.570571 kJ/mol
# GULP energy per Si atom -5583.278529 kJ/mol
# Density = 2.150650 g / cm^3
# Si number density = 21.555559 Si / 1000 Ang^3
#
#
#
# Elastic Constant Matrix: (Units=GPa)
#
#
# Indices 1 2 3 4 5 6 
#
# 1 77.5567 27.2426 26.7851 0.0000 0.0000 -3.1920
# 2 27.2426 77.5567 26.7851 0.0000 0.0000 3.1920
# 3 26.7851 26.7851 85.2292 0.0000 0.0000 0.0000
# 4 0.0000 0.0000 0.0000 34.5842 0.0000 0.0000
# 5 0.0000 0.0000 0.0000 0.0000 34.5842 0.0000
# 6 -3.1920 3.1920 0.0000 0.0000 0.0000 31.5558
#
#
#
# Elastic Compliance Matrix: (Units=1/GPa)
#
#
# Indices 1 2 3 4 5 6 
#
# 1 0.015751 -0.004383 -0.003573 0.000000 0.000000 0.002037
# 2 -0.004383 0.015751 -0.003573 0.000000 0.000000 -0.002037
# 3 -0.003573 -0.003573 0.013979 0.000000 0.000000 0.000000
# 4 0.000000 0.000000 0.000000 0.028915 0.000000 0.000000
# 5 0.000000 0.000000 0.000000 0.000000 0.028915 0.000000
# 6 0.002037 -0.002037 0.000000 0.000000 0.000000 0.032102
#
#
# Mechanical properties :
#
#
# Convention : Reuss Voigt Hill
#
# Bulk Modulus (GPa) = 44.59433 44.66314 44.62873
# Shear Modulus (GPa) = 30.13076 30.78015 30.45545
#
# Velocity S-wave (km/s) = 3.74280 3.78292 3.76291
# Velocity P-wave (km/s) = 6.27782 6.31234 6.29510
#
# Compressibility (1/GPa) = 0.02242438
#
# Stress axis : x y z
#
# Youngs Moduli (GPa) = 63.48830 63.48830 71.53743
#
# Poissons Ratio (x) = 0.27824 0.25559
# Poissons Ratio (y) = 0.27824 0.25559
# Poissons Ratio (z) = 0.22683 0.22683
#
# Static dielectric constant tensor:
#      x y z
#    x 1.764390 0.000000 0.000000 
#    y 0.000000 1.764390 0.000000 
#    z 0.000000 0.000000 1.835850 
# 
# From -- ./inp_files/927.got.cif
#   From: 2010.05.17/outbox.cif.g08.bks.cpg/sg82_1_cif.got.tgz:927.got - 2010.06.03 18:52:26.
