data_PCOD9542400
_publ_section_title
;
Structure prediction by ZEFSAII (Michael W. Deem and Ramdas Pophale) SiO2 
 PCOD9542400
Probable space group: P -4
;
_chemical_formula_sum "Si O2"
_cell_formula_units_Z 14
_cell_length_a 7.096649
_cell_length_b 7.096649
_cell_length_c 9.786072
_cell_angle_alpha 90.000000
_cell_angle_beta 90.000000
_cell_angle_gamma 90.000000
_cell_volume 492.850337
_symmetry_space_group_name_H-M "P -4"
_symmetry_group_IT_number 81
_symmetry_cell_setting 'tetragonal'
loop_
_space_group_symop_operation_xyz
x,y,z
y,-x,-z
-x,-y,z
-y,x,-z
loop_
_atom_site_type_symbol
_atom_site_label
_atom_site_fract_x
_atom_site_fract_y
_atom_site_fract_z
Si Si1 0.839215 0.231422 0.199903
Si Si2 0.343824 0.743576 0.781537
Si Si3 0.184999 0.255020 0.511127
Si Si4 0.000000 0.000000 0.000000
Si Si5 0.500000 0.500000 0.000000
O O1 0.812466 0.449272 0.178251
O O2 0.704295 0.190711 0.328030
O O3 0.070314 0.209633 0.219513
O O4 0.818434 0.092844 0.074889
O O5 0.350496 0.707687 0.615869
O O6 0.336926 0.576036 0.893244
O O7 0.960912 0.258431 0.485570
#
# Coordination Sequence:
#
# PCOD9542400 Si02
#       5
#     4   4   4   1   1
#     4  10  21  37  60  90 122 162 214 260 310 375
#     4  10  22  38  57  87 126 166 210 257 313 378
#     4   9  18  37  63  88 116 157 209 264 314 370
#     4  12  20  36  66  96 128 164 204 266 324 372
#     4  12  24  40  58  88 136 172 200 258 328 380
#
# _framework density 28.406186999999999
#
# number of rings (size 3 to 8) (size 9 to 14) (size 15 to 20)
#    0.000    2.000    0.000    5.143    0.000    2.286 
#    0.000    0.000    0.000    3.429    0.000    0.000 
#    0.000    0.000    0.000    0.000    0.000    0.000 
#
# Total GULP energy -77959.418053 kJ/mol
# GULP energy per Si atom -5568.529861 kJ/mol
# Density = 2.834153 g / cm^3
# Si number density = 28.406187 Si / 1000 Ang^3
#
#
#
# Elastic Constant Matrix: (Units=GPa)
#
#
# Indices 1 2 3 4 5 6 
#
# 1 66.4295 12.8411 45.3361 0.0000 0.0000 -2.6851
# 2 12.8411 66.4295 45.3361 0.0000 0.0000 2.6851
# 3 45.3361 45.3361 251.8927 0.0000 0.0000 0.0000
# 4 0.0000 0.0000 0.0000 52.1633 0.0000 0.0000
# 5 0.0000 0.0000 0.0000 0.0000 52.1633 0.0000
# 6 -2.6851 2.6851 0.0000 0.0000 0.0000 30.9758
#
#
#
# Elastic Compliance Matrix: (Units=1/GPa)
#
#
# Indices 1 2 3 4 5 6 
#
# 1 0.017355 -0.001469 -0.002859 0.000000 0.000000 0.001632
# 2 -0.001469 0.017355 -0.002859 0.000000 0.000000 -0.001632
# 3 -0.002859 -0.002859 0.004999 0.000000 0.000000 0.000000
# 4 0.000000 0.000000 0.000000 0.019171 0.000000 0.000000
# 5 0.000000 0.000000 0.000000 0.000000 0.019171 0.000000
# 6 0.001632 -0.001632 0.000000 0.000000 0.000000 0.032566
#
#
# Mechanical properties :
#
#
# Convention : Reuss Voigt Hill
#
# Bulk Modulus (GPa) = 39.47352 65.75313 52.61332
# Shear Modulus (GPa) = 37.47127 45.80973 41.64050
#
# Velocity S-wave (km/s) = 3.63591 4.02016 3.83286
# Velocity P-wave (km/s) = 5.61718 6.68929 6.17654
#
# Compressibility (1/GPa) = 0.02533344
#
# Stress axis : x y z
#
# Youngs Moduli (GPa) = 57.62103 57.62103 200.03593
#
# Poissons Ratio (x) = 0.08467 0.57191
# Poissons Ratio (y) = 0.08467 0.57191
# Poissons Ratio (z) = 0.16474 0.16474
#
# Static dielectric constant tensor:
#      x y z
#    x 2.370140 0.000000 0.000000 
#    y 0.000000 2.370140 0.000000 
#    z 0.000000 0.000000 3.140380 
# 
# From -- ./inp_files/509.got.cif
#   From: 2010.05.17/outbox.cif.g08.bks.cpg/sg81_cif.got.tgz:509.got - 2010.06.03 18:51:07.
