data_PCOD9542130
_publ_section_title
;
Structure prediction by ZEFSAII (Michael W. Deem and Ramdas Pophale) SiO2 
 PCOD9542130
Probable space group: I 41
;
_chemical_formula_sum "Si O2"
_cell_formula_units_Z 60
_cell_length_a 17.306351
_cell_length_b 17.306351
_cell_length_c 9.323894
_cell_angle_alpha 90.000000
_cell_angle_beta 90.000000
_cell_angle_gamma 90.000000
_cell_volume 2792.597487
_symmetry_space_group_name_H-M "I 41"
_symmetry_group_IT_number 80
_symmetry_cell_setting 'tetragonal'
loop_
_space_group_symop_operation_xyz
x,y,z
-y,1/2+x,1/4+z
-x,-y,z
y,1/2-x,1/4+z
1/2+x,1/2+y,1/2+z
1/2-y,x,3/4+z
1/2-x,1/2-y,1/2+z
1/2+y,-x,3/4+z
loop_
_atom_site_type_symbol
_atom_site_label
_atom_site_fract_x
_atom_site_fract_y
_atom_site_fract_z
Si Si1 0.994335 0.712814 0.605940
Si Si2 0.399277 0.926449 0.051377
Si Si3 0.468278 0.868361 0.609553
Si Si4 0.974816 0.113515 0.623053
Si Si5 0.754240 0.160756 0.978063
Si Si6 0.843938 0.916214 0.644114
Si Si7 0.000000 0.500000 0.329920
Si Si8 0.246097 0.326199 0.755668
O O1 0.968421 0.679148 0.759006
O O2 0.915583 0.730507 0.520837
O O3 0.046392 0.648522 0.532343
O O4 0.036949 0.794106 0.630112
O O5 0.410792 0.959747 0.209802
O O6 0.313287 0.894559 0.037444
O O7 0.426417 0.988192 0.933776
O O8 0.430858 0.920342 0.482909
O O9 0.397977 0.819013 0.671409
O O10 0.537231 0.819666 0.535705
O O11 0.502489 0.925640 0.728274
O O12 0.064024 0.096492 0.657589
O O13 0.716575 0.210646 0.849444
O O14 0.813001 0.831980 0.600997
O O15 0.225834 0.306896 0.592218
#
# Coordination Sequence:
#
# PCOD9542130 Si02
#       8
#     8   8   8   8   8   8   4   8
#     4  10  22  39  70  98 128 178 230 289 337 431
#     4  12  25  47  67 105 140 187 238 298 364 433
#     4  12  25  46  67 100 140 192 238 303 362 441
#     4  11  23  40  72  96 131 183 239 284 357 434
#     4  12  30  48  69 106 150 195 244 303 380 454
#     4  10  20  41  68  99 126 171 241 278 345 414
#     4  12  26  46  70 100 150 178 242 312 354 426
#     4   9  20  42  64  98 131 167 219 276 338 410
#
# _framework density 21.485374
#
# number of rings (size 3 to 8) (size 9 to 14) (size 15 to 20)
#    0.000    1.067    4.000    1.600    5.600    0.000 
#    4.800    1.333    0.000    0.000    0.000    0.000 
#    0.000    0.000    0.000    0.000    0.000    0.000 
#
# Total GULP energy -167773.281337 kJ/mol
# GULP energy per Si atom -5592.442711 kJ/mol
# Density = 2.143647 g / cm^3
# Si number density = 21.485374 Si / 1000 Ang^3
#
#
#
# Elastic Constant Matrix: (Units=GPa)
#
#
# Indices 1 2 3 4 5 6 
#
# 1 39.2469 26.6210 18.9363 0.0000 0.0000 -0.3453
# 2 26.6210 39.2469 18.9363 0.0000 0.0000 0.3453
# 3 18.9363 18.9363 77.9609 0.0000 0.0000 0.0000
# 4 0.0000 0.0000 0.0000 35.2724 0.0000 0.0000
# 5 0.0000 0.0000 0.0000 0.0000 35.2724 0.0000
# 6 -0.3453 0.3453 0.0000 0.0000 0.0000 39.4701
#
#
#
# Elastic Compliance Matrix: (Units=1/GPa)
#
#
# Indices 1 2 3 4 5 6 
#
# 1 0.048443 -0.030797 -0.004286 0.000000 0.000000 0.000693
# 2 -0.030797 0.048443 -0.004286 0.000000 0.000000 -0.000693
# 3 -0.004286 -0.004286 0.014909 0.000000 0.000000 0.000000
# 4 0.000000 0.000000 0.000000 0.028351 0.000000 0.000000
# 5 0.000000 0.000000 0.000000 0.000000 0.028351 0.000000
# 6 0.000693 -0.000693 0.000000 0.000000 0.000000 0.025348
#
#
# Mechanical properties :
#
#
# Convention : Reuss Voigt Hill
#
# Bulk Modulus (GPa) = 30.25076 31.71577 30.98326
# Shear Modulus (GPa) = 17.63030 28.13373 22.88201
#
# Velocity S-wave (km/s) = 2.86767 3.62254 3.26698
# Velocity P-wave (km/s) = 5.00749 5.68249 5.35563
#
# Compressibility (1/GPa) = 0.03305703
#
# Stress axis : x y z
#
# Youngs Moduli (GPa) = 20.64270 20.64270 67.07296
#
# Poissons Ratio (x) = 0.63573 0.28749
# Poissons Ratio (y) = 0.63573 0.28749
# Poissons Ratio (z) = 0.08848 0.08848
#
# Static dielectric constant tensor:
#      x y z
#    x 1.797570 0.000000 0.000000 
#    y 0.000000 1.797570 0.000000 
#    z 0.000000 0.000000 1.769650 
# 
# From -- ./inp_files/745.got.cif
#   From: 2010.05.17/outbox.cif.g08.bks.cpg/sg80_cif.got.tgz:745.got - 2010.06.03 18:49:13.
