data_PCOD9542071
_publ_section_title
;
Structure prediction by ZEFSAII (Michael W. Deem and Ramdas Pophale) SiO2 
 PCOD9542071
Probable space group: I 41
;
_chemical_formula_sum "Si O2"
_cell_formula_units_Z 60
_cell_length_a 11.478091
_cell_length_b 11.478091
_cell_length_c 21.005108
_cell_angle_alpha 90.000000
_cell_angle_beta 90.000000
_cell_angle_gamma 90.000000
_cell_volume 2767.350995
_symmetry_space_group_name_H-M "I 41"
_symmetry_group_IT_number 80
_symmetry_cell_setting 'tetragonal'
loop_
_space_group_symop_operation_xyz
x,y,z
-y,1/2+x,1/4+z
-x,-y,z
y,1/2-x,1/4+z
1/2+x,1/2+y,1/2+z
1/2-y,x,3/4+z
1/2-x,1/2-y,1/2+z
1/2+y,-x,3/4+z
loop_
_atom_site_type_symbol
_atom_site_label
_atom_site_fract_x
_atom_site_fract_y
_atom_site_fract_z
Si Si1 0.278862 0.228124 0.460770
Si Si2 0.968432 0.693041 0.482724
Si Si3 0.500000 0.500000 0.629200
Si Si4 0.665271 0.163654 0.794202
Si Si5 0.851944 0.918844 0.373044
Si Si6 0.609698 0.335079 0.901178
Si Si7 0.489258 0.138370 0.688592
Si Si8 0.363178 0.497557 0.287639
O O1 0.146964 0.226845 0.486735
O O2 0.256543 0.161067 0.393944
O O3 0.316425 0.361042 0.452960
O O4 0.376424 0.177417 0.506835
O O5 0.972407 0.643791 0.552883
O O6 0.949388 0.597463 0.427202
O O7 0.086705 0.758747 0.463761
O O8 0.436189 0.593899 0.584393
O O9 0.678363 0.264874 0.846925
O O10 0.580798 0.198388 0.735942
O O11 0.780903 0.104193 0.765350
O O12 0.974127 0.850432 0.378531
O O13 0.847802 0.035457 0.415703
O O14 0.506842 0.153664 0.613672
O O15 0.500000 0.000000 0.700655
O O16 0.500000 0.500000 0.273966
#
# Coordination Sequence:
#
# PCOD9542071 Si02
#       8
#     8   8   4   8   8   8   8   8
#     4  11  21  40  64  90 126 166 212 259 332 402
#     4  10  20  34  62  95 125 164 204 260 330 388
#     4  10  18  32  62 106 132 154 212 280 346 396
#     4  11  20  39  62  97 132 167 215 281 344 389
#     4  10  20  39  60  89 130 169 209 261 324 394
#     4   9  21  36  59  93 128 165 212 267 314 388
#     4  11  21  38  66  92 123 163 215 278 339 394
#     4  11  25  42  60  92 128 172 219 271 326 398
#
# _framework density 21.681384000000001
#
# number of rings (size 3 to 8) (size 9 to 14) (size 15 to 20)
#    0.000    1.600    2.000    3.200    0.000    4.267 
#    4.800    0.000    5.867    0.000    0.000    0.000 
#    0.000    0.000    0.000    0.000    0.000    0.000 
#
# Total GULP energy -167430.180128 kJ/mol
# GULP energy per Si atom -5581.006004 kJ/mol
# Density = 2.163204 g / cm^3
# Si number density = 21.681384 Si / 1000 Ang^3
#
#
#
# Elastic Constant Matrix: (Units=GPa)
#
#
# Indices 1 2 3 4 5 6 
#
# 1 99.8604 39.8303 19.1407 0.0000 0.0000 -13.4804
# 2 39.8303 99.8604 19.1407 0.0000 0.0000 13.4804
# 3 19.1407 19.1407 73.7165 0.0000 0.0000 0.0000
# 4 0.0000 0.0000 0.0000 13.1702 0.0000 0.0000
# 5 0.0000 0.0000 0.0000 0.0000 13.1702 0.0000
# 6 -13.4804 13.4804 0.0000 0.0000 0.0000 26.4943
#
#
#
# Elastic Compliance Matrix: (Units=1/GPa)
#
#
# Indices 1 2 3 4 5 6 
#
# 1 0.014650 -0.006943 -0.002001 0.000000 0.000000 0.010986
# 2 -0.006943 0.014650 -0.002001 0.000000 0.000000 -0.010986
# 3 -0.002001 -0.002001 0.014605 0.000000 0.000000 0.000000
# 4 0.000000 0.000000 0.000000 0.075929 0.000000 0.000000
# 5 0.000000 0.000000 0.000000 0.000000 0.075929 0.000000
# 6 0.010986 -0.010986 0.000000 0.000000 0.000000 0.048924
#
#
# Mechanical properties :
#
#
# Convention : Reuss Voigt Hill
#
# Bulk Modulus (GPa) = 45.42524 47.74009 46.58267
# Shear Modulus (GPa) = 18.25388 23.58864 20.92126
#
# Velocity S-wave (km/s) = 2.90473 3.30201 3.10972
# Velocity P-wave (km/s) = 5.67861 6.05016 5.86733
#
# Compressibility (1/GPa) = 0.02201419
#
# Stress axis : x y z
#
# Youngs Moduli (GPa) = 68.26041 68.26041 68.47107
#
# Poissons Ratio (x) = 0.47391 0.13702
# Poissons Ratio (y) = 0.47391 0.13702
# Poissons Ratio (z) = 0.13660 0.13660
#
# Static dielectric constant tensor:
#      x y z
#    x 1.849220 0.000000 0.000000 
#    y 0.000000 1.849220 0.000000 
#    z 0.000000 0.000000 1.861810 
# 
# From -- ./inp_files/1860.got.cif
#   From: 2010.05.17/outbox.cif.g08.bks.cpg/sg80_cif.got.tgz:1860.got - 2010.06.03 18:49:13.
