data_PCOD9542601
_publ_section_title
;
Structure prediction by ZEFSAII (Michael W. Deem and Ramdas Pophale) SiO2 
 PCOD9542601
Probable space group: P -4
;
_chemical_formula_sum "Si O2"
_cell_formula_units_Z 15
_cell_length_a 8.701817
_cell_length_b 8.701817
_cell_length_c 7.443469
_cell_angle_alpha 90.000000
_cell_angle_beta 90.000000
_cell_angle_gamma 90.000000
_cell_volume 563.631524
_symmetry_space_group_name_H-M "P -4"
_symmetry_group_IT_number 81
_symmetry_cell_setting 'tetragonal'
loop_
_space_group_symop_operation_xyz
x,y,z
y,-x,-z
-x,-y,z
-y,x,-z
loop_
_atom_site_type_symbol
_atom_site_label
_atom_site_fract_x
_atom_site_fract_y
_atom_site_fract_z
Si Si1 0.000000 0.000000 0.500000
Si Si2 0.695192 0.224260 0.099829
Si Si3 0.106182 0.724554 0.752141
Si Si4 0.434906 0.168422 0.608795
Si Si5 0.500000 0.500000 0.500000
Si Si6 0.500000 0.500000 0.000000
O O1 0.125956 0.073533 0.369630
O O2 0.801658 0.294437 0.256714
O O3 0.670499 0.049132 0.150663
O O4 0.775529 0.231630 0.906851
O O5 0.549734 0.338160 0.089981
O O6 0.151385 0.604032 0.600134
O O7 0.519197 0.336688 0.607036
O O8 0.500000 0.000000 0.661474
#
# Coordination Sequence:
#
# PCOD9542601 Si02
#       6
#     1   4   4   4   1   1
#     4  12  24  54  80 120 162 224 288 374 452 532
#     4  12  30  52  81 122 166 223 292 362 447 534
#     4  12  28  50  82 118 165 222 286 364 445 532
#     4  12  30  51  84 124 171 229 292 366 449 534
#     4  12  30  56  86 130 180 234 298 372 450 546
#     4  12  34  52  86 122 172 234 294 372 446 538
#
# _framework density 26.613133000000001
#
# number of rings (size 3 to 8) (size 9 to 14) (size 15 to 20)
#    0.000    0.000    2.667    4.000   14.933    0.000 
#    0.000    0.000    0.000    0.000    0.000    0.000 
#    0.000    0.000    0.000    0.000    0.000    0.000 
#
# Total GULP energy -84044.424596 kJ/mol
# GULP energy per Si atom -5602.961640 kJ/mol
# Density = 2.655256 g / cm^3
# Si number density = 26.613133 Si / 1000 Ang^3
#
#
#
# Elastic Constant Matrix: (Units=GPa)
#
#
# Indices 1 2 3 4 5 6 
#
# 1 135.1199 45.8840 47.7276 0.0000 0.0000 7.3824
# 2 45.8840 135.1199 47.7276 0.0000 0.0000 -7.3824
# 3 47.7276 47.7276 164.8058 0.0000 0.0000 0.0000
# 4 0.0000 0.0000 0.0000 42.9193 0.0000 0.0000
# 5 0.0000 0.0000 0.0000 0.0000 42.9193 0.0000
# 6 7.3824 -7.3824 0.0000 0.0000 0.0000 42.6203
#
#
#
# Elastic Compliance Matrix: (Units=1/GPa)
#
#
# Indices 1 2 3 4 5 6 
#
# 1 0.009029 -0.002508 -0.001888 0.000000 0.000000 -0.001998
# 2 -0.002508 0.009029 -0.001888 0.000000 0.000000 0.001998
# 3 -0.001888 -0.001888 0.007161 0.000000 0.000000 0.000000
# 4 0.000000 0.000000 0.000000 0.023300 0.000000 0.000000
# 5 0.000000 0.000000 0.000000 0.000000 0.023300 0.000000
# 6 -0.001998 0.001998 0.000000 0.000000 0.000000 0.024155
#
#
# Mechanical properties :
#
#
# Convention : Reuss Voigt Hill
#
# Bulk Modulus (GPa) = 79.05613 79.74712 79.40163
# Shear Modulus (GPa) = 44.34219 45.27222 44.80720
#
# Velocity S-wave (km/s) = 4.08631 4.12894 4.10768
# Velocity P-wave (km/s) = 7.21347 7.26369 7.23862
#
# Compressibility (1/GPa) = 0.01264924
#
# Stress axis : x y z
#
# Youngs Moduli (GPa) = 110.75731 110.75731 139.63589
#
# Poissons Ratio (x) = 0.27780 0.26368
# Poissons Ratio (y) = 0.27780 0.26368
# Poissons Ratio (z) = 0.20915 0.20915
#
# Static dielectric constant tensor:
#      x y z
#    x 2.116460 0.000000 0.000000 
#    y 0.000000 2.116460 0.000000 
#    z 0.000000 0.000000 2.032080 
# 
# From -- ./inp_files/557.got.cif
#   From: 2010.05.17/outbox.cif.g08.bks.cpg/sg81_cif.got.tgz:557.got - 2010.06.03 18:51:07.
