data_PCOD9542554
_publ_section_title
;
Structure prediction by ZEFSAII (Michael W. Deem and Ramdas Pophale) SiO2 
 PCOD9542554
Probable space group: P -4
;
_chemical_formula_sum "Si O2"
_cell_formula_units_Z 14
_cell_length_a 9.116396
_cell_length_b 9.116396
_cell_length_c 7.590898
_cell_angle_alpha 90.000000
_cell_angle_beta 90.000000
_cell_angle_gamma 90.000000
_cell_volume 630.869483
_symmetry_space_group_name_H-M "P -4"
_symmetry_group_IT_number 81
_symmetry_cell_setting 'tetragonal'
loop_
_space_group_symop_operation_xyz
x,y,z
y,-x,-z
-x,-y,z
-y,x,-z
loop_
_atom_site_type_symbol
_atom_site_label
_atom_site_fract_x
_atom_site_fract_y
_atom_site_fract_z
Si Si1 0.500000 0.500000 0.000000
Si Si2 0.224009 0.872917 0.253755
Si Si3 0.000000 0.000000 0.000000
Si Si4 0.668399 0.028985 0.628198
Si Si5 0.830606 0.565963 0.053312
O O1 0.492252 0.330484 0.923584
O O2 0.253295 0.934405 0.446456
O O3 0.113561 0.738707 0.283303
O O4 0.364090 0.828383 0.140803
O O5 0.138408 0.985587 0.127357
O O6 0.672665 0.155673 0.776433
O O7 0.500000 0.000000 0.580815
O O8 0.000000 0.500000 0.058346
#
# Coordination Sequence:
#
# PCOD9542554 Si02
#       5
#     1   4   1   4   4
#     4  12  28  48  82 112 148 210 260 316 390 468
#     4  12  24  44  71 107 149 195 257 316 381 465
#     4  12  24  42  72 108 142 196 252 322 384 448
#     4  11  25  43  69 106 147 198 251 315 387 456
#     4  11  25  48  72 106 154 200 258 314 387 459
#
# _framework density 22.191595
#
# number of rings (size 3 to 8) (size 9 to 14) (size 15 to 20)
#    0.000    0.571    2.857    6.000    0.000    2.286 
#    0.000    1.429    0.000    0.000    0.000    0.000 
#    0.000    0.000    0.000    0.000    0.000    0.000 
#
# Total GULP energy -77943.612735 kJ/mol
# GULP energy per Si atom -5567.400910 kJ/mol
# Density = 2.214109 g / cm^3
# Si number density = 22.191595 Si / 1000 Ang^3
#
#
#
# Elastic Constant Matrix: (Units=GPa)
#
#
# Indices 1 2 3 4 5 6 
#
# 1 118.6632 39.1869 38.6467 0.0000 0.0000 8.0956
# 2 39.1869 118.6632 38.6467 0.0000 0.0000 -8.0956
# 3 38.6467 38.6467 142.1897 0.0000 0.0000 0.0000
# 4 0.0000 0.0000 0.0000 31.7257 0.0000 0.0000
# 5 0.0000 0.0000 0.0000 0.0000 31.7257 0.0000
# 6 8.0956 -8.0956 0.0000 0.0000 0.0000 43.4103
#
#
#
# Elastic Compliance Matrix: (Units=1/GPa)
#
#
# Indices 1 2 3 4 5 6 
#
# 1 0.010193 -0.002886 -0.001986 0.000000 0.000000 -0.002439
# 2 -0.002886 0.010193 -0.001986 0.000000 0.000000 0.002439
# 3 -0.001986 -0.001986 0.008113 0.000000 0.000000 0.000000
# 4 0.000000 0.000000 0.000000 0.031520 0.000000 0.000000
# 5 0.000000 0.000000 0.000000 0.000000 0.031520 0.000000
# 6 -0.002439 0.002439 0.000000 0.000000 0.000000 0.023946
#
#
# Mechanical properties :
#
#
# Convention : Reuss Voigt Hill
#
# Bulk Modulus (GPa) = 67.64477 68.05297 67.84887
# Shear Modulus (GPa) = 37.27733 38.90806 38.09270
#
# Velocity S-wave (km/s) = 4.10298 4.19176 4.14761
# Velocity P-wave (km/s) = 7.27971 7.35938 7.31965
#
# Compressibility (1/GPa) = 0.01478311
#
# Stress axis : x y z
#
# Youngs Moduli (GPa) = 98.10185 98.10185 123.26580
#
# Poissons Ratio (x) = 0.28310 0.24483
# Poissons Ratio (y) = 0.28310 0.24483
# Poissons Ratio (z) = 0.19485 0.19485
#
# Static dielectric constant tensor:
#      x y z
#    x 1.904420 0.000000 0.000000 
#    y 0.000000 1.904420 0.000000 
#    z 0.000000 0.000000 1.795310 
# 
# From -- ./inp_files/526.got.cif
#   From: 2010.05.17/outbox.cif.g08.bks.cpg/sg81_cif.got.tgz:526.got - 2010.06.03 18:51:07.
