data_PCOD9542116
_publ_section_title
;
Structure prediction by ZEFSAII (Michael W. Deem and Ramdas Pophale) SiO2 
 PCOD9542116
Probable space group: I 41
;
_chemical_formula_sum "Si O2"
_cell_formula_units_Z 32
_cell_length_a 11.140771
_cell_length_b 11.140771
_cell_length_c 9.467003
_cell_angle_alpha 90.000000
_cell_angle_beta 90.000000
_cell_angle_gamma 90.000000
_cell_volume 1175.013914
_symmetry_space_group_name_H-M "I 41"
_symmetry_group_IT_number 80
_symmetry_cell_setting 'tetragonal'
loop_
_space_group_symop_operation_xyz
x,y,z
-y,1/2+x,1/4+z
-x,-y,z
y,1/2-x,1/4+z
1/2+x,1/2+y,1/2+z
1/2-y,x,3/4+z
1/2-x,1/2-y,1/2+z
1/2+y,-x,3/4+z
loop_
_atom_site_type_symbol
_atom_site_label
_atom_site_fract_x
_atom_site_fract_y
_atom_site_fract_z
Si Si1 0.500000 0.500000 0.493640
Si Si2 0.313111 0.153937 0.870241
Si Si3 0.500000 0.000000 0.236954
Si Si4 0.356123 0.552320 0.237952
Si Si5 0.677215 0.182086 0.097931
O O1 0.400918 0.442259 0.591990
O O2 0.439656 0.586387 0.374615
O O3 0.309469 0.271241 0.773284
O O4 0.231553 0.043478 0.813655
O O5 0.468236 0.099655 0.356080
O O6 0.597116 0.069232 0.142911
O O7 0.352407 0.683346 0.160592
O O8 0.803565 0.172317 0.179931
#
# Coordination Sequence:
#
# PCOD9542116 Si02
#       5
#     4   8   4   8   8
#     4   9  16  32  62  93 124 167 216 263 312 379
#     4  10  21  39  67  99 132 171 218 270 324 385
#     4   9  18  34  60  91 124 165 214 267 316 377
#     4   9  18  35  61  89 125 176 219 247 312 411
#     4  10  20  37  65  98 129 168 218 267 322 387
#
# _framework density 27.233720999999999
#
# number of rings (size 3 to 8) (size 9 to 14) (size 15 to 20)
#    0.000    2.500    0.000    3.000    0.000    4.000 
#    0.000    7.500    0.000   22.500    0.000   28.000 
#    0.000    0.000    0.000    0.000    0.000    0.000 
#
# Total GULP energy -89099.719332 kJ/mol
# GULP energy per Si atom -5568.732458 kJ/mol
# Density = 2.717174 g / cm^3
# Si number density = 27.233721 Si / 1000 Ang^3
#
#
#
# Elastic Constant Matrix: (Units=GPa)
#
#
# Indices 1 2 3 4 5 6 
#
# 1 68.7353 38.9412 35.5348 0.0000 0.0000 3.4898
# 2 38.9412 68.7353 35.5348 0.0000 0.0000 -3.4898
# 3 35.5348 35.5348 104.4758 0.0000 0.0000 0.0000
# 4 0.0000 0.0000 0.0000 44.2831 0.0000 0.0000
# 5 0.0000 0.0000 0.0000 0.0000 44.2831 0.0000
# 6 3.4898 -3.4898 0.0000 0.0000 0.0000 53.8901
#
#
#
# Elastic Compliance Matrix: (Units=1/GPa)
#
#
# Indices 1 2 3 4 5 6 
#
# 1 0.023028 -0.011053 -0.004073 0.000000 0.000000 -0.002207
# 2 -0.011053 0.023028 -0.004073 0.000000 0.000000 0.002207
# 3 -0.004073 -0.004073 0.012342 0.000000 0.000000 0.000000
# 4 0.000000 0.000000 0.000000 0.022582 0.000000 0.000000
# 5 0.000000 0.000000 0.000000 0.000000 0.022582 0.000000
# 6 -0.002207 0.002207 0.000000 0.000000 0.000000 0.018842
#
#
# Mechanical properties :
#
#
# Convention : Reuss Voigt Hill
#
# Bulk Modulus (GPa) = 49.99826 51.32978 50.66402
# Shear Modulus (GPa) = 29.85620 37.28697 33.57158
#
# Velocity S-wave (km/s) = 3.31463 3.70421 3.51482
# Velocity P-wave (km/s) = 5.74872 6.09785 5.92586
#
# Compressibility (1/GPa) = 0.02000069
#
# Stress axis : x y z
#
# Youngs Moduli (GPa) = 43.42518 43.42518 81.02181
#
# Poissons Ratio (x) = 0.47996 0.33001
# Poissons Ratio (y) = 0.47996 0.33001
# Poissons Ratio (z) = 0.17688 0.17688
#
# Static dielectric constant tensor:
#      x y z
#    x 2.366820 0.000000 0.000000 
#    y 0.000000 2.366820 0.000000 
#    z 0.000000 0.000000 2.177590 
# 
# From -- ./inp_files/929.got.cif
#   From: 2010.05.17/outbox.cif.g08.bks.cpg/sg80_cif.got.tgz:929.got - 2010.06.03 18:49:13.
