data_PCOD9542397
_publ_section_title
;
Structure prediction by ZEFSAII (Michael W. Deem and Ramdas Pophale) SiO2 
 PCOD9542397
Probable space group: P -4
;
_chemical_formula_sum "Si O2"
_cell_formula_units_Z 25
_cell_length_a 11.982856
_cell_length_b 11.982856
_cell_length_c 9.670759
_cell_angle_alpha 90.000000
_cell_angle_beta 90.000000
_cell_angle_gamma 90.000000
_cell_volume 1388.613047
_symmetry_space_group_name_H-M "P -4"
_symmetry_group_IT_number 81
_symmetry_cell_setting 'tetragonal'
loop_
_space_group_symop_operation_xyz
x,y,z
y,-x,-z
-x,-y,z
-y,x,-z
loop_
_atom_site_type_symbol
_atom_site_label
_atom_site_fract_x
_atom_site_fract_y
_atom_site_fract_z
Si Si1 0.088576 0.694642 0.101801
Si Si2 0.728653 0.119737 0.083117
Si Si3 0.515609 0.751822 0.397729
Si Si4 0.485144 0.131570 0.123274
Si Si5 0.114590 0.693459 0.426298
Si Si6 0.109560 0.284097 0.601371
Si Si7 0.500000 0.500000 0.500000
O O1 0.173742 0.793284 0.070717
O O2 0.089992 0.672861 0.264632
O O3 0.127033 0.589658 0.011773
O O4 0.970225 0.728681 0.037589
O O5 0.607006 0.175813 0.083529
O O6 0.735213 0.071243 0.239516
O O7 0.560263 0.794307 0.248530
O O8 0.596872 0.806498 0.511484
O O9 0.394453 0.812084 0.406331
O O10 0.507213 0.618162 0.416662
O O11 0.500000 0.000000 0.167392
O O12 0.181269 0.810417 0.438460
O O13 0.998580 0.699285 0.508125
#
# Coordination Sequence:
#
# PCOD9542397 Si02
#       7
#     4   4   4   4   4   4   1
#     4  10  21  37  57  85 114 148 197 238 282 346
#     4   9  20  38  55  78 117 151 188 235 291 346
#     4  11  21  41  61  85 119 155 196 239 303 351
#     4   9  19  39  62  79 112 159 191 230 294 357
#     4  11  22  37  61  90 119 152 201 249 285 354
#     4  10  22  39  59  85 121 158 191 242 302 347
#     4  12  24  40  64  94 120 152 196 250 288 360
#
# _framework density 18.003575999999999
#
# number of rings (size 3 to 8) (size 9 to 14) (size 15 to 20)
#    0.000    1.920    1.600    3.360    0.000    7.040 
#    2.880    3.200    0.000    0.960    0.000    0.000 
#    0.000    0.000    0.000    0.000    0.000    0.000 
#
# Total GULP energy -139400.318979 kJ/mol
# GULP energy per Si atom -5576.012759 kJ/mol
# Density = 1.796260 g / cm^3
# Si number density = 18.003576 Si / 1000 Ang^3
#
#
#
# Elastic Constant Matrix: (Units=GPa)
#
#
# Indices 1 2 3 4 5 6 
#
# 1 116.3214 -7.2574 55.3431 0.0000 0.0000 37.0322
# 2 -7.2574 116.3214 55.3431 0.0000 0.0000 -37.0322
# 3 55.3431 55.3431 101.1217 0.0000 0.0000 0.0000
# 4 0.0000 0.0000 0.0000 13.5255 0.0000 0.0000
# 5 0.0000 0.0000 0.0000 0.0000 13.5255 0.0000
# 6 37.0322 -37.0322 0.0000 0.0000 0.0000 45.5527
#
#
#
# Elastic Compliance Matrix: (Units=1/GPa)
#
#
# Indices 1 2 3 4 5 6 
#
# 1 0.018203 0.002422 -0.011288 0.000000 0.000000 -0.012829
# 2 0.002422 0.018203 -0.011288 0.000000 0.000000 0.012829
# 3 -0.011288 -0.011288 0.022244 0.000000 0.000000 0.000000
# 4 0.000000 0.000000 0.000000 0.073934 0.000000 0.000000
# 5 0.000000 0.000000 0.000000 0.000000 0.073934 0.000000
# 6 -0.012829 0.012829 0.000000 0.000000 0.000000 0.042811
#
#
# Mechanical properties :
#
#
# Convention : Reuss Voigt Hill
#
# Bulk Modulus (GPa) = 54.51738 60.06915 57.29326
# Shear Modulus (GPa) = 16.90615 29.87646 23.39131
#
# Velocity S-wave (km/s) = 3.06771 4.07808 3.60843
# Velocity P-wave (km/s) = 6.54942 7.45734 7.01808
#
# Compressibility (1/GPa) = 0.01834277
#
# Stress axis : x y z
#
# Youngs Moduli (GPa) = 54.93717 54.93717 44.95539
#
# Poissons Ratio (x) = -0.13305 0.50744
# Poissons Ratio (y) = -0.13305 0.50744
# Poissons Ratio (z) = 0.62011 0.62011
#
# Static dielectric constant tensor:
#      x y z
#    x 1.621330 0.000000 0.000000 
#    y 0.000000 1.621330 0.000000 
#    z 0.000000 0.000000 1.574800 
# 
# From -- ./inp_files/886.got.cif
#   From: 2010.05.17/outbox.cif.g08.bks.cpg/sg81_cif.got.tgz:886.got - 2010.06.03 18:51:07.
