data_PCOD9542905
_publ_section_title
;
Structure prediction by ZEFSAII (Michael W. Deem and Ramdas Pophale) SiO2 
 PCOD9542905
Probable space group: I -4 
;
_chemical_formula_sum "Si O2"
_cell_formula_units_Z 48
_cell_length_a 18.499221
_cell_length_b 18.499221
_cell_length_c 5.196271
_cell_angle_alpha 90.000000
_cell_angle_beta 90.000000
_cell_angle_gamma 90.000000
_cell_volume 1778.273981
_symmetry_space_group_name_H-M "I -4 "
_symmetry_group_IT_number 82
_symmetry_cell_setting 'tetragonal'
loop_
_space_group_symop_operation_xyz
x,y,z
y,-x,-z
-x,-y,z
-y,x,-z
1/2+x,1/2+y,1/2+z
1/2+y,1/2-x,1/2-z
1/2-x,1/2-y,1/2+z
1/2-y,1/2+x,1/2-z
loop_
_atom_site_type_symbol
_atom_site_label
_atom_site_fract_x
_atom_site_fract_y
_atom_site_fract_z
Si Si1 0.588559 0.203651 0.848888
Si Si2 0.843828 0.936603 0.842062
Si Si3 0.162101 0.972901 0.324368
Si Si4 0.710962 0.076541 0.559965
Si Si5 0.719197 0.710746 0.858259
Si Si6 0.912455 0.416863 0.724648
O O1 0.598748 0.264553 0.631079
O O2 0.629495 0.254624 0.070517
O O3 0.501312 0.194737 0.818898
O O4 0.609900 0.125941 0.967716
O O5 0.901171 0.880583 0.739383
O O6 0.844627 0.997281 0.615131
O O7 0.863394 0.969933 0.114823
O O8 0.245871 0.950717 0.303374
O O9 0.765137 0.135143 0.683802
O O10 0.637174 0.111401 0.457337
O O11 0.739974 0.754144 0.118554
O O12 0.903682 0.503258 0.715374
#
# Coordination Sequence:
#
# PCOD9542905 Si02
#       6
#     8   8   8   8   8   8
#     4  10  22  44  69 109 146 196 242 307 372 449
#     4  11  24  42  67 100 143 195 248 306 367 436
#     4  11  24  42  67 100 144 195 250 306 369 435
#     4  10  22  44  70 107 147 197 244 309 373 448
#     4  12  26  46  74 110 143 193 248 308 371 448
#     4   9  18  40  75 109 147 191 244 309 384 458
#
# _framework density 26.992463999999998
#
# number of rings (size 3 to 8) (size 9 to 14) (size 15 to 20)
#    0.000    1.500    3.333    1.000    0.000    7.333 
#    0.000    0.000    0.000    0.500    0.000    0.000 
#    0.000    0.000    0.000    0.000    0.000    0.000 
#
# Total GULP energy -133919.172771 kJ/mol
# GULP energy per Si atom -5579.965532 kJ/mol
# Density = 2.693103 g / cm^3
# Si number density = 26.992464 Si / 1000 Ang^3
#
#
#
# Elastic Constant Matrix: (Units=GPa)
#
#
# Indices 1 2 3 4 5 6 
#
# 1 143.3325 -54.1918 -8.7539 0.0000 0.0000 27.0853
# 2 -54.1918 143.3325 -8.7539 0.0000 0.0000 -27.0853
# 3 -8.7539 -8.7539 87.7622 0.0000 0.0000 0.0000
# 4 0.0000 0.0000 0.0000 25.3200 0.0000 0.0000
# 5 0.0000 0.0000 0.0000 0.0000 25.3200 0.0000
# 6 27.0853 -27.0853 0.0000 0.0000 0.0000 57.2422
#
#
#
# Elastic Compliance Matrix: (Units=1/GPa)
#
#
# Indices 1 2 3 4 5 6 
#
# 1 0.008630 0.002812 0.001141 0.000000 0.000000 -0.002753
# 2 0.002812 0.008630 0.001141 0.000000 0.000000 0.002753
# 3 0.001141 0.001141 0.011622 0.000000 0.000000 0.000000
# 4 0.000000 0.000000 0.000000 0.039495 0.000000 0.000000
# 5 0.000000 0.000000 0.000000 0.000000 0.039495 0.000000
# 6 -0.002753 0.002753 0.000000 0.000000 0.000000 0.020075
#
#
# Mechanical properties :
#
#
# Convention : Reuss Voigt Hill
#
# Bulk Modulus (GPa) = 25.59364 25.66977 25.63171
# Shear Modulus (GPa) = 38.23222 51.31822 44.77522
#
# Velocity S-wave (km/s) = 3.76760 4.36501 4.07726
# Velocity P-wave (km/s) = 5.33186 5.91059 5.62867
#
# Compressibility (1/GPa) = 0.03907220
#
# Stress axis : x y z
#
# Youngs Moduli (GPa) = 115.87502 115.87502 86.04285
#
# Poissons Ratio (x) = -0.32589 -0.09820
# Poissons Ratio (y) = -0.32589 -0.09820
# Poissons Ratio (z) = -0.13225 -0.13225
#
# Static dielectric constant tensor:
#      x y z
#    x 2.228510 0.000000 0.000000 
#    y 0.000000 2.228510 0.000000 
#    z 0.000000 0.000000 0.470990 
# 
# From -- ./inp_files/369.got.cif
#   From: 2010.05.17/outbox.cif.g08.bks.cpg/sg82_1_cif.got.tgz:369.got - 2010.06.03 18:52:26.
