data_PCOD9542700
_publ_section_title
;
Structure prediction by ZEFSAII (Michael W. Deem and Ramdas Pophale) SiO2 
 PCOD9542700
Probable space group: I -4 
;
_chemical_formula_sum "Si O2"
_cell_formula_units_Z 32
_cell_length_a 10.813405
_cell_length_b 10.813405
_cell_length_c 12.377388
_cell_angle_alpha 90.000000
_cell_angle_beta 90.000000
_cell_angle_gamma 90.000000
_cell_volume 1447.284608
_symmetry_space_group_name_H-M "I -4 "
_symmetry_group_IT_number 82
_symmetry_cell_setting 'tetragonal'
loop_
_space_group_symop_operation_xyz
x,y,z
y,-x,-z
-x,-y,z
-y,x,-z
1/2+x,1/2+y,1/2+z
1/2+y,1/2-x,1/2-z
1/2-x,1/2-y,1/2+z
1/2-y,1/2+x,1/2-z
loop_
_atom_site_type_symbol
_atom_site_label
_atom_site_fract_x
_atom_site_fract_y
_atom_site_fract_z
Si Si1 0.185965 0.527567 0.773763
Si Si2 0.597388 0.397395 0.365444
Si Si3 0.276479 0.708525 0.960082
Si Si4 0.025907 0.151216 0.358095
O O1 0.110338 0.404095 0.799490
O O2 0.299194 0.484779 0.701771
O O3 0.218042 0.604809 0.879620
O O4 0.500000 0.500000 0.399008
O O5 0.684642 0.325409 0.449879
O O6 0.677180 0.456779 0.268140
O O7 0.410585 0.725569 0.906058
O O8 0.306644 0.646043 0.074733
O O9 0.000000 0.000000 0.372615
#
# Coordination Sequence:
#
# PCOD9542700 Si02
#       4
#     8   8   8   8
#     4   9  17  29  51  92 126 167 222 269 327 394
#     4  10  20  34  58  98 137 177 214 279 352 390
#     4  11  18  32  65  95 130 174 229 289 316 407
#     4  11  18  35  61 101 128 167 238 272 330 398
#
# _framework density 22.11037
#
# number of rings (size 3 to 8) (size 9 to 14) (size 15 to 20)
#    0.000    1.750    7.500    0.000    0.000    0.000 
#    0.000    0.000    0.000   30.750    0.000    0.000 
#    0.000    0.000    0.000    0.000    0.000    0.000 
#
# Total GULP energy -89285.912270 kJ/mol
# GULP energy per Si atom -5580.369517 kJ/mol
# Density = 2.206005 g / cm^3
# Si number density = 22.110370 Si / 1000 Ang^3
#
#
#
# Elastic Constant Matrix: (Units=GPa)
#
#
# Indices 1 2 3 4 5 6 
#
# 1 75.1546 37.2324 2.7156 0.0000 0.0000 0.5199
# 2 37.2324 75.1546 2.7156 0.0000 0.0000 -0.5199
# 3 2.7156 2.7156 73.0613 0.0000 0.0000 0.0000
# 4 0.0000 0.0000 0.0000 -45.6441 0.0000 0.0000
# 5 0.0000 0.0000 0.0000 0.0000 -45.6441 0.0000
# 6 0.5199 -0.5199 0.0000 0.0000 0.0000 62.9273
#
#
#
# Elastic Compliance Matrix: (Units=1/GPa)
#
#
# Indices 1 2 3 4 5 6 
#
# 1 0.017645 -0.008731 -0.000331 0.000000 0.000000 -0.000218
# 2 -0.008731 0.017645 -0.000331 0.000000 0.000000 0.000218
# 3 -0.000331 -0.000331 0.013712 0.000000 0.000000 0.000000
# 4 0.000000 0.000000 0.000000 -0.021909 0.000000 0.000000
# 5 0.000000 0.000000 0.000000 0.000000 -0.021909 0.000000
# 6 -0.000218 0.000218 0.000000 0.000000 0.000000 0.015895
#
#
# Mechanical properties :
#
#
# Convention : Reuss Voigt Hill
#
# Bulk Modulus (GPa) = 33.09706 34.29976 33.69841
# Shear Modulus (GPa) = 100.12485 6.37494 53.24989
#
# Velocity S-wave (km/s) = 6.73665 1.69985 4.91284
# Velocity P-wave (km/s) = 8.68973 4.40446 6.88879
#
# Compressibility (1/GPa) = 0.03021416
#
# Stress axis : x y z
#
# Youngs Moduli (GPa) = 56.67392 56.67392 72.93005
#
# Poissons Ratio (x) = 0.49482 0.02416
# Poissons Ratio (y) = 0.49482 0.02416
# Poissons Ratio (z) = 0.01878 0.01878
#
# Static dielectric constant tensor:
#      x y z
#    x 1.876170 0.000000 0.000000 
#    y 0.000000 1.876170 0.000000 
#    z 0.000000 0.000000 1.817610 
# 
# From -- ./inp_files/2093.got.cif
#   From: 2010.05.17/outbox.cif.g08.bks.cpg/sg82_2_cif.got.tgz:2093.got - 2010.06.03 18:52:26.
