data_PCOD9542346
_publ_section_title
;
Structure prediction by ZEFSAII (Michael W. Deem and Ramdas Pophale) SiO2 
 PCOD9542346
Probable space group: P -4
;
_chemical_formula_sum "Si O2"
_cell_formula_units_Z 32
_cell_length_a 11.448947
_cell_length_b 11.448947
_cell_length_c 12.527668
_cell_angle_alpha 90.000000
_cell_angle_beta 90.000000
_cell_angle_gamma 90.000000
_cell_volume 1642.106519
_symmetry_space_group_name_H-M "P -4"
_symmetry_group_IT_number 81
_symmetry_cell_setting 'tetragonal'
loop_
_space_group_symop_operation_xyz
x,y,z
y,-x,-z
-x,-y,z
-y,x,-z
loop_
_atom_site_type_symbol
_atom_site_label
_atom_site_fract_x
_atom_site_fract_y
_atom_site_fract_z
Si Si1 0.634423 1.000000 0.880328
Si Si2 0.000002 0.747761 0.342082
Si Si3 0.639117 0.258731 0.897207
Si Si4 0.223940 0.739622 0.684430
Si Si5 0.364594 0.000005 0.424368
Si Si6 0.363914 0.636097 0.499998
Si Si7 0.360877 0.258730 0.897210
Si Si8 0.776071 0.739619 0.684435
O O1 0.678844 0.124556 0.920782
O O2 0.500000 0.000000 0.909432
O O3 0.649385 0.999997 0.751356
O O4 0.678847 0.875446 0.920787
O O5 0.123394 0.810393 0.320758
O O6 0.876607 0.810389 0.320758
O O7 0.000003 0.704864 0.463769
O O8 0.719234 0.294194 0.797060
O O9 0.499997 0.259135 0.870564
O O10 0.663552 0.336448 0.999998
O O11 0.325853 0.716703 0.598059
O O12 0.113878 0.666725 0.644573
O O13 0.333273 0.886138 0.355418
O O14 0.500000 0.000000 0.451583
O O15 0.500006 0.653368 0.473101
O O16 0.283312 0.674161 0.401937
O O17 0.280756 0.294193 0.797066
#
# Coordination Sequence:
#
# PCOD9542346 Si02
#       8
#     4   4   4   4   4   4   4   4
#     4   8  17  35  61  85 108 150 201 248 291 353
#     4  10  19  37  60  87 121 158 199 247 312 373
#     4  10  22  40  62  86 117 159 205 251 305 364
#     4  11  23  39  60  90 121 158 203 257 305 373
#     4  12  23  36  59  90 125 162 202 253 311 372
#     4  11  22  36  56  83 120 158 194 247 308 368
#     4  10  22  40  62  86 117 159 205 251 305 364
#     4  11  23  39  60  90 121 158 203 257 305 373
#
# _framework density 19.487162999999999
#
# number of rings (size 3 to 8) (size 9 to 14) (size 15 to 20)
#    0.000    1.625    2.500    1.875    0.000    5.750 
#    0.000    2.500    0.000    1.875    0.000    0.000 
#    0.000    0.000    0.000    0.000    0.000    0.000 
#
# Total GULP energy -178424.015461 kJ/mol
# GULP energy per Si atom -5575.750483 kJ/mol
# Density = 1.944281 g / cm^3
# Si number density = 19.487163 Si / 1000 Ang^3
#
#
#
# Elastic Constant Matrix: (Units=GPa)
#
#
# Indices 1 2 3 4 5 6 
#
# 1 43.6881 -14.3707 11.3312 0.0000 0.0000 -0.0002
# 2 -14.3707 43.6881 11.3312 0.0000 0.0000 0.0002
# 3 11.3312 11.3312 89.2904 0.0000 0.0000 0.0000
# 4 0.0000 0.0000 0.0000 24.4548 0.0000 0.0000
# 5 0.0000 0.0000 0.0000 0.0000 24.4548 0.0000
# 6 -0.0002 0.0002 0.0000 0.0000 0.0000 23.7189
#
#
#
# Elastic Compliance Matrix: (Units=1/GPa)
#
#
# Indices 1 2 3 4 5 6 
#
# 1 0.027522 0.010298 -0.004799 0.000000 0.000000 0.000000
# 2 0.010298 0.027522 -0.004799 0.000000 0.000000 0.000000
# 3 -0.004799 -0.004799 0.012418 0.000000 0.000000 0.000000
# 4 0.000000 0.000000 0.000000 0.040892 0.000000 0.000000
# 5 0.000000 0.000000 0.000000 0.000000 0.040892 0.000000
# 6 0.000000 0.000000 0.000000 0.000000 0.000000 0.042161
#
#
# Mechanical properties :
#
#
# Convention : Reuss Voigt Hill
#
# Bulk Modulus (GPa) = 14.52246 21.47220 17.99733
# Shear Modulus (GPa) = 23.47863 25.75071 24.61467
#
# Velocity S-wave (km/s) = 3.47482 3.63908 3.55790
# Velocity P-wave (km/s) = 4.85466 5.35721 5.11212
#
# Compressibility (1/GPa) = 0.06885884
#
# Stress axis : x y z
#
# Youngs Moduli (GPa) = 36.33503 36.33503 80.53145
#
# Poissons Ratio (x) = -0.37417 0.38650
# Poissons Ratio (y) = -0.37417 0.38650
# Poissons Ratio (z) = 0.17439 0.17439
#
# Static dielectric constant tensor:
#      x y z
#    x 1.704230 0.000000 0.000000 
#    y 0.000000 1.704230 0.000000 
#    z 0.000000 0.000000 1.666510 
# 
# From -- ./inp_files/1454.got.cif
#   From: 2010.05.17/outbox.cif.g08.bks.cpg/sg81_cif.got.tgz:1454.got - 2010.06.03 18:51:07.
