data_PCOD9542627
_publ_section_title
;
Structure prediction by ZEFSAII (Michael W. Deem and Ramdas Pophale) SiO2 
 PCOD9542627
Probable space group: I -4 
;
_chemical_formula_sum "Si O2"
_cell_formula_units_Z 56
_cell_length_a 11.219432
_cell_length_b 11.219432
_cell_length_c 25.619403
_cell_angle_alpha 90.000000
_cell_angle_beta 90.000000
_cell_angle_gamma 90.000000
_cell_volume 3224.859118
_symmetry_space_group_name_H-M "I -4 "
_symmetry_group_IT_number 82
_symmetry_cell_setting 'tetragonal'
loop_
_space_group_symop_operation_xyz
x,y,z
y,-x,-z
-x,-y,z
-y,x,-z
1/2+x,1/2+y,1/2+z
1/2+y,1/2-x,1/2-z
1/2-x,1/2-y,1/2+z
1/2-y,1/2+x,1/2-z
loop_
_atom_site_type_symbol
_atom_site_label
_atom_site_fract_x
_atom_site_fract_y
_atom_site_fract_z
Si Si1 0.859798 0.972867 0.930468
Si Si2 0.613349 0.727560 0.356557
Si Si3 0.390761 0.067219 0.079834
Si Si4 0.539013 0.254839 0.139068
Si Si5 0.572789 0.341174 0.025440
Si Si6 0.798436 0.479213 0.751297
Si Si7 0.217376 0.796147 0.980759
O O1 0.845183 0.899822 0.877164
O O2 0.785841 0.092835 0.940916
O O3 0.827813 0.879178 0.975411
O O4 0.000000 0.000000 0.934487
O O5 0.520889 0.790572 0.397215
O O6 0.720291 0.822577 0.354907
O O7 0.549515 0.725886 0.300854
O O8 0.464007 0.135078 0.125087
O O9 0.320742 0.165901 0.047436
O O10 0.500000 0.000000 0.050966
O O11 0.532949 0.331763 0.085923
O O12 0.490846 0.282583 0.196781
O O13 0.461023 0.353118 0.986611
O O14 0.657973 0.232820 0.008479
O O15 0.874969 0.601128 0.744697
#
# Coordination Sequence:
#
# PCOD9542627 Si02
#       7
#     8   8   8   8   8   8   8
#     4  12  21  31  49  78 114 147 175 214 280 329
#     4  10  18  31  50  79 115 143 179 228 279 333
#     4  10  19  30  51  78 109 150 185 215 272 329
#     4  10  18  33  53  79 107 144 186 232 270 327
#     4  11  24  39  56  76 106 150 192 231 275 328
#     4   9  16  28  50  82 112 141 183 232 283 326
#     4  12  21  35  51  77 112 150 182 224 271 337
#
# _framework density 17.365100000000002
#
# number of rings (size 3 to 8) (size 9 to 14) (size 15 to 20)
#    0.000    1.429    7.143    0.000    2.000    0.000 
#    0.000    0.000    3.143    0.000    0.000    0.000 
#    0.000    0.000    0.000    0.000    0.000    0.000 
#
# Total GULP energy -155988.627157 kJ/mol
# GULP energy per Si atom -5571.022398 kJ/mol
# Density = 1.732558 g / cm^3
# Si number density = 17.365100 Si / 1000 Ang^3
#
#
#
# Elastic Constant Matrix: (Units=GPa)
#
#
# Indices 1 2 3 4 5 6 
#
# 1 56.6583 22.1041 31.1650 0.0000 0.0000 -5.5792
# 2 22.1041 56.6583 31.1650 0.0000 0.0000 5.5792
# 3 31.1650 31.1650 113.6208 0.0000 0.0000 0.0000
# 4 0.0000 0.0000 0.0000 18.8802 0.0000 0.0000
# 5 0.0000 0.0000 0.0000 0.0000 18.8802 0.0000
# 6 -5.5792 5.5792 0.0000 0.0000 0.0000 29.1535
#
#
#
# Elastic Compliance Matrix: (Units=1/GPa)
#
#
# Indices 1 2 3 4 5 6 
#
# 1 0.023531 -0.007315 -0.004448 0.000000 0.000000 0.005903
# 2 -0.007315 0.023531 -0.004448 0.000000 0.000000 -0.005903
# 3 -0.004448 -0.004448 0.011241 0.000000 0.000000 0.000000
# 4 0.000000 0.000000 0.000000 0.052966 0.000000 0.000000
# 5 0.000000 0.000000 0.000000 0.000000 0.052966 0.000000
# 6 0.005903 -0.005903 0.000000 0.000000 0.000000 0.036561
#
#
# Mechanical properties :
#
#
# Convention : Reuss Voigt Hill
#
# Bulk Modulus (GPa) = 38.63670 43.97840 41.30755
# Shear Modulus (GPa) = 20.67442 22.88302 21.77872
#
# Velocity S-wave (km/s) = 3.45421 3.63403 3.54526
# Velocity P-wave (km/s) = 6.18116 6.55660 6.37164
#
# Compressibility (1/GPa) = 0.02588212
#
# Stress axis : x y z
#
# Youngs Moduli (GPa) = 42.49650 42.49650 88.95791
#
# Poissons Ratio (x) = 0.31086 0.39568
# Poissons Ratio (y) = 0.31086 0.39568
# Poissons Ratio (z) = 0.18902 0.18902
#
# Static dielectric constant tensor:
#      x y z
#    x 1.622850 0.000000 0.000000 
#    y 0.000000 1.622850 0.000000 
#    z 0.000000 0.000000 1.627750 
# 
# From -- ./inp_files/3525.got.cif
#   From: 2010.05.17/outbox.cif.g08.bks.cpg/sg82_2_cif.got.tgz:3525.got - 2010.06.03 18:52:26.
