data_PCOD9542337
_publ_section_title
;
Structure prediction by ZEFSAII (Michael W. Deem and Ramdas Pophale) SiO2 
 PCOD9542337
Probable space group: P -4
;
_chemical_formula_sum "Si O2"
_cell_formula_units_Z 20
_cell_length_a 10.058795
_cell_length_b 10.058795
_cell_length_c 8.080948
_cell_angle_alpha 90.000000
_cell_angle_beta 90.000000
_cell_angle_gamma 90.000000
_cell_volume 817.625121
_symmetry_space_group_name_H-M "P -4"
_symmetry_group_IT_number 81
_symmetry_cell_setting 'tetragonal'
loop_
_space_group_symop_operation_xyz
x,y,z
y,-x,-z
-x,-y,z
-y,x,-z
loop_
_atom_site_type_symbol
_atom_site_label
_atom_site_fract_x
_atom_site_fract_y
_atom_site_fract_z
Si Si1 0.678375 0.093495 0.656875
Si Si2 0.223067 0.000000 1.000000
Si Si3 0.280880 0.509392 0.189233
Si Si4 0.906505 0.321625 0.656875
Si Si5 0.280880 0.490608 0.810767
O O1 0.541747 0.173244 0.683381
O O2 0.684048 0.000000 0.500000
O O3 0.797704 0.202296 0.645886
O O4 0.699041 0.014787 0.829132
O O5 0.300959 0.014787 0.170868
O O6 0.128162 0.871838 0.013203
O O7 0.349248 0.650752 0.221860
O O8 0.399950 0.399950 0.193722
O O9 0.230904 0.500000 1.000000
O O10 0.173244 0.541747 0.683381
#
# Coordination Sequence:
#
# PCOD9542337 Si02
#       5
#     4   4   4   4   4
#     4  10  19  32  57  95 136 176 220 271 328 397
#     4   9  18  32  51  82 130 182 223 265 326 398
#     4   8  15  31  58  91 127 172 225 279 337 396
#     4  10  19  32  57  95 136 176 220 271 328 397
#     4   8  15  31  58  91 127 172 225 279 337 396
#
# _framework density 24.461088
#
# number of rings (size 3 to 8) (size 9 to 14) (size 15 to 20)
#    0.000    3.000    0.000    2.400    0.000    2.000 
#    0.000    1.000    0.000    7.200    0.000   33.600 
#    0.000   29.600    0.000    0.000    0.000    0.000 
#
# Total GULP energy -112102.621337 kJ/mol
# GULP energy per Si atom -5605.131067 kJ/mol
# Density = 2.440541 g / cm^3
# Si number density = 24.461088 Si / 1000 Ang^3
#
#
#
# Elastic Constant Matrix: (Units=GPa)
#
#
# Indices 1 2 3 4 5 6 
#
# 1 100.2747 60.7140 104.0321 0.0000 0.0000 0.0000
# 2 60.7140 100.2747 104.0321 0.0000 0.0000 0.0000
# 3 104.0321 104.0321 230.1814 0.0000 0.0000 0.0000
# 4 0.0000 0.0000 0.0000 40.6143 0.0000 0.0000
# 5 0.0000 0.0000 0.0000 0.0000 40.6143 0.0000
# 6 0.0000 0.0000 0.0000 0.0000 0.0000 -2.3072
#
#
#
# Elastic Compliance Matrix: (Units=1/GPa)
#
#
# Indices 1 2 3 4 5 6 
#
# 1 0.020107 -0.005171 -0.006750 0.000000 0.000000 0.000000
# 2 -0.005171 0.020107 -0.006750 0.000000 0.000000 0.000000
# 3 -0.006750 -0.006750 0.010446 0.000000 0.000000 0.000000
# 4 0.000000 0.000000 0.000000 0.024622 0.000000 0.000000
# 5 0.000000 0.000000 0.000000 0.000000 0.024622 0.000000
# 6 0.000000 0.000000 0.000000 0.000000 0.000000 -0.433426
#
#
# Mechanical properties :
#
#
# Convention : Reuss Voigt Hill
#
# Bulk Modulus (GPa) = 75.09515 107.58746 91.34131
# Shear Modulus (GPa) = -17.13853 26.58112 4.72130
#
# Velocity S-wave (km/s) = -2.64984 3.30004 1.39080
# Velocity P-wave (km/s) = 4.62648 7.65500 6.32468
#
# Compressibility (1/GPa) = 0.01331644
#
# Stress axis : x y z
#
# Youngs Moduli (GPa) = 49.73453 49.73453 95.72894
#
# Poissons Ratio (x) = 0.25717 0.64621
# Poissons Ratio (y) = 0.25717 0.64621
# Poissons Ratio (z) = 0.33573 0.33573
#
# Static dielectric constant tensor:
#      x y z
#    x 1.952400 0.000000 0.000000 
#    y 0.000000 1.952400 0.000000 
#    z 0.000000 0.000000 1.876670 
# 
# From -- ./inp_files/760.got.cif
#   From: 2010.05.17/outbox.cif.g08.bks.cpg/sg81_cif.got.tgz:760.got - 2010.06.03 18:51:07.
