data_PCOD9542903
_publ_section_title
;
Structure prediction by ZEFSAII (Michael W. Deem and Ramdas Pophale) SiO2 
 PCOD9542903
Probable space group: I -4 
;
_chemical_formula_sum "Si O2"
_cell_formula_units_Z 48
_cell_length_a 8.982889
_cell_length_b 8.982889
_cell_length_c 24.811947
_cell_angle_alpha 90.000000
_cell_angle_beta 90.000000
_cell_angle_gamma 90.000000
_cell_volume 2002.132942
_symmetry_space_group_name_H-M "I -4 "
_symmetry_group_IT_number 82
_symmetry_cell_setting 'tetragonal'
loop_
_space_group_symop_operation_xyz
x,y,z
y,-x,-z
-x,-y,z
-y,x,-z
1/2+x,1/2+y,1/2+z
1/2+y,1/2-x,1/2-z
1/2-x,1/2-y,1/2+z
1/2-y,1/2+x,1/2-z
loop_
_atom_site_type_symbol
_atom_site_label
_atom_site_fract_x
_atom_site_fract_y
_atom_site_fract_z
Si Si1 0.836097 0.510775 0.329000
Si Si2 0.722458 0.170607 0.126918
Si Si3 0.654875 0.854308 0.556141
Si Si4 0.884077 0.210701 0.800610
Si Si5 0.671260 0.182868 0.521306
Si Si6 0.822191 0.021430 0.314858
O O1 0.796062 0.679424 0.342381
O O2 0.844467 0.413556 0.384285
O O3 0.688948 0.452457 0.299721
O O4 0.000000 0.500000 0.305284
O O5 0.771928 0.197641 0.065594
O O6 0.556443 0.224856 0.138422
O O7 0.759804 0.011309 0.154299
O O8 0.506191 0.821223 0.521715
O O9 0.776567 0.738032 0.536379
O O10 0.713945 0.018743 0.542675
O O11 0.950512 0.232684 0.741609
O O12 0.739282 0.312292 0.810549
O O13 0.000000 0.000000 0.321896
#
# Coordination Sequence:
#
# PCOD9542903 Si02
#       6
#     8   8   8   8   8   8
#     4  11  22  46  70  99 139 183 234 291 346 422
#     4  11  23  45  69 100 139 184 235 283 355 424
#     4  10  22  44  67  99 141 176 228 296 337 423
#     4  12  26  44  72 100 142 183 232 293 352 428
#     4  10  23  43  67  99 138 180 231 281 353 412
#     4  12  26  46  67 103 139 182 233 290 355 420
#
# _framework density 23.974433000000001
#
# number of rings (size 3 to 8) (size 9 to 14) (size 15 to 20)
#    0.000    1.000    5.000    3.000    2.333    2.000 
#    3.000    0.000    0.000    0.000    0.000    0.000 
#    0.000    0.000    0.000    0.000    0.000    0.000 
#
# Total GULP energy -134142.413754 kJ/mol
# GULP energy per Si atom -5589.267240 kJ/mol
# Density = 2.391987 g / cm^3
# Si number density = 23.974433 Si / 1000 Ang^3
#
#
#
# Elastic Constant Matrix: (Units=GPa)
#
#
# Indices 1 2 3 4 5 6 
#
# 1 81.8319 11.9743 28.6832 0.0000 0.0000 0.0622
# 2 11.9743 81.8319 28.6832 0.0000 0.0000 -0.0622
# 3 28.6832 28.6832 58.1168 0.0000 0.0000 0.0000
# 4 0.0000 0.0000 0.0000 29.3873 0.0000 0.0000
# 5 0.0000 0.0000 0.0000 0.0000 29.3873 0.0000
# 6 0.0622 -0.0622 0.0000 0.0000 0.0000 46.1239
#
#
#
# Elastic Compliance Matrix: (Units=1/GPa)
#
#
# Indices 1 2 3 4 5 6 
#
# 1 0.014792 0.000477 -0.007536 0.000000 0.000000 -0.000019
# 2 0.000477 0.014792 -0.007536 0.000000 0.000000 0.000019
# 3 -0.007536 -0.007536 0.024645 0.000000 0.000000 0.000000
# 4 0.000000 0.000000 0.000000 0.034028 0.000000 0.000000
# 5 0.000000 0.000000 0.000000 0.000000 0.034028 0.000000
# 6 -0.000019 0.000019 0.000000 0.000000 0.000000 0.021681
#
#
# Mechanical properties :
#
#
# Convention : Reuss Voigt Hill
#
# Bulk Modulus (GPa) = 39.93687 40.05132 39.99410
# Shear Modulus (GPa) = 27.54792 31.14237 29.34514
#
# Velocity S-wave (km/s) = 3.39345 3.60805 3.50239
# Velocity P-wave (km/s) = 5.66112 5.83948 5.75099
#
# Compressibility (1/GPa) = 0.02503952
#
# Stress axis : x y z
#
# Youngs Moduli (GPa) = 67.60511 67.60511 40.57587
#
# Poissons Ratio (x) = -0.03224 0.30577
# Poissons Ratio (y) = -0.03224 0.30577
# Poissons Ratio (z) = 0.50946 0.50946
#
# Static dielectric constant tensor:
#      x y z
#    x 1.915830 0.000000 0.000000 
#    y 0.000000 1.915830 0.000000 
#    z 0.000000 0.000000 1.943550 
# 
# From -- ./inp_files/4016.got.cif
#   From: 2010.05.17/outbox.cif.g08.bks.cpg/sg82_3_cif.got.tgz:4016.got - 2010.06.03 18:52:26.
