data_PCOD9542391
_publ_section_title
;
Structure prediction by ZEFSAII (Michael W. Deem and Ramdas Pophale) SiO2 
 PCOD9542391
Probable space group: P -4
;
_chemical_formula_sum "Si O2"
_cell_formula_units_Z 25
_cell_length_a 12.034522
_cell_length_b 12.034522
_cell_length_c 7.859231
_cell_angle_alpha 90.000000
_cell_angle_beta 90.000000
_cell_angle_gamma 90.000000
_cell_volume 1138.250223
_symmetry_space_group_name_H-M "P -4"
_symmetry_group_IT_number 81
_symmetry_cell_setting 'tetragonal'
loop_
_space_group_symop_operation_xyz
x,y,z
y,-x,-z
-x,-y,z
-y,x,-z
loop_
_atom_site_type_symbol
_atom_site_label
_atom_site_fract_x
_atom_site_fract_y
_atom_site_fract_z
Si Si1 0.651303 0.751365 0.453943
Si Si2 0.897444 0.571422 0.029575
Si Si3 0.300600 0.996223 0.450058
Si Si4 0.216479 0.021050 0.816487
Si Si5 0.804055 0.734882 0.785676
Si Si6 0.199829 0.435619 0.373282
Si Si7 0.000000 0.000000 0.000000
O O1 0.720463 0.730442 0.627841
O O2 0.523967 0.737944 0.507715
O O3 0.716135 0.665970 0.333124
O O4 0.661897 0.880371 0.401017
O O5 0.841211 0.513299 0.193652
O O6 0.000000 0.500000 0.957409
O O7 0.953220 0.680884 0.110758
O O8 0.812165 0.622238 0.893772
O O9 0.250202 0.927612 0.294820
O O10 0.393435 0.910937 0.526834
O O11 0.221159 0.014589 0.612091
O O12 0.224591 0.149321 0.874787
O O13 0.103414 0.971236 0.883141
#
# Coordination Sequence:
#
# PCOD9542391 Si02
#       7
#     4   4   4   4   4   4   1
#     4  10  21  39  63  88 121 160 212 268 311 385
#     4  11  22  39  62  88 124 167 209 261 316 381
#     4   9  20  38  61  87 119 160 210 261 305 380
#     4  10  21  36  55  84 126 159 199 253 310 385
#     4  10  21  36  56  88 118 158 210 254 320 377
#     4  10  21  39  64  90 120 162 205 257 326 369
#     4  12  20  32  58  88 128 164 198 252 332 396
#
# _framework density 21.963536999999999
#
# number of rings (size 3 to 8) (size 9 to 14) (size 15 to 20)
#    0.000    1.920    1.600    3.360    0.000    9.280 
#    0.000    3.200    0.000    0.000    0.000    0.000 
#    0.000    0.000    0.000    0.000    0.000    0.000 
#
# Total GULP energy -139510.274453 kJ/mol
# GULP energy per Si atom -5580.410978 kJ/mol
# Density = 2.191355 g / cm^3
# Si number density = 21.963537 Si / 1000 Ang^3
#
#
#
# Elastic Constant Matrix: (Units=GPa)
#
#
# Indices 1 2 3 4 5 6 
#
# 1 72.4532 18.4158 -1.4361 0.0000 0.0000 1.8970
# 2 18.4158 72.4532 -1.4361 0.0000 0.0000 -1.8970
# 3 -1.4361 -1.4361 19.8989 0.0000 0.0000 0.0000
# 4 0.0000 0.0000 0.0000 20.8487 0.0000 0.0000
# 5 0.0000 0.0000 0.0000 0.0000 20.8487 0.0000
# 6 1.8970 -1.8970 0.0000 0.0000 0.0000 30.8526
#
#
#
# Elastic Compliance Matrix: (Units=1/GPa)
#
#
# Indices 1 2 3 4 5 6 
#
# 1 0.014808 -0.003778 0.000796 0.000000 0.000000 -0.001143
# 2 -0.003778 0.014808 0.000796 0.000000 0.000000 0.001143
# 3 0.000796 0.000796 0.050369 0.000000 0.000000 0.000000
# 4 0.000000 0.000000 0.000000 0.047965 0.000000 0.000000
# 5 0.000000 0.000000 0.000000 0.000000 0.047965 0.000000
# 6 -0.001143 0.001143 0.000000 0.000000 0.000000 0.032553
#
#
# Mechanical properties :
#
#
# Convention : Reuss Voigt Hill
#
# Bulk Modulus (GPa) = 13.22522 21.76582 17.49552
# Shear Modulus (GPa) = 21.00463 24.46080 22.73271
#
# Velocity S-wave (km/s) = 3.09583 3.34084 3.22066
# Velocity P-wave (km/s) = 4.33744 4.98127 4.67046
#
# Compressibility (1/GPa) = 0.07561308
#
# Stress axis : x y z
#
# Youngs Moduli (GPa) = 67.53121 67.53121 19.85355
#
# Poissons Ratio (x) = 0.25513 -0.01580
# Poissons Ratio (y) = 0.25513 -0.01580
# Poissons Ratio (z) = -0.05376 -0.05376
#
# Static dielectric constant tensor:
#      x y z
#    x 1.831850 0.000000 0.000000 
#    y 0.000000 1.831850 0.000000 
#    z 0.000000 0.000000 1.856690 
# 
# From -- ./inp_files/864.got.cif
#   From: 2010.05.17/outbox.cif.g08.bks.cpg/sg81_cif.got.tgz:864.got - 2010.06.03 18:51:07.
