data_PCOD9542974
_publ_section_title
;
Structure prediction by ZEFSAII (Michael W. Deem and Ramdas Pophale) SiO2 
 PCOD9542974
Probable space group: I -4 
;
_chemical_formula_sum "Si O2"
_cell_formula_units_Z 40
_cell_length_a 13.650662
_cell_length_b 13.650662
_cell_length_c 7.508498
_cell_angle_alpha 90.000000
_cell_angle_beta 90.000000
_cell_angle_gamma 90.000000
_cell_volume 1399.137820
_symmetry_space_group_name_H-M "I -4 "
_symmetry_group_IT_number 82
_symmetry_cell_setting 'tetragonal'
loop_
_space_group_symop_operation_xyz
x,y,z
y,-x,-z
-x,-y,z
-y,x,-z
1/2+x,1/2+y,1/2+z
1/2+y,1/2-x,1/2-z
1/2-x,1/2-y,1/2+z
1/2-y,1/2+x,1/2-z
loop_
_atom_site_type_symbol
_atom_site_label
_atom_site_fract_x
_atom_site_fract_y
_atom_site_fract_z
Si Si1 0.375885 0.079090 0.967079
Si Si2 0.542662 0.284006 0.830332
Si Si3 0.445345 0.830524 0.132263
Si Si4 0.587766 0.600571 0.598902
Si Si5 0.258069 0.750972 0.972273
O O1 0.493293 0.095579 0.003936
O O2 0.347399 0.037143 0.162189
O O3 0.336093 0.191220 0.952869
O O4 0.310114 0.027622 0.810865
O O5 0.478889 0.372525 0.764301
O O6 0.660723 0.291857 0.836230
O O7 0.521496 0.269390 0.039487
O O8 0.329860 0.820059 0.091081
O O9 0.620421 0.490371 0.561500
O O10 0.676858 0.675031 0.601815
#
# Coordination Sequence:
#
# PCOD9542974 Si02
#       5
#     8   8   8   8   8
#     4  12  23  48  71 104 157 202 258 338 412 487
#     4  10  24  45  75 105 150 203 259 320 409 479
#     4  10  28  40  73 110 142 204 274 311 406 498
#     4  11  23  44  80 116 150 207 271 329 410 494
#     4  10  24  47  73 106 156 205 257 335 414 485
#
# _framework density 28.589034000000002
#
# number of rings (size 3 to 8) (size 9 to 14) (size 15 to 20)
#    1.200    0.200    2.000    2.400    2.800    0.400 
#    0.000    0.000    4.400    0.600    0.000    0.000 
#    0.000    0.000    0.000    0.000    0.000    0.000 
#
# Total GULP energy -111426.639611 kJ/mol
# GULP energy per Si atom -5571.331981 kJ/mol
# Density = 2.852396 g / cm^3
# Si number density = 28.589034 Si / 1000 Ang^3
#
#
#
# Elastic Constant Matrix: (Units=GPa)
#
#
# Indices 1 2 3 4 5 6 
#
# 1 120.0233 3.8525 -3.4540 0.0000 0.0000 7.2892
# 2 3.8525 120.0233 -3.4540 0.0000 0.0000 -7.2892
# 3 -3.4540 -3.4540 94.3312 0.0000 0.0000 0.0000
# 4 0.0000 0.0000 0.0000 48.5648 0.0000 0.0000
# 5 0.0000 0.0000 0.0000 0.0000 48.5648 0.0000
# 6 7.2892 -7.2892 0.0000 0.0000 0.0000 37.7310
#
#
#
# Elastic Compliance Matrix: (Units=1/GPa)
#
#
# Indices 1 2 3 4 5 6 
#
# 1 0.008456 -0.000366 0.000296 0.000000 0.000000 -0.001704
# 2 -0.000366 0.008456 0.000296 0.000000 0.000000 0.001704
# 3 0.000296 0.000296 0.010623 0.000000 0.000000 0.000000
# 4 0.000000 0.000000 0.000000 0.020591 0.000000 0.000000
# 5 0.000000 0.000000 0.000000 0.000000 0.020591 0.000000
# 6 -0.001704 0.001704 0.000000 0.000000 0.000000 0.027162
#
#
# Mechanical properties :
#
#
# Convention : Reuss Voigt Hill
#
# Bulk Modulus (GPa) = 35.73260 36.47406 36.10333
# Shear Modulus (GPa) = 47.73079 49.46768 48.59924
#
# Velocity S-wave (km/s) = 4.09044 4.16420 4.12749
# Velocity P-wave (km/s) = 5.90210 5.99221 5.94733
#
# Compressibility (1/GPa) = 0.02798565
#
# Stress axis : x y z
#
# Youngs Moduli (GPa) = 118.26614 118.26614 94.13855
#
# Poissons Ratio (x) = 0.04333 -0.02788
# Poissons Ratio (y) = 0.04333 -0.02788
# Poissons Ratio (z) = -0.03503 -0.03503
#
# Static dielectric constant tensor:
#      x y z
#    x 2.275920 0.000000 0.000000 
#    y 0.000000 2.275920 0.000000 
#    z 0.000000 0.000000 2.331620 
# 
# From -- ./inp_files/960.got.cif
#   From: 2010.05.17/outbox.cif.g08.bks.cpg/sg82_1_cif.got.tgz:960.got - 2010.06.03 18:52:26.
