data_PCOD9542964
_publ_section_title
;
Structure prediction by ZEFSAII (Michael W. Deem and Ramdas Pophale) SiO2 
 PCOD9542964
Probable space group: I -4 
;
_chemical_formula_sum "Si O2"
_cell_formula_units_Z 60
_cell_length_a 11.825800
_cell_length_b 11.825800
_cell_length_c 19.017343
_cell_angle_alpha 90.000000
_cell_angle_beta 90.000000
_cell_angle_gamma 90.000000
_cell_volume 2659.566778
_symmetry_space_group_name_H-M "I -4 "
_symmetry_group_IT_number 82
_symmetry_cell_setting 'tetragonal'
loop_
_space_group_symop_operation_xyz
x,y,z
y,-x,-z
-x,-y,z
-y,x,-z
1/2+x,1/2+y,1/2+z
1/2+y,1/2-x,1/2-z
1/2-x,1/2-y,1/2+z
1/2-y,1/2+x,1/2-z
loop_
_atom_site_type_symbol
_atom_site_label
_atom_site_fract_x
_atom_site_fract_y
_atom_site_fract_z
Si Si1 0.563377 0.182241 0.985774
Si Si2 0.192164 0.296977 0.737887
Si Si3 0.894535 0.275003 0.169546
Si Si4 0.812650 0.718075 0.476754
Si Si5 0.500000 0.000000 0.873945
Si Si6 0.163196 0.044969 0.034034
Si Si7 0.581485 0.590493 0.682197
Si Si8 0.869203 0.520074 0.850815
O O1 0.676866 0.254378 0.985682
O O2 0.545418 0.148183 0.067144
O O3 0.444795 0.242935 0.968761
O O4 0.566097 0.083076 0.927960
O O5 0.229593 0.173099 0.763157
O O6 0.307119 0.359938 0.716303
O O7 0.154899 0.369028 0.805262
O O8 0.090493 0.303990 0.680844
O O9 0.814828 0.267458 0.100543
O O10 0.934015 0.405618 0.170484
O O11 0.002817 0.195322 0.160884
O O12 0.783176 0.603769 0.521059
O O13 0.130244 0.026164 0.114096
O O14 0.070987 0.136054 0.005438
O O15 0.500000 0.500000 0.720592
O O16 0.000000 0.500000 0.839110
#
# Coordination Sequence:
#
# PCOD9542964 Si02
#       8
#     8   8   8   8   4   8   8   8
#     4  11  24  41  69 103 135 180 226 294 356 417
#     4  12  25  43  67  98 142 186 228 276 343 420
#     4  11  24  45  67  94 137 179 236 285 335 415
#     4  11  23  41  67  98 137 173 223 283 353 414
#     4  10  24  44  73 105 128 184 240 288 356 414
#     4  11  20  37  65 101 136 161 207 290 359 395
#     4  12  24  40  65 100 134 176 222 281 345 410
#     4  12  23  42  69 103 139 186 232 283 351 429
#
# _framework density 22.560064000000001
#
# number of rings (size 3 to 8) (size 9 to 14) (size 15 to 20)
#    0.000    0.667    6.000    2.400    1.867    2.400 
#    0.000    4.000    0.000    0.000    0.000    0.000 
#    0.000    0.000    0.000    0.000    0.000    0.000 
#
# Total GULP energy -167763.448319 kJ/mol
# GULP energy per Si atom -5592.114944 kJ/mol
# Density = 2.250872 g / cm^3
# Si number density = 22.560064 Si / 1000 Ang^3
#
#
#
# Elastic Constant Matrix: (Units=GPa)
#
#
# Indices 1 2 3 4 5 6 
#
# 1 63.0604 21.1706 -2.4120 0.0000 0.0000 11.4225
# 2 21.1706 63.0604 -2.4120 0.0000 0.0000 -11.4225
# 3 -2.4120 -2.4120 41.8506 0.0000 0.0000 0.0000
# 4 0.0000 0.0000 0.0000 11.3495 0.0000 0.0000
# 5 0.0000 0.0000 0.0000 0.0000 11.3495 0.0000
# 6 11.4225 -11.4225 0.0000 0.0000 0.0000 37.2317
#
#
#
# Elastic Compliance Matrix: (Units=1/GPa)
#
#
# Indices 1 2 3 4 5 6 
#
# 1 0.020290 -0.008379 0.000687 0.000000 0.000000 -0.008795
# 2 -0.008379 0.020290 0.000687 0.000000 0.000000 0.008795
# 3 0.000687 0.000687 0.023974 0.000000 0.000000 0.000000
# 4 0.000000 0.000000 0.000000 0.088110 0.000000 0.000000
# 5 0.000000 0.000000 0.000000 0.000000 0.088110 0.000000
# 6 -0.008795 0.008795 0.000000 0.000000 0.000000 0.032256
#
#
# Mechanical properties :
#
#
# Convention : Reuss Voigt Hill
#
# Bulk Modulus (GPa) = 19.78529 22.29604 21.04067
# Shear Modulus (GPa) = 16.45341 22.09443 19.27392
#
# Velocity S-wave (km/s) = 2.70351 3.13287 2.92608
# Velocity P-wave (km/s) = 4.30516 4.79488 4.55661
#
# Compressibility (1/GPa) = 0.05054259
#
# Stress axis : x y z
#
# Youngs Moduli (GPa) = 49.28500 49.28500 41.71242
#
# Poissons Ratio (x) = 0.41294 -0.02864
# Poissons Ratio (y) = 0.41294 -0.02864
# Poissons Ratio (z) = -0.03383 -0.03383
#
# Static dielectric constant tensor:
#      x y z
#    x 1.882070 0.000000 0.000000 
#    y 0.000000 1.882070 0.000000 
#    z 0.000000 0.000000 1.880800 
# 
# From -- ./inp_files/3181.got.cif
#   From: 2010.05.17/outbox.cif.g08.bks.cpg/sg82_2_cif.got.tgz:3181.got - 2010.06.03 18:52:26.
