data_PCOD9542312
_publ_section_title
;
Structure prediction by ZEFSAII (Michael W. Deem and Ramdas Pophale) SiO2 
 PCOD9542312
Probable space group: I 41
;
_chemical_formula_sum "Si O2"
_cell_formula_units_Z 40
_cell_length_a 17.305632
_cell_length_b 17.305632
_cell_length_c 5.150676
_cell_angle_alpha 90.000000
_cell_angle_beta 90.000000
_cell_angle_gamma 90.000000
_cell_volume 1542.549681
_symmetry_space_group_name_H-M "I 41"
_symmetry_group_IT_number 80
_symmetry_cell_setting 'tetragonal'
loop_
_space_group_symop_operation_xyz
x,y,z
-y,1/2+x,1/4+z
-x,-y,z
y,1/2-x,1/4+z
1/2+x,1/2+y,1/2+z
1/2-y,x,3/4+z
1/2-x,1/2-y,1/2+z
1/2+y,-x,3/4+z
loop_
_atom_site_type_symbol
_atom_site_label
_atom_site_fract_x
_atom_site_fract_y
_atom_site_fract_z
Si Si1 0.748615 0.369573 0.654390
Si Si2 0.034369 0.630538 0.120866
Si Si3 0.196521 0.351578 0.253615
Si Si4 0.007067 0.846448 0.700986
Si Si5 0.928886 0.610760 0.623472
O O1 0.685752 0.316417 0.800234
O O2 0.706163 0.414136 0.420825
O O3 0.782287 0.435943 0.838511
O O4 0.852749 0.654700 0.520388
O O5 0.982224 0.615194 0.371487
O O6 0.980672 0.635766 0.867878
O O7 0.284511 0.335803 0.321806
O O8 0.182968 0.434726 0.119922
O O9 0.971324 0.894296 0.459928
O O10 0.059342 0.907419 0.850216
#
# Coordination Sequence:
#
# PCOD9542312 Si02
#       5
#     8   8   8   8   8
#     4  12  30  56  89 138 192 248 304 381 467 567
#     4  12  30  54  93 131 181 236 306 374 459 546
#     4  12  34  57  87 129 179 242 309 388 468 552
#     4  12  31  55  92 132 180 245 302 379 457 552
#     4  12  30  55  87 131 174 229 303 377 449 539
#
# _framework density 25.931092
#
# number of rings (size 3 to 8) (size 9 to 14) (size 15 to 20)
#    0.000    0.000    2.000    3.000   16.800    3.200 
#    3.600    0.000    0.000    0.000    0.000    0.000 
#    0.000    0.000    0.000    0.000    0.000    0.000 
#
# Total GULP energy -112408.821609 kJ/mol
# GULP energy per Si atom -5620.441080 kJ/mol
# Density = 2.587207 g / cm^3
# Si number density = 25.931092 Si / 1000 Ang^3
#
#
#
# Elastic Constant Matrix: (Units=GPa)
#
#
# Indices 1 2 3 4 5 6 
#
# 1 196.2799 111.9984 99.3539 0.0000 0.0000 3.6611
# 2 111.9984 196.2799 99.3539 0.0000 0.0000 -3.6611
# 3 99.3539 99.3539 207.0770 0.0000 0.0000 0.0000
# 4 0.0000 0.0000 0.0000 34.4638 0.0000 0.0000
# 5 0.0000 0.0000 0.0000 0.0000 34.4638 0.0000
# 6 3.6611 -3.6611 0.0000 0.0000 0.0000 9.2952
#
#
#
# Elastic Compliance Matrix: (Units=1/GPa)
#
#
# Indices 1 2 3 4 5 6 
#
# 1 0.008491 -0.003795 -0.002253 0.000000 0.000000 -0.004839
# 2 -0.003795 0.008491 -0.002253 0.000000 0.000000 0.004839
# 3 -0.002253 -0.002253 0.006991 0.000000 0.000000 0.000000
# 4 0.000000 0.000000 0.000000 0.029016 0.000000 0.000000
# 5 0.000000 0.000000 0.000000 0.000000 0.029016 0.000000
# 6 -0.004839 0.004839 0.000000 0.000000 0.000000 0.111394
#
#
# Mechanical properties :
#
#
# Convention : Reuss Voigt Hill
#
# Bulk Modulus (GPa) = 135.66980 135.67213 135.67097
# Shear Modulus (GPa) = 23.53414 34.90661 29.22038
#
# Velocity S-wave (km/s) = 3.01585 3.67294 3.36050
# Velocity P-wave (km/s) = 8.03493 8.39173 8.21527
#
# Compressibility (1/GPa) = 0.00737084
#
# Stress axis : x y z
#
# Youngs Moduli (GPa) = 117.77486 117.77486 143.03606
#
# Poissons Ratio (x) = 0.44691 0.32229
# Poissons Ratio (y) = 0.44691 0.32229
# Poissons Ratio (z) = 0.26537 0.26537
#
# Static dielectric constant tensor:
#      x y z
#    x 2.030280 0.000000 0.000000 
#    y 0.000000 2.030280 0.000000 
#    z 0.000000 0.000000 2.040690 
# 
# From -- ./inp_files/204.got.cif
#   From: 2010.05.17/outbox.cif.g08.bks.cpg/sg80_cif.got.tgz:204.got - 2010.06.03 18:49:13.
