data_PCOD9542486
_publ_section_title
;
Structure prediction by ZEFSAII (Michael W. Deem and Ramdas Pophale) SiO2 
 PCOD9542486
Probable space group: P -4
;
_chemical_formula_sum "Si O2"
_cell_formula_units_Z 18
_cell_length_a 8.230014
_cell_length_b 8.230014
_cell_length_c 11.199647
_cell_angle_alpha 90.000000
_cell_angle_beta 90.000000
_cell_angle_gamma 90.000000
_cell_volume 758.587151
_symmetry_space_group_name_H-M "P -4"
_symmetry_group_IT_number 81
_symmetry_cell_setting 'tetragonal'
loop_
_space_group_symop_operation_xyz
x,y,z
y,-x,-z
-x,-y,z
-y,x,-z
loop_
_atom_site_type_symbol
_atom_site_label
_atom_site_fract_x
_atom_site_fract_y
_atom_site_fract_z
Si Si1 0.984389 0.814774 0.263287
Si Si2 0.500000 0.000000 0.911743
Si Si3 0.645766 0.698781 0.327747
Si Si4 0.409797 0.173339 0.583842
Si Si5 0.270291 0.565506 0.937195
O O1 0.127688 0.763009 0.356438
O O2 0.970239 0.654530 0.177572
O O3 0.808474 0.808057 0.324786
O O4 0.000000 0.000000 0.216364
O O5 0.606652 0.900383 0.009357
O O6 0.571256 0.749371 0.453150
O O7 0.704801 0.511873 0.332577
O O8 0.552297 0.724693 0.204028
O O9 0.500000 0.000000 0.577757
O O10 0.403142 0.689478 0.987615
#
# Coordination Sequence:
#
# PCOD9542486 Si02
#       5
#     4   2   4   4   4
#     4  11  24  46  75 107 155 199 248 318 392 451
#     4  12  24  52  70 112 154 186 264 324 360 480
#     4  11  24  46  70 110 140 201 248 312 391 456
#     4  10  24  44  70 108 153 185 255 322 379 470
#     4  11  25  46  74  98 145 197 242 310 389 449
#
# _framework density 23.728321999999999
#
# number of rings (size 3 to 8) (size 9 to 14) (size 15 to 20)
#    0.000    1.111    5.556    0.000    7.778    7.556 
#    0.000    0.000    0.000    0.000    0.000    0.000 
#    0.000    0.000    0.000    0.000    0.000    0.000 
#
# Total GULP energy -100219.625094 kJ/mol
# GULP energy per Si atom -5567.756950 kJ/mol
# Density = 2.367432 g / cm^3
# Si number density = 23.728322 Si / 1000 Ang^3
#
#
#
# Elastic Constant Matrix: (Units=GPa)
#
#
# Indices 1 2 3 4 5 6 
#
# 1 -44.3404 99.8076 41.9596 0.0000 0.0000 -41.8621
# 2 99.8076 -44.3404 41.9596 0.0000 0.0000 41.8621
# 3 41.9596 41.9596 181.7910 0.0000 0.0000 0.0000
# 4 0.0000 0.0000 0.0000 35.0890 0.0000 0.0000
# 5 0.0000 0.0000 0.0000 0.0000 35.0890 0.0000
# 6 -41.8621 41.8621 0.0000 0.0000 0.0000 -17.7893
#
#
#
# Elastic Compliance Matrix: (Units=1/GPa)
#
#
# Indices 1 2 3 4 5 6 
#
# 1 0.023308 0.004395 -0.006394 0.000000 0.000000 -0.044507
# 2 0.004395 0.023308 -0.006394 0.000000 0.000000 0.044507
# 3 -0.006394 -0.006394 0.008453 0.000000 0.000000 0.000000
# 4 0.000000 0.000000 0.000000 0.028499 0.000000 0.000000
# 5 0.000000 0.000000 0.000000 0.000000 0.028499 0.000000
# 6 -0.044507 0.044507 0.000000 0.000000 0.000000 0.153255
#
#
# Mechanical properties :
#
#
# Convention : Reuss Voigt Hill
#
# Bulk Modulus (GPa) = 26.12237 51.17377 38.64807
# Shear Modulus (GPa) = 16.95671 4.43663 10.69667
#
# Velocity S-wave (km/s) = 2.67614 1.36888 2.12550
# Velocity P-wave (km/s) = 4.53671 4.91037 4.72724
#
# Compressibility (1/GPa) = 0.03828137
#
# Stress axis : x y z
#
# Youngs Moduli (GPa) = 42.90382 42.90382 118.30812
#
# Poissons Ratio (x) = -0.18855 0.75648
# Poissons Ratio (y) = -0.18855 0.75648
# Poissons Ratio (z) = 0.27433 0.27433
#
# Static dielectric constant tensor:
#      x y z
#    x 1.836240 0.000000 0.000000 
#    y 0.000000 1.836240 0.000000 
#    z 0.000000 0.000000 2.301060 
# 
# From -- ./inp_files/1146.got.cif
#   From: 2010.05.17/outbox.cif.g08.bks.cpg/sg81_cif.got.tgz:1146.got - 2010.06.03 18:51:07.
