data_PCOD9542381
_publ_section_title
;
Structure prediction by ZEFSAII (Michael W. Deem and Ramdas Pophale) SiO2 
 PCOD9542381
Probable space group: P -4
;
_chemical_formula_sum "Si O2"
_cell_formula_units_Z 18
_cell_length_a 11.010695
_cell_length_b 11.010695
_cell_length_c 5.364171
_cell_angle_alpha 90.000000
_cell_angle_beta 90.000000
_cell_angle_gamma 90.000000
_cell_volume 650.327440
_symmetry_space_group_name_H-M "P -4"
_symmetry_group_IT_number 81
_symmetry_cell_setting 'tetragonal'
loop_
_space_group_symop_operation_xyz
x,y,z
y,-x,-z
-x,-y,z
-y,x,-z
loop_
_atom_site_type_symbol
_atom_site_label
_atom_site_fract_x
_atom_site_fract_y
_atom_site_fract_z
Si Si1 0.597946 0.646485 0.378657
Si Si2 0.296757 0.135713 0.618265
Si Si3 0.346402 0.783813 0.018142
Si Si4 0.147846 0.945660 0.836090
Si Si5 0.000000 0.500000 0.055315
O O1 0.639600 0.547401 0.589423
O O2 0.636604 0.787461 0.404510
O O3 0.669207 0.601533 0.132764
O O4 0.401339 0.066835 0.771158
O O5 0.181530 0.042918 0.617852
O O6 0.249823 0.248692 0.778781
O O7 0.260632 0.856187 0.820498
O O8 0.437110 0.891038 0.094818
O O9 0.032258 0.861844 0.913483
#
# Coordination Sequence:
#
# PCOD9542381 Si02
#       5
#     4   4   4   4   2
#     4  11  24  40  60  95 136 170 216 267 318 401
#     4  10  21  39  65  93 129 171 215 263 329 382
#     4  10  21  39  65  93 129 171 215 263 329 382
#     4   8  16  36  63  86 122 159 206 276 316 363
#     4  10  20  42  62  90 134 164 208 280 304 384
#
# _framework density 27.678366
#
# number of rings (size 3 to 8) (size 9 to 14) (size 15 to 20)
#    0.000    2.222    2.222    0.000    3.111    0.000 
#    0.000   31.111    0.000    2.667    0.000    0.000 
#    0.000    0.000    0.000    0.000    0.000    0.000 
#
# Total GULP energy -100287.873640 kJ/mol
# GULP energy per Si atom -5571.548536 kJ/mol
# Density = 2.761537 g / cm^3
# Si number density = 27.678366 Si / 1000 Ang^3
#
#
#
# Elastic Constant Matrix: (Units=GPa)
#
#
# Indices 1 2 3 4 5 6 
#
# 1 145.9485 60.8165 30.1526 0.0000 0.0000 -8.6394
# 2 60.8165 145.9485 30.1526 0.0000 0.0000 8.6394
# 3 30.1526 30.1526 65.9921 0.0000 0.0000 0.0000
# 4 0.0000 0.0000 0.0000 16.7416 0.0000 0.0000
# 5 0.0000 0.0000 0.0000 0.0000 16.7416 0.0000
# 6 -8.6394 8.6394 0.0000 0.0000 0.0000 70.9158
#
#
#
# Elastic Compliance Matrix: (Units=1/GPa)
#
#
# Indices 1 2 3 4 5 6 
#
# 1 0.008812 -0.003232 -0.002550 0.000000 0.000000 0.001467
# 2 -0.003232 0.008812 -0.002550 0.000000 0.000000 -0.001467
# 3 -0.002550 -0.002550 0.017483 0.000000 0.000000 0.000000
# 4 0.000000 0.000000 0.000000 0.059731 0.000000 0.000000
# 5 0.000000 0.000000 0.000000 0.000000 0.059731 0.000000
# 6 0.001467 -0.001467 0.000000 0.000000 0.000000 0.014459
#
#
# Mechanical properties :
#
#
# Convention : Reuss Voigt Hill
#
# Bulk Modulus (GPa) = 54.21549 66.68141 60.44845
# Shear Modulus (GPa) = 26.06342 36.66431 31.36386
#
# Velocity S-wave (km/s) = 3.07197 3.64353 3.36989
# Velocity P-wave (km/s) = 5.67564 6.46871 6.08511
#
# Compressibility (1/GPa) = 0.01844491
#
# Stress axis : x y z
#
# Youngs Moduli (GPa) = 113.47965 113.47965 57.19775
#
# Poissons Ratio (x) = 0.36678 0.14583
# Poissons Ratio (y) = 0.36678 0.14583
# Poissons Ratio (z) = 0.28933 0.28933
#
# Static dielectric constant tensor:
#      x y z
#    x 2.244350 0.000000 0.000000 
#    y 0.000000 2.244350 0.000000 
#    z 0.000000 0.000000 2.284070 
# 
# From -- ./inp_files/179.got.cif
#   From: 2010.05.17/outbox.cif.g08.bks.cpg/sg81_cif.got.tgz:179.got - 2010.06.03 18:51:07.
