data_PCOD9542710
_publ_section_title
;
Structure prediction by ZEFSAII (Michael W. Deem and Ramdas Pophale) SiO2 
 PCOD9542710
Probable space group: I -4 
;
_chemical_formula_sum "Si O2"
_cell_formula_units_Z 40
_cell_length_a 21.698831
_cell_length_b 21.698831
_cell_length_c 4.916967
_cell_angle_alpha 90.000000
_cell_angle_beta 90.000000
_cell_angle_gamma 90.000000
_cell_volume 2315.101137
_symmetry_space_group_name_H-M "I -4 "
_symmetry_group_IT_number 82
_symmetry_cell_setting 'tetragonal'
loop_
_space_group_symop_operation_xyz
x,y,z
y,-x,-z
-x,-y,z
-y,x,-z
1/2+x,1/2+y,1/2+z
1/2+y,1/2-x,1/2-z
1/2-x,1/2-y,1/2+z
1/2-y,1/2+x,1/2-z
loop_
_atom_site_type_symbol
_atom_site_label
_atom_site_fract_x
_atom_site_fract_y
_atom_site_fract_z
Si Si1 0.673551 0.718373 0.633012
Si Si2 0.459218 0.702371 0.947993
Si Si3 0.244025 0.168849 0.633256
Si Si4 0.439190 0.568683 0.920187
Si Si5 0.540838 0.679598 0.426266
O O1 0.695916 0.788904 0.596309
O O2 0.717217 0.677891 0.435046
O O3 0.603877 0.705821 0.548714
O O4 0.692355 0.698952 0.936138
O O5 0.403130 0.749519 0.932024
O O6 0.428530 0.636617 0.036018
O O7 0.488644 0.688071 0.654898
O O8 0.513522 0.714254 0.161100
O O9 0.389482 0.554759 0.688193
O O10 0.512638 0.567884 0.865914
#
# Coordination Sequence:
#
# PCOD9542710 Si02
#       5
#     8   8   8   8   8
#     4  10  20  35  57  72 100 130 179 210 270 307
#     4  11  22  34  52  72 103 131 174 216 254 294
#     4  10  20  36  54  76  96 135 171 221 259 317
#     4   9  20  33  46  65  98 140 177 206 239 284
#     4  11  22  34  53  71 101 132 171 219 250 299
#
# _framework density 17.277864999999998
#
# number of rings (size 3 to 8) (size 9 to 14) (size 15 to 20)
#    0.000    1.800    2.000    2.400    2.800    4.800 
#    0.000    2.000    0.000    0.000    0.000    0.000 
#    0.000    4.800    0.000    0.000    0.000    0.000 
#
# Total GULP energy -111497.599577 kJ/mol
# GULP energy per Si atom -5574.879979 kJ/mol
# Density = 1.723854 g / cm^3
# Si number density = 17.277865 Si / 1000 Ang^3
#
#
#
# Elastic Constant Matrix: (Units=GPa)
#
#
# Indices 1 2 3 4 5 6 
#
# 1 67.8909 35.4300 -0.1476 0.0000 0.0000 -6.9639
# 2 35.4300 67.8909 -0.1476 0.0000 0.0000 6.9639
# 3 -0.1476 -0.1476 35.1895 0.0000 0.0000 0.0000
# 4 0.0000 0.0000 0.0000 18.7756 0.0000 0.0000
# 5 0.0000 0.0000 0.0000 0.0000 18.7756 0.0000
# 6 -6.9639 6.9639 0.0000 0.0000 0.0000 23.1708
#
#
#
# Elastic Compliance Matrix: (Units=1/GPa)
#
#
# Indices 1 2 3 4 5 6 
#
# 1 0.022523 -0.012844 0.000041 0.000000 0.000000 0.010630
# 2 -0.012844 0.022523 0.000041 0.000000 0.000000 -0.010630
# 3 0.000041 0.000041 0.028418 0.000000 0.000000 0.000000
# 4 0.000000 0.000000 0.000000 0.053261 0.000000 0.000000
# 5 0.000000 0.000000 0.000000 0.000000 0.053261 0.000000
# 6 0.010630 -0.010630 0.000000 0.000000 0.000000 0.049547
#
#
# Mechanical properties :
#
#
# Convention : Reuss Voigt Hill
#
# Bulk Modulus (GPa) = 20.86041 26.80454 23.83248
# Shear Modulus (GPa) = 18.44766 21.20017 19.82392
#
# Velocity S-wave (km/s) = 3.27112 3.50668 3.39094
# Velocity P-wave (km/s) = 5.13485 5.65183 5.39953
#
# Compressibility (1/GPa) = 0.04793769
#
# Stress axis : x y z
#
# Youngs Moduli (GPa) = 44.39927 44.39927 35.18906
#
# Poissons Ratio (x) = 0.57027 -0.00143
# Poissons Ratio (y) = 0.57027 -0.00143
# Poissons Ratio (z) = -0.00180 -0.00180
#
# Static dielectric constant tensor:
#      x y z
#    x 1.618970 0.000000 0.000000 
#    y 0.000000 1.618970 0.000000 
#    z 0.000000 0.000000 1.638980 
# 
# From -- ./inp_files/286.got.cif
#   From: 2010.05.17/outbox.cif.g08.bks.cpg/sg82_1_cif.got.tgz:286.got - 2010.06.03 18:52:26.
