data_PCOD9542239
_publ_section_title
;
Structure prediction by ZEFSAII (Michael W. Deem and Ramdas Pophale) SiO2 
 PCOD9542239
Probable space group: I 41
;
_chemical_formula_sum "Si O2"
_cell_formula_units_Z 40
_cell_length_a 9.207367
_cell_length_b 9.207367
_cell_length_c 17.507197
_cell_angle_alpha 90.000000
_cell_angle_beta 90.000000
_cell_angle_gamma 90.000000
_cell_volume 1484.183254
_symmetry_space_group_name_H-M "I 41"
_symmetry_group_IT_number 80
_symmetry_cell_setting 'tetragonal'
loop_
_space_group_symop_operation_xyz
x,y,z
-y,1/2+x,1/4+z
-x,-y,z
y,1/2-x,1/4+z
1/2+x,1/2+y,1/2+z
1/2-y,x,3/4+z
1/2-x,1/2-y,1/2+z
1/2+y,-x,3/4+z
loop_
_atom_site_type_symbol
_atom_site_label
_atom_site_fract_x
_atom_site_fract_y
_atom_site_fract_z
Si Si1 0.020760 0.836203 0.646420
Si Si2 0.142515 0.428999 0.493682
Si Si3 0.355978 0.823899 0.642204
Si Si4 0.404629 0.363000 0.976256
Si Si5 0.340304 0.042093 0.772167
O O1 0.948123 0.831096 0.563200
O O2 0.932749 0.748851 0.708849
O O3 0.186491 0.786822 0.634285
O O4 0.000000 0.000000 0.670574
O O5 0.283956 0.549969 0.316676
O O6 0.081664 0.297131 0.440669
O O7 0.283625 0.343647 0.527145
O O8 0.000000 0.500000 0.532520
O O9 0.437449 0.722468 0.703223
O O10 0.346284 0.982684 0.683742
O O11 0.500000 0.500000 0.950458
O O12 0.500000 0.000000 0.803860
#
# Coordination Sequence:
#
# PCOD9542239 Si02
#       5
#     8   8   8   8   8
#     4  11  27  51  81 119 169 222 270 343 413 494
#     4  11  25  48  79 116 163 217 269 342 408 492
#     4  11  25  50  82 117 169 216 277 341 414 500
#     4  11  27  50  78 121 164 218 276 334 415 491
#     4  10  25  47  81 124 161 219 274 342 417 492
#
# _framework density 26.950845999999999
#
# number of rings (size 3 to 8) (size 9 to 14) (size 15 to 20)
#    0.000    1.200    0.000    3.000   14.000    0.800 
#    7.200    1.000    0.000    0.000    0.000    0.000 
#    0.000    0.000    0.000    0.000    0.000    0.000 
#
# Total GULP energy -111645.723429 kJ/mol
# GULP energy per Si atom -5582.286171 kJ/mol
# Density = 2.688950 g / cm^3
# Si number density = 26.950846 Si / 1000 Ang^3
#
#
#
# Elastic Constant Matrix: (Units=GPa)
#
#
# Indices 1 2 3 4 5 6 
#
# 1 219.2141 77.5001 58.2890 0.0000 0.0000 -15.5173
# 2 77.5001 219.2141 58.2890 0.0000 0.0000 15.5173
# 3 58.2890 58.2890 106.6488 0.0000 0.0000 0.0000
# 4 0.0000 0.0000 0.0000 22.7128 0.0000 0.0000
# 5 0.0000 0.0000 0.0000 0.0000 22.7128 0.0000
# 6 -15.5173 15.5173 0.0000 0.0000 0.0000 45.3402
#
#
#
# Elastic Compliance Matrix: (Units=1/GPa)
#
#
# Indices 1 2 3 4 5 6 
#
# 1 0.005960 -0.001668 -0.002346 0.000000 0.000000 0.002611
# 2 -0.001668 0.005960 -0.002346 0.000000 0.000000 -0.002611
# 3 -0.002346 -0.002346 0.011941 0.000000 0.000000 0.000000
# 4 0.000000 0.000000 0.000000 0.044028 0.000000 0.000000
# 5 0.000000 0.000000 0.000000 0.000000 0.044028 0.000000
# 6 0.002611 -0.002611 0.000000 0.000000 0.000000 0.023842
#
#
# Mechanical properties :
#
#
# Convention : Reuss Voigt Hill
#
# Bulk Modulus (GPa) = 89.75428 103.69256 96.72342
# Shear Modulus (GPa) = 32.85318 41.55309 37.20314
#
# Velocity S-wave (km/s) = 3.49521 3.93085 3.71941
# Velocity P-wave (km/s) = 7.04726 7.69157 7.37646
#
# Compressibility (1/GPa) = 0.01114153
#
# Stress axis : x y z
#
# Youngs Moduli (GPa) = 167.78433 167.78433 83.74723
#
# Poissons Ratio (x) = 0.27989 0.19645
# Poissons Ratio (y) = 0.27989 0.19645
# Poissons Ratio (z) = 0.39358 0.39358
#
# Static dielectric constant tensor:
#      x y z
#    x 2.364160 0.000000 0.000000 
#    y 0.000000 2.364160 0.000000 
#    z 0.000000 0.000000 2.259810 
# 
# From -- ./inp_files/1999.got.cif
#   From: 2010.05.17/outbox.cif.g08.bks.cpg/sg80_cif.got.tgz:1999.got - 2010.06.03 18:49:13.
