data_PCOD9542331
_publ_section_title
;
Structure prediction by ZEFSAII (Michael W. Deem and Ramdas Pophale) SiO2 
 PCOD9542331
Probable space group: P -4
;
_chemical_formula_sum "Si O2"
_cell_formula_units_Z 32
_cell_length_a 13.817862
_cell_length_b 13.817862
_cell_length_c 9.580637
_cell_angle_alpha 90.000000
_cell_angle_beta 90.000000
_cell_angle_gamma 90.000000
_cell_volume 1829.262737
_symmetry_space_group_name_H-M "P -4"
_symmetry_group_IT_number 81
_symmetry_cell_setting 'tetragonal'
loop_
_space_group_symop_operation_xyz
x,y,z
y,-x,-z
-x,-y,z
-y,x,-z
loop_
_atom_site_type_symbol
_atom_site_label
_atom_site_fract_x
_atom_site_fract_y
_atom_site_fract_z
Si Si1 0.070822 0.136432 0.008332
Si Si2 0.819250 0.742973 0.778691
Si Si3 0.612964 0.006068 0.189568
Si Si4 0.328891 0.002272 0.877880
Si Si5 0.443824 0.900785 0.658678
Si Si6 0.258309 0.100818 0.421718
Si Si7 0.185669 0.637239 0.321711
Si Si8 0.102694 0.236238 0.474347
O O1 0.146428 0.183341 0.899605
O O2 0.966129 0.111158 0.938154
O O3 0.042566 0.221798 0.114216
O O4 0.704609 0.734164 0.751984
O O5 0.858730 0.781881 0.630803
O O6 0.882029 0.647362 0.805524
O O7 0.678644 0.946430 0.298692
O O8 0.500000 0.000000 0.220645
O O9 0.638016 0.971354 0.033311
O O10 0.336879 0.092087 0.773587
O O11 0.402250 0.924776 0.811704
O O12 0.521622 0.815449 0.668773
O O13 0.349167 0.883917 0.565291
O O14 0.500000 0.000000 0.610995
O O15 0.326426 0.164826 0.521702
O O16 0.167829 0.167003 0.379291
O O17 0.219755 0.011437 0.515740
#
# Coordination Sequence:
#
# PCOD9542331 Si02
#       8
#     4   4   4   4   4   4   4   4
#     4  10  19  32  50  73 111 157 184 210 266 334
#     4   9  20  33  47  75 107 133 178 231 258 323
#     4  10  21  34  53  79 110 140 177 226 282 318
#     4  10  19  32  50  76 101 137 185 224 253 324
#     4  10  19  32  59  70  97 142 184 225 269 325
#     4  10  21  34  51  73 108 135 175 225 258 332
#     4  10  18  35  52  72  99 138 179 225 266 312
#     4  10  20  34  48  79 101 136 184 215 271 313
#
# _framework density 17.493386999999998
#
# number of rings (size 3 to 8) (size 9 to 14) (size 15 to 20)
#    0.000    2.125    3.750    1.125    3.500    3.250 
#    0.000    0.000    0.000    0.000    0.000    0.875 
#    0.000    0.000    0.000    0.000    0.000    0.000 
#
# Total GULP energy -178181.482526 kJ/mol
# GULP energy per Si atom -5568.171329 kJ/mol
# Density = 1.745357 g / cm^3
# Si number density = 17.493387 Si / 1000 Ang^3
#
#
#
# Elastic Constant Matrix: (Units=GPa)
#
#
# Indices 1 2 3 4 5 6 
#
# 1 67.1151 23.6376 2.3690 0.0000 0.0000 0.0518
# 2 23.6376 67.1151 2.3690 0.0000 0.0000 -0.0518
# 3 2.3690 2.3690 59.6727 0.0000 0.0000 0.0000
# 4 0.0000 0.0000 0.0000 16.7712 0.0000 0.0000
# 5 0.0000 0.0000 0.0000 0.0000 16.7712 0.0000
# 6 0.0518 -0.0518 0.0000 0.0000 0.0000 20.2808
#
#
#
# Elastic Compliance Matrix: (Units=1/GPa)
#
#
# Indices 1 2 3 4 5 6 
#
# 1 0.017021 -0.005979 -0.000438 0.000000 0.000000 -0.000059
# 2 -0.005979 0.017021 -0.000438 0.000000 0.000000 0.000059
# 3 -0.000438 -0.000438 0.016793 0.000000 0.000000 0.000000
# 4 0.000000 0.000000 0.000000 0.059626 0.000000 0.000000
# 5 0.000000 0.000000 0.000000 0.000000 0.059626 0.000000
# 6 -0.000059 0.000059 0.000000 0.000000 0.000000 0.049308
#
#
# Mechanical properties :
#
#
# Convention : Reuss Voigt Hill
#
# Bulk Modulus (GPa) = 26.93742 27.85049 27.39395
# Shear Modulus (GPa) = 20.36809 21.79978 21.08394
#
# Velocity S-wave (km/s) = 3.41593 3.53395 3.47544
# Velocity P-wave (km/s) = 5.56688 5.71024 5.63902
#
# Compressibility (1/GPa) = 0.03712309
#
# Stress axis : x y z
#
# Youngs Moduli (GPa) = 58.75032 58.75032 59.54903
#
# Poissons Ratio (x) = 0.35129 0.02610
# Poissons Ratio (y) = 0.35129 0.02610
# Poissons Ratio (z) = 0.02575 0.02575
#
# Static dielectric constant tensor:
#      x y z
#    x 1.636720 0.000000 0.000000 
#    y 0.000000 1.636720 0.000000 
#    z 0.000000 0.000000 1.632160 
# 
# From -- ./inp_files/980.got.cif
#   From: 2010.05.17/outbox.cif.g08.bks.cpg/sg81_cif.got.tgz:980.got - 2010.06.03 18:51:07.
