data_PCOD9542194
_publ_section_title
;
Structure prediction by ZEFSAII (Michael W. Deem and Ramdas Pophale) SiO2 
 PCOD9542194
Probable space group: I 41
;
_chemical_formula_sum "Si O2"
_cell_formula_units_Z 52
_cell_length_a 21.140809
_cell_length_b 21.140809
_cell_length_c 5.171987
_cell_angle_alpha 90.000000
_cell_angle_beta 90.000000
_cell_angle_gamma 90.000000
_cell_volume 2311.535830
_symmetry_space_group_name_H-M "I 41"
_symmetry_group_IT_number 80
_symmetry_cell_setting 'tetragonal'
loop_
_space_group_symop_operation_xyz
x,y,z
-y,1/2+x,1/4+z
-x,-y,z
y,1/2-x,1/4+z
1/2+x,1/2+y,1/2+z
1/2-y,x,3/4+z
1/2-x,1/2-y,1/2+z
1/2+y,-x,3/4+z
loop_
_atom_site_type_symbol
_atom_site_label
_atom_site_fract_x
_atom_site_fract_y
_atom_site_fract_z
Si Si1 0.892775 0.584212 0.664320
Si Si2 0.834216 0.786246 0.184953
Si Si3 0.963874 0.316151 0.367183
Si Si4 0.795601 0.936405 0.733269
Si Si5 0.980865 0.196487 0.665383
Si Si6 0.000000 0.500000 0.705009
Si Si7 0.916834 0.389619 0.884000
O O1 0.840582 0.615463 0.484883
O O2 0.925955 0.640777 0.821550
O O3 0.850576 0.537899 0.842055
O O4 0.947019 0.538837 0.547645
O O5 0.819092 0.732553 0.391977
O O6 0.869787 0.741453 0.977780
O O7 0.957939 0.243029 0.438060
O O8 0.934448 0.356241 0.607673
O O9 0.930286 0.341246 0.112085
O O10 0.037820 0.316913 0.267199
O O11 0.746569 0.987998 0.616115
O O12 0.920956 0.150767 0.699539
O O13 0.035562 0.550900 0.880942
#
# Coordination Sequence:
#
# PCOD9542194 Si02
#       7
#     8   8   8   8   8   4   8
#     4  11  22  41  67 100 145 191 242 304 366 435
#     4  12  25  40  66 101 146 204 258 303 358 432
#     4  12  24  47  70 109 141 193 237 302 373 441
#     4  12  24  45  71 101 149 194 245 304 366 438
#     4  11  25  47  73 111 143 193 249 299 377 440
#     4  10  22  42  62 104 140 186 242 304 362 440
#     4  11  27  44  76 106 148 191 246 307 373 442
#
# _framework density 22.495864000000001
#
# number of rings (size 3 to 8) (size 9 to 14) (size 15 to 20)
#    0.000    0.615    4.615    2.769    4.308    0.615 
#    0.000    0.000    0.000    1.846    0.000    0.000 
#    0.000    0.000    0.000    0.000    0.000    0.000 
#
# Total GULP energy -144978.868667 kJ/mol
# GULP energy per Si atom -5576.110333 kJ/mol
# Density = 2.244466 g / cm^3
# Si number density = 22.495864 Si / 1000 Ang^3
#
#
#
# Elastic Constant Matrix: (Units=GPa)
#
#
# Indices 1 2 3 4 5 6 
#
# 1 102.3446 90.8620 43.8348 0.0000 0.0000 -20.9995
# 2 90.8620 102.3446 43.8348 0.0000 0.0000 20.9995
# 3 43.8348 43.8348 95.5329 0.0000 0.0000 0.0000
# 4 0.0000 0.0000 0.0000 23.7512 0.0000 0.0000
# 5 0.0000 0.0000 0.0000 0.0000 23.7512 0.0000
# 6 -20.9995 20.9995 0.0000 0.0000 0.0000 28.8703
#
#
#
# Elastic Compliance Matrix: (Units=1/GPa)
#
#
# Indices 1 2 3 4 5 6 
#
# 1 -0.022956 0.029493 -0.002999 0.000000 0.000000 -0.038150
# 2 0.029493 -0.022956 -0.002999 0.000000 0.000000 0.038150
# 3 -0.002999 -0.002999 0.013220 0.000000 0.000000 0.000000
# 4 0.000000 0.000000 0.000000 0.042103 0.000000 0.000000
# 5 0.000000 0.000000 0.000000 0.000000 0.042103 0.000000
# 6 -0.038150 0.038150 0.000000 0.000000 0.000000 -0.020860
#
#
# Mechanical properties :
#
#
# Convention : Reuss Voigt Hill
#
# Bulk Modulus (GPa) = 69.94871 73.03170 71.49020
# Shear Modulus (GPa) = -432.24420 23.38722 -204.42849
#
# Velocity S-wave (km/s) = -13.87663 3.22782 -9.54312
# Velocity P-wave (km/s) = 15.01954 6.81371 9.46466
#
# Compressibility (1/GPa) = 0.01429619
#
# Stress axis : x y z
#
# Youngs Moduli (GPa) = -43.56208 -43.56208 75.64230
#
# Poissons Ratio (x) = 1.28476 0.22688
# Poissons Ratio (y) = 1.28476 0.22688
# Poissons Ratio (z) = -0.13066 -0.13066
#
# Static dielectric constant tensor:
#      x y z
#    x 1.877730 0.000000 0.000000 
#    y 0.000000 1.877730 0.000000 
#    z 0.000000 0.000000 1.945740 
# 
# From -- ./inp_files/328.got.cif
#   From: 2010.05.17/outbox.cif.g08.bks.cpg/sg80_cif.got.tgz:328.got - 2010.06.03 18:49:13.
