data_PCOD9542845
_publ_section_title
;
Structure prediction by ZEFSAII (Michael W. Deem and Ramdas Pophale) SiO2 
 PCOD9542845
Probable space group: I -4 
;
_chemical_formula_sum "Si O2"
_cell_formula_units_Z 40
_cell_length_a 15.813050
_cell_length_b 15.813050
_cell_length_c 7.637518
_cell_angle_alpha 90.000000
_cell_angle_beta 90.000000
_cell_angle_gamma 90.000000
_cell_volume 1909.780854
_symmetry_space_group_name_H-M "I -4 "
_symmetry_group_IT_number 82
_symmetry_cell_setting 'tetragonal'
loop_
_space_group_symop_operation_xyz
x,y,z
y,-x,-z
-x,-y,z
-y,x,-z
1/2+x,1/2+y,1/2+z
1/2+y,1/2-x,1/2-z
1/2-x,1/2-y,1/2+z
1/2-y,1/2+x,1/2-z
loop_
_atom_site_type_symbol
_atom_site_label
_atom_site_fract_x
_atom_site_fract_y
_atom_site_fract_z
Si Si1 0.900205 0.900140 0.009216
Si Si2 0.141721 0.779615 0.692856
Si Si3 0.325094 0.720759 0.782540
Si Si4 0.047273 0.619009 0.693594
Si Si5 0.393616 0.085105 0.699427
O O1 0.862957 0.865881 0.191414
O O2 0.849777 0.858473 0.849158
O O3 0.999524 0.884911 0.996595
O O4 0.225124 0.730596 0.757944
O O5 0.150289 0.795470 0.485206
O O6 0.063740 0.716358 0.734875
O O7 0.365640 0.811993 0.732341
O O8 0.090581 0.550298 0.820963
O O9 0.093915 0.604872 0.509780
O O10 0.484859 0.114474 0.765494
#
# Coordination Sequence:
#
# PCOD9542845 Si02
#       5
#     8   8   8   8   8
#     4  11  28  50  72  97 141 192 233 288 346 413
#     4  11  25  42  70 103 134 177 231 287 345 413
#     4  11  25  42  70 103 134 177 231 287 345 413
#     4  10  22  36  59  94 131 172 212 270 347 414
#     4  10  22  36  59  94 131 172 212 270 347 414
#
# _framework density 20.944811999999999
#
# number of rings (size 3 to 8) (size 9 to 14) (size 15 to 20)
#    0.000    1.400    2.000    2.400   11.200    1.600 
#    0.000    2.000    0.000    0.000    0.000    0.000 
#    0.000    0.000    0.000    0.000    0.000    0.000 
#
# Total GULP energy -111814.488781 kJ/mol
# GULP energy per Si atom -5590.724439 kJ/mol
# Density = 2.089714 g / cm^3
# Si number density = 20.944812 Si / 1000 Ang^3
#
#
#
# Elastic Constant Matrix: (Units=GPa)
#
#
# Indices 1 2 3 4 5 6 
#
# 1 41.5573 14.5250 12.3020 0.0000 0.0000 -0.2306
# 2 14.5250 41.5573 12.3020 0.0000 0.0000 0.2306
# 3 12.3020 12.3020 60.5180 0.0000 0.0000 0.0000
# 4 0.0000 0.0000 0.0000 30.9721 0.0000 0.0000
# 5 0.0000 0.0000 0.0000 0.0000 30.9721 0.0000
# 6 -0.2306 0.2306 0.0000 0.0000 0.0000 26.2822
#
#
#
# Elastic Compliance Matrix: (Units=1/GPa)
#
#
# Indices 1 2 3 4 5 6 
#
# 1 0.028288 -0.008711 -0.003980 0.000000 0.000000 0.000325
# 2 -0.008711 0.028288 -0.003980 0.000000 0.000000 -0.000325
# 3 -0.003980 -0.003980 0.018142 0.000000 0.000000 0.000000
# 4 0.000000 0.000000 0.000000 0.032287 0.000000 0.000000
# 5 0.000000 0.000000 0.000000 0.000000 0.032287 0.000000
# 6 0.000325 -0.000325 0.000000 0.000000 0.000000 0.038054
#
#
# Mechanical properties :
#
#
# Convention : Reuss Voigt Hill
#
# Bulk Modulus (GPa) = 24.16780 24.65451 24.41116
# Shear Modulus (GPa) = 22.27393 24.61218 23.44306
#
# Velocity S-wave (km/s) = 3.26461 3.43169 3.34919
# Velocity P-wave (km/s) = 5.07682 5.24392 5.16105
#
# Compressibility (1/GPa) = 0.04137737
#
# Stress axis : x y z
#
# Youngs Moduli (GPa) = 35.35123 35.35123 55.12090
#
# Poissons Ratio (x) = 0.30794 0.21936
# Poissons Ratio (y) = 0.30794 0.21936
# Poissons Ratio (z) = 0.14068 0.14068
#
# Static dielectric constant tensor:
#      x y z
#    x 1.749140 0.000000 0.000000 
#    y 0.000000 1.749140 0.000000 
#    z 0.000000 0.000000 1.734260 
# 
# From -- ./inp_files/948.got.cif
#   From: 2010.05.17/outbox.cif.g08.bks.cpg/sg82_1_cif.got.tgz:948.got - 2010.06.03 18:52:26.
