data_PCOD9542702
_publ_section_title
;
Structure prediction by ZEFSAII (Michael W. Deem and Ramdas Pophale) SiO2 
 PCOD9542702
Probable space group: I -4 
;
_chemical_formula_sum "Si O2"
_cell_formula_units_Z 48
_cell_length_a 8.180876
_cell_length_b 8.180876
_cell_length_c 34.703094
_cell_angle_alpha 90.000000
_cell_angle_beta 90.000000
_cell_angle_gamma 90.000000
_cell_volume 2322.564676
_symmetry_space_group_name_H-M "I -4 "
_symmetry_group_IT_number 82
_symmetry_cell_setting 'tetragonal'
loop_
_space_group_symop_operation_xyz
x,y,z
y,-x,-z
-x,-y,z
-y,x,-z
1/2+x,1/2+y,1/2+z
1/2+y,1/2-x,1/2-z
1/2-x,1/2-y,1/2+z
1/2-y,1/2+x,1/2-z
loop_
_atom_site_type_symbol
_atom_site_label
_atom_site_fract_x
_atom_site_fract_y
_atom_site_fract_z
Si Si1 0.895069 0.759591 0.571322
Si Si2 0.500000 0.000000 0.130222
Si Si3 0.107632 0.749327 0.004304
Si Si4 0.099883 0.262561 0.419782
Si Si5 0.907822 0.249514 0.240203
Si Si6 0.000000 0.000000 0.702899
Si Si7 0.737755 0.745004 0.838820
O O1 0.892586 0.617357 0.602869
O O2 0.857036 0.686308 0.529623
O O3 0.080186 0.827169 0.572855
O O4 0.770124 0.906143 0.580735
O O5 0.376226 0.888238 0.153859
O O6 0.127691 0.658555 0.044839
O O7 0.921083 0.794509 0.994739
O O8 0.175435 0.319275 0.379135
O O9 0.801875 0.403952 0.254245
O O10 0.868169 0.222052 0.195601
O O11 0.879734 0.096877 0.268251
O O12 0.870002 0.090884 0.676363
#
# Coordination Sequence:
#
# PCOD9542702 Si02
#       7
#     8   4   8   8   8   4   8
#     4  10  20  37  59  83 117 156 195 234 284 346
#     4  10  20  34  59  90 118 150 190 246 289 324
#     4  11  23  38  56  82 118 156 197 243 288 337
#     4  10  21  38  60  86 113 154 197 238 287 338
#     4   9  20  39  61  83 114 154 190 234 291 351
#     4  10  20  38  60  84 115 152 191 234 290 354
#     4  10  20  37  59  86 118 149 193 241 285 344
#
# _framework density 20.666809000000001
#
# number of rings (size 3 to 8) (size 9 to 14) (size 15 to 20)
#    0.000    2.000    0.000    5.000    0.000    6.000 
#    0.000   15.000    0.000    0.000    0.000    0.000 
#    0.000    0.000    0.000    0.000    0.000    0.000 
#
# Total GULP energy -134156.707282 kJ/mol
# GULP energy per Si atom -5589.862803 kJ/mol
# Density = 2.061977 g / cm^3
# Si number density = 20.666809 Si / 1000 Ang^3
#
#
#
# Elastic Constant Matrix: (Units=GPa)
#
#
# Indices 1 2 3 4 5 6 
#
# 1 58.5116 6.7775 43.1866 0.0000 0.0000 -4.5280
# 2 6.7775 58.5116 43.1866 0.0000 0.0000 4.5280
# 3 43.1866 43.1866 162.8734 0.0000 0.0000 0.0000
# 4 0.0000 0.0000 0.0000 33.5342 0.0000 0.0000
# 5 0.0000 0.0000 0.0000 0.0000 33.5342 0.0000
# 6 -4.5280 4.5280 0.0000 0.0000 0.0000 11.8924
#
#
#
# Elastic Compliance Matrix: (Units=1/GPa)
#
#
# Indices 1 2 3 4 5 6 
#
# 1 0.022151 0.001441 -0.006256 0.000000 0.000000 0.007885
# 2 0.001441 0.022151 -0.006256 0.000000 0.000000 -0.007885
# 3 -0.006256 -0.006256 0.009457 0.000000 0.000000 0.000000
# 4 0.000000 0.000000 0.000000 0.029820 0.000000 0.000000
# 5 0.000000 0.000000 0.000000 0.000000 0.029820 0.000000
# 6 0.007885 -0.007885 0.000000 0.000000 0.000000 0.090092
#
#
# Mechanical properties :
#
#
# Convention : Reuss Voigt Hill
#
# Bulk Modulus (GPa) = 31.62630 51.79977 41.71304
# Shear Modulus (GPa) = 21.17104 28.24191 24.70647
#
# Velocity S-wave (km/s) = 3.20409 3.70068 3.46130
# Velocity P-wave (km/s) = 5.38743 6.58625 6.01677
#
# Compressibility (1/GPa) = 0.03161926
#
# Stress axis : x y z
#
# Youngs Moduli (GPa) = 45.14453 45.14453 105.74037
#
# Poissons Ratio (x) = -0.06506 0.66147
# Poissons Ratio (y) = -0.06506 0.66147
# Poissons Ratio (z) = 0.28241 0.28241
#
# Static dielectric constant tensor:
#      x y z
#    x 1.749910 0.000000 0.000000 
#    y 0.000000 1.749910 0.000000 
#    z 0.000000 0.000000 1.719920 
# 
# From -- ./inp_files/4085.got.cif
#   From: 2010.05.17/outbox.cif.g08.bks.cpg/sg82_3_cif.got.tgz:4085.got - 2010.06.03 18:52:26.
