data_PCOD9542132
_publ_section_title
;
Structure prediction by ZEFSAII (Michael W. Deem and Ramdas Pophale) SiO2 
 PCOD9542132
Probable space group: I 41
;
_chemical_formula_sum "Si O2"
_cell_formula_units_Z 48
_cell_length_a 13.084575
_cell_length_b 13.084575
_cell_length_c 13.577094
_cell_angle_alpha 90.000000
_cell_angle_beta 90.000000
_cell_angle_gamma 90.000000
_cell_volume 2324.481353
_symmetry_space_group_name_H-M "I 41"
_symmetry_group_IT_number 80
_symmetry_cell_setting 'tetragonal'
loop_
_space_group_symop_operation_xyz
x,y,z
-y,1/2+x,1/4+z
-x,-y,z
y,1/2-x,1/4+z
1/2+x,1/2+y,1/2+z
1/2-y,x,3/4+z
1/2-x,1/2-y,1/2+z
1/2+y,-x,3/4+z
loop_
_atom_site_type_symbol
_atom_site_label
_atom_site_fract_x
_atom_site_fract_y
_atom_site_fract_z
Si Si1 0.929510 0.662374 0.474590
Si Si2 0.500000 0.000000 0.334138
Si Si3 0.875378 0.141015 0.732861
Si Si4 0.000000 0.500000 0.344612
Si Si5 0.852399 0.041387 0.419121
Si Si6 0.633446 0.111089 0.709463
Si Si7 0.498989 0.706160 0.809624
O O1 0.838683 0.581101 0.482994
O O2 0.927224 0.752252 0.397067
O O3 0.013796 0.593429 0.418673
O O4 0.968438 0.688491 0.582543
O O5 0.416402 0.948952 0.405501
O O6 0.520710 0.908966 0.255623
O O7 0.895499 0.261005 0.716877
O O8 0.754982 0.122835 0.717363
O O9 0.899432 0.108744 0.844441
O O10 0.094690 0.512406 0.270536
O O11 0.929813 0.120101 0.363852
O O12 0.573171 0.209729 0.755814
#
# Coordination Sequence:
#
# PCOD9542132 Si02
#       7
#     8   4   8   4   8   8   8
#     4  11  22  39  68  92 133 170 226 277 342 386
#     4  12  24  44  66  98 146 174 220 284 336 400
#     4  12  25  42  67 104 137 179 222 281 339 405
#     4  10  20  42  64  98 134 172 210 284 336 398
#     4  12  23  42  66  99 133 178 227 281 331 403
#     4  11  24  39  70  98 137 167 226 275 339 401
#     4  11  23  40  68  99 130 177 224 283 332 403
#
# _framework density 20.649767000000001
#
# number of rings (size 3 to 8) (size 9 to 14) (size 15 to 20)
#    0.000    0.667    5.000    3.500    4.667    0.000 
#    0.000    0.000   29.333    0.000    0.000    0.000 
#    0.000    0.000    0.000    0.000    0.000    0.000 
#
# Total GULP energy -133694.802780 kJ/mol
# GULP energy per Si atom -5570.616782 kJ/mol
# Density = 2.060277 g / cm^3
# Si number density = 20.649767 Si / 1000 Ang^3
#
#
#
# Elastic Constant Matrix: (Units=GPa)
#
#
# Indices 1 2 3 4 5 6 
#
# 1 62.5174 38.7246 37.5035 0.0000 0.0000 1.0954
# 2 38.7246 62.5174 37.5035 0.0000 0.0000 -1.0954
# 3 37.5035 37.5035 168.7038 0.0000 0.0000 0.0000
# 4 0.0000 0.0000 0.0000 34.7640 0.0000 0.0000
# 5 0.0000 0.0000 0.0000 0.0000 34.7640 0.0000
# 6 1.0954 -1.0954 0.0000 0.0000 0.0000 39.5455
#
#
#
# Elastic Compliance Matrix: (Units=1/GPa)
#
#
# Indices 1 2 3 4 5 6 
#
# 1 0.026981 -0.015156 -0.002629 0.000000 0.000000 -0.001167
# 2 -0.015156 0.026981 -0.002629 0.000000 0.000000 0.001167
# 3 -0.002629 -0.002629 0.007096 0.000000 0.000000 0.000000
# 4 0.000000 0.000000 0.000000 0.028765 0.000000 0.000000
# 5 0.000000 0.000000 0.000000 0.000000 0.028765 0.000000
# 6 -0.001167 0.001167 0.000000 0.000000 0.000000 0.025352
#
#
# Mechanical properties :
#
#
# Convention : Reuss Voigt Hill
#
# Bulk Modulus (GPa) = 49.42872 57.91132 53.67002
# Shear Modulus (GPa) = 26.10809 33.81517 29.96163
#
# Velocity S-wave (km/s) = 3.55960 4.05106 3.81326
# Velocity P-wave (km/s) = 6.39398 7.07014 6.74054
#
# Compressibility (1/GPa) = 0.02023115
#
# Stress axis : x y z
#
# Youngs Moduli (GPa) = 37.06326 37.06326 140.91868
#
# Poissons Ratio (x) = 0.56173 0.37043
# Poissons Ratio (y) = 0.56173 0.37043
# Poissons Ratio (z) = 0.09743 0.09743
#
# Static dielectric constant tensor:
#      x y z
#    x 1.777800 0.000000 0.000000 
#    y 0.000000 1.777800 0.000000 
#    z 0.000000 0.000000 1.749570 
# 
# From -- ./inp_files/1035.got.cif
#   From: 2010.05.17/outbox.cif.g08.bks.cpg/sg80_cif.got.tgz:1035.got - 2010.06.03 18:49:13.
