data_PCOD9542535
_publ_section_title
;
Structure prediction by ZEFSAII (Michael W. Deem and Ramdas Pophale) SiO2 
 PCOD9542535
Probable space group: P -4
;
_chemical_formula_sum "Si O2"
_cell_formula_units_Z 20
_cell_length_a 8.122486
_cell_length_b 8.122486
_cell_length_c 12.204986
_cell_angle_alpha 90.000000
_cell_angle_beta 90.000000
_cell_angle_gamma 90.000000
_cell_volume 805.221252
_symmetry_space_group_name_H-M "P -4"
_symmetry_group_IT_number 81
_symmetry_cell_setting 'tetragonal'
loop_
_space_group_symop_operation_xyz
x,y,z
y,-x,-z
-x,-y,z
-y,x,-z
loop_
_atom_site_type_symbol
_atom_site_label
_atom_site_fract_x
_atom_site_fract_y
_atom_site_fract_z
Si Si1 0.630980 0.146224 0.780292
Si Si2 0.825156 0.404215 0.645697
Si Si3 0.743147 0.634662 0.994131
Si Si4 0.705571 0.298290 0.239819
Si Si5 0.869399 0.218235 0.452143
O O1 0.775574 0.232363 0.708262
O O2 0.488362 0.281650 0.790015
O O3 0.500000 0.000000 0.744990
O O4 0.679377 0.130467 0.907981
O O5 0.709602 0.542238 0.690900
O O6 0.798510 0.372812 0.517010
O O7 0.000000 0.500000 0.663996
O O8 0.797102 0.697469 0.874443
O O9 0.714535 0.436912 0.980699
O O10 0.844280 0.227194 0.322894
O O11 0.053300 0.211613 0.500286
#
# Coordination Sequence:
#
# PCOD9542535 Si02
#       5
#     4   4   4   4   4
#     4  11  24  44  72 108 148 194 252 319 392 478
#     4  12  25  45  72 108 142 192 260 321 384 467
#     4   9  18  39  67 100 141 181 246 315 384 444
#     4  11  23  44  71 101 142 194 251 319 381 465
#     4  11  25  45  67  99 148 197 246 313 396 467
#
# _framework density 24.837895
#
# number of rings (size 3 to 8) (size 9 to 14) (size 15 to 20)
#    0.000    1.200    4.000    1.800    2.800    1.600 
#    0.000    0.000    0.000    0.000    0.000    0.000 
#    0.000    0.000    0.000    0.000    0.000    0.000 
#
# Total GULP energy -111369.583824 kJ/mol
# GULP energy per Si atom -5568.479191 kJ/mol
# Density = 2.478136 g / cm^3
# Si number density = 24.837895 Si / 1000 Ang^3
#
#
#
# Elastic Constant Matrix: (Units=GPa)
#
#
# Indices 1 2 3 4 5 6 
#
# 1 65.0947 3.5037 9.3350 0.0000 0.0000 -6.1775
# 2 3.5037 65.0947 9.3350 0.0000 0.0000 6.1775
# 3 9.3350 9.3350 109.1862 0.0000 0.0000 0.0000
# 4 0.0000 0.0000 0.0000 23.4868 0.0000 0.0000
# 5 0.0000 0.0000 0.0000 0.0000 23.4868 0.0000
# 6 -6.1775 6.1775 0.0000 0.0000 0.0000 37.1410
#
#
#
# Elastic Compliance Matrix: (Units=1/GPa)
#
#
# Indices 1 2 3 4 5 6 
#
# 1 0.015861 -0.000936 -0.001276 0.000000 0.000000 0.002794
# 2 -0.000936 0.015861 -0.001276 0.000000 0.000000 -0.002794
# 3 -0.001276 -0.001276 0.009377 0.000000 0.000000 0.000000
# 4 0.000000 0.000000 0.000000 0.042577 0.000000 0.000000
# 5 0.000000 0.000000 0.000000 0.000000 0.042577 0.000000
# 6 0.002794 -0.002794 0.000000 0.000000 0.000000 0.027854
#
#
# Mechanical properties :
#
#
# Convention : Reuss Voigt Hill
#
# Bulk Modulus (GPa) = 29.30613 31.52477 30.41545
# Shear Modulus (GPa) = 28.99287 31.30305 30.14796
#
# Velocity S-wave (km/s) = 3.42026 3.55391 3.48773
# Velocity P-wave (km/s) = 5.23662 5.43693 5.33771
#
# Compressibility (1/GPa) = 0.03412255
#
# Stress axis : x y z
#
# Youngs Moduli (GPa) = 63.04890 63.04890 106.64561
#
# Poissons Ratio (x) = 0.05900 0.13608
# Poissons Ratio (y) = 0.05900 0.13608
# Poissons Ratio (z) = 0.08045 0.08045
#
# Static dielectric constant tensor:
#      x y z
#    x 2.153790 0.000000 0.000000 
#    y 0.000000 2.153790 0.000000 
#    z 0.000000 0.000000 2.036740 
# 
# From -- ./inp_files/1257.got.cif
#   From: 2010.05.17/outbox.cif.g08.bks.cpg/sg81_cif.got.tgz:1257.got - 2010.06.03 18:51:07.
