data_PCOD9542836
_publ_section_title
;
Structure prediction by ZEFSAII (Michael W. Deem and Ramdas Pophale) SiO2 
 PCOD9542836
Probable space group: I -4 
;
_chemical_formula_sum "Si O2"
_cell_formula_units_Z 42
_cell_length_a 8.941137
_cell_length_b 8.941137
_cell_length_c 24.810481
_cell_angle_alpha 90.000000
_cell_angle_beta 90.000000
_cell_angle_gamma 90.000000
_cell_volume 1983.447377
_symmetry_space_group_name_H-M "I -4 "
_symmetry_group_IT_number 82
_symmetry_cell_setting 'tetragonal'
loop_
_space_group_symop_operation_xyz
x,y,z
y,-x,-z
-x,-y,z
-y,x,-z
1/2+x,1/2+y,1/2+z
1/2+y,1/2-x,1/2-z
1/2-x,1/2-y,1/2+z
1/2-y,1/2+x,1/2-z
loop_
_atom_site_type_symbol
_atom_site_label
_atom_site_fract_x
_atom_site_fract_y
_atom_site_fract_z
Si Si1 0.824275 0.023665 0.924045
Si Si2 0.419701 0.839367 0.990495
Si Si3 0.764185 0.803142 0.296217
Si Si4 0.660639 0.702173 0.915910
Si Si5 0.500000 0.000000 0.250000
Si Si6 0.829153 0.035540 0.808767
O O1 0.746327 0.120497 0.970025
O O2 0.779447 0.099994 0.866455
O O3 0.751644 0.859235 0.918927
O O4 0.000000 0.000000 0.932256
O O5 0.505414 0.743421 0.944985
O O6 0.500000 0.000000 0.996691
O O7 0.412365 0.748784 0.045817
O O8 0.838099 0.846099 0.353504
O O9 0.863305 0.826246 0.243448
O O10 0.744429 0.624313 0.298176
O O11 0.610666 0.895154 0.285649
O O12 0.000000 0.000000 0.819722
#
# Coordination Sequence:
#
# PCOD9542836 Si02
#       6
#     8   8   8   8   2   8
#     4   9  21  39  70  94 126 168 222 267 312 386
#     4  10  23  43  64  96 131 169 219 271 325 390
#     4  11  24  43  68  95 131 172 216 269 326 390
#     4  10  24  43  62  96 133 168 218 266 330 392
#     4  12  24  44  68  96 132 168 220 268 334 392
#     4  10  21  42  63  99 126 164 218 263 320 384
#
# _framework density 21.175253999999999
#
# number of rings (size 3 to 8) (size 9 to 14) (size 15 to 20)
#    0.000    1.905    1.905    0.000    9.333    0.762 
#    6.857    0.000    0.000    0.000    0.000    0.000 
#    0.000    0.000    0.000    0.000    0.000    0.000 
#
# Total GULP energy -117193.487070 kJ/mol
# GULP energy per Si atom -5580.642241 kJ/mol
# Density = 2.112706 g / cm^3
# Si number density = 21.175254 Si / 1000 Ang^3
#
#
#
# Elastic Constant Matrix: (Units=GPa)
#
#
# Indices 1 2 3 4 5 6 
#
# 1 60.7098 7.9709 36.4506 0.0000 0.0000 -8.1220
# 2 7.9709 60.7098 36.4506 0.0000 0.0000 8.1220
# 3 36.4506 36.4506 156.2774 0.0000 0.0000 0.0000
# 4 0.0000 0.0000 0.0000 29.1062 0.0000 0.0000
# 5 0.0000 0.0000 0.0000 0.0000 29.1062 0.0000
# 6 -8.1220 8.1220 0.0000 0.0000 0.0000 12.6489
#
#
#
# Elastic Compliance Matrix: (Units=1/GPa)
#
#
# Indices 1 2 3 4 5 6 
#
# 1 0.021493 -0.002142 -0.004513 0.000000 0.000000 0.015177
# 2 -0.002142 0.021493 -0.004513 0.000000 0.000000 -0.015177
# 3 -0.004513 -0.004513 0.008504 0.000000 0.000000 0.000000
# 4 0.000000 0.000000 0.000000 0.034357 0.000000 0.000000
# 5 0.000000 0.000000 0.000000 0.000000 0.034357 0.000000
# 6 0.015177 -0.015177 0.000000 0.000000 0.000000 0.098548
#
#
# Mechanical properties :
#
#
# Convention : Reuss Voigt Hill
#
# Bulk Modulus (GPa) = 34.30249 48.82681 41.56465
# Shear Modulus (GPa) = 19.93545 27.29394 23.61469
#
# Velocity S-wave (km/s) = 3.07163 3.59410 3.34309
# Velocity P-wave (km/s) = 5.36791 6.35074 5.87989
#
# Compressibility (1/GPa) = 0.02915240
#
# Stress axis : x y z
#
# Youngs Moduli (GPa) = 46.52585 46.52585 117.58677
#
# Poissons Ratio (x) = 0.09968 0.53073
# Poissons Ratio (y) = 0.09968 0.53073
# Poissons Ratio (z) = 0.20999 0.20999
#
# Static dielectric constant tensor:
#      x y z
#    x 1.753360 0.000000 0.000000 
#    y 0.000000 1.753360 0.000000 
#    z 0.000000 0.000000 1.839230 
# 
# From -- ./inp_files/3724.got.cif
#   From: 2010.05.17/outbox.cif.g08.bks.cpg/sg82_2_cif.got.tgz:3724.got - 2010.06.03 18:52:26.
