data_PCOD9542855
_publ_section_title
;
Structure prediction by ZEFSAII (Michael W. Deem and Ramdas Pophale) SiO2 
 PCOD9542855
Probable space group: I -4 
;
_chemical_formula_sum "Si O2"
_cell_formula_units_Z 64
_cell_length_a 22.975979
_cell_length_b 22.975979
_cell_length_c 4.996741
_cell_angle_alpha 90.000000
_cell_angle_beta 90.000000
_cell_angle_gamma 90.000000
_cell_volume 2637.757643
_symmetry_space_group_name_H-M "I -4 "
_symmetry_group_IT_number 82
_symmetry_cell_setting 'tetragonal'
loop_
_space_group_symop_operation_xyz
x,y,z
y,-x,-z
-x,-y,z
-y,x,-z
1/2+x,1/2+y,1/2+z
1/2+y,1/2-x,1/2-z
1/2-x,1/2-y,1/2+z
1/2-y,1/2+x,1/2-z
loop_
_atom_site_type_symbol
_atom_site_label
_atom_site_fract_x
_atom_site_fract_y
_atom_site_fract_z
Si Si1 0.962852 0.215766 0.707978
Si Si2 0.268547 0.267301 0.446859
Si Si3 0.099629 0.701937 0.353169
Si Si4 0.013291 0.659534 0.987306
Si Si5 0.794278 0.341306 0.052051
Si Si6 0.641659 0.625076 0.455424
Si Si7 0.102289 0.380227 0.769093
Si Si8 0.672744 0.417561 0.048556
O O1 0.913335 0.237272 0.494904
O O2 0.982727 0.276253 0.850061
O O3 0.931626 0.173745 0.923958
O O4 0.017768 0.188087 0.554495
O O5 0.290461 0.229154 0.714173
O O6 0.208595 0.271039 0.678305
O O7 0.309894 0.322982 0.453980
O O8 0.131967 0.658335 0.548878
O O9 0.037984 0.673073 0.280127
O O10 0.138686 0.696874 0.091495
O O11 0.056908 0.613339 0.851320
O O12 0.951357 0.631264 0.959146
O O13 0.831521 0.397547 0.957231
O O14 0.731667 0.379119 0.066697
O O15 0.612730 0.629000 0.164618
O O16 0.590746 0.643839 0.662045
#
# Coordination Sequence:
#
# PCOD9542855 Si02
#       8
#     8   8   8   8   8   8   8   8
#     4  11  27  47  72  99 147 191 239 302 380 445
#     4  12  23  38  62  99 146 178 217 291 360 439
#     4  10  24  37  67  99 134 193 235 305 361 446
#     4  10  22  41  64  90 137 187 245 294 367 417
#     4  11  23  39  63  97 140 184 233 282 369 441
#     4  12  27  46  70 110 142 189 241 297 371 440
#     4  10  22  39  60  89 129 185 247 295 347 418
#     4  12  28  45  76 107 144 191 243 302 358 454
#
# _framework density 24.263031999999999
#
# number of rings (size 3 to 8) (size 9 to 14) (size 15 to 20)
#    0.000    1.000    3.750    2.250   12.250    1.250 
#    0.000    0.000    0.000    2.250    0.000    0.000 
#    0.000    0.000    0.000    0.000    0.000    0.000 
#
# Total GULP energy -178309.159479 kJ/mol
# GULP energy per Si atom -5572.161234 kJ/mol
# Density = 2.420781 g / cm^3
# Si number density = 24.263032 Si / 1000 Ang^3
#
#
#
# Elastic Constant Matrix: (Units=GPa)
#
#
# Indices 1 2 3 4 5 6 
#
# 1 87.5382 29.1191 18.6904 0.0000 0.0000 8.1401
# 2 29.1191 87.5382 18.6904 0.0000 0.0000 -8.1401
# 3 18.6904 18.6904 130.9018 0.0000 0.0000 0.0000
# 4 0.0000 0.0000 0.0000 27.6921 0.0000 0.0000
# 5 0.0000 0.0000 0.0000 0.0000 27.6921 0.0000
# 6 8.1401 -8.1401 0.0000 0.0000 0.0000 18.5482
#
#
#
# Elastic Compliance Matrix: (Units=1/GPa)
#
#
# Indices 1 2 3 4 5 6 
#
# 1 0.014243 -0.005260 -0.001283 0.000000 0.000000 -0.008559
# 2 -0.005260 0.014243 -0.001283 0.000000 0.000000 0.008559
# 3 -0.001283 -0.001283 0.008006 0.000000 0.000000 0.000000
# 4 0.000000 0.000000 0.000000 0.036111 0.000000 0.000000
# 5 0.000000 0.000000 0.000000 0.000000 0.036111 0.000000
# 6 -0.008559 0.008559 0.000000 0.000000 0.000000 0.061426
#
#
# Mechanical properties :
#
#
# Convention : Reuss Voigt Hill
#
# Bulk Modulus (GPa) = 47.98164 48.77534 48.37849
# Shear Modulus (GPa) = 25.94198 30.75170 28.34684
#
# Velocity S-wave (km/s) = 3.27341 3.56396 3.42177
# Velocity P-wave (km/s) = 5.83999 6.08951 5.96605
#
# Compressibility (1/GPa) = 0.02084131
#
# Stress axis : x y z
#
# Youngs Moduli (GPa) = 70.20990 70.20990 124.91283
#
# Poissons Ratio (x) = 0.36930 0.16022
# Poissons Ratio (y) = 0.36930 0.16022
# Poissons Ratio (z) = 0.09005 0.09005
#
# Static dielectric constant tensor:
#      x y z
#    x 1.974370 0.000000 0.000000 
#    y 0.000000 1.974370 0.000000 
#    z 0.000000 0.000000 2.052490 
# 
# From -- ./inp_files/475.got.cif
#   From: 2010.05.17/outbox.cif.g08.bks.cpg/sg82_1_cif.got.tgz:475.got - 2010.06.03 18:52:26.
