data_PCOD9542786
_publ_section_title
;
Structure prediction by ZEFSAII (Michael W. Deem and Ramdas Pophale) SiO2 
 PCOD9542786
Probable space group: I -4 
;
_chemical_formula_sum "Si O2"
_cell_formula_units_Z 28
_cell_length_a 13.309079
_cell_length_b 13.309079
_cell_length_c 7.512330
_cell_angle_alpha 90.000000
_cell_angle_beta 90.000000
_cell_angle_gamma 90.000000
_cell_volume 1330.670911
_symmetry_space_group_name_H-M "I -4 "
_symmetry_group_IT_number 82
_symmetry_cell_setting 'tetragonal'
loop_
_space_group_symop_operation_xyz
x,y,z
y,-x,-z
-x,-y,z
-y,x,-z
1/2+x,1/2+y,1/2+z
1/2+y,1/2-x,1/2-z
1/2-x,1/2-y,1/2+z
1/2-y,1/2+x,1/2-z
loop_
_atom_site_type_symbol
_atom_site_label
_atom_site_fract_x
_atom_site_fract_y
_atom_site_fract_z
Si Si1 0.721983 0.676458 0.657664
Si Si2 0.000000 0.000000 0.500000
Si Si3 0.129187 0.822367 0.436281
Si Si4 0.218478 0.999031 0.874059
Si Si5 0.500000 0.500000 0.500000
O O1 0.807994 0.759965 0.644781
O O2 0.741373 0.581973 0.525947
O O3 0.619354 0.740486 0.607819
O O4 0.707739 0.638430 0.858101
O O5 0.905317 0.061888 0.422606
O O6 0.050875 0.759350 0.314773
O O7 0.097559 0.989094 0.882983
#
# Coordination Sequence:
#
# PCOD9542786 Si02
#       5
#     8   2   8   8   2
#     4  11  24  37  64  97 142 174 229 276 346 395
#     4  12  26  40  74  98 136 174 238 272 334 398
#     4  12  23  39  62 100 134 180 223 286 327 405
#     4  10  21  36  58  92 130 175 215 275 329 397
#     4   8  18  32  58  90 128 162 214 264 322 382
#
# _framework density 21.042017000000001
#
# number of rings (size 3 to 8) (size 9 to 14) (size 15 to 20)
#    0.000    1.143    5.714    0.857    8.000    0.000 
#    0.000    0.000    0.000    6.000    0.000    8.000 
#    0.000    0.000    0.000    0.000    0.000    0.000 
#
# Total GULP energy -77951.941778 kJ/mol
# GULP energy per Si atom -5567.995841 kJ/mol
# Density = 2.099412 g / cm^3
# Si number density = 21.042017 Si / 1000 Ang^3
#
#
#
# Elastic Constant Matrix: (Units=GPa)
#
#
# Indices 1 2 3 4 5 6 
#
# 1 72.7713 43.8683 17.4572 0.0000 0.0000 -6.7583
# 2 43.8683 72.7713 17.4572 0.0000 0.0000 6.7583
# 3 17.4572 17.4572 125.7340 0.0000 0.0000 0.0000
# 4 0.0000 0.0000 0.0000 21.4900 0.0000 0.0000
# 5 0.0000 0.0000 0.0000 0.0000 21.4900 0.0000
# 6 -6.7583 6.7583 0.0000 0.0000 0.0000 53.2509
#
#
#
# Elastic Compliance Matrix: (Units=1/GPa)
#
#
# Indices 1 2 3 4 5 6 
#
# 1 0.022863 -0.013918 -0.001242 0.000000 0.000000 0.004668
# 2 -0.013918 0.022863 -0.001242 0.000000 0.000000 -0.004668
# 3 -0.001242 -0.001242 0.008298 0.000000 0.000000 0.000000
# 4 0.000000 0.000000 0.000000 0.046533 0.000000 0.000000
# 5 0.000000 0.000000 0.000000 0.000000 0.046533 0.000000
# 6 0.004668 -0.004668 0.000000 0.000000 0.000000 0.019964
#
#
# Mechanical properties :
#
#
# Convention : Reuss Voigt Hill
#
# Bulk Modulus (GPa) = 47.12390 47.64913 47.38651
# Shear Modulus (GPa) = 24.16237 32.07909 28.12073
#
# Velocity S-wave (km/s) = 3.39232 3.90875 3.65966
# Velocity P-wave (km/s) = 6.14716 6.56240 6.35817
#
# Compressibility (1/GPa) = 0.02122065
#
# Stress axis : x y z
#
# Youngs Moduli (GPa) = 43.73808 43.73808 120.50844
#
# Poissons Ratio (x) = 0.60876 0.14967
# Poissons Ratio (y) = 0.60876 0.14967
# Poissons Ratio (z) = 0.05432 0.05432
#
# Static dielectric constant tensor:
#      x y z
#    x 1.814490 0.000000 0.000000 
#    y 0.000000 1.814490 0.000000 
#    z 0.000000 0.000000 1.924190 
# 
# From -- ./inp_files/733.got.cif
#   From: 2010.05.17/outbox.cif.g08.bks.cpg/sg82_1_cif.got.tgz:733.got - 2010.06.03 18:52:26.
