data_PCOD9542412
_publ_section_title
;
Structure prediction by ZEFSAII (Michael W. Deem and Ramdas Pophale) SiO2 
 PCOD9542412
Probable space group: P -4
;
_chemical_formula_sum "Si O2"
_cell_formula_units_Z 25
_cell_length_a 8.541464
_cell_length_b 8.541464
_cell_length_c 16.776346
_cell_angle_alpha 90.000000
_cell_angle_beta 90.000000
_cell_angle_gamma 90.000000
_cell_volume 1223.945286
_symmetry_space_group_name_H-M "P -4"
_symmetry_group_IT_number 81
_symmetry_cell_setting 'tetragonal'
loop_
_space_group_symop_operation_xyz
x,y,z
y,-x,-z
-x,-y,z
-y,x,-z
loop_
_atom_site_type_symbol
_atom_site_label
_atom_site_fract_x
_atom_site_fract_y
_atom_site_fract_z
Si Si1 0.500000 0.000000 0.633641
Si Si2 0.571291 0.242347 0.237452
Si Si3 0.250550 0.422840 0.239082
Si Si4 0.000000 0.000000 0.000000
Si Si5 0.063957 0.743054 0.499809
Si Si6 0.816004 0.715829 0.925863
Si Si7 0.836460 0.518246 0.068608
Si Si8 0.000000 0.500000 0.632936
O O1 0.416327 0.873898 0.690483
O O2 0.630502 0.922297 0.576861
O O3 0.392318 0.300975 0.240461
O O4 0.671877 0.402861 0.244100
O O5 0.614401 0.158697 0.153573
O O6 0.588203 0.123457 0.310297
O O7 0.168108 0.396872 0.153290
O O8 0.945342 0.844758 0.950912
O O9 0.080120 0.628740 0.575749
O O10 0.888428 0.816890 0.500337
O O11 0.657726 0.806717 0.906708
O O12 0.750049 0.615848 0.001616
O O13 0.000000 0.500000 0.024014
#
# Coordination Sequence:
#
# PCOD9542412 Si02
#       8
#     2   4   4   1   4   4   4   2
#     4  11  20  36  67  88 116 158 203 246 298 359
#     4  10  23  39  59  86 126 155 200 251 307 357
#     4  10  21  39  60  90 116 159 206 251 299 362
#     4  12  24  40  60  88 124 156 226 252 300 376
#     4  10  22  40  61  89 123 156 192 239 301 368
#     4  11  24  40  60  87 118 169 205 263 305 358
#     4  11  21  38  60  83 119 155 210 253 302 356
#     4  11  22  40  61  92 120 154 195 244 298 361
#
# _framework density 20.425750000000001
#
# number of rings (size 3 to 8) (size 9 to 14) (size 15 to 20)
#    0.000    1.440    2.400    2.880    1.120    2.880 
#    0.000    3.200    0.000    7.680    0.000    0.000 
#    0.000    0.000    0.000    0.000    0.000    0.000 
#
# Total GULP energy -139251.694588 kJ/mol
# GULP energy per Si atom -5570.067784 kJ/mol
# Density = 2.037926 g / cm^3
# Si number density = 20.425750 Si / 1000 Ang^3
#
#
#
# Elastic Constant Matrix: (Units=GPa)
#
#
# Indices 1 2 3 4 5 6 
#
# 1 56.1285 -3.7096 23.8530 0.0000 0.0000 -1.7339
# 2 -3.7096 56.1285 23.8530 0.0000 0.0000 1.7339
# 3 23.8530 23.8530 139.8845 0.0000 0.0000 0.0000
# 4 0.0000 0.0000 0.0000 9.2560 0.0000 0.0000
# 5 0.0000 0.0000 0.0000 0.0000 9.2560 0.0000
# 6 -1.7339 1.7339 0.0000 0.0000 0.0000 7.1496
#
#
#
# Elastic Compliance Matrix: (Units=1/GPa)
#
#
# Indices 1 2 3 4 5 6 
#
# 1 0.019766 0.002816 -0.003851 0.000000 0.000000 0.004111
# 2 0.002816 0.019766 -0.003851 0.000000 0.000000 -0.004111
# 3 -0.003851 -0.003851 0.008462 0.000000 0.000000 0.000000
# 4 0.000000 0.000000 0.000000 0.108039 0.000000 0.000000
# 5 0.000000 0.000000 0.000000 0.000000 0.108039 0.000000
# 6 0.004111 -0.004111 0.000000 0.000000 0.000000 0.141863
#
#
# Mechanical properties :
#
#
# Convention : Reuss Voigt Hill
#
# Bulk Modulus (GPa) = 26.16251 37.79267 31.97759
# Shear Modulus (GPa) = 11.67011 19.00864 15.33938
#
# Velocity S-wave (km/s) = 2.39287 3.05392 2.74338
# Velocity P-wave (km/s) = 4.52447 5.56577 5.07192
#
# Compressibility (1/GPa) = 0.03822264
#
# Stress axis : x y z
#
# Youngs Moduli (GPa) = 50.59260 50.59260 118.17617
#
# Poissons Ratio (x) = -0.14246 0.45505
# Poissons Ratio (y) = -0.14246 0.45505
# Poissons Ratio (z) = 0.19481 0.19481
#
# Static dielectric constant tensor:
#      x y z
#    x 0.706960 0.000000 0.000000 
#    y 0.000000 0.706960 0.000000 
#    z 0.000000 0.000000 1.728840 
# 
# From -- ./inp_files/1754.got.cif
#   From: 2010.05.17/outbox.cif.g08.bks.cpg/sg81_cif.got.tgz:1754.got - 2010.06.03 18:51:07.
