data_PCOD9542186
_publ_section_title
;
Structure prediction by ZEFSAII (Michael W. Deem and Ramdas Pophale) SiO2 
 PCOD9542186
Probable space group: I 41
;
_chemical_formula_sum "Si O2"
_cell_formula_units_Z 48
_cell_length_a 9.361896
_cell_length_b 9.361896
_cell_length_c 26.082217
_cell_angle_alpha 90.000000
_cell_angle_beta 90.000000
_cell_angle_gamma 90.000000
_cell_volume 2285.978432
_symmetry_space_group_name_H-M "I 41"
_symmetry_group_IT_number 80
_symmetry_cell_setting 'tetragonal'
loop_
_space_group_symop_operation_xyz
x,y,z
-y,1/2+x,1/4+z
-x,-y,z
y,1/2-x,1/4+z
1/2+x,1/2+y,1/2+z
1/2-y,x,3/4+z
1/2-x,1/2-y,1/2+z
1/2+y,-x,3/4+z
loop_
_atom_site_type_symbol
_atom_site_label
_atom_site_fract_x
_atom_site_fract_y
_atom_site_fract_z
Si Si1 0.533882 0.665567 0.987140
Si Si2 0.786187 0.808915 0.935412
Si Si3 0.210035 0.630458 0.443356
Si Si4 0.131864 0.087101 0.593332
Si Si5 0.348504 0.965751 0.768714
Si Si6 0.620871 0.111941 0.595752
O O1 0.500000 0.500000 0.977946
O O2 0.686282 0.699499 0.964177
O O3 0.424349 0.773987 0.959549
O O4 0.557582 0.678850 0.048571
O O5 0.829078 0.730680 0.883084
O O6 0.701947 0.960051 0.931418
O O7 0.922690 0.833196 0.972049
O O8 0.312402 0.640976 0.492400
O O9 0.295374 0.682682 0.392871
O O10 0.246869 0.972911 0.570771
O O11 0.000000 0.000000 0.618360
O O12 0.216096 0.959696 0.806712
O O13 0.500000 0.000000 0.795380
O O14 0.500000 0.000000 0.615186
#
# Coordination Sequence:
#
# PCOD9542186 Si02
#       6
#     8   8   8   8   8   8
#     4  11  26  45  66 101 145 189 238 297 374 433
#     4  11  23  44  70 101 137 188 242 296 363 442
#     4  11  23  46  66 101 146 187 230 305 368 438
#     4  11  24  42  70 102 141 185 241 302 361 433
#     4  10  22  40  69 105 138 176 236 295 362 430
#     4  12  22  43  72 103 139 188 246 299 364 446
#
# _framework density 20.997572000000002
#
# number of rings (size 3 to 8) (size 9 to 14) (size 15 to 20)
#    0.000    1.000    3.333    4.000    2.333    3.333 
#    3.000    0.000    0.000    0.000    0.000    0.000 
#    0.000    0.000    0.000    0.000    0.000    0.000 
#
# Total GULP energy -133931.391600 kJ/mol
# GULP energy per Si atom -5580.474650 kJ/mol
# Density = 2.094978 g / cm^3
# Si number density = 20.997572 Si / 1000 Ang^3
#
#
#
# Elastic Constant Matrix: (Units=GPa)
#
#
# Indices 1 2 3 4 5 6 
#
# 1 96.7185 38.5555 32.1219 0.0000 0.0000 -2.5131
# 2 38.5555 96.7185 32.1219 0.0000 0.0000 2.5131
# 3 32.1219 32.1219 78.7945 0.0000 0.0000 0.0000
# 4 0.0000 0.0000 0.0000 37.0230 0.0000 0.0000
# 5 0.0000 0.0000 0.0000 0.0000 37.0230 0.0000
# 6 -2.5131 2.5131 0.0000 0.0000 0.0000 42.1635
#
#
#
# Elastic Compliance Matrix: (Units=1/GPa)
#
#
# Indices 1 2 3 4 5 6 
#
# 1 0.013225 -0.004057 -0.003737 0.000000 0.000000 0.001030
# 2 -0.004057 0.013225 -0.003737 0.000000 0.000000 -0.001030
# 3 -0.003737 -0.003737 0.015738 0.000000 0.000000 0.000000
# 4 0.000000 0.000000 0.000000 0.027010 0.000000 0.000000
# 5 0.000000 0.000000 0.000000 0.000000 0.027010 0.000000
# 6 0.001030 -0.001030 0.000000 0.000000 0.000000 0.023840
#
#
# Mechanical properties :
#
#
# Convention : Reuss Voigt Hill
#
# Bulk Modulus (GPa) = 52.29017 53.09226 52.69121
# Shear Modulus (GPa) = 33.44788 34.53738 33.99263
#
# Velocity S-wave (km/s) = 3.99550 4.06005 4.02790
# Velocity P-wave (km/s) = 6.80017 6.87884 6.83962
#
# Compressibility (1/GPa) = 0.01912405
#
# Stress axis : x y z
#
# Youngs Moduli (GPa) = 75.61631 75.61631 63.53924
#
# Poissons Ratio (x) = 0.30681 0.23746
# Poissons Ratio (y) = 0.30681 0.23746
# Poissons Ratio (z) = 0.28259 0.28259
#
# Static dielectric constant tensor:
#      x y z
#    x 1.785250 0.000000 0.000000 
#    y 0.000000 1.785250 0.000000 
#    z 0.000000 0.000000 1.764480 
# 
# From -- ./inp_files/2594.got.cif
#   From: 2010.05.17/outbox.cif.g08.bks.cpg/sg80_cif.got.tgz:2594.got - 2010.06.03 18:49:13.
