data_PCOD9542128
_publ_section_title
;
Structure prediction by ZEFSAII (Michael W. Deem and Ramdas Pophale) SiO2 
 PCOD9542128
Probable space group: I 41
;
_chemical_formula_sum "Si O2"
_cell_formula_units_Z 48
_cell_length_a 16.830148
_cell_length_b 16.830148
_cell_length_c 8.021096
_cell_angle_alpha 90.000000
_cell_angle_beta 90.000000
_cell_angle_gamma 90.000000
_cell_volume 2272.006578
_symmetry_space_group_name_H-M "I 41"
_symmetry_group_IT_number 80
_symmetry_cell_setting 'tetragonal'
loop_
_space_group_symop_operation_xyz
x,y,z
-y,1/2+x,1/4+z
-x,-y,z
y,1/2-x,1/4+z
1/2+x,1/2+y,1/2+z
1/2-y,x,3/4+z
1/2-x,1/2-y,1/2+z
1/2+y,-x,3/4+z
loop_
_atom_site_type_symbol
_atom_site_label
_atom_site_fract_x
_atom_site_fract_y
_atom_site_fract_z
Si Si1 0.170439 0.483886 0.722550
Si Si2 0.927520 0.603424 0.933160
Si Si3 0.760855 0.850899 0.059174
Si Si4 0.869312 0.462298 0.373189
Si Si5 0.980908 0.608033 0.271306
Si Si6 0.724126 0.975613 0.564719
O O1 0.083485 0.465607 0.797685
O O2 0.197805 0.393228 0.680846
O O3 0.168883 0.533790 0.554945
O O4 0.221265 0.514731 0.880172
O O5 0.942855 0.689703 0.858051
O O6 0.991852 0.588074 0.076318
O O7 0.842762 0.593302 0.034135
O O8 0.812531 0.785502 0.155373
O O9 0.813254 0.928557 0.021250
O O10 0.925360 0.541231 0.356415
O O11 0.808685 0.472058 0.218679
O O12 0.932801 0.391935 0.352442
#
# Coordination Sequence:
#
# PCOD9542128 Si02
#       6
#     8   8   8   8   8   8
#     4  10  21  37  55  81 113 162 196 248 298 374
#     4   9  20  35  52  81 117 153 196 248 309 361
#     4  12  25  35  55  86 120 162 197 246 311 372
#     4  10  20  41  53  72 110 166 220 240 299 356
#     4  10  22  38  53  75 113 167 207 254 293 364
#     4   9  20  36  53  81 115 154 198 252 298 368
#
# _framework density 21.1267
#
# number of rings (size 3 to 8) (size 9 to 14) (size 15 to 20)
#    1.000    1.000    1.667    2.000    4.667    0.000 
#    6.000    0.000    0.000    0.000    0.000    0.000 
#    0.000    0.000   68.000    0.000    4.000    0.000 
#
# Total GULP energy -133674.542956 kJ/mol
# GULP energy per Si atom -5569.772623 kJ/mol
# Density = 2.107861 g / cm^3
# Si number density = 21.126700 Si / 1000 Ang^3
#
#
#
# Elastic Constant Matrix: (Units=GPa)
#
#
# Indices 1 2 3 4 5 6 
#
# 1 45.3214 29.4435 34.2298 0.0000 0.0000 -8.4092
# 2 29.4435 45.3214 34.2298 0.0000 0.0000 8.4092
# 3 34.2298 34.2298 167.8226 0.0000 0.0000 0.0000
# 4 0.0000 0.0000 0.0000 19.4370 0.0000 0.0000
# 5 0.0000 0.0000 0.0000 0.0000 19.4370 0.0000
# 6 -8.4092 8.4092 0.0000 0.0000 0.0000 43.6709
#
#
#
# Elastic Compliance Matrix: (Units=1/GPa)
#
#
# Indices 1 2 3 4 5 6 
#
# 1 0.047782 -0.031335 -0.003355 0.000000 0.000000 0.015235
# 2 -0.031335 0.047782 -0.003355 0.000000 0.000000 -0.015235
# 3 -0.003355 -0.003355 0.007327 0.000000 0.000000 0.000000
# 4 0.000000 0.000000 0.000000 0.051448 0.000000 0.000000
# 5 0.000000 0.000000 0.000000 0.000000 0.051448 0.000000
# 6 0.015235 -0.015235 0.000000 0.000000 0.000000 0.028766
#
#
# Mechanical properties :
#
#
# Convention : Reuss Voigt Hill
#
# Bulk Modulus (GPa) = 37.30974 50.47463 43.89218
# Shear Modulus (GPa) = 15.64569 27.21315 21.42942
#
# Velocity S-wave (km/s) = 2.72428 3.59289 3.18831
# Velocity P-wave (km/s) = 5.25300 6.41523 5.86298
#
# Compressibility (1/GPa) = 0.02680265
#
# Stress axis : x y z
#
# Youngs Moduli (GPa) = 20.92826 20.92826 136.47944
#
# Poissons Ratio (x) = 0.65579 0.45783
# Poissons Ratio (y) = 0.65579 0.45783
# Poissons Ratio (z) = 0.07021 0.07021
#
# Static dielectric constant tensor:
#      x y z
#    x 1.805780 0.000000 0.000000 
#    y 0.000000 1.805780 0.000000 
#    z 0.000000 0.000000 1.929030 
# 
# From -- ./inp_files/671.got.cif
#   From: 2010.05.17/outbox.cif.g08.bks.cpg/sg80_cif.got.tgz:671.got - 2010.06.03 18:49:13.
