data_PCOD9542085
_publ_section_title
;
Structure prediction by ZEFSAII (Michael W. Deem and Ramdas Pophale) SiO2 
 PCOD9542085
Probable space group: I 41
;
_chemical_formula_sum "Si O2"
_cell_formula_units_Z 48
_cell_length_a 8.834589
_cell_length_b 8.834589
_cell_length_c 29.192727
_cell_angle_alpha 90.000000
_cell_angle_beta 90.000000
_cell_angle_gamma 90.000000
_cell_volume 2278.491256
_symmetry_space_group_name_H-M "I 41"
_symmetry_group_IT_number 80
_symmetry_cell_setting 'tetragonal'
loop_
_space_group_symop_operation_xyz
x,y,z
-y,1/2+x,1/4+z
-x,-y,z
y,1/2-x,1/4+z
1/2+x,1/2+y,1/2+z
1/2-y,x,3/4+z
1/2-x,1/2-y,1/2+z
1/2+y,-x,3/4+z
loop_
_atom_site_type_symbol
_atom_site_label
_atom_site_fract_x
_atom_site_fract_y
_atom_site_fract_z
Si Si1 0.000000 0.500000 0.791590
Si Si2 0.063208 0.734342 0.481355
Si Si3 0.500000 0.000000 0.672152
Si Si4 0.500000 0.500000 0.801246
Si Si5 0.196197 0.726775 0.905734
Si Si6 0.000000 0.000000 0.719480
Si Si7 0.421191 0.259617 0.109473
Si Si8 0.743050 0.711426 0.207911
O O1 0.890574 0.408527 0.757930
O O2 0.898977 0.602325 0.825295
O O3 0.882766 0.729243 0.473139
O O4 0.097847 0.603766 0.517403
O O5 0.157631 0.726742 0.435189
O O6 0.376876 0.899457 0.644604
O O7 0.604043 0.885756 0.702002
O O8 0.395270 0.395284 0.832824
O O9 0.239852 0.603903 0.867820
O O10 0.093318 0.620992 0.938851
O O11 0.117368 0.124287 0.739118
O O12 0.333135 0.274768 0.156918
#
# Coordination Sequence:
#
# PCOD9542085 Si02
#       8
#     4   8   4   4   8   4   8   8
#     4  10  19  31  54  84 109 134 176 232 267 311
#     4  11  21  34  57  83 110 143 188 226 272 331
#     4  10  20  32  56  83 110 136 184 234 274 316
#     4  10  22  35  54  84 112 138 174 236 284 311
#     4  10  19  35  57  82 108 147 187 225 269 332
#     4   8  17  30  52  81 107 132 178 224 265 302
#     4  10  19  35  57  78 108 141 180 225 272 316
#     4  10  19  35  57  82 108 147 187 225 269 332
#
# _framework density 21.066573000000002
#
# number of rings (size 3 to 8) (size 9 to 14) (size 15 to 20)
#    0.000    2.000    0.000    7.000    0.000    0.000 
#    0.000    0.000    0.000   70.000    0.000    0.000 
#    0.000    0.000    0.000    0.000    0.000    0.000 
#
# Total GULP energy -133763.530927 kJ/mol
# GULP energy per Si atom -5573.480455 kJ/mol
# Density = 2.101863 g / cm^3
# Si number density = 21.066573 Si / 1000 Ang^3
#
#
#
# Elastic Constant Matrix: (Units=GPa)
#
#
# Indices 1 2 3 4 5 6 
#
# 1 129.8413 34.0216 25.6985 0.0000 0.0000 5.1785
# 2 34.0216 129.8413 25.6985 0.0000 0.0000 -5.1785
# 3 25.6985 25.6985 56.6789 0.0000 0.0000 0.0000
# 4 0.0000 0.0000 0.0000 16.9170 0.0000 0.0000
# 5 0.0000 0.0000 0.0000 0.0000 16.9170 0.0000
# 6 5.1785 -5.1785 0.0000 0.0000 0.0000 24.0558
#
#
#
# Elastic Compliance Matrix: (Units=1/GPa)
#
#
# Indices 1 2 3 4 5 6 
#
# 1 0.008900 -0.001785 -0.003226 0.000000 0.000000 -0.002300
# 2 -0.001785 0.008900 -0.003226 0.000000 0.000000 0.002300
# 3 -0.003226 -0.003226 0.020568 0.000000 0.000000 0.000000
# 4 0.000000 0.000000 0.000000 0.059112 0.000000 0.000000
# 5 0.000000 0.000000 0.000000 0.000000 0.059112 0.000000
# 6 -0.002300 0.002300 0.000000 0.000000 0.000000 0.042560
#
#
# Mechanical properties :
#
#
# Convention : Reuss Voigt Hill
#
# Bulk Modulus (GPa) = 45.67386 54.13318 49.90352
# Shear Modulus (GPa) = 22.42922 26.97417 24.70169
#
# Velocity S-wave (km/s) = 3.26649 3.58218 3.42797
# Velocity P-wave (km/s) = 5.99620 6.54686 6.27757
#
# Compressibility (1/GPa) = 0.02189436
#
# Stress axis : x y z
#
# Youngs Moduli (GPa) = 112.36390 112.36390 48.61834
#
# Poissons Ratio (x) = 0.20059 0.15683
# Poissons Ratio (y) = 0.20059 0.15683
# Poissons Ratio (z) = 0.36245 0.36245
#
# Static dielectric constant tensor:
#      x y z
#    x 1.814190 0.000000 0.000000 
#    y 0.000000 1.814190 0.000000 
#    z 0.000000 0.000000 1.737590 
# 
# From -- ./inp_files/2681.got.cif
#   From: 2010.05.17/outbox.cif.g08.bks.cpg/sg80_cif.got.tgz:2681.got - 2010.06.03 18:49:13.
