data_PCOD9542076
_publ_section_title
;
Structure prediction by ZEFSAII (Michael W. Deem and Ramdas Pophale) SiO2 
 PCOD9542076
Probable space group: I 41
;
_chemical_formula_sum "Si O2"
_cell_formula_units_Z 32
_cell_length_a 9.347071
_cell_length_b 9.347071
_cell_length_c 15.150887
_cell_angle_alpha 90.000000
_cell_angle_beta 90.000000
_cell_angle_gamma 90.000000
_cell_volume 1323.698700
_symmetry_space_group_name_H-M "I 41"
_symmetry_group_IT_number 80
_symmetry_cell_setting 'tetragonal'
loop_
_space_group_symop_operation_xyz
x,y,z
-y,1/2+x,1/4+z
-x,-y,z
y,1/2-x,1/4+z
1/2+x,1/2+y,1/2+z
1/2-y,x,3/4+z
1/2-x,1/2-y,1/2+z
1/2+y,-x,3/4+z
loop_
_atom_site_type_symbol
_atom_site_label
_atom_site_fract_x
_atom_site_fract_y
_atom_site_fract_z
Si Si1 0.152479 0.652478 0.804290
Si Si2 0.763099 0.459240 0.524995
Si Si3 0.500000 0.500000 0.203306
Si Si4 0.736901 0.459239 0.333585
Si Si5 0.500000 0.000000 0.155275
O O1 0.312138 0.643822 0.765200
O O2 0.143822 0.812138 0.843380
O O3 0.048919 0.620671 0.724036
O O4 0.120671 0.548919 0.884544
O O5 0.750000 0.529374 0.429290
O O6 0.611515 0.388485 0.554290
O O7 0.860247 0.538668 0.596695
O O8 0.639753 0.538668 0.261885
#
# Coordination Sequence:
#
# PCOD9542076 Si02
#       5
#     8   8   4   8   4
#     4   9  18  34  58  87 112 155 220 236 270 375
#     4  10  18  36  57  89 117 147 202 244 293 356
#     4  11  18  30  65  88 110 164 199 242 304 337
#     4  10  18  36  57  89 117 147 202 244 293 356
#     4  11  18  30  65  88 110 164 199 242 304 337
#
# _framework density 24.174686999999999
#
# number of rings (size 3 to 8) (size 9 to 14) (size 15 to 20)
#    1.500    0.500    5.000    1.500    0.000    0.000 
#    0.000    1.250    0.000   18.000    0.000    0.000 
#    0.000    0.000    0.000    0.000    0.000    0.000 
#
# Total GULP energy -89067.651454 kJ/mol
# GULP energy per Si atom -5566.728216 kJ/mol
# Density = 2.411966 g / cm^3
# Si number density = 24.174687 Si / 1000 Ang^3
#
#
#
# Elastic Constant Matrix: (Units=GPa)
#
#
# Indices 1 2 3 4 5 6 
#
# 1 39.3641 54.8392 35.9300 0.0000 0.0000 0.0000
# 2 54.8392 39.3641 35.9300 0.0000 0.0000 0.0000
# 3 35.9300 35.9300 180.0730 0.0000 0.0000 0.0000
# 4 0.0000 0.0000 0.0000 1.0097 0.0000 0.0000
# 5 0.0000 0.0000 0.0000 0.0000 1.0097 0.0000
# 6 0.0000 0.0000 0.0000 0.0000 0.0000 42.0271
#
#
#
# Elastic Compliance Matrix: (Units=1/GPa)
#
#
# Indices 1 2 3 4 5 6 
#
# 1 -0.026049 0.038571 -0.002498 0.000000 0.000000 0.000000
# 2 0.038571 -0.026049 -0.002498 0.000000 0.000000 0.000000
# 3 -0.002498 -0.002498 0.006550 0.000000 0.000000 0.000000
# 4 0.000000 0.000000 0.000000 0.990378 0.000000 0.000000
# 5 0.000000 0.000000 0.000000 0.000000 0.990378 0.000000
# 6 0.000000 0.000000 0.000000 0.000000 0.000000 0.023794
#
#
# Mechanical properties :
#
#
# Convention : Reuss Voigt Hill
#
# Bulk Modulus (GPa) = 46.29812 56.91111 51.60461
# Shear Modulus (GPa) = 2.63289 17.61610 10.12450
#
# Velocity S-wave (km/s) = 1.04474 2.70237 2.04869
# Velocity P-wave (km/s) = 4.54405 5.77320 5.19510
#
# Compressibility (1/GPa) = 0.02159915
#
# Stress axis : x y z
#
# Youngs Moduli (GPa) = -38.38859 -38.38859 152.66492
#
# Poissons Ratio (x) = 1.48067 0.38141
# Poissons Ratio (y) = 1.48067 0.38141
# Poissons Ratio (z) = -0.09591 -0.09591
#
# Static dielectric constant tensor:
#      x y z
#    x 2.014160 0.000000 0.000000 
#    y 0.000000 2.014160 0.000000 
#    z 0.000000 0.000000 1.947620 
# 
# From -- ./inp_files/1206.got.cif
#   From: 2010.05.17/outbox.cif.g08.bks.cpg/sg80_cif.got.tgz:1206.got - 2010.06.03 18:49:13.
