data_PCOD9542996
_publ_section_title
;
Structure prediction by ZEFSAII (Michael W. Deem and Ramdas Pophale) SiO2 
 PCOD9542996
Probable space group: I -4 
;
_chemical_formula_sum "Si O2"
_cell_formula_units_Z 56
_cell_length_a 14.303536
_cell_length_b 14.303536
_cell_length_c 13.358542
_cell_angle_alpha 90.000000
_cell_angle_beta 90.000000
_cell_angle_gamma 90.000000
_cell_volume 2733.039365
_symmetry_space_group_name_H-M "I -4 "
_symmetry_group_IT_number 82
_symmetry_cell_setting 'tetragonal'
loop_
_space_group_symop_operation_xyz
x,y,z
y,-x,-z
-x,-y,z
-y,x,-z
1/2+x,1/2+y,1/2+z
1/2+y,1/2-x,1/2-z
1/2-x,1/2-y,1/2+z
1/2-y,1/2+x,1/2-z
loop_
_atom_site_type_symbol
_atom_site_label
_atom_site_fract_x
_atom_site_fract_y
_atom_site_fract_z
Si Si1 0.044414 0.858154 0.533938
Si Si2 0.230680 0.321644 0.065020
Si Si3 0.168844 0.752526 0.103109
Si Si4 0.457309 0.645548 0.470385
Si Si5 0.398899 0.121563 0.745230
Si Si6 0.056065 0.776159 0.747842
Si Si7 0.736003 0.148593 0.268024
O O1 0.079766 0.765440 0.478050
O O2 0.052913 0.844488 0.652718
O O3 0.942180 0.888440 0.500103
O O4 0.146239 0.334781 0.143831
O O5 0.314153 0.272233 0.126553
O O6 0.221245 0.253980 0.970197
O O7 0.169762 0.653397 0.160156
O O8 0.179125 0.826393 0.193142
O O9 0.076286 0.767918 0.038062
O O10 0.559929 0.610858 0.499768
O O11 0.445515 0.671282 0.354310
O O12 0.510944 0.127724 0.750366
O O13 0.146609 0.711032 0.741761
O O14 0.960534 0.717433 0.738589
#
# Coordination Sequence:
#
# PCOD9542996 Si02
#       7
#     8   8   8   8   8   8   8
#     4  11  25  41  67 100 133 169 213 280 336 393
#     4  11  23  42  69  96 131 175 223 270 335 388
#     4  11  23  42  69  96 131 175 223 270 335 388
#     4  11  25  41  67 100 133 169 213 280 336 393
#     4  10  26  45  68 100 135 180 228 276 328 403
#     4  12  24  43  67  96 137 165 228 261 333 394
#     4  11  24  41  66  95 126 178 212 268 321 395
#
# _framework density 20.490008
#
# number of rings (size 3 to 8) (size 9 to 14) (size 15 to 20)
#    0.000    1.000    5.714    0.000    4.000    4.857 
#    0.000    0.000    0.000    0.000    0.000    0.000 
#    0.000    0.000    0.000    0.000    0.000    0.000 
#
# Total GULP energy -156352.332967 kJ/mol
# GULP energy per Si atom -5584.011892 kJ/mol
# Density = 2.044337 g / cm^3
# Si number density = 20.490008 Si / 1000 Ang^3
#
#
#
# Elastic Constant Matrix: (Units=GPa)
#
#
# Indices 1 2 3 4 5 6 
#
# 1 68.9228 16.9982 21.9850 0.0000 0.0000 -6.2255
# 2 16.9982 68.9228 21.9850 0.0000 0.0000 6.2255
# 3 21.9850 21.9850 82.4524 0.0000 0.0000 0.0000
# 4 0.0000 0.0000 0.0000 21.0275 0.0000 0.0000
# 5 0.0000 0.0000 0.0000 0.0000 21.0275 0.0000
# 6 -6.2255 6.2255 0.0000 0.0000 0.0000 35.3042
#
#
#
# Elastic Compliance Matrix: (Units=1/GPa)
#
#
# Indices 1 2 3 4 5 6 
#
# 1 0.016793 -0.003316 -0.003594 0.000000 0.000000 0.003546
# 2 -0.003316 0.016793 -0.003594 0.000000 0.000000 -0.003546
# 3 -0.003594 -0.003594 0.014045 0.000000 0.000000 0.000000
# 4 0.000000 0.000000 0.000000 0.047557 0.000000 0.000000
# 5 0.000000 0.000000 0.000000 0.000000 0.047557 0.000000
# 6 0.003546 -0.003546 0.000000 0.000000 0.000000 0.029576
#
#
# Mechanical properties :
#
#
# Convention : Reuss Voigt Hill
#
# Bulk Modulus (GPa) = 37.55826 38.02601 37.79213
# Shear Modulus (GPa) = 24.72780 26.09384 25.41082
#
# Velocity S-wave (km/s) = 3.47770 3.57247 3.52541
# Velocity P-wave (km/s) = 5.87331 5.96786 5.92077
#
# Compressibility (1/GPa) = 0.02662530
#
# Stress axis : x y z
#
# Youngs Moduli (GPa) = 59.54751 59.54751 71.20158
#
# Poissons Ratio (x) = 0.19744 0.25587
# Poissons Ratio (y) = 0.19744 0.25587
# Poissons Ratio (z) = 0.21399 0.21399
#
# Static dielectric constant tensor:
#      x y z
#    x 1.745440 0.000000 0.000000 
#    y 0.000000 1.745440 0.000000 
#    z 0.000000 0.000000 1.717050 
# 
# From -- ./inp_files/1840.got.cif
#   From: 2010.05.17/outbox.cif.g08.bks.cpg/sg82_1_cif.got.tgz:1840.got - 2010.06.03 18:52:26.
