data_PCOD9542707
_publ_section_title
;
Structure prediction by ZEFSAII (Michael W. Deem and Ramdas Pophale) SiO2 
 PCOD9542707
Probable space group: I -4 
;
_chemical_formula_sum "Si O2"
_cell_formula_units_Z 56
_cell_length_a 11.435440
_cell_length_b 11.435440
_cell_length_c 19.051338
_cell_angle_alpha 90.000000
_cell_angle_beta 90.000000
_cell_angle_gamma 90.000000
_cell_volume 2491.329906
_symmetry_space_group_name_H-M "I -4 "
_symmetry_group_IT_number 82
_symmetry_cell_setting 'tetragonal'
loop_
_space_group_symop_operation_xyz
x,y,z
y,-x,-z
-x,-y,z
-y,x,-z
1/2+x,1/2+y,1/2+z
1/2+y,1/2-x,1/2-z
1/2-x,1/2-y,1/2+z
1/2-y,1/2+x,1/2-z
loop_
_atom_site_type_symbol
_atom_site_label
_atom_site_fract_x
_atom_site_fract_y
_atom_site_fract_z
Si Si1 0.218269 0.793355 0.895017
Si Si2 0.128507 0.946438 0.592230
Si Si3 0.903271 0.270010 0.510715
Si Si4 0.817544 0.456197 0.739006
Si Si5 0.543869 0.367668 0.630873
Si Si6 0.324149 0.381928 0.215178
Si Si7 0.726396 0.048283 0.081984
O O1 0.289005 0.762198 0.823091
O O2 0.090219 0.741355 0.910498
O O3 0.200597 0.932751 0.898390
O O4 0.301149 0.745413 0.955107
O O5 0.223126 0.987061 0.533385
O O6 0.165478 0.004567 0.665920
O O7 0.113203 0.809326 0.579560
O O8 0.000000 0.000000 0.577445
O O9 0.876478 0.402484 0.533647
O O10 0.872483 0.583089 0.731240
O O11 0.696274 0.443420 0.780177
O O12 0.799425 0.412124 0.660932
O O13 0.500000 0.500000 0.650267
O O14 0.582797 0.305664 0.703750
O O15 0.645944 0.389912 0.573375
#
# Coordination Sequence:
#
# PCOD9542707 Si02
#       7
#     8   8   8   8   8   8   8
#     4  10  22  40  61  93 127 159 214 260 308 379
#     4  11  22  42  62  89 122 166 225 260 304 382
#     4  11  23  39  64  88 125 164 216 260 315 371
#     4  10  20  35  54  92 128 155 196 252 328 376
#     4   9  20  40  61  93 121 163 211 254 311 381
#     4  10  21  36  66  88 122 162 206 265 312 368
#     4  10  22  38  63  89 124 164 204 260 320 376
#
# _framework density 22.477952999999999
#
# number of rings (size 3 to 8) (size 9 to 14) (size 15 to 20)
#    0.000    1.857    2.857    0.429    4.000    2.286 
#    0.000    0.000    0.000    2.143    0.000    0.000 
#    0.000    0.000    0.000    0.000    0.000    0.000 
#
# Total GULP energy -156009.815944 kJ/mol
# GULP energy per Si atom -5571.779141 kJ/mol
# Density = 2.242679 g / cm^3
# Si number density = 22.477953 Si / 1000 Ang^3
#
#
#
# Elastic Constant Matrix: (Units=GPa)
#
#
# Indices 1 2 3 4 5 6 
#
# 1 32.5658 5.7220 -0.2846 0.0000 0.0000 4.8111
# 2 5.7220 32.5658 -0.2846 0.0000 0.0000 -4.8111
# 3 -0.2846 -0.2846 47.9795 0.0000 0.0000 0.0000
# 4 0.0000 0.0000 0.0000 14.9294 0.0000 0.0000
# 5 0.0000 0.0000 0.0000 0.0000 14.9294 0.0000
# 6 4.8111 -4.8111 0.0000 0.0000 0.0000 25.7246
#
#
#
# Elastic Compliance Matrix: (Units=1/GPa)
#
#
# Indices 1 2 3 4 5 6 
#
# 1 0.033025 -0.006905 0.000155 0.000000 0.000000 -0.007468
# 2 -0.006905 0.033025 0.000155 0.000000 0.000000 0.007468
# 3 0.000155 0.000155 0.020844 0.000000 0.000000 0.000000
# 4 0.000000 0.000000 0.000000 0.066982 0.000000 0.000000
# 5 0.000000 0.000000 0.000000 0.000000 0.066982 0.000000
# 6 -0.007468 0.007468 0.000000 0.000000 0.000000 0.041667
#
#
# Mechanical properties :
#
#
# Convention : Reuss Voigt Hill
#
# Bulk Modulus (GPa) = 13.56774 13.71299 13.64036
# Shear Modulus (GPa) = 16.65104 18.31390 17.48247
#
# Velocity S-wave (km/s) = 2.72467 2.85748 2.79186
# Velocity P-wave (km/s) = 3.99344 4.12320 4.05884
#
# Compressibility (1/GPa) = 0.07370426
#
# Stress axis : x y z
#
# Youngs Moduli (GPa) = 30.28023 30.28023 47.97531
#
# Poissons Ratio (x) = 0.20907 -0.00743
# Poissons Ratio (y) = 0.20907 -0.00743
# Poissons Ratio (z) = -0.00469 -0.00469
#
# Static dielectric constant tensor:
#      x y z
#    x 1.882020 0.000000 0.000000 
#    y 0.000000 1.882020 0.000000 
#    z 0.000000 0.000000 1.867950 
# 
# From -- ./inp_files/3145.got.cif
#   From: 2010.05.17/outbox.cif.g08.bks.cpg/sg82_2_cif.got.tgz:3145.got - 2010.06.03 18:52:26.
