data_PCOD9542369
_publ_section_title
;
Structure prediction by ZEFSAII (Michael W. Deem and Ramdas Pophale) SiO2 
 PCOD9542369
Probable space group: P -4
;
_chemical_formula_sum "Si O2"
_cell_formula_units_Z 19
_cell_length_a 7.845247
_cell_length_b 7.845247
_cell_length_c 15.343518
_cell_angle_alpha 90.000000
_cell_angle_beta 90.000000
_cell_angle_gamma 90.000000
_cell_volume 944.361319
_symmetry_space_group_name_H-M "P -4"
_symmetry_group_IT_number 81
_symmetry_cell_setting 'tetragonal'
loop_
_space_group_symop_operation_xyz
x,y,z
y,-x,-z
-x,-y,z
-y,x,-z
loop_
_atom_site_type_symbol
_atom_site_label
_atom_site_fract_x
_atom_site_fract_y
_atom_site_fract_z
Si Si1 0.611323 0.241114 0.007717
Si Si2 0.897971 0.719604 0.812263
Si Si3 0.500000 0.500000 0.500000
Si Si4 0.894013 0.764519 0.167843
Si Si5 0.000000 0.500000 0.305947
Si Si6 0.363845 0.641231 0.337353
O O1 0.694598 0.138725 0.928540
O O2 0.418668 0.287556 0.983935
O O3 0.621867 0.149990 0.100050
O O4 0.800491 0.645938 0.728311
O O5 0.098762 0.750492 0.806557
O O6 0.834367 0.913742 0.827876
O O7 0.442338 0.650481 0.434680
O O8 0.896770 0.622551 0.241087
O O9 0.163494 0.587747 0.351674
O O10 0.500000 0.500000 0.298389
#
# Coordination Sequence:
#
# PCOD9542369 Si02
#       6
#     4   4   1   4   2   4
#     4  11  23  33  50  78 119 165 210 257 303 364
#     4  10  21  36  58  81 117 161 208 257 314 375
#     4   8  20  40  64  88 126 152 200 264 328 396
#     4  10  21  37  54  84 120 159 207 258 306 364
#     4  10  20  38  64  86 122 162 204 252 318 376
#     4   9  20  39  64  87 121 159 199 261 321 383
#
# _framework density 20.119416000000001
#
# number of rings (size 3 to 8) (size 9 to 14) (size 15 to 20)
#    0.632    1.474    0.000    3.789    5.895    4.211 
#    0.000    2.105    0.000    0.000    0.000    0.000 
#    0.000    0.000    0.000    0.000    0.000    0.000 
#
# Total GULP energy -105864.829132 kJ/mol
# GULP energy per Si atom -5571.833112 kJ/mol
# Density = 2.007362 g / cm^3
# Si number density = 20.119416 Si / 1000 Ang^3
#
#
#
# Elastic Constant Matrix: (Units=GPa)
#
#
# Indices 1 2 3 4 5 6 
#
# 1 79.0079 31.5943 43.6873 0.0000 0.0000 4.4507
# 2 31.5943 79.0079 43.6873 0.0000 0.0000 -4.4507
# 3 43.6873 43.6873 109.6579 0.0000 0.0000 0.0000
# 4 0.0000 0.0000 0.0000 9.9828 0.0000 0.0000
# 5 0.0000 0.0000 0.0000 0.0000 9.9828 0.0000
# 6 4.4507 -4.4507 0.0000 0.0000 0.0000 24.0957
#
#
#
# Elastic Compliance Matrix: (Units=1/GPa)
#
#
# Indices 1 2 3 4 5 6 
#
# 1 0.017521 -0.004327 -0.005256 0.000000 0.000000 -0.004036
# 2 -0.004327 0.017521 -0.005256 0.000000 0.000000 0.004036
# 3 -0.005256 -0.005256 0.013308 0.000000 0.000000 0.000000
# 4 0.000000 0.000000 0.000000 0.100172 0.000000 0.000000
# 5 0.000000 0.000000 0.000000 0.000000 0.100172 0.000000
# 6 -0.004036 0.004036 0.000000 0.000000 0.000000 0.042992
#
#
# Mechanical properties :
#
#
# Convention : Reuss Voigt Hill
#
# Bulk Modulus (GPa) = 53.56264 56.17909 54.87087
# Shear Modulus (GPa) = 15.26299 18.72592 16.99446
#
# Velocity S-wave (km/s) = 2.75729 3.05411 2.90949
# Velocity P-wave (km/s) = 6.06771 6.35769 6.21439
#
# Compressibility (1/GPa) = 0.01866973
#
# Stress axis : x y z
#
# Youngs Moduli (GPa) = 57.07349 57.07349 75.14534
#
# Poissons Ratio (x) = 0.24698 0.39500
# Poissons Ratio (y) = 0.24698 0.39500
# Poissons Ratio (z) = 0.30000 0.30000
#
# Static dielectric constant tensor:
#      x y z
#    x 1.714510 0.000000 0.000000 
#    y 0.000000 1.714510 0.000000 
#    z 0.000000 0.000000 1.660900 
# 
# From -- ./inp_files/1470.got.cif
#   From: 2010.05.17/outbox.cif.g08.bks.cpg/sg81_cif.got.tgz:1470.got - 2010.06.03 18:51:07.
