data_PCOD9542927
_publ_section_title
;
Structure prediction by ZEFSAII (Michael W. Deem and Ramdas Pophale) SiO2 
 PCOD9542927
Probable space group: I -4 
;
_chemical_formula_sum "Si O2"
_cell_formula_units_Z 52
_cell_length_a 15.801898
_cell_length_b 15.801898
_cell_length_c 8.203696
_cell_angle_alpha 90.000000
_cell_angle_beta 90.000000
_cell_angle_gamma 90.000000
_cell_volume 2048.462730
_symmetry_space_group_name_H-M "I -4 "
_symmetry_group_IT_number 82
_symmetry_cell_setting 'tetragonal'
loop_
_space_group_symop_operation_xyz
x,y,z
y,-x,-z
-x,-y,z
-y,x,-z
1/2+x,1/2+y,1/2+z
1/2+y,1/2-x,1/2-z
1/2-x,1/2-y,1/2+z
1/2-y,1/2+x,1/2-z
loop_
_atom_site_type_symbol
_atom_site_label
_atom_site_fract_x
_atom_site_fract_y
_atom_site_fract_z
Si Si1 0.500000 0.500000 0.000000
Si Si2 0.687074 0.354331 0.211943
Si Si3 0.997107 0.836809 0.687175
Si Si4 0.094764 0.322382 0.809736
Si Si5 0.313887 0.761436 0.919602
Si Si6 0.564881 0.090977 0.471311
Si Si7 0.500000 0.000000 0.750000
Si Si8 0.786445 0.512050 0.121717
O O1 0.463598 0.425174 0.113573
O O2 0.589065 0.361278 0.260299
O O3 0.732799 0.283406 0.316422
O O4 0.744960 0.437472 0.226952
O O5 0.691438 0.324231 0.023060
O O6 0.017236 0.777011 0.533548
O O7 0.939732 0.774082 0.794647
O O8 0.015282 0.384328 0.855617
O O9 0.130226 0.361998 0.641193
O O10 0.164951 0.325641 0.947014
O O11 0.395264 0.773334 0.802883
O O12 0.514991 0.086539 0.644061
O O13 0.624852 0.011609 0.534213
#
# Coordination Sequence:
#
# PCOD9542927 Si02
#       8
#     2   8   8   8   8   8   2   8
#     4  12  20  44  76 110 128 188 260 326 360 452
#     4  11  25  45  67 107 144 190 253 311 377 454
#     4  10  23  43  74 100 136 188 248 311 382 438
#     4  11  24  47  67 102 150 200 237 296 391 458
#     4  11  27  45  71 107 146 201 246 310 386 455
#     4  11  23  38  65  97 148 183 235 296 353 456
#     4  12  24  34  64 108 136 194 236 288 356 438
#     4  10  23  41  67 102 140 185 243 301 371 448
#
# _framework density 25.384889999999999
#
# number of rings (size 3 to 8) (size 9 to 14) (size 15 to 20)
#    0.000    1.231    1.538    4.615   10.769    0.000 
#    0.000    0.000    0.000    0.000    0.000    0.000 
#    0.000    0.000    0.000    0.000    0.000    0.000 
#
# Total GULP energy -144790.450742 kJ/mol
# GULP energy per Si atom -5568.863490 kJ/mol
# Density = 2.532711 g / cm^3
# Si number density = 25.384890 Si / 1000 Ang^3
#
#
#
# Elastic Constant Matrix: (Units=GPa)
#
#
# Indices 1 2 3 4 5 6 
#
# 1 106.4098 66.1265 24.2786 0.0000 0.0000 -17.9306
# 2 66.1265 106.4098 24.2786 0.0000 0.0000 17.9306
# 3 24.2786 24.2786 45.5613 0.0000 0.0000 0.0000
# 4 0.0000 0.0000 0.0000 34.9828 0.0000 0.0000
# 5 0.0000 0.0000 0.0000 0.0000 34.9828 0.0000
# 6 -17.9306 17.9306 0.0000 0.0000 0.0000 46.4182
#
#
#
# Elastic Compliance Matrix: (Units=1/GPa)
#
#
# Indices 1 2 3 4 5 6 
#
# 1 0.022327 -0.015508 -0.003633 0.000000 0.000000 0.014615
# 2 -0.015508 0.022327 -0.003633 0.000000 0.000000 -0.014615
# 3 -0.003633 -0.003633 0.025821 0.000000 0.000000 0.000000
# 4 0.000000 0.000000 0.000000 0.028585 0.000000 0.000000
# 5 0.000000 0.000000 0.000000 0.000000 0.028585 0.000000
# 6 0.014615 -0.014615 0.000000 0.000000 0.000000 0.032834
#
#
# Mechanical properties :
#
#
# Convention : Reuss Voigt Hill
#
# Bulk Modulus (GPa) = 40.12185 54.19425 47.15805
# Shear Modulus (GPa) = 23.32770 32.85658 28.09214
#
# Velocity S-wave (km/s) = 3.03472 3.60159 3.33024
# Velocity P-wave (km/s) = 5.30275 6.22018 5.77970
#
# Compressibility (1/GPa) = 0.02492408
#
# Stress axis : x y z
#
# Youngs Moduli (GPa) = 44.78949 44.78949 38.72850
#
# Poissons Ratio (x) = 0.69461 0.14072
# Poissons Ratio (y) = 0.69461 0.14072
# Poissons Ratio (z) = 0.16274 0.16274
#
# Static dielectric constant tensor:
#      x y z
#    x 2.072730 0.000000 0.000000 
#    y 0.000000 2.072730 0.000000 
#    z 0.000000 0.000000 2.096480 
# 
# From -- ./inp_files/1137.got.cif
#   From: 2010.05.17/outbox.cif.g08.bks.cpg/sg82_1_cif.got.tgz:1137.got - 2010.06.03 18:52:26.
