data_PCOD9542582
_publ_section_title
;
Structure prediction by ZEFSAII (Michael W. Deem and Ramdas Pophale) SiO2 
 PCOD9542582
Probable space group: P -4
;
_chemical_formula_sum "Si O2"
_cell_formula_units_Z 17
_cell_length_a 9.388308
_cell_length_b 9.388308
_cell_length_c 8.087384
_cell_angle_alpha 90.000000
_cell_angle_beta 90.000000
_cell_angle_gamma 90.000000
_cell_volume 712.824671
_symmetry_space_group_name_H-M "P -4"
_symmetry_group_IT_number 81
_symmetry_cell_setting 'tetragonal'
loop_
_space_group_symop_operation_xyz
x,y,z
y,-x,-z
-x,-y,z
-y,x,-z
loop_
_atom_site_type_symbol
_atom_site_label
_atom_site_fract_x
_atom_site_fract_y
_atom_site_fract_z
Si Si1 0.820205 0.710174 0.042210
Si Si2 0.753121 0.902457 0.743737
Si Si3 0.725154 0.454840 0.489308
Si Si4 0.462494 0.161346 0.162246
Si Si5 0.000000 0.000000 0.500000
O O1 0.699510 0.795993 0.138873
O O2 0.960728 0.698754 0.153427
O O3 0.837321 0.802191 0.873781
O O4 0.760356 0.560415 0.973410
O O5 0.628284 0.814401 0.650024
O O6 0.865204 0.957266 0.610184
O O7 0.599815 0.353410 0.562497
O O8 0.815826 0.500185 0.647514
O O9 0.500000 0.000000 0.124222
#
# Coordination Sequence:
#
# PCOD9542582 Si02
#       5
#     4   4   4   4   1
#     4  12  27  50  80 112 159 207 267 333 393 480
#     4  12  26  51  79 116 159 213 268 329 405 478
#     4  11  27  49  80 116 161 211 267 336 406 488
#     4  12  28  49  75 118 154 209 269 327 405 484
#     4  12  28  46  76 120 160 210 260 340 404 490
#
# _framework density 23.848783999999998
#
# number of rings (size 3 to 8) (size 9 to 14) (size 15 to 20)
#    0.000    0.235    4.706    2.824    6.588    2.353 
#    4.235    0.000    0.000    0.000    0.000    0.000 
#    0.000    0.000    0.000    0.000    0.000    0.000 
#
# Total GULP energy -95167.494493 kJ/mol
# GULP energy per Si atom -5598.087911 kJ/mol
# Density = 2.379450 g / cm^3
# Si number density = 23.848784 Si / 1000 Ang^3
#
#
#
# Elastic Constant Matrix: (Units=GPa)
#
#
# Indices 1 2 3 4 5 6 
#
# 1 119.1198 43.4222 46.9973 0.0000 0.0000 -2.7538
# 2 43.4222 119.1198 46.9973 0.0000 0.0000 2.7538
# 3 46.9973 46.9973 113.6512 0.0000 0.0000 0.0000
# 4 0.0000 0.0000 0.0000 44.4434 0.0000 0.0000
# 5 0.0000 0.0000 0.0000 0.0000 44.4434 0.0000
# 6 -2.7538 2.7538 0.0000 0.0000 0.0000 29.0872
#
#
#
# Elastic Compliance Matrix: (Units=1/GPa)
#
#
# Indices 1 2 3 4 5 6 
#
# 1 0.010694 -0.002608 -0.003344 0.000000 0.000000 0.001259
# 2 -0.002608 0.010694 -0.003344 0.000000 0.000000 -0.001259
# 3 -0.003344 -0.003344 0.011564 0.000000 0.000000 0.000000
# 4 0.000000 0.000000 0.000000 0.022501 0.000000 0.000000
# 5 0.000000 0.000000 0.000000 0.000000 0.022501 0.000000
# 6 0.001259 -0.001259 0.000000 0.000000 0.000000 0.034618
#
#
# Mechanical properties :
#
#
# Convention : Reuss Voigt Hill
#
# Bulk Modulus (GPa) = 69.63210 69.63605 69.63407
# Shear Modulus (GPa) = 36.77849 37.89308 37.33578
#
# Velocity S-wave (km/s) = 3.93129 3.99041 3.96096
# Velocity P-wave (km/s) = 7.06169 7.10588 7.08382
#
# Compressibility (1/GPa) = 0.01436119
#
# Stress axis : x y z
#
# Youngs Moduli (GPa) = 93.51077 93.51077 86.47366
#
# Poissons Ratio (x) = 0.24389 0.28914
# Poissons Ratio (y) = 0.24389 0.28914
# Poissons Ratio (z) = 0.31267 0.31267
#
# Static dielectric constant tensor:
#      x y z
#    x 1.962920 0.000000 0.000000 
#    y 0.000000 1.962920 0.000000 
#    z 0.000000 0.000000 1.899640 
# 
# From -- ./inp_files/643.got.cif
#   From: 2010.05.17/outbox.cif.g08.bks.cpg/sg81_cif.got.tgz:643.got - 2010.06.03 18:51:07.
