data_PCOD9542127
_publ_section_title
;
Structure prediction by ZEFSAII (Michael W. Deem and Ramdas Pophale) SiO2 
 PCOD9542127
Probable space group: I 41
;
_chemical_formula_sum "Si O2"
_cell_formula_units_Z 52
_cell_length_a 17.468971
_cell_length_b 17.468971
_cell_length_c 8.749660
_cell_angle_alpha 90.000000
_cell_angle_beta 90.000000
_cell_angle_gamma 90.000000
_cell_volume 2670.089537
_symmetry_space_group_name_H-M "I 41"
_symmetry_group_IT_number 80
_symmetry_cell_setting 'tetragonal'
loop_
_space_group_symop_operation_xyz
x,y,z
-y,1/2+x,1/4+z
-x,-y,z
y,1/2-x,1/4+z
1/2+x,1/2+y,1/2+z
1/2-y,x,3/4+z
1/2-x,1/2-y,1/2+z
1/2+y,-x,3/4+z
loop_
_atom_site_type_symbol
_atom_site_label
_atom_site_fract_x
_atom_site_fract_y
_atom_site_fract_z
Si Si1 0.376091 0.167766 0.464470
Si Si2 0.180286 0.816558 0.382435
Si Si3 0.515463 0.334769 0.745295
Si Si4 0.663669 0.488297 0.000312
Si Si5 0.377057 0.334987 0.537065
Si Si6 0.000000 0.000000 0.367310
Si Si7 0.748493 0.913797 0.249252
O O1 0.462197 0.178219 0.401539
O O2 0.345154 0.251143 0.504805
O O3 0.377412 0.122710 0.624330
O O4 0.316884 0.134332 0.338705
O O5 0.184452 0.750158 0.510977
O O6 0.102420 0.809714 0.279987
O O7 0.176811 0.897828 0.474878
O O8 0.463687 0.323619 0.596124
O O9 0.513049 0.425598 0.767391
O O10 0.464540 0.294787 0.875017
O O11 0.575062 0.506026 0.968266
O O12 0.713646 0.530588 0.872510
O O13 0.318997 0.371703 0.661772
#
# Coordination Sequence:
#
# PCOD9542127 Si02
#       7
#     8   8   8   8   8   4   8
#     4  12  26  38  65 102 144 183 225 274 339 416
#     4  11  26  49  78 100 130 181 238 307 372 416
#     4  11  23  43  69  94 133 180 231 279 347 420
#     4  11  23  43  69  94 133 180 231 279 347 420
#     4  12  26  38  65 102 144 183 225 274 339 416
#     4  10  20  40  70  88 120 184 226 266 332 408
#     4  12  22  42  66  96 140 188 218 270 342 440
#
# _framework density 19.475003000000001
#
# number of rings (size 3 to 8) (size 9 to 14) (size 15 to 20)
#    0.000    0.615    7.692    0.000    2.154    1.231 
#    0.000    0.769    0.000    0.000    0.000    0.000 
#    0.000    0.000    0.000    0.000    0.000    0.000 
#
# Total GULP energy -144994.228888 kJ/mol
# GULP energy per Si atom -5576.701111 kJ/mol
# Density = 1.943068 g / cm^3
# Si number density = 19.475003 Si / 1000 Ang^3
#
#
#
# Elastic Constant Matrix: (Units=GPa)
#
#
# Indices 1 2 3 4 5 6 
#
# 1 125.5592 -21.6744 39.4657 0.0000 0.0000 -9.6606
# 2 -21.6744 125.5592 39.4657 0.0000 0.0000 9.6606
# 3 39.4657 39.4657 120.3756 0.0000 0.0000 0.0000
# 4 0.0000 0.0000 0.0000 19.8077 0.0000 0.0000
# 5 0.0000 0.0000 0.0000 0.0000 19.8077 0.0000
# 6 -9.6606 9.6606 0.0000 0.0000 0.0000 26.1553
#
#
#
# Elastic Compliance Matrix: (Units=1/GPa)
#
#
# Indices 1 2 3 4 5 6 
#
# 1 0.009979 0.002841 -0.004203 0.000000 0.000000 0.002636
# 2 0.002841 0.009979 -0.004203 0.000000 0.000000 -0.002636
# 3 -0.004203 -0.004203 0.011063 0.000000 0.000000 0.000000
# 4 0.000000 0.000000 0.000000 0.050485 0.000000 0.000000
# 5 0.000000 0.000000 0.000000 0.000000 0.050485 0.000000
# 6 0.002636 -0.002636 0.000000 0.000000 0.000000 0.040181
#
#
# Mechanical properties :
#
#
# Convention : Reuss Voigt Hill
#
# Bulk Modulus (GPa) = 50.27547 54.00087 52.13817
# Shear Modulus (GPa) = 26.32517 34.10328 30.21422
#
# Velocity S-wave (km/s) = 3.68059 4.18919 3.94310
# Velocity P-wave (km/s) = 6.62826 7.15455 6.89643
#
# Compressibility (1/GPa) = 0.01989041
#
# Stress axis : x y z
#
# Youngs Moduli (GPa) = 100.21399 100.21399 90.38973
#
# Poissons Ratio (x) = -0.28468 0.37990
# Poissons Ratio (y) = -0.28468 0.37990
# Poissons Ratio (z) = 0.42119 0.42119
#
# Static dielectric constant tensor:
#      x y z
#    x 1.711440 0.000000 0.000000 
#    y 0.000000 1.711440 0.000000 
#    z 0.000000 0.000000 1.782690 
# 
# From -- ./inp_files/710.got.cif
#   From: 2010.05.17/outbox.cif.g08.bks.cpg/sg80_cif.got.tgz:710.got - 2010.06.03 18:49:13.
