data_PCOD9542634
_publ_section_title
;
Structure prediction by ZEFSAII (Michael W. Deem and Ramdas Pophale) SiO2 
 PCOD9542634
Probable space group: I -4 
;
_chemical_formula_sum "Si O2"
_cell_formula_units_Z 60
_cell_length_a 11.251329
_cell_length_b 11.251329
_cell_length_c 22.045575
_cell_angle_alpha 90.000000
_cell_angle_beta 90.000000
_cell_angle_gamma 90.000000
_cell_volume 2790.802343
_symmetry_space_group_name_H-M "I -4 "
_symmetry_group_IT_number 82
_symmetry_cell_setting 'tetragonal'
loop_
_space_group_symop_operation_xyz
x,y,z
y,-x,-z
-x,-y,z
-y,x,-z
1/2+x,1/2+y,1/2+z
1/2+y,1/2-x,1/2-z
1/2-x,1/2-y,1/2+z
1/2-y,1/2+x,1/2-z
loop_
_atom_site_type_symbol
_atom_site_label
_atom_site_fract_x
_atom_site_fract_y
_atom_site_fract_z
Si Si1 0.324720 0.048141 0.271662
Si Si2 0.764967 0.612843 0.289137
Si Si3 0.474853 0.303904 0.489004
Si Si4 0.156477 0.125004 0.498543
Si Si5 0.178945 0.290583 0.888458
Si Si6 0.854985 0.683988 0.090889
Si Si7 0.323866 0.635003 0.289517
Si Si8 0.000000 0.500000 0.159090
O O1 0.416451 0.125084 0.231069
O O2 0.328161 0.104565 0.338585
O O3 0.199324 0.061268 0.237596
O O4 0.716267 0.676213 0.349293
O O5 0.683495 0.502515 0.270349
O O6 0.792579 0.715147 0.241366
O O7 0.891166 0.554302 0.304421
O O8 0.372571 0.402059 0.504028
O O9 0.440342 0.243419 0.425376
O O10 0.457292 0.207501 0.541242
O O11 0.223559 0.174732 0.439007
O O12 0.231069 0.172351 0.556044
O O13 0.018713 0.161314 0.501174
O O14 0.859095 0.791147 0.139587
O O15 0.892991 0.561283 0.122319
#
# Coordination Sequence:
#
# PCOD9542634 Si02
#       8
#     8   8   8   8   8   8   8   4
#     4  10  24  44  63  88 122 169 215 256 316 381
#     4  10  19  34  57  90 118 155 198 252 317 356
#     4  10  21  37  57  87 120 157 199 254 317 367
#     4  10  22  39  59  87 122 165 206 256 311 371
#     4  10  22  41  61  86 128 162 207 263 316 377
#     4  10  21  34  57  86 113 153 201 241 308 367
#     4  10  20  35  61  88 118 154 201 255 306 373
#     4  10  18  33  56  82 120 148 191 250 292 370
#
# _framework density 21.499193999999999
#
# number of rings (size 3 to 8) (size 9 to 14) (size 15 to 20)
#    0.000    2.000    0.000    4.000    3.733    2.667 
#    0.000    7.333    0.000    0.000    0.000    0.000 
#    0.000    0.000    0.000    0.000    0.000    0.000 
#
# Total GULP energy -167597.262501 kJ/mol
# GULP energy per Si atom -5586.575417 kJ/mol
# Density = 2.145026 g / cm^3
# Si number density = 21.499194 Si / 1000 Ang^3
#
#
#
# Elastic Constant Matrix: (Units=GPa)
#
#
# Indices 1 2 3 4 5 6 
#
# 1 47.5471 14.5379 1.0338 0.0000 0.0000 1.7926
# 2 14.5379 47.5471 1.0338 0.0000 0.0000 -1.7926
# 3 1.0338 1.0338 84.7001 0.0000 0.0000 0.0000
# 4 0.0000 0.0000 0.0000 19.9332 0.0000 0.0000
# 5 0.0000 0.0000 0.0000 0.0000 19.9332 0.0000
# 6 1.7926 -1.7926 0.0000 0.0000 0.0000 37.0999
#
#
#
# Elastic Compliance Matrix: (Units=1/GPa)
#
#
# Indices 1 2 3 4 5 6 
#
# 1 0.023284 -0.007170 -0.000197 0.000000 0.000000 -0.001472
# 2 -0.007170 0.023284 -0.000197 0.000000 0.000000 0.001472
# 3 -0.000197 -0.000197 0.011811 0.000000 0.000000 0.000000
# 4 0.000000 0.000000 0.000000 0.050168 0.000000 0.000000
# 5 0.000000 0.000000 0.000000 0.000000 0.050168 0.000000
# 6 -0.001472 0.001472 0.000000 0.000000 0.000000 0.027096
#
#
# Mechanical properties :
#
#
# Convention : Reuss Voigt Hill
#
# Bulk Modulus (GPa) = 23.12061 23.66726 23.39394
# Shear Modulus (GPa) = 23.21741 26.27249 24.74495
#
# Velocity S-wave (km/s) = 3.28978 3.49954 3.39628
# Velocity P-wave (km/s) = 5.02073 5.23081 5.12684
#
# Compressibility (1/GPa) = 0.04325146
#
# Stress axis : x y z
#
# Youngs Moduli (GPa) = 42.94799 42.94799 84.66563
#
# Poissons Ratio (x) = 0.30796 0.01665
# Poissons Ratio (y) = 0.30796 0.01665
# Poissons Ratio (z) = 0.00845 0.00845
#
# Static dielectric constant tensor:
#      x y z
#    x 1.791440 0.000000 0.000000 
#    y 0.000000 1.791440 0.000000 
#    z 0.000000 0.000000 1.802530 
# 
# From -- ./inp_files/3169.got.cif
#   From: 2010.05.17/outbox.cif.g08.bks.cpg/sg82_2_cif.got.tgz:3169.got - 2010.06.03 18:52:26.
