data_PCOD9542175
_publ_section_title
;
Structure prediction by ZEFSAII (Michael W. Deem and Ramdas Pophale) SiO2 
 PCOD9542175
Probable space group: I 41
;
_chemical_formula_sum "Si O2"
_cell_formula_units_Z 48
_cell_length_a 11.574690
_cell_length_b 11.574690
_cell_length_c 18.055034
_cell_angle_alpha 90.000000
_cell_angle_beta 90.000000
_cell_angle_gamma 90.000000
_cell_volume 2418.895169
_symmetry_space_group_name_H-M "I 41"
_symmetry_group_IT_number 80
_symmetry_cell_setting 'tetragonal'
loop_
_space_group_symop_operation_xyz
x,y,z
-y,1/2+x,1/4+z
-x,-y,z
y,1/2-x,1/4+z
1/2+x,1/2+y,1/2+z
1/2-y,x,3/4+z
1/2-x,1/2-y,1/2+z
1/2+y,-x,3/4+z
loop_
_atom_site_type_symbol
_atom_site_label
_atom_site_fract_x
_atom_site_fract_y
_atom_site_fract_z
Si Si1 0.280930 0.547286 0.631080
Si Si2 0.370853 0.551289 0.376836
Si Si3 0.676115 0.797898 0.096480
Si Si4 0.568274 0.321332 0.518467
Si Si5 0.626775 0.442906 0.795307
Si Si6 0.823029 0.685299 0.204307
O O1 0.241588 0.413655 0.625077
O O2 0.387014 0.585056 0.578142
O O3 0.312227 0.575259 0.715945
O O4 0.173116 0.612727 0.592620
O O5 0.500000 0.500000 0.364285
O O6 0.375110 0.648927 0.439622
O O7 0.303237 0.590513 0.304437
O O8 0.299894 0.445332 0.413675
O O9 0.539426 0.810292 0.095091
O O10 0.725355 0.690442 0.141847
O O11 0.715597 0.793373 0.011845
O O12 0.432829 0.328954 0.499926
O O13 0.500000 0.500000 0.780380
#
# Coordination Sequence:
#
# PCOD9542175 Si02
#       6
#     8   8   8   8   8   8
#     4  11  22  37  62  94 130 161 213 268 321 374
#     4  10  22  37  59  93 125 161 209 264 316 375
#     4  11  21  38  62  96 127 165 209 267 321 378
#     4  11  22  37  61  92 127 162 210 260 321 371
#     4  10  24  39  64  96 126 169 213 265 321 380
#     4  11  21  35  62  97 123 161 206 263 320 369
#
# _framework density 19.843769000000002
#
# number of rings (size 3 to 8) (size 9 to 14) (size 15 to 20)
#    0.000    1.333    5.000    1.000    4.667    0.000 
#    0.000    3.333    3.667    0.000    0.000    0.000 
#    0.000    0.000    0.000    0.000    0.000    0.000 
#
# Total GULP energy -133972.681342 kJ/mol
# GULP energy per Si atom -5582.195056 kJ/mol
# Density = 1.979860 g / cm^3
# Si number density = 19.843769 Si / 1000 Ang^3
#
#
#
# Elastic Constant Matrix: (Units=GPa)
#
#
# Indices 1 2 3 4 5 6 
#
# 1 82.1905 36.1843 60.2357 0.0000 0.0000 -1.2868
# 2 36.1843 82.1905 60.2357 0.0000 0.0000 1.2868
# 3 60.2357 60.2357 107.0835 0.0000 0.0000 0.0000
# 4 0.0000 0.0000 0.0000 27.8023 0.0000 0.0000
# 5 0.0000 0.0000 0.0000 0.0000 27.8023 0.0000
# 6 -1.2868 1.2868 0.0000 0.0000 0.0000 22.5868
#
#
#
# Elastic Compliance Matrix: (Units=1/GPa)
#
#
# Indices 1 2 3 4 5 6 
#
# 1 0.020783 -0.001023 -0.011115 0.000000 0.000000 0.001242
# 2 -0.001023 0.020783 -0.011115 0.000000 0.000000 -0.001242
# 3 -0.011115 -0.011115 0.021843 0.000000 0.000000 0.000000
# 4 0.000000 0.000000 0.000000 0.035968 0.000000 0.000000
# 5 0.000000 0.000000 0.000000 0.000000 0.035968 0.000000
# 6 0.001242 -0.001242 0.000000 0.000000 0.000000 0.044415
#
#
# Mechanical properties :
#
#
# Convention : Reuss Voigt Hill
#
# Bulk Modulus (GPa) = 59.16338 64.97509 62.06923
# Shear Modulus (GPa) = 21.56098 23.29219 22.42658
#
# Velocity S-wave (km/s) = 3.29984 3.42976 3.36543
# Velocity P-wave (km/s) = 6.66318 6.96411 6.81530
#
# Compressibility (1/GPa) = 0.01690235
#
# Stress axis : x y z
#
# Youngs Moduli (GPa) = 48.11706 48.11706 45.78097
#
# Poissons Ratio (x) = 0.04922 0.50886
# Poissons Ratio (y) = 0.04922 0.50886
# Poissons Ratio (z) = 0.53482 0.53482
#
# Static dielectric constant tensor:
#      x y z
#    x 1.730920 0.000000 0.000000 
#    y 0.000000 1.730920 0.000000 
#    z 0.000000 0.000000 1.691460 
# 
# From -- ./inp_files/1516.got.cif
#   From: 2010.05.17/outbox.cif.g08.bks.cpg/sg80_cif.got.tgz:1516.got - 2010.06.03 18:49:13.
