data_PCOD9542469
_publ_section_title
;
Structure prediction by ZEFSAII (Michael W. Deem and Ramdas Pophale) SiO2 
 PCOD9542469
Probable space group: P -4
;
_chemical_formula_sum "Si O2"
_cell_formula_units_Z 20
_cell_length_a 9.450191
_cell_length_b 9.450191
_cell_length_c 9.969187
_cell_angle_alpha 90.000000
_cell_angle_beta 90.000000
_cell_angle_gamma 90.000000
_cell_volume 890.309310
_symmetry_space_group_name_H-M "P -4"
_symmetry_group_IT_number 81
_symmetry_cell_setting 'tetragonal'
loop_
_space_group_symop_operation_xyz
x,y,z
y,-x,-z
-x,-y,z
-y,x,-z
loop_
_atom_site_type_symbol
_atom_site_label
_atom_site_fract_x
_atom_site_fract_y
_atom_site_fract_z
Si Si1 0.661548 0.722584 0.894475
Si Si2 0.667518 0.011674 0.791921
Si Si3 0.157892 0.441628 0.697214
Si Si4 0.784329 0.055943 0.512196
Si Si5 0.667566 0.648109 0.192491
O O1 0.792310 0.641521 0.829174
O O2 0.523060 0.684367 0.801572
O O3 0.710778 0.885490 0.888307
O O4 0.613817 0.683291 0.043233
O O5 0.712389 0.984024 0.640138
O O6 0.707707 0.173246 0.813920
O O7 0.500000 0.000000 0.800448
O O8 0.144172 0.330341 0.573580
O O9 0.272521 0.570851 0.697651
O O10 0.000000 0.500000 0.712065
O O11 0.918925 0.148546 0.561035
#
# Coordination Sequence:
#
# PCOD9542469 Si02
#       5
#     4   4   4   4   4
#     4  11  23  43  70 103 143 188 233 296 371 431
#     4  10  23  43  67  98 138 183 233 295 358 425
#     4  12  25  41  72 104 136 191 243 292 363 437
#     4  11  23  45  69  98 140 187 239 302 361 433
#     4  11  24  42  71 104 143 183 235 299 364 439
#
# _framework density 22.464100999999999
#
# number of rings (size 3 to 8) (size 9 to 14) (size 15 to 20)
#    0.000    1.000    4.000    2.400    2.800    0.000 
#    0.000    0.000    0.000    0.000    0.000    0.000 
#    0.000    0.000    0.000    0.000    0.000    0.000 
#
# Total GULP energy -111469.000410 kJ/mol
# GULP energy per Si atom -5573.450021 kJ/mol
# Density = 2.241297 g / cm^3
# Si number density = 22.464101 Si / 1000 Ang^3
#
#
#
# Elastic Constant Matrix: (Units=GPa)
#
#
# Indices 1 2 3 4 5 6 
#
# 1 139.7321 -13.0131 8.6527 0.0000 0.0000 38.3971
# 2 -13.0131 139.7321 8.6527 0.0000 0.0000 -38.3971
# 3 8.6527 8.6527 34.0647 0.0000 0.0000 0.0000
# 4 0.0000 0.0000 0.0000 34.6514 0.0000 0.0000
# 5 0.0000 0.0000 0.0000 0.0000 34.6514 0.0000
# 6 38.3971 -38.3971 0.0000 0.0000 0.0000 94.0842
#
#
#
# Elastic Compliance Matrix: (Units=1/GPa)
#
#
# Indices 1 2 3 4 5 6 
#
# 1 0.008206 -0.000031 -0.002077 0.000000 0.000000 -0.003362
# 2 -0.000031 0.008206 -0.002077 0.000000 0.000000 0.003362
# 3 -0.002077 -0.002077 0.030411 0.000000 0.000000 0.000000
# 4 0.000000 0.000000 0.000000 0.028859 0.000000 0.000000
# 5 0.000000 0.000000 0.000000 0.000000 0.028859 0.000000
# 6 -0.003362 0.003362 0.000000 0.000000 0.000000 0.013373
#
#
# Mechanical properties :
#
#
# Convention : Reuss Voigt Hill
#
# Bulk Modulus (GPa) = 26.00454 35.79037 30.89746
# Shear Modulus (GPa) = 35.94551 53.29317 44.61934
#
# Velocity S-wave (km/s) = 4.00450 4.87598 4.46157
# Velocity P-wave (km/s) = 5.74305 6.90414 6.35018
#
# Compressibility (1/GPa) = 0.03845482
#
# Stress axis : x y z
#
# Youngs Moduli (GPa) = 121.86206 121.86206 32.88307
#
# Poissons Ratio (x) = 0.00377 0.06828
# Poissons Ratio (y) = 0.00377 0.06828
# Poissons Ratio (z) = 0.25305 0.25305
#
# Static dielectric constant tensor:
#      x y z
#    x 1.926490 0.000000 0.000000 
#    y 0.000000 1.926490 0.000000 
#    z 0.000000 0.000000 1.768190 
# 
# From -- ./inp_files/1238.got.cif
#   From: 2010.05.17/outbox.cif.g08.bks.cpg/sg81_cif.got.tgz:1238.got - 2010.06.03 18:51:07.
