data_PCOD9542943
_publ_section_title
;
Structure prediction by ZEFSAII (Michael W. Deem and Ramdas Pophale) SiO2 
 PCOD9542943
Probable space group: I -4 
;
_chemical_formula_sum "Si O2"
_cell_formula_units_Z 60
_cell_length_a 12.393880
_cell_length_b 12.393880
_cell_length_c 15.995000
_cell_angle_alpha 90.000000
_cell_angle_beta 90.000000
_cell_angle_gamma 90.000000
_cell_volume 2456.964142
_symmetry_space_group_name_H-M "I -4 "
_symmetry_group_IT_number 82
_symmetry_cell_setting 'tetragonal'
loop_
_space_group_symop_operation_xyz
x,y,z
y,-x,-z
-x,-y,z
-y,x,-z
1/2+x,1/2+y,1/2+z
1/2+y,1/2-x,1/2-z
1/2-x,1/2-y,1/2+z
1/2-y,1/2+x,1/2-z
loop_
_atom_site_type_symbol
_atom_site_label
_atom_site_fract_x
_atom_site_fract_y
_atom_site_fract_z
Si Si1 0.168123 0.148547 0.021507
Si Si2 0.595723 0.889240 0.537751
Si Si3 0.450788 0.355199 0.362958
Si Si4 0.032747 0.665544 0.754147
Si Si5 0.838968 0.395985 0.011478
Si Si6 0.500000 0.500000 0.212460
Si Si7 0.823641 0.158272 0.663593
Si Si8 0.869970 0.397645 0.276783
O O1 0.291951 0.166364 0.047473
O O2 0.149127 0.119607 0.923745
O O3 0.113373 0.264555 0.019250
O O4 0.118560 0.057722 0.081527
O O5 0.466098 0.899159 0.536311
O O6 0.639319 0.902239 0.631626
O O7 0.666311 0.977508 0.486849
O O8 0.478037 0.236166 0.327852
O O9 0.440943 0.420589 0.277547
O O10 0.106863 0.568910 0.789043
O O11 0.105117 0.738223 0.691846
O O12 0.753587 0.360069 0.083326
O O13 0.411775 0.563754 0.161073
O O14 0.741325 0.144969 0.741511
O O15 0.865967 0.527601 0.278790
#
# Coordination Sequence:
#
# PCOD9542943 Si02
#       8
#     8   8   8   8   8   4   8   8
#     4  12  24  43  69 100 132 182 228 282 349 403
#     4  11  22  43  63  96 136 169 228 275 342 420
#     4  11  23  43  67 102 136 172 220 293 343 409
#     4  10  23  45  63  93 133 184 233 267 331 411
#     4  11  23  43  64  96 133 176 226 276 339 416
#     4  10  24  39  62 104 139 168 216 280 358 398
#     4  11  22  40  66 100 134 173 221 289 349 405
#     4  11  19  35  65  99 126 161 207 278 351 397
#
# _framework density 24.420380000000002
#
# number of rings (size 3 to 8) (size 9 to 14) (size 15 to 20)
#    0.000    1.067    4.000    4.000    1.867    2.133 
#   12.000    0.000    0.000    0.000    0.000    0.000 
#    0.000    0.000    0.000    0.000    0.000    0.000 
#
# Total GULP energy -167414.153844 kJ/mol
# GULP energy per Si atom -5580.471795 kJ/mol
# Density = 2.436480 g / cm^3
# Si number density = 24.420380 Si / 1000 Ang^3
#
#
#
# Elastic Constant Matrix: (Units=GPa)
#
#
# Indices 1 2 3 4 5 6 
#
# 1 118.7693 42.9588 10.8325 0.0000 0.0000 7.1021
# 2 42.9588 118.7693 10.8325 0.0000 0.0000 -7.1021
# 3 10.8325 10.8325 23.2297 0.0000 0.0000 0.0000
# 4 0.0000 0.0000 0.0000 17.2256 0.0000 0.0000
# 5 0.0000 0.0000 0.0000 0.0000 17.2256 0.0000
# 6 7.1021 -7.1021 0.0000 0.0000 0.0000 44.0152
#
#
#
# Elastic Compliance Matrix: (Units=1/GPa)
#
#
# Indices 1 2 3 4 5 6 
#
# 1 0.010099 -0.003503 -0.003075 0.000000 0.000000 -0.002195
# 2 -0.003503 0.010099 -0.003075 0.000000 0.000000 0.002195
# 3 -0.003075 -0.003075 0.045917 0.000000 0.000000 0.000000
# 4 0.000000 0.000000 0.000000 0.058053 0.000000 0.000000
# 5 0.000000 0.000000 0.000000 0.000000 0.058053 0.000000
# 6 -0.002195 0.002195 0.000000 0.000000 0.000000 0.023428
#
#
# Mechanical properties :
#
#
# Convention : Reuss Voigt Hill
#
# Bulk Modulus (GPa) = 21.36515 43.33510 32.35013
# Shear Modulus (GPa) = 20.78498 28.76958 24.77728
#
# Velocity S-wave (km/s) = 2.92058 3.43607 3.18876
# Velocity P-wave (km/s) = 4.48787 5.79017 5.18011
#
# Compressibility (1/GPa) = 0.04680519
#
# Stress axis : x y z
#
# Youngs Moduli (GPa) = 99.02354 99.02354 21.77856
#
# Poissons Ratio (x) = 0.34692 0.06698
# Poissons Ratio (y) = 0.34692 0.06698
# Poissons Ratio (z) = 0.30455 0.30455
#
# Static dielectric constant tensor:
#      x y z
#    x 2.028990 0.000000 0.000000 
#    y 0.000000 2.028990 0.000000 
#    z 0.000000 0.000000 1.985700 
# 
# From -- ./inp_files/3191.got.cif
#   From: 2010.05.17/outbox.cif.g08.bks.cpg/sg82_2_cif.got.tgz:3191.got - 2010.06.03 18:52:26.
