data_PCOD9542666
_publ_section_title
;
Structure prediction by ZEFSAII (Michael W. Deem and Ramdas Pophale) SiO2 
 PCOD9542666
Probable space group: I -4 
;
_chemical_formula_sum "Si O2"
_cell_formula_units_Z 64
_cell_length_a 16.771323
_cell_length_b 16.771323
_cell_length_c 11.867882
_cell_angle_alpha 90.000000
_cell_angle_beta 90.000000
_cell_angle_gamma 90.000000
_cell_volume 3338.165511
_symmetry_space_group_name_H-M "I -4 "
_symmetry_group_IT_number 82
_symmetry_cell_setting 'tetragonal'
loop_
_space_group_symop_operation_xyz
x,y,z
y,-x,-z
-x,-y,z
-y,x,-z
1/2+x,1/2+y,1/2+z
1/2+y,1/2-x,1/2-z
1/2-x,1/2-y,1/2+z
1/2-y,1/2+x,1/2-z
loop_
_atom_site_type_symbol
_atom_site_label
_atom_site_fract_x
_atom_site_fract_y
_atom_site_fract_z
Si Si1 0.693444 0.981088 0.874389
Si Si2 0.218289 0.636966 0.268360
Si Si3 0.324876 0.845440 0.526525
Si Si4 0.609542 0.286778 0.803898
Si Si5 0.733701 0.430649 0.830529
Si Si6 0.716173 0.468167 0.588075
Si Si7 0.834661 0.856245 0.057378
Si Si8 0.520487 0.368323 0.003616
O O1 0.636072 0.910160 0.914515
O O2 0.768070 0.937878 0.811156
O O3 0.674267 0.052794 0.790587
O O4 0.719937 0.021526 0.989607
O O5 0.232395 0.650918 0.135495
O O6 0.161297 0.706423 0.317152
O O7 0.300198 0.640178 0.338228
O O8 0.295987 0.899914 0.423909
O O9 0.332308 0.755200 0.479984
O O10 0.672289 0.358483 0.805600
O O11 0.549042 0.310802 0.903090
O O12 0.759940 0.454942 0.706341
O O13 0.684048 0.501964 0.887174
O O14 0.667652 0.551030 0.590324
O O15 0.662003 0.395419 0.544478
O O16 0.437546 0.414259 0.976981
#
# Coordination Sequence:
#
# PCOD9542666 Si02
#       8
#     8   8   8   8   8   8   8   8
#     4   9  20  36  54  81 114 149 193 255 298 350
#     4  10  19  36  59  82 115 160 208 253 301 359
#     4  10  20  35  59  85 116 153 206 261 307 361
#     4  10  19  36  59  83 115 156 201 248 300 360
#     4  11  20  34  57  85 116 156 194 245 303 369
#     4  10  21  35  52  81 121 152 198 240 303 365
#     4  10  21  37  55  85 118 161 200 254 300 374
#     4   9  20  35  53  85 124 152 182 239 306 367
#
# _framework density 19.172205999999999
#
# number of rings (size 3 to 8) (size 9 to 14) (size 15 to 20)
#    0.000    2.125    1.250    3.000    0.000    4.250 
#    0.000    3.750    0.000   12.750    0.000    0.000 
#    0.000    0.000    0.000    0.000    0.000    0.000 
#
# Total GULP energy -178259.909682 kJ/mol
# GULP energy per Si atom -5570.622178 kJ/mol
# Density = 1.912857 g / cm^3
# Si number density = 19.172206 Si / 1000 Ang^3
#
#
#
# Elastic Constant Matrix: (Units=GPa)
#
#
# Indices 1 2 3 4 5 6 
#
# 1 47.9565 8.7716 30.9350 0.0000 0.0000 -0.2587
# 2 8.7716 47.9565 30.9350 0.0000 0.0000 0.2587
# 3 30.9350 30.9350 112.0505 0.0000 0.0000 0.0000
# 4 0.0000 0.0000 0.0000 28.9405 0.0000 0.0000
# 5 0.0000 0.0000 0.0000 0.0000 28.9405 0.0000
# 6 -0.2587 0.2587 0.0000 0.0000 0.0000 12.0342
#
#
#
# Elastic Compliance Matrix: (Units=1/GPa)
#
#
# Indices 1 2 3 4 5 6 
#
# 1 0.025375 -0.000152 -0.006963 0.000000 0.000000 0.000549
# 2 -0.000152 0.025375 -0.006963 0.000000 0.000000 -0.000549
# 3 -0.006963 -0.006963 0.012770 0.000000 0.000000 0.000000
# 4 0.000000 0.000000 0.000000 0.034554 0.000000 0.000000
# 5 0.000000 0.000000 0.000000 0.000000 0.034554 0.000000
# 6 0.000549 -0.000549 0.000000 0.000000 0.000000 0.083120
#
#
# Mechanical properties :
#
#
# Convention : Reuss Voigt Hill
#
# Bulk Modulus (GPa) = 28.27993 38.80522 33.54258
# Shear Modulus (GPa) = 19.55472 23.13780 21.34626
#
# Velocity S-wave (km/s) = 3.19713 3.47773 3.34038
# Velocity P-wave (km/s) = 5.33023 6.03411 5.69306
#
# Compressibility (1/GPa) = 0.03536076
#
# Stress axis : x y z
#
# Youngs Moduli (GPa) = 39.40896 39.40896 78.31141
#
# Poissons Ratio (x) = 0.00600 0.54532
# Poissons Ratio (y) = 0.00600 0.54532
# Poissons Ratio (z) = 0.27442 0.27442
#
# Static dielectric constant tensor:
#      x y z
#    x 1.697480 0.000000 0.000000 
#    y 0.000000 1.697480 0.000000 
#    z 0.000000 0.000000 1.693510 
# 
# From -- ./inp_files/1897.got.cif
#   From: 2010.05.17/outbox.cif.g08.bks.cpg/sg82_1_cif.got.tgz:1897.got - 2010.06.03 18:52:26.
