data_PCOD9542801
_publ_section_title
;
Structure prediction by ZEFSAII (Michael W. Deem and Ramdas Pophale) SiO2 
 PCOD9542801
Probable space group: I -4 
;
_chemical_formula_sum "Si O2"
_cell_formula_units_Z 64
_cell_length_a 24.718807
_cell_length_b 24.718807
_cell_length_c 5.163648
_cell_angle_alpha 90.000000
_cell_angle_beta 90.000000
_cell_angle_gamma 90.000000
_cell_volume 3155.089203
_symmetry_space_group_name_H-M "I -4 "
_symmetry_group_IT_number 82
_symmetry_cell_setting 'tetragonal'
loop_
_space_group_symop_operation_xyz
x,y,z
y,-x,-z
-x,-y,z
-y,x,-z
1/2+x,1/2+y,1/2+z
1/2+y,1/2-x,1/2-z
1/2-x,1/2-y,1/2+z
1/2-y,1/2+x,1/2-z
loop_
_atom_site_type_symbol
_atom_site_label
_atom_site_fract_x
_atom_site_fract_y
_atom_site_fract_z
Si Si1 0.600658 0.880641 0.849139
Si Si2 0.715551 0.247572 0.131169
Si Si3 0.512489 0.162027 0.792998
Si Si4 0.474045 0.649791 0.347306
Si Si5 0.907810 0.880625 0.879605
Si Si6 0.873249 0.680202 0.846731
Si Si7 0.730185 0.016041 0.210632
Si Si8 0.360223 0.648580 0.121179
O O1 0.536008 0.880258 0.837492
O O2 0.630664 0.931969 0.734587
O O3 0.618311 0.833248 0.649366
O O4 0.614931 0.868566 0.146589
O O5 0.763491 0.256300 0.337124
O O6 0.693936 0.188564 0.199726
O O7 0.672099 0.295921 0.160654
O O8 0.501765 0.191133 0.520974
O O9 0.508679 0.206291 0.023159
O O10 0.439124 0.620575 0.573034
O O11 0.529039 0.615854 0.310579
O O12 0.496318 0.710514 0.367780
O O13 0.425572 0.655187 0.138500
O O14 0.876859 0.849254 0.655064
O O15 0.894766 0.849972 0.149605
O O16 0.918810 0.724277 0.771065
#
# Coordination Sequence:
#
# PCOD9542801 Si02
#       8
#     8   8   8   8   8   8   8   8
#     4  10  21  38  60  87 128 154 216 257 315 375
#     4  12  26  43  65  95 132 175 212 270 328 388
#     4  10  22  38  60  93 119 169 207 261 315 379
#     4  10  26  43  71  92 134 167 217 275 326 403
#     4  10  25  44  67 100 128 170 218 273 328 394
#     4  10  23  40  59  91 122 170 208 268 310 389
#     4  10  23  38  64  90 122 170 212 256 330 376
#     4  10  26  42  67 101 130 172 222 266 334 397
#
# _framework density 20.284686000000001
#
# number of rings (size 3 to 8) (size 9 to 14) (size 15 to 20)
#    0.750    1.000    0.000    2.250   10.500    0.500 
#    0.000    0.000    0.000    4.500    0.000    0.000 
#    0.000    0.000    0.000    0.000    0.000    0.000 
#
# Total GULP energy -178313.658690 kJ/mol
# GULP energy per Si atom -5572.301834 kJ/mol
# Density = 2.023852 g / cm^3
# Si number density = 20.284686 Si / 1000 Ang^3
#
#
#
# Elastic Constant Matrix: (Units=GPa)
#
#
# Indices 1 2 3 4 5 6 
#
# 1 20.9197 97.1774 8.5282 0.0000 0.0000 -3.2317
# 2 97.1774 20.9197 8.5282 0.0000 0.0000 3.2317
# 3 8.5282 8.5282 73.1221 0.0000 0.0000 0.0000
# 4 0.0000 0.0000 0.0000 14.8411 0.0000 0.0000
# 5 0.0000 0.0000 0.0000 0.0000 14.8411 0.0000
# 6 -3.2317 3.2317 0.0000 0.0000 0.0000 29.0080
#
#
#
# Elastic Compliance Matrix: (Units=1/GPa)
#
#
# Indices 1 2 3 4 5 6 
#
# 1 -0.002189 0.010802 -0.001004 0.000000 0.000000 -0.001447
# 2 0.010802 -0.002189 -0.001004 0.000000 0.000000 0.001447
# 3 -0.001004 -0.001004 0.013910 0.000000 0.000000 0.000000
# 4 0.000000 0.000000 0.000000 0.067380 0.000000 0.000000
# 5 0.000000 0.000000 0.000000 0.000000 0.067380 0.000000
# 6 -0.001447 0.001447 0.000000 0.000000 0.000000 0.034151
#
#
# Mechanical properties :
#
#
# Convention : Reuss Voigt Hill
#
# Bulk Modulus (GPa) = 36.87661 38.15879 37.51770
# Shear Modulus (GPa) = 29.42953 11.78656 20.60804
#
# Velocity S-wave (km/s) = 3.81310 2.41313 3.19084
# Velocity P-wave (km/s) = 6.13232 5.15914 5.66666
#
# Compressibility (1/GPa) = 0.02711746
#
# Stress axis : x y z
#
# Youngs Moduli (GPa) = -456.82179 -456.82179 71.89042
#
# Poissons Ratio (x) = 4.93446 0.07221
# Poissons Ratio (y) = 4.93446 0.07221
# Poissons Ratio (z) = -0.45887 -0.45887
#
# Static dielectric constant tensor:
#      x y z
#    x 1.773390 0.000000 0.000000 
#    y 0.000000 1.773390 0.000000 
#    z 0.000000 0.000000 1.795920 
# 
# From -- ./inp_files/472.got.cif
#   From: 2010.05.17/outbox.cif.g08.bks.cpg/sg82_1_cif.got.tgz:472.got - 2010.06.03 18:52:26.
