data_PCOD9542912
_publ_section_title
;
Structure prediction by ZEFSAII (Michael W. Deem and Ramdas Pophale) SiO2 
 PCOD9542912
Probable space group: I -4 
;
_chemical_formula_sum "Si O2"
_cell_formula_units_Z 56
_cell_length_a 13.653098
_cell_length_b 13.653098
_cell_length_c 13.151249
_cell_angle_alpha 90.000000
_cell_angle_beta 90.000000
_cell_angle_gamma 90.000000
_cell_volume 2451.485990
_symmetry_space_group_name_H-M "I -4 "
_symmetry_group_IT_number 82
_symmetry_cell_setting 'tetragonal'
loop_
_space_group_symop_operation_xyz
x,y,z
y,-x,-z
-x,-y,z
-y,x,-z
1/2+x,1/2+y,1/2+z
1/2+y,1/2-x,1/2-z
1/2-x,1/2-y,1/2+z
1/2-y,1/2+x,1/2-z
loop_
_atom_site_type_symbol
_atom_site_label
_atom_site_fract_x
_atom_site_fract_y
_atom_site_fract_z
Si Si1 0.076716 0.681270 0.613038
Si Si2 0.772221 0.463866 0.701661
Si Si3 0.207201 0.051388 0.646583
Si Si4 0.075464 0.578106 0.407582
Si Si5 0.351828 0.294989 0.983979
Si Si6 0.926618 0.274375 0.998399
Si Si7 0.601710 0.558300 0.354913
O O1 0.136980 0.605544 0.680193
O O2 0.038557 0.621684 0.515966
O O3 0.148854 0.766750 0.578104
O O4 0.994886 0.726252 0.682777
O O5 0.780199 0.552347 0.621193
O O6 0.671508 0.414641 0.671109
O O7 0.322155 0.083422 0.656827
O O8 0.153937 0.142027 0.588972
O O9 0.162853 0.022972 0.755685
O O10 0.197939 0.956268 0.572871
O O11 0.168010 0.513090 0.441232
O O12 0.000000 0.500000 0.364709
O O13 0.317329 0.181858 0.985800
O O14 0.939850 0.165452 0.042723
O O15 0.500000 0.500000 0.361753
#
# Coordination Sequence:
#
# PCOD9542912 Si02
#       7
#     8   8   8   8   8   8   8
#     4  10  24  41  68 110 139 186 238 300 372 432
#     4  11  26  42  72 104 142 189 239 304 370 434
#     4  11  27  43  75 106 144 194 243 304 372 444
#     4  10  22  45  73 105 141 187 240 302 372 436
#     4  11  24  46  71 106 150 186 243 303 371 446
#     4  11  26  47  71 102 146 191 247 305 366 448
#     4  12  29  47  69 103 145 196 248 299 371 453
#
# _framework density 22.843287
#
# number of rings (size 3 to 8) (size 9 to 14) (size 15 to 20)
#    0.000    1.143    2.857    0.857   14.000    1.143 
#    0.000    0.000    0.000    0.000    0.000    0.000 
#    0.000    0.000    0.000    0.000    0.000    0.000 
#
# Total GULP energy -156578.732174 kJ/mol
# GULP energy per Si atom -5592.097578 kJ/mol
# Density = 2.279130 g / cm^3
# Si number density = 22.843287 Si / 1000 Ang^3
#
#
#
# Elastic Constant Matrix: (Units=GPa)
#
#
# Indices 1 2 3 4 5 6 
#
# 1 99.6353 39.2019 46.0448 0.0000 0.0000 -1.3229
# 2 39.2019 99.6353 46.0448 0.0000 0.0000 1.3229
# 3 46.0448 46.0448 73.3166 0.0000 0.0000 0.0000
# 4 0.0000 0.0000 0.0000 -444.7871 0.0000 0.0000
# 5 0.0000 0.0000 0.0000 0.0000 -444.7870 0.0000
# 6 -1.3229 1.3229 0.0000 0.0000 0.0000 41.3078
#
#
#
# Elastic Compliance Matrix: (Units=1/GPa)
#
#
# Indices 1 2 3 4 5 6 
#
# 1 0.014458 -0.002113 -0.007753 0.000000 0.000000 0.000531
# 2 -0.002113 0.014458 -0.007753 0.000000 0.000000 -0.000531
# 3 -0.007753 -0.007753 0.023378 0.000000 0.000000 0.000000
# 4 0.000000 0.000000 0.000000 -0.002248 0.000000 0.000000
# 5 0.000000 0.000000 0.000000 0.000000 -0.002248 0.000000
# 6 0.000531 -0.000531 0.000000 0.000000 0.000000 0.024242
#
#
# Mechanical properties :
#
#
# Convention : Reuss Voigt Hill
#
# Bulk Modulus (GPa) = 58.63119 59.46335 59.04727
# Shear Modulus (GPa) = 44.26243 -160.23355 -57.98556
#
# Velocity S-wave (km/s) = 4.40666 -8.38433 -5.04373
# Velocity P-wave (km/s) = 7.18428 8.22446 2.83089
#
# Compressibility (1/GPa) = 0.01705577
#
# Stress axis : x y z
#
# Youngs Moduli (GPa) = 69.16658 69.16658 42.77545
#
# Poissons Ratio (x) = 0.14612 0.33165
# Poissons Ratio (y) = 0.14612 0.33165
# Poissons Ratio (z) = 0.53626 0.53626
#
# Static dielectric constant tensor:
#      x y z
#    x 1.876660 0.000000 0.000000 
#    y 0.000000 1.876660 0.000000 
#    z 0.000000 0.000000 1.871460 
# 
# From -- ./inp_files/1841.got.cif
#   From: 2010.05.17/outbox.cif.g08.bks.cpg/sg82_1_cif.got.tgz:1841.got - 2010.06.03 18:52:26.
