data_PCOD9542986
_publ_section_title
;
Structure prediction by ZEFSAII (Michael W. Deem and Ramdas Pophale) SiO2 
 PCOD9542986
Probable space group: I -4 
;
_chemical_formula_sum "Si O2"
_cell_formula_units_Z 50
_cell_length_a 9.354927
_cell_length_b 9.354927
_cell_length_c 26.398035
_cell_angle_alpha 90.000000
_cell_angle_beta 90.000000
_cell_angle_gamma 90.000000
_cell_volume 2310.215036
_symmetry_space_group_name_H-M "I -4 "
_symmetry_group_IT_number 82
_symmetry_cell_setting 'tetragonal'
loop_
_space_group_symop_operation_xyz
x,y,z
y,-x,-z
-x,-y,z
-y,x,-z
1/2+x,1/2+y,1/2+z
1/2+y,1/2-x,1/2-z
1/2-x,1/2-y,1/2+z
1/2-y,1/2+x,1/2-z
loop_
_atom_site_type_symbol
_atom_site_label
_atom_site_fract_x
_atom_site_fract_y
_atom_site_fract_z
Si Si1 0.635952 0.329744 0.484541
Si Si2 0.000000 0.000000 0.500000
Si Si3 0.774677 0.810106 0.699413
Si Si4 0.345857 0.489078 0.290340
Si Si5 0.082835 0.368184 0.355513
Si Si6 0.098106 0.358555 0.603646
Si Si7 0.840744 0.180901 0.560386
O O1 0.496957 0.329176 0.521477
O O2 0.613695 0.233109 0.434348
O O3 0.764190 0.270464 0.517601
O O4 0.026849 0.132415 0.464179
O O5 0.647750 0.712204 0.722518
O O6 0.849210 0.716553 0.655517
O O7 0.869321 0.879053 0.743887
O O8 0.706164 0.953986 0.675122
O O9 0.500000 0.500000 0.317367
O O10 0.211513 0.427843 0.321412
O O11 0.157320 0.257867 0.392126
O O12 0.000000 0.500000 0.382247
O O13 0.000000 0.500000 0.612135
O O14 0.990301 0.249595 0.576023
#
# Coordination Sequence:
#
# PCOD9542986 Si02
#       7
#     8   2   8   8   8   8   8
#     4  11  26  47  72 105 150 202 250 298 364 451
#     4  12  24  40  68 108 144 196 236 296 364 440
#     4  11  25  48  74 102 149 191 248 309 377 457
#     4  11  25  46  77 108 139 189 250 308 377 450
#     4  10  25  44  73 104 138 192 247 301 364 448
#     4  12  27  46  73 111 152 197 249 318 387 445
#     4  12  25  43  72 105 151 189 248 297 369 441
#
# _framework density 21.643006
#
# number of rings (size 3 to 8) (size 9 to 14) (size 15 to 20)
#    0.000    0.800    4.800    0.960    8.960    0.640 
#    0.000    0.000    0.000    0.000    0.000    0.000 
#    0.000    0.000    0.000    0.000    0.000    0.000 
#
# Total GULP energy -139507.661541 kJ/mol
# GULP energy per Si atom -5580.306462 kJ/mol
# Density = 2.159375 g / cm^3
# Si number density = 21.643006 Si / 1000 Ang^3
#
#
#
# Elastic Constant Matrix: (Units=GPa)
#
#
# Indices 1 2 3 4 5 6 
#
# 1 114.1931 34.9865 42.4315 0.0000 0.0000 8.9838
# 2 34.9865 114.1931 42.4315 0.0000 0.0000 -8.9838
# 3 42.4315 42.4315 76.9201 0.0000 0.0000 0.0000
# 4 0.0000 0.0000 0.0000 34.4379 0.0000 0.0000
# 5 0.0000 0.0000 0.0000 0.0000 34.4379 0.0000
# 6 8.9838 -8.9838 0.0000 0.0000 0.0000 39.3440
#
#
#
# Elastic Compliance Matrix: (Units=1/GPa)
#
#
# Indices 1 2 3 4 5 6 
#
# 1 0.011542 -0.001773 -0.005389 0.000000 0.000000 -0.003040
# 2 -0.001773 0.011542 -0.005389 0.000000 0.000000 0.003040
# 3 -0.005389 -0.005389 0.018946 0.000000 0.000000 0.000000
# 4 0.000000 0.000000 0.000000 0.029038 0.000000 0.000000
# 5 0.000000 0.000000 0.000000 0.000000 0.029038 0.000000
# 6 -0.003040 0.003040 0.000000 0.000000 0.000000 0.026805
#
#
# Mechanical properties :
#
#
# Convention : Reuss Voigt Hill
#
# Bulk Modulus (GPa) = 59.07286 60.55616 59.81451
# Shear Modulus (GPa) = 31.71497 34.00775 32.86136
#
# Velocity S-wave (km/s) = 3.83217 3.96827 3.90081
# Velocity P-wave (km/s) = 6.85085 7.00261 6.92714
#
# Compressibility (1/GPa) = 0.01692825
#
# Stress axis : x y z
#
# Youngs Moduli (GPa) = 86.64114 86.64114 52.78228
#
# Poissons Ratio (x) = 0.15362 0.28443
# Poissons Ratio (y) = 0.15362 0.28443
# Poissons Ratio (z) = 0.46689 0.46689
#
# Static dielectric constant tensor:
#      x y z
#    x 1.820690 0.000000 0.000000 
#    y 0.000000 1.820690 0.000000 
#    z 0.000000 0.000000 1.764690 
# 
# From -- ./inp_files/4087.got.cif
#   From: 2010.05.17/outbox.cif.g08.bks.cpg/sg82_3_cif.got.tgz:4087.got - 2010.06.03 18:52:26.
