data_PCOD9542089
_publ_section_title
;
Structure prediction by ZEFSAII (Michael W. Deem and Ramdas Pophale) SiO2 
 PCOD9542089
Probable space group: I 41
;
_chemical_formula_sum "Si O2"
_cell_formula_units_Z 48
_cell_length_a 18.755281
_cell_length_b 18.755281
_cell_length_c 7.624738
_cell_angle_alpha 90.000000
_cell_angle_beta 90.000000
_cell_angle_gamma 90.000000
_cell_volume 2682.082150
_symmetry_space_group_name_H-M "I 41"
_symmetry_group_IT_number 80
_symmetry_cell_setting 'tetragonal'
loop_
_space_group_symop_operation_xyz
x,y,z
-y,1/2+x,1/4+z
-x,-y,z
y,1/2-x,1/4+z
1/2+x,1/2+y,1/2+z
1/2-y,x,3/4+z
1/2-x,1/2-y,1/2+z
1/2+y,-x,3/4+z
loop_
_atom_site_type_symbol
_atom_site_label
_atom_site_fract_x
_atom_site_fract_y
_atom_site_fract_z
Si Si1 0.387073 0.493174 0.475150
Si Si2 0.288690 0.041161 0.466476
Si Si3 0.501733 0.723790 0.845847
Si Si4 0.994354 0.120120 0.048673
Si Si5 0.161806 0.099812 0.681342
Si Si6 0.841228 0.759880 0.246234
O O1 0.307387 0.505641 0.547494
O O2 0.435047 0.562773 0.494116
O O3 0.432600 0.427928 0.563971
O O4 0.374861 0.467953 0.274737
O O5 0.282293 0.988369 0.302460
O O6 0.323682 0.009516 0.642677
O O7 0.213944 0.076557 0.525729
O O8 0.343130 0.101148 0.398475
O O9 0.467630 0.665536 0.716378
O O10 0.584585 0.706985 0.801785
O O11 0.208399 0.137246 0.834676
O O12 0.811142 0.716824 0.411158
#
# Coordination Sequence:
#
# PCOD9542089 Si02
#       6
#     8   8   8   8   8   8
#     4   9  20  39  61  77 117 154 187 248 285 340
#     4  11  22  34  55  82 117 149 190 228 276 352
#     4  11  22  36  55  83 108 151 191 238 282 342
#     4  10  20  42  56  82 115 151 195 236 295 337
#     4  10  19  35  50  80 115 152 184 228 281 334
#     4  11  21  30  45  72 114 153 185 218 269 331
#
# _framework density 17.896542
#
# number of rings (size 3 to 8) (size 9 to 14) (size 15 to 20)
#    0.000    1.667    5.000    2.000    7.000    0.000 
#    3.000    1.667    0.000    0.000    4.333    0.000 
#    0.000    0.000    0.000    0.000    0.000    0.000 
#
# Total GULP energy -133758.829755 kJ/mol
# GULP energy per Si atom -5573.284573 kJ/mol
# Density = 1.785581 g / cm^3
# Si number density = 17.896542 Si / 1000 Ang^3
#
#
#
# Elastic Constant Matrix: (Units=GPa)
#
#
# Indices 1 2 3 4 5 6 
#
# 1 55.9140 33.7725 23.7627 0.0000 0.0000 -2.1920
# 2 33.7725 55.9140 23.7627 0.0000 0.0000 2.1920
# 3 23.7627 23.7627 51.8619 0.0000 0.0000 0.0000
# 4 0.0000 0.0000 0.0000 13.0231 0.0000 0.0000
# 5 0.0000 0.0000 0.0000 0.0000 13.0231 0.0000
# 6 -2.1920 2.1920 0.0000 0.0000 0.0000 23.0836
#
#
#
# Elastic Compliance Matrix: (Units=1/GPa)
#
#
# Indices 1 2 3 4 5 6 
#
# 1 0.030377 -0.015652 -0.006747 0.000000 0.000000 0.004371
# 2 -0.015652 0.030377 -0.006747 0.000000 0.000000 -0.004371
# 3 -0.006747 -0.006747 0.025465 0.000000 0.000000 0.000000
# 4 0.000000 0.000000 0.000000 0.076787 0.000000 0.000000
# 5 0.000000 0.000000 0.000000 0.000000 0.076787 0.000000
# 6 0.004371 -0.004371 0.000000 0.000000 0.000000 0.044151
#
#
# Mechanical properties :
#
#
# Convention : Reuss Voigt Hill
#
# Bulk Modulus (GPa) = 35.80724 36.25398 36.03061
# Shear Modulus (GPa) = 14.22292 15.31875 14.77084
#
# Velocity S-wave (km/s) = 2.82215 2.92886 2.87600
# Velocity P-wave (km/s) = 5.53812 5.63375 5.58614
#
# Compressibility (1/GPa) = 0.02792731
#
# Stress axis : x y z
#
# Youngs Moduli (GPa) = 32.91930 32.91930 39.26994
#
# Poissons Ratio (x) = 0.51526 0.26495
# Poissons Ratio (y) = 0.51526 0.26495
# Poissons Ratio (z) = 0.22211 0.22211
#
# Static dielectric constant tensor:
#      x y z
#    x 1.631430 0.000000 0.000000 
#    y 0.000000 1.631430 0.000000 
#    z 0.000000 0.000000 1.689630 
# 
# From -- ./inp_files/679.got.cif
#   From: 2010.05.17/outbox.cif.g08.bks.cpg/sg80_cif.got.tgz:679.got - 2010.06.03 18:49:13.
