data_PCOD9542299
_publ_section_title
;
Structure prediction by ZEFSAII (Michael W. Deem and Ramdas Pophale) SiO2 
 PCOD9542299
Probable space group: I 41
;
_chemical_formula_sum "Si O2"
_cell_formula_units_Z 36
_cell_length_a 10.263817
_cell_length_b 10.263817
_cell_length_c 11.647282
_cell_angle_alpha 90.000000
_cell_angle_beta 90.000000
_cell_angle_gamma 90.000000
_cell_volume 1226.993864
_symmetry_space_group_name_H-M "I 41"
_symmetry_group_IT_number 80
_symmetry_cell_setting 'tetragonal'
loop_
_space_group_symop_operation_xyz
x,y,z
-y,1/2+x,1/4+z
-x,-y,z
y,1/2-x,1/4+z
1/2+x,1/2+y,1/2+z
1/2-y,x,3/4+z
1/2-x,1/2-y,1/2+z
1/2+y,-x,3/4+z
loop_
_atom_site_type_symbol
_atom_site_label
_atom_site_fract_x
_atom_site_fract_y
_atom_site_fract_z
Si Si1 0.820991 0.953642 0.293180
Si Si2 0.000000 0.000000 0.858330
Si Si3 0.194283 0.792220 0.653675
Si Si4 0.803640 0.960013 0.033634
Si Si5 0.180802 0.099660 0.681236
O O1 0.824854 0.004029 0.163167
O O2 0.937694 0.850365 0.285618
O O3 0.695297 0.863133 0.328551
O O4 0.802147 0.068706 0.382298
O O5 0.932316 0.892133 0.779361
O O6 0.881695 0.043854 0.940497
O O7 0.236919 0.767531 0.784170
O O8 0.168942 0.947900 0.649588
O O9 0.864708 0.816194 0.998000
#
# Coordination Sequence:
#
# PCOD9542299 Si02
#       5
#     8   4   8   8   8
#     4  12  24  48  77 117 159 208 273 344 412 495
#     4  12  24  46  78 126 160 212 276 342 408 498
#     4  12  29  51  79 114 169 225 282 347 427 500
#     4  12  26  45  80 123 158 204 282 346 400 497
#     4  12  23  49  83 115 155 224 272 333 421 515
#
# _framework density 29.339998999999999
#
# number of rings (size 3 to 8) (size 9 to 14) (size 15 to 20)
#    0.000    0.000    6.667    2.667    0.000    3.556 
#    4.000    0.000    0.000    0.000    0.000    0.000 
#    0.000    0.000    0.000    0.000    0.000    0.000 
#
# Total GULP energy -100748.127412 kJ/mol
# GULP energy per Si atom -5597.118190 kJ/mol
# Density = 2.927322 g / cm^3
# Si number density = 29.339999 Si / 1000 Ang^3
#
#
#
# Elastic Constant Matrix: (Units=GPa)
#
#
# Indices 1 2 3 4 5 6 
#
# 1 130.9523 40.9630 57.9455 0.0000 0.0000 27.1440
# 2 40.9630 130.9523 57.9455 0.0000 0.0000 -27.1440
# 3 57.9455 57.9455 233.8775 0.0000 0.0000 0.0000
# 4 0.0000 0.0000 0.0000 63.4724 0.0000 0.0000
# 5 0.0000 0.0000 0.0000 0.0000 63.4723 0.0000
# 6 27.1440 -27.1440 0.0000 0.0000 0.0000 55.8628
#
#
#
# Elastic Compliance Matrix: (Units=1/GPa)
#
#
# Indices 1 2 3 4 5 6 
#
# 1 0.011352 -0.004369 -0.001730 0.000000 0.000000 -0.007639
# 2 -0.004369 0.011352 -0.001730 0.000000 0.000000 0.007639
# 3 -0.001730 -0.001730 0.005133 0.000000 0.000000 0.000000
# 4 0.000000 0.000000 0.000000 0.015755 0.000000 0.000000
# 5 0.000000 0.000000 0.000000 0.000000 0.015755 0.000000
# 6 -0.007639 0.007639 0.000000 0.000000 0.000000 0.025324
#
#
# Mechanical properties :
#
#
# Convention : Reuss Voigt Hill
#
# Bulk Modulus (GPa) = 82.11009 89.94332 86.02670
# Shear Modulus (GPa) = 47.89785 59.15671 53.52728
#
# Velocity S-wave (km/s) = 4.04482 4.49514 4.27591
# Velocity P-wave (km/s) = 7.06120 7.59366 7.33227
#
# Compressibility (1/GPa) = 0.01217877
#
# Stress axis : x y z
#
# Youngs Moduli (GPa) = 88.09086 88.09086 194.81544
#
# Poissons Ratio (x) = 0.38485 0.33706
# Poissons Ratio (y) = 0.38485 0.33706
# Poissons Ratio (z) = 0.15241 0.15241
#
# Static dielectric constant tensor:
#      x y z
#    x 2.469840 0.000000 0.000000 
#    y 0.000000 2.469840 0.000000 
#    z 0.000000 0.000000 2.250010 
# 
# From -- ./inp_files/942.got.cif
#   From: 2010.05.17/outbox.cif.g08.bks.cpg/sg80_cif.got.tgz:942.got - 2010.06.03 18:49:13.
