data_PCOD9542674
_publ_section_title
;
Structure prediction by ZEFSAII (Michael W. Deem and Ramdas Pophale) SiO2 
 PCOD9542674
Probable space group: I -4 
;
_chemical_formula_sum "Si O2"
_cell_formula_units_Z 40
_cell_length_a 7.712144
_cell_length_b 7.712144
_cell_length_c 25.365119
_cell_angle_alpha 90.000000
_cell_angle_beta 90.000000
_cell_angle_gamma 90.000000
_cell_volume 1508.645370
_symmetry_space_group_name_H-M "I -4 "
_symmetry_group_IT_number 82
_symmetry_cell_setting 'tetragonal'
loop_
_space_group_symop_operation_xyz
x,y,z
y,-x,-z
-x,-y,z
-y,x,-z
1/2+x,1/2+y,1/2+z
1/2+y,1/2-x,1/2-z
1/2-x,1/2-y,1/2+z
1/2-y,1/2+x,1/2-z
loop_
_atom_site_type_symbol
_atom_site_label
_atom_site_fract_x
_atom_site_fract_y
_atom_site_fract_z
Si Si1 0.393808 0.751996 0.769673
Si Si2 0.461544 0.295660 0.322156
Si Si3 0.302548 0.360252 0.420051
Si Si4 0.876614 0.336844 0.968514
Si Si5 0.804302 0.261147 0.376862
O O1 0.570421 0.786632 0.737458
O O2 0.294043 0.603986 0.737201
O O3 0.442563 0.735679 0.830968
O O4 0.500000 0.500000 0.334166
O O5 0.320018 0.249463 0.366534
O O6 0.637148 0.206665 0.340525
O O7 0.498097 0.320054 0.445663
O O8 0.192703 0.320382 0.471804
O O9 0.216392 0.541227 0.398345
O O10 0.000000 0.500000 0.965361
O O11 0.714034 0.347819 0.929588
#
# Coordination Sequence:
#
# PCOD9542674 Si02
#       5
#     8   8   8   8   8
#     4  11  21  35  58  89 117 151 212 257 297 362
#     4   9  18  36  56  81 118 157 192 242 305 356
#     4  10  19  37  66  85 121 158 207 253 303 375
#     4  11  22  36  64  98 120 158 210 261 312 373
#     4  10  21  39  62  87 118 165 204 251 308 373
#
# _framework density 26.513853999999998
#
# number of rings (size 3 to 8) (size 9 to 14) (size 15 to 20)
#    0.000    1.800    6.000    1.800    0.000    1.600 
#    7.200    0.000    0.000    0.600    0.000    0.000 
#    0.000    0.000    0.000    0.000    0.000    0.000 
#
# Total GULP energy -111407.347282 kJ/mol
# GULP energy per Si atom -5570.367364 kJ/mol
# Density = 2.645351 g / cm^3
# Si number density = 26.513854 Si / 1000 Ang^3
#
#
#
# Elastic Constant Matrix: (Units=GPa)
#
#
# Indices 1 2 3 4 5 6 
#
# 1 67.2986 -16.0648 22.0556 0.0000 0.0000 -9.9126
# 2 -16.0648 67.2986 22.0556 0.0000 0.0000 9.9126
# 3 22.0556 22.0556 212.9046 0.0000 0.0000 0.0000
# 4 0.0000 0.0000 0.0000 35.9610 0.0000 0.0000
# 5 0.0000 0.0000 0.0000 0.0000 35.9610 0.0000
# 6 -9.9126 9.9126 0.0000 0.0000 0.0000 5.7186
#
#
#
# Elastic Compliance Matrix: (Units=1/GPa)
#
#
# Indices 1 2 3 4 5 6 
#
# 1 0.020919 0.000510 -0.002220 0.000000 0.000000 0.035377
# 2 0.000510 0.020919 -0.002220 0.000000 0.000000 -0.035377
# 3 -0.002220 -0.002220 0.005157 0.000000 0.000000 0.000000
# 4 0.000000 0.000000 0.000000 0.027808 0.000000 0.000000
# 5 0.000000 0.000000 0.000000 0.000000 0.027808 0.000000
# 6 0.035377 -0.035377 0.000000 0.000000 0.000000 0.297512
#
#
# Mechanical properties :
#
#
# Convention : Reuss Voigt Hill
#
# Bulk Modulus (GPa) = 25.55167 44.84386 35.19776
# Shear Modulus (GPa) = 11.87571 36.82515 24.35043
#
# Velocity S-wave (km/s) = 2.11867 3.73084 3.03381
# Velocity P-wave (km/s) = 3.95513 5.95894 5.05727
#
# Compressibility (1/GPa) = 0.03913639
#
# Stress axis : x y z
#
# Youngs Moduli (GPa) = 47.80284 47.80283 193.91516
#
# Poissons Ratio (x) = -0.02440 0.43049
# Poissons Ratio (y) = -0.02440 0.43049
# Poissons Ratio (z) = 0.10612 0.10612
#
# Static dielectric constant tensor:
#      x y z
#    x 2.254340 0.000000 0.000000 
#    y 0.000000 2.254340 0.000000 
#    z 0.000000 0.000000 2.146970 
# 
# From -- ./inp_files/3347.got.cif
#   From: 2010.05.17/outbox.cif.g08.bks.cpg/sg82_2_cif.got.tgz:3347.got - 2010.06.03 18:52:26.
