data_PCOD9542874
_publ_section_title
;
Structure prediction by ZEFSAII (Michael W. Deem and Ramdas Pophale) SiO2 
 PCOD9542874
Probable space group: I -4 
;
_chemical_formula_sum "Si O2"
_cell_formula_units_Z 52
_cell_length_a 18.836385
_cell_length_b 18.836385
_cell_length_c 6.371924
_cell_angle_alpha 90.000000
_cell_angle_beta 90.000000
_cell_angle_gamma 90.000000
_cell_volume 2260.818530
_symmetry_space_group_name_H-M "I -4 "
_symmetry_group_IT_number 82
_symmetry_cell_setting 'tetragonal'
loop_
_space_group_symop_operation_xyz
x,y,z
y,-x,-z
-x,-y,z
-y,x,-z
1/2+x,1/2+y,1/2+z
1/2+y,1/2-x,1/2-z
1/2-x,1/2-y,1/2+z
1/2-y,1/2+x,1/2-z
loop_
_atom_site_type_symbol
_atom_site_label
_atom_site_fract_x
_atom_site_fract_y
_atom_site_fract_z
Si Si1 0.176479 0.391766 0.340745
Si Si2 0.789387 0.205184 0.036452
Si Si3 0.309698 0.658867 0.072470
Si Si4 0.500000 0.000000 0.750000
Si Si5 0.000000 0.000000 0.000000
Si Si6 0.644279 0.043364 0.933183
Si Si7 0.418404 0.437057 0.114012
Si Si8 0.198991 0.600956 0.828937
O O1 0.251998 0.354455 0.361507
O O2 0.123183 0.357267 0.166844
O O3 0.181635 0.476437 0.318816
O O4 0.138812 0.368160 0.561228
O O5 0.816360 0.170084 0.821068
O O6 0.748638 0.147025 0.171767
O O7 0.731927 0.268820 0.006614
O O8 0.381465 0.641696 0.949847
O O9 0.255059 0.594638 0.018199
O O10 0.563012 0.022844 0.899834
O O11 0.943626 0.958822 0.848836
O O12 0.670066 0.042373 0.172549
O O13 0.405414 0.510622 0.993901
#
# Coordination Sequence:
#
# PCOD9542874 Si02
#       8
#     8   8   8   2   2   8   8   8
#     4  10  23  41  67  98 134 176 225 284 341 404
#     4  11  22  43  66  95 138 183 230 278 336 403
#     4  11  22  40  67  96 137 184 225 278 344 403
#     4   8  20  44  66  92 132 174 216 292 346 396
#     4   8  18  44  68  98 136 172 222 296 352 410
#     4  10  22  41  67  99 132 173 230 280 345 406
#     4   9  21  42  68 101 137 174 226 293 347 414
#     4  11  23  40  66  94 137 181 226 278 334 411
#
# _framework density 23.000520999999999
#
# number of rings (size 3 to 8) (size 9 to 14) (size 15 to 20)
#    0.000    2.000    3.077    1.846    0.000    7.385 
#    0.000    5.385    0.000    0.000    0.000    0.000 
#    0.000    0.000    0.000    0.000    0.000    0.000 
#
# Total GULP energy -144794.710875 kJ/mol
# GULP energy per Si atom -5569.027341 kJ/mol
# Density = 2.294817 g / cm^3
# Si number density = 23.000521 Si / 1000 Ang^3
#
#
#
# Elastic Constant Matrix: (Units=GPa)
#
#
# Indices 1 2 3 4 5 6 
#
# 1 78.0557 34.4683 38.7836 0.0000 0.0000 -5.6813
# 2 34.4683 78.0557 38.7836 0.0000 0.0000 5.6813
# 3 38.7836 38.7836 97.7789 0.0000 0.0000 0.0000
# 4 0.0000 0.0000 0.0000 24.4848 0.0000 0.0000
# 5 0.0000 0.0000 0.0000 0.0000 24.4848 0.0000
# 6 -5.6813 5.6813 0.0000 0.0000 0.0000 15.2401
#
#
#
# Elastic Compliance Matrix: (Units=1/GPa)
#
#
# Indices 1 2 3 4 5 6 
#
# 1 0.018822 -0.006590 -0.004852 0.000000 0.000000 0.009473
# 2 -0.006590 0.018822 -0.004852 0.000000 0.000000 -0.009473
# 3 -0.004852 -0.004852 0.014076 0.000000 0.000000 0.000000
# 4 0.000000 0.000000 0.000000 0.040842 0.000000 0.000000
# 5 0.000000 0.000000 0.000000 0.000000 0.040842 0.000000
# 6 0.009473 -0.009473 0.000000 0.000000 0.000000 0.072679
#
#
# Mechanical properties :
#
#
# Convention : Reuss Voigt Hill
#
# Bulk Modulus (GPa) = 52.26724 53.10682 52.68703
# Shear Modulus (GPa) = 20.40434 22.29894 21.35164
#
# Velocity S-wave (km/s) = 2.98170 3.11705 3.05013
# Velocity P-wave (km/s) = 5.88453 6.00785 5.94651
#
# Compressibility (1/GPa) = 0.01913244
#
# Stress axis : x y z
#
# Youngs Moduli (GPa) = 53.13023 53.13023 71.04382
#
# Poissons Ratio (x) = 0.35015 0.34467
# Poissons Ratio (y) = 0.35015 0.34467
# Poissons Ratio (z) = 0.25776 0.25776
#
# Static dielectric constant tensor:
#      x y z
#    x 1.911480 0.000000 0.000000 
#    y 0.000000 1.911480 0.000000 
#    z 0.000000 0.000000 1.975360 
# 
# From -- ./inp_files/395.got.cif
#   From: 2010.05.17/outbox.cif.g08.bks.cpg/sg82_1_cif.got.tgz:395.got - 2010.06.03 18:52:26.
