data_PCOD9542739
_publ_section_title
;
Structure prediction by ZEFSAII (Michael W. Deem and Ramdas Pophale) SiO2 
 PCOD9542739
Probable space group: I -4 
;
_chemical_formula_sum "Si O2"
_cell_formula_units_Z 40
_cell_length_a 13.087695
_cell_length_b 13.087695
_cell_length_c 8.944211
_cell_angle_alpha 90.000000
_cell_angle_beta 90.000000
_cell_angle_gamma 90.000000
_cell_volume 1532.033871
_symmetry_space_group_name_H-M "I -4 "
_symmetry_group_IT_number 82
_symmetry_cell_setting 'tetragonal'
loop_
_space_group_symop_operation_xyz
x,y,z
y,-x,-z
-x,-y,z
-y,x,-z
1/2+x,1/2+y,1/2+z
1/2+y,1/2-x,1/2-z
1/2-x,1/2-y,1/2+z
1/2-y,1/2+x,1/2-z
loop_
_atom_site_type_symbol
_atom_site_label
_atom_site_fract_x
_atom_site_fract_y
_atom_site_fract_z
Si Si1 0.500000 0.500000 0.000000
Si Si2 0.000000 0.000000 0.000000
Si Si3 0.000000 0.500000 0.250000
Si Si4 0.626810 0.076182 0.986843
Si Si5 0.194407 0.816299 0.692247
Si Si6 0.500000 0.000000 0.250000
Si Si7 0.330022 0.643900 0.541849
Si Si8 0.285690 0.463054 0.054080
O O1 0.451587 0.593600 0.906520
O O2 0.064906 0.911304 0.081481
O O3 0.006267 0.592208 0.133661
O O4 0.602275 0.184535 0.906280
O O5 0.740766 0.059103 0.036782
O O6 0.559879 0.071541 0.135911
O O7 0.084121 0.795876 0.614127
O O8 0.233305 0.922661 0.615770
O O9 0.172966 0.820521 0.868255
O O10 0.277034 0.730177 0.644361
#
# Coordination Sequence:
#
# PCOD9542739 Si02
#       8
#     2   2   2   8   8   2   8   8
#     4   8  16  34  56  92 140 192 244 300 364 452
#     4  12  32  50  72 114 164 202 248 326 400 466
#     4  10  20  38  68  98 136 174 240 318 384 450
#     4  10  22  41  66 100 134 185 246 315 387 466
#     4  10  23  43  71 107 147 199 256 315 381 463
#     4  10  24  42  68  98 136 182 248 322 396 466
#     4  11  27  47  72 105 148 200 256 315 389 466
#     4   9  19  36  63  99 141 189 247 308 375 450
#
# _framework density 26.109082000000001
#
# number of rings (size 3 to 8) (size 9 to 14) (size 15 to 20)
#    0.000    2.000    0.000    1.200    0.000   20.800 
#    0.000    0.000    0.000    1.200    0.000    0.000 
#    0.000    0.000    0.000    0.000    0.000    0.000 
#
# Total GULP energy -111352.640899 kJ/mol
# GULP energy per Si atom -5567.632045 kJ/mol
# Density = 2.604966 g / cm^3
# Si number density = 26.109082 Si / 1000 Ang^3
#
#
#
# Elastic Constant Matrix: (Units=GPa)
#
#
# Indices 1 2 3 4 5 6 
#
# 1 118.2140 46.7973 43.3350 0.0000 0.0000 7.8807
# 2 46.7973 118.2140 43.3350 0.0000 0.0000 -7.8807
# 3 43.3350 43.3350 171.8181 0.0000 0.0000 0.0000
# 4 0.0000 0.0000 0.0000 9.8625 0.0000 0.0000
# 5 0.0000 0.0000 0.0000 0.0000 9.8625 0.0000
# 6 7.8807 -7.8807 0.0000 0.0000 0.0000 62.0247
#
#
#
# Elastic Compliance Matrix: (Units=1/GPa)
#
#
# Indices 1 2 3 4 5 6 
#
# 1 0.010696 -0.003710 -0.001762 0.000000 0.000000 -0.001830
# 2 -0.003710 0.010696 -0.001762 0.000000 0.000000 0.001830
# 3 -0.001762 -0.001762 0.006709 0.000000 0.000000 0.000000
# 4 0.000000 0.000000 0.000000 0.101394 0.000000 0.000000
# 5 0.000000 0.000000 0.000000 0.000000 0.101394 0.000000
# 6 -0.001830 0.001830 0.000000 0.000000 0.000000 0.016588
#
#
# Mechanical properties :
#
#
# Convention : Reuss Voigt Hill
#
# Bulk Modulus (GPa) = 73.35381 75.02007 74.18694
# Shear Modulus (GPa) = 18.76253 34.66854 26.71554
#
# Velocity S-wave (km/s) = 2.68362 3.64790 3.20226
# Velocity P-wave (km/s) = 6.14480 6.82192 6.49219
#
# Compressibility (1/GPa) = 0.01363256
#
# Stress axis : x y z
#
# Youngs Moduli (GPa) = 93.49343 93.49343 149.05694
#
# Poissons Ratio (x) = 0.34689 0.26262
# Poissons Ratio (y) = 0.34689 0.26262
# Poissons Ratio (z) = 0.16472 0.16472
#
# Static dielectric constant tensor:
#      x y z
#    x 2.150230 0.000000 0.000000 
#    y 0.000000 2.150230 0.000000 
#    z 0.000000 0.000000 1.982730 
# 
# From -- ./inp_files/1033.got.cif
#   From: 2010.05.17/outbox.cif.g08.bks.cpg/sg82_1_cif.got.tgz:1033.got - 2010.06.03 18:52:26.
