data_PCOD9542508
_publ_section_title
;
Structure prediction by ZEFSAII (Michael W. Deem and Ramdas Pophale) SiO2 
 PCOD9542508
Probable space group: P -4
;
_chemical_formula_sum "Si O2"
_cell_formula_units_Z 16
_cell_length_a 9.298080
_cell_length_b 9.298080
_cell_length_c 7.172776
_cell_angle_alpha 90.000000
_cell_angle_beta 90.000000
_cell_angle_gamma 90.000000
_cell_volume 620.117269
_symmetry_space_group_name_H-M "P -4"
_symmetry_group_IT_number 81
_symmetry_cell_setting 'tetragonal'
loop_
_space_group_symop_operation_xyz
x,y,z
y,-x,-z
-x,-y,z
-y,x,-z
loop_
_atom_site_type_symbol
_atom_site_label
_atom_site_fract_x
_atom_site_fract_y
_atom_site_fract_z
Si Si1 0.385205 0.125222 0.833214
Si Si2 0.107757 0.726468 0.773774
Si Si3 0.728896 0.171575 0.458870
Si Si4 0.416382 0.644509 0.725931
O O1 0.281289 0.181014 0.669747
O O2 0.494480 0.258606 0.870870
O O3 0.500000 0.000000 0.788467
O O4 0.282637 0.078768 0.005948
O O5 0.174744 0.857514 0.647465
O O6 0.248087 0.625809 0.764245
O O7 0.964738 0.688000 0.662997
O O8 0.592548 0.255843 0.541411
O O9 0.500000 0.500000 0.707317
#
# Coordination Sequence:
#
# PCOD9542508 Si02
#       4
#     4   4   4   4
#     4  12  28  47  82 122 170 216 292 370 446 519
#     4  10  27  49  86 116 174 220 293 360 440 537
#     4  10  26  51  81 121 164 233 281 363 442 531
#     4  10  27  49  84 125 164 226 292 359 445 533
#
# _framework density 25.801572
#
# number of rings (size 3 to 8) (size 9 to 14) (size 15 to 20)
#    1.500    0.000    0.000    1.500   10.500    3.500 
#    0.000    0.000    0.000    0.000    0.000    0.000 
#    0.000    0.000    0.000    0.000    0.000    0.000 
#
# Total GULP energy -89267.918423 kJ/mol
# GULP energy per Si atom -5579.244901 kJ/mol
# Density = 2.574285 g / cm^3
# Si number density = 25.801572 Si / 1000 Ang^3
#
#
#
# Elastic Constant Matrix: (Units=GPa)
#
#
# Indices 1 2 3 4 5 6 
#
# 1 156.1616 48.0825 59.7984 0.0000 0.0000 -8.2139
# 2 48.0825 156.1616 59.7984 0.0000 0.0000 8.2139
# 3 59.7984 59.7984 180.0048 0.0000 0.0000 0.0000
# 4 0.0000 0.0000 0.0000 32.7214 0.0000 0.0000
# 5 0.0000 0.0000 0.0000 0.0000 32.7214 0.0000
# 6 -8.2139 8.2139 0.0000 0.0000 0.0000 13.8643
#
#
#
# Elastic Compliance Matrix: (Units=1/GPa)
#
#
# Indices 1 2 3 4 5 6 
#
# 1 0.008123 -0.002045 -0.002019 0.000000 0.000000 0.006024
# 2 -0.002045 0.008123 -0.002019 0.000000 0.000000 -0.006024
# 3 -0.002019 -0.002019 0.006897 0.000000 0.000000 0.000000
# 4 0.000000 0.000000 0.000000 0.030561 0.000000 0.000000
# 5 0.000000 0.000000 0.000000 0.000000 0.030561 0.000000
# 6 0.006024 -0.006024 0.000000 0.000000 0.000000 0.079265
#
#
# Mechanical properties :
#
#
# Convention : Reuss Voigt Hill
#
# Bulk Modulus (GPa) = 91.10075 91.96517 91.53296
# Shear Modulus (GPa) = 27.87738 37.50469 32.69104
#
# Velocity S-wave (km/s) = 3.29059 3.81672 3.56338
# Velocity P-wave (km/s) = 7.05848 7.42589 7.24451
#
# Compressibility (1/GPa) = 0.01097686
#
# Stress axis : x y z
#
# Youngs Moduli (GPa) = 123.10236 123.10236 144.98943
#
# Poissons Ratio (x) = 0.25172 0.29278
# Poissons Ratio (y) = 0.25172 0.29278
# Poissons Ratio (z) = 0.24858 0.24858
#
# Static dielectric constant tensor:
#      x y z
#    x 2.038050 0.000000 0.000000 
#    y 0.000000 2.038050 0.000000 
#    z 0.000000 0.000000 2.150310 
# 
# From -- ./inp_files/596.got.cif
#   From: 2010.05.17/outbox.cif.g08.bks.cpg/sg81_cif.got.tgz:596.got - 2010.06.03 18:51:07.
