data_PCOD9542827
_publ_section_title
;
Structure prediction by ZEFSAII (Michael W. Deem and Ramdas Pophale) SiO2 
 PCOD9542827
Probable space group: I -4 
;
_chemical_formula_sum "Si O2"
_cell_formula_units_Z 38
_cell_length_a 7.890137
_cell_length_b 7.890137
_cell_length_c 23.780142
_cell_angle_alpha 90.000000
_cell_angle_beta 90.000000
_cell_angle_gamma 90.000000
_cell_volume 1480.415188
_symmetry_space_group_name_H-M "I -4 "
_symmetry_group_IT_number 82
_symmetry_cell_setting 'tetragonal'
loop_
_space_group_symop_operation_xyz
x,y,z
y,-x,-z
-x,-y,z
-y,x,-z
1/2+x,1/2+y,1/2+z
1/2+y,1/2-x,1/2-z
1/2-x,1/2-y,1/2+z
1/2-y,1/2+x,1/2-z
loop_
_atom_site_type_symbol
_atom_site_label
_atom_site_fract_x
_atom_site_fract_y
_atom_site_fract_z
Si Si1 0.220655 0.179941 0.878218
Si Si2 0.000000 0.500000 0.250000
Si Si3 0.510387 0.306806 0.190205
Si Si4 0.634920 0.248584 0.006641
Si Si5 0.000000 0.500000 0.075857
Si Si6 0.153174 0.176313 0.191207
O O1 0.209305 0.326541 0.832903
O O2 0.180413 0.266307 0.938287
O O3 0.419136 0.142904 0.886582
O O4 0.159003 0.997939 0.854670
O O5 0.897005 0.645108 0.218790
O O6 0.500000 0.500000 0.168062
O O7 0.343929 0.206737 0.170758
O O8 0.542828 0.328515 0.257274
O O9 0.430756 0.286890 0.012754
O O10 0.637523 0.096295 0.961977
#
# Coordination Sequence:
#
# PCOD9542827 Si02
#       6
#     8   2   8   8   4   8
#     4  11  23  40  73 110 143 200 254 307 386 449
#     4  12  18  44  64 100 148 184 240 302 352 436
#     4  12  23  40  72 105 151 197 245 305 373 461
#     4   9  21  40  67 104 147 188 257 319 378 447
#     4  10  21  40  71 102 148 197 254 325 370 452
#     4  12  24  42  68 108 152 195 246 309 371 460
#
# _framework density 25.668476999999999
#
# number of rings (size 3 to 8) (size 9 to 14) (size 15 to 20)
#    0.000    1.053    4.211    1.895    8.842    0.421 
#    0.000    4.211    9.263    5.684    0.000    0.000 
#    0.000    0.000    0.000    0.000    0.000    0.000 
#
# Total GULP energy -106068.810314 kJ/mol
# GULP energy per Si atom -5582.568964 kJ/mol
# Density = 2.561005 g / cm^3
# Si number density = 25.668477 Si / 1000 Ang^3
#
#
#
# Elastic Constant Matrix: (Units=GPa)
#
#
# Indices 1 2 3 4 5 6 
#
# 1 155.2028 28.5448 65.4439 0.0000 0.0000 7.9311
# 2 28.5448 155.2028 65.4439 0.0000 0.0000 -7.9311
# 3 65.4439 65.4439 114.3094 0.0000 0.0000 0.0000
# 4 0.0000 0.0000 0.0000 29.7456 0.0000 0.0000
# 5 0.0000 0.0000 0.0000 0.0000 29.7456 0.0000
# 6 7.9311 -7.9311 0.0000 0.0000 0.0000 -14.3248
#
#
#
# Elastic Compliance Matrix: (Units=1/GPa)
#
#
# Indices 1 2 3 4 5 6 
#
# 1 0.008287 0.000903 -0.005261 0.000000 0.000000 0.004088
# 2 0.000903 0.008287 -0.005261 0.000000 0.000000 -0.004088
# 3 -0.005261 -0.005261 0.014773 0.000000 0.000000 0.000000
# 4 0.000000 0.000000 0.000000 0.033618 0.000000 0.000000
# 5 0.000000 0.000000 0.000000 0.000000 0.033618 0.000000
# 6 0.004088 -0.004088 0.000000 0.000000 0.000000 -0.065283
#
#
# Mechanical properties :
#
#
# Convention : Reuss Voigt Hill
#
# Bulk Modulus (GPa) = 82.59648 82.62003 82.60825
# Shear Modulus (GPa) = 88.37770 26.71877 57.54824
#
# Velocity S-wave (km/s) = 5.87411 3.22983 4.74009
# Velocity P-wave (km/s) = 8.84618 6.79458 7.88737
#
# Compressibility (1/GPa) = 0.01210705
#
# Stress axis : x y z
#
# Youngs Moduli (GPa) = 120.67481 120.67481 67.69217
#
# Poissons Ratio (x) = -0.10902 0.35616
# Poissons Ratio (y) = -0.10902 0.35616
# Poissons Ratio (z) = 0.63493 0.63493
#
# Static dielectric constant tensor:
#      x y z
#    x 2.074030 0.000000 0.000000 
#    y 0.000000 2.074030 0.000000 
#    z 0.000000 0.000000 2.086990 
# 
# From -- ./inp_files/3381.got.cif
#   From: 2010.05.17/outbox.cif.g08.bks.cpg/sg82_2_cif.got.tgz:3381.got - 2010.06.03 18:52:26.
