data_PCOD9542830
_publ_section_title
;
Structure prediction by ZEFSAII (Michael W. Deem and Ramdas Pophale) SiO2 
 PCOD9542830
Probable space group: I -4 
;
_chemical_formula_sum "Si O2"
_cell_formula_units_Z 44
_cell_length_a 14.245461
_cell_length_b 14.245461
_cell_length_c 10.790785
_cell_angle_alpha 90.000000
_cell_angle_beta 90.000000
_cell_angle_gamma 90.000000
_cell_volume 2189.808089
_symmetry_space_group_name_H-M "I -4 "
_symmetry_group_IT_number 82
_symmetry_cell_setting 'tetragonal'
loop_
_space_group_symop_operation_xyz
x,y,z
y,-x,-z
-x,-y,z
-y,x,-z
1/2+x,1/2+y,1/2+z
1/2+y,1/2-x,1/2-z
1/2-x,1/2-y,1/2+z
1/2-y,1/2+x,1/2-z
loop_
_atom_site_type_symbol
_atom_site_label
_atom_site_fract_x
_atom_site_fract_y
_atom_site_fract_z
Si Si1 0.500000 0.500000 0.500000
Si Si2 0.197036 0.949223 0.552242
Si Si3 0.609965 0.768303 0.489093
Si Si4 0.085606 0.818381 0.905090
Si Si5 0.545575 0.854949 0.742539
Si Si6 0.000000 0.000000 0.500000
Si Si7 0.888549 0.238401 0.624201
O O1 0.550483 0.425580 0.412148
O O2 0.274135 0.965943 0.656296
O O3 0.094156 0.993176 0.580423
O O4 0.173500 0.838856 0.548900
O O5 0.229483 0.005746 0.430092
O O6 0.505054 0.740859 0.446673
O O7 0.675031 0.675385 0.504125
O O8 0.598350 0.813565 0.624307
O O9 0.661434 0.842595 0.401719
O O10 0.113969 0.788586 0.767697
O O11 0.443465 0.895521 0.706934
#
# Coordination Sequence:
#
# PCOD9542830 Si02
#       7
#     2   8   8   8   8   2   8
#     4   8  20  42  64  94 132 168 214 272 330 384
#     4  10  21  41  64 100 126 169 215 275 330 379
#     4  11  24  44  66  96 128 174 217 265 333 392
#     4  10  23  42  65  96 130 168 216 268 328 389
#     4  11  23  43  68  93 130 173 225 270 317 402
#     4   8  20  38  64 100 134 156 222 280 332 374
#     4  11  23  42  66  96 130 168 221 271 327 388
#
# _framework density 20.093084999999999
#
# number of rings (size 3 to 8) (size 9 to 14) (size 15 to 20)
#    0.000    1.636    3.636    0.000    2.545    5.818 
#    9.818    0.000    0.000    0.000    0.000    0.000 
#    0.000    0.000    0.000    0.000    0.000    0.000 
#
# Total GULP energy -122717.688031 kJ/mol
# GULP energy per Si atom -5578.076729 kJ/mol
# Density = 2.004735 g / cm^3
# Si number density = 20.093085 Si / 1000 Ang^3
#
#
#
# Elastic Constant Matrix: (Units=GPa)
#
#
# Indices 1 2 3 4 5 6 
#
# 1 74.2092 23.6434 7.6003 0.0000 0.0000 4.1533
# 2 23.6434 74.2092 7.6003 0.0000 0.0000 -4.1533
# 3 7.6003 7.6003 44.4612 0.0000 0.0000 0.0000
# 4 0.0000 0.0000 0.0000 23.1497 0.0000 0.0000
# 5 0.0000 0.0000 0.0000 0.0000 23.1497 0.0000
# 6 4.1533 -4.1533 0.0000 0.0000 0.0000 32.8165
#
#
#
# Elastic Compliance Matrix: (Units=1/GPa)
#
#
# Indices 1 2 3 4 5 6 
#
# 1 0.015347 -0.004849 -0.001795 0.000000 0.000000 -0.002556
# 2 -0.004849 0.015347 -0.001795 0.000000 0.000000 0.002556
# 3 -0.001795 -0.001795 0.023105 0.000000 0.000000 0.000000
# 4 0.000000 0.000000 0.000000 0.043197 0.000000 0.000000
# 5 0.000000 0.000000 0.000000 0.000000 0.043197 0.000000
# 6 -0.002556 0.002556 0.000000 0.000000 0.000000 0.031120
#
#
# Mechanical properties :
#
#
# Convention : Reuss Voigt Hill
#
# Bulk Modulus (GPa) = 27.08329 30.06307 28.57318
# Shear Modulus (GPa) = 24.93802 26.09221 25.51512
#
# Velocity S-wave (km/s) = 3.52678 3.60747 3.56736
# Velocity P-wave (km/s) = 5.48566 5.68737 5.58742
#
# Compressibility (1/GPa) = 0.03692314
#
# Stress axis : x y z
#
# Youngs Moduli (GPa) = 65.15857 65.15857 43.28060
#
# Poissons Ratio (x) = 0.31595 0.07767
# Poissons Ratio (y) = 0.31595 0.07767
# Poissons Ratio (z) = 0.11693 0.11693
#
# Static dielectric constant tensor:
#      x y z
#    x 1.737260 0.000000 0.000000 
#    y 0.000000 1.737260 0.000000 
#    z 0.000000 0.000000 1.668400 
# 
# From -- ./inp_files/1731.got.cif
#   From: 2010.05.17/outbox.cif.g08.bks.cpg/sg82_1_cif.got.tgz:1731.got - 2010.06.03 18:52:26.
