data_PCOD9542934
_publ_section_title
;
Structure prediction by ZEFSAII (Michael W. Deem and Ramdas Pophale) SiO2 
 PCOD9542934
Probable space group: I -4 
;
_chemical_formula_sum "Si O2"
_cell_formula_units_Z 34
_cell_length_a 8.804300
_cell_length_b 8.804300
_cell_length_c 19.850501
_cell_angle_alpha 90.000000
_cell_angle_beta 90.000000
_cell_angle_gamma 90.000000
_cell_volume 1538.725450
_symmetry_space_group_name_H-M "I -4 "
_symmetry_group_IT_number 82
_symmetry_cell_setting 'tetragonal'
loop_
_space_group_symop_operation_xyz
x,y,z
y,-x,-z
-x,-y,z
-y,x,-z
1/2+x,1/2+y,1/2+z
1/2+y,1/2-x,1/2-z
1/2-x,1/2-y,1/2+z
1/2-y,1/2+x,1/2-z
loop_
_atom_site_type_symbol
_atom_site_label
_atom_site_fract_x
_atom_site_fract_y
_atom_site_fract_z
Si Si1 0.417143 0.661525 0.738437
Si Si2 0.832406 0.955862 0.605945
Si Si3 0.707129 0.695617 0.396687
Si Si4 0.074720 0.333320 0.024240
Si Si5 0.000000 0.500000 0.250000
O O1 0.500000 0.500000 0.730163
O O2 0.388928 0.668621 0.818361
O O3 0.292796 0.653777 0.680151
O O4 0.497912 0.825907 0.720868
O O5 0.741479 0.846601 0.556805
O O6 0.751110 0.119065 0.606827
O O7 0.000000 0.000000 0.584137
O O8 0.600168 0.784816 0.447797
O O9 0.721696 0.528492 0.430816
O O10 0.000000 0.500000 0.026664
#
# Coordination Sequence:
#
# PCOD9542934 Si02
#       5
#     8   8   8   8   2
#     4  11  24  42  72 107 136 191 252 290 364 441
#     4  10  23  42  71 103 131 182 242 297 347 433
#     4  11  24  42  69  99 143 186 226 298 361 427
#     4  10  25  42  64 105 137 182 231 287 367 434
#     4  12  20  48  76 100 148 188 244 306 364 432
#
# _framework density 22.096208000000001
#
# number of rings (size 3 to 8) (size 9 to 14) (size 15 to 20)
#    0.000    1.412    2.353    1.412   13.176    0.000 
#    0.000    0.000    0.000    0.000    0.000    0.000 
#    0.000    0.000    0.000    0.000    0.000    0.000 
#
# Total GULP energy -94726.271232 kJ/mol
# GULP energy per Si atom -5572.133602 kJ/mol
# Density = 2.204592 g / cm^3
# Si number density = 22.096208 Si / 1000 Ang^3
#
#
#
# Elastic Constant Matrix: (Units=GPa)
#
#
# Indices 1 2 3 4 5 6 
#
# 1 87.1999 -2.3756 22.8220 0.0000 0.0000 5.0546
# 2 -2.3756 87.1999 22.8220 0.0000 0.0000 -5.0546
# 3 22.8220 22.8220 94.7668 0.0000 0.0000 0.0000
# 4 0.0000 0.0000 0.0000 9.2648 0.0000 0.0000
# 5 0.0000 0.0000 0.0000 0.0000 9.2648 0.0000
# 6 5.0546 -5.0546 0.0000 0.0000 0.0000 13.2026
#
#
#
# Elastic Compliance Matrix: (Units=1/GPa)
#
#
# Indices 1 2 3 4 5 6 
#
# 1 0.012606 0.000938 -0.003262 0.000000 0.000000 -0.004467
# 2 0.000938 0.012606 -0.003262 0.000000 0.000000 0.004467
# 3 -0.003262 -0.003262 0.012123 0.000000 0.000000 0.000000
# 4 0.000000 0.000000 0.000000 0.107936 0.000000 0.000000
# 5 0.000000 0.000000 0.000000 0.000000 0.107936 0.000000
# 6 -0.004467 0.004467 0.000000 0.000000 0.000000 0.079163
#
#
# Mechanical properties :
#
#
# Convention : Reuss Voigt Hill
#
# Bulk Modulus (GPa) = 38.21947 39.52256 38.87101
# Shear Modulus (GPa) = 14.19399 21.40632 17.80016
#
# Velocity S-wave (km/s) = 2.53726 3.11590 2.84134
# Velocity P-wave (km/s) = 5.09097 5.55612 5.32862
#
# Compressibility (1/GPa) = 0.02616468
#
# Stress axis : x y z
#
# Youngs Moduli (GPa) = 79.32687 79.32687 82.48628
#
# Poissons Ratio (x) = -0.07442 0.26905
# Poissons Ratio (y) = -0.07442 0.26905
# Poissons Ratio (z) = 0.25874 0.25874
#
# Static dielectric constant tensor:
#      x y z
#    x 1.853840 0.000000 0.000000 
#    y 0.000000 1.853840 0.000000 
#    z 0.000000 0.000000 1.816550 
# 
# From -- ./inp_files/2955.got.cif
#   From: 2010.05.17/outbox.cif.g08.bks.cpg/sg82_2_cif.got.tgz:2955.got - 2010.06.03 18:52:26.
