data_PCOD9542645
_publ_section_title
;
Structure prediction by ZEFSAII (Michael W. Deem and Ramdas Pophale) SiO2 
 PCOD9542645
Probable space group: I -4 
;
_chemical_formula_sum "Si O2"
_cell_formula_units_Z 48
_cell_length_a 8.648671
_cell_length_b 8.648671
_cell_length_c 32.076938
_cell_angle_alpha 90.000000
_cell_angle_beta 90.000000
_cell_angle_gamma 90.000000
_cell_volume 2399.339247
_symmetry_space_group_name_H-M "I -4 "
_symmetry_group_IT_number 82
_symmetry_cell_setting 'tetragonal'
loop_
_space_group_symop_operation_xyz
x,y,z
y,-x,-z
-x,-y,z
-y,x,-z
1/2+x,1/2+y,1/2+z
1/2+y,1/2-x,1/2-z
1/2-x,1/2-y,1/2+z
1/2-y,1/2+x,1/2-z
loop_
_atom_site_type_symbol
_atom_site_label
_atom_site_fract_x
_atom_site_fract_y
_atom_site_fract_z
Si Si1 0.168172 0.466601 0.313918
Si Si2 0.500000 0.000000 0.608716
Si Si3 0.204234 0.338331 0.683464
Si Si4 0.164469 0.917540 0.243395
Si Si5 0.749033 0.928683 0.451280
Si Si6 0.000000 0.500000 0.886136
Si Si7 0.571231 0.250624 0.953566
O O1 0.265120 0.624377 0.322110
O O2 0.260930 0.355819 0.283334
O O3 0.000000 0.500000 0.295000
O O4 0.115764 0.409646 0.359829
O O5 0.617055 0.907228 0.579818
O O6 0.108576 0.212447 0.709287
O O7 0.221393 0.476234 0.716936
O O8 0.117685 0.403941 0.643269
O O9 0.000000 0.000000 0.242748
O O10 0.692219 0.911884 0.498982
O O11 0.897009 0.816531 0.447793
O O12 0.618775 0.910688 0.416558
O O13 0.817003 0.102965 0.447687
#
# Coordination Sequence:
#
# PCOD9542645 Si02
#       7
#     8   4   8   8   8   4   8
#     4   9  23  36  61  86 114 154 214 256 297 359
#     4  10  19  32  61  88 109 145 202 257 285 354
#     4  11  23  40  57  88 119 161 199 258 312 375
#     4  10  23  41  61  82 119 163 202 257 314 370
#     4   9  20  36  59  86 123 161 193 249 295 370
#     4  12  23  35  58  92 127 153 198 254 318 368
#     4   9  18  38  60  86 119 160 205 236 302 361
#
# _framework density 20.005507999999999
#
# number of rings (size 3 to 8) (size 9 to 14) (size 15 to 20)
#    0.500    1.667    0.000    3.500    7.000    0.000 
#    6.000    0.000    0.000    0.000    0.000    4.667 
#    0.000    0.000    0.000    0.000    0.000    0.000 
#
# Total GULP energy -133850.708850 kJ/mol
# GULP energy per Si atom -5577.112869 kJ/mol
# Density = 1.995997 g / cm^3
# Si number density = 20.005508 Si / 1000 Ang^3
#
#
#
# Elastic Constant Matrix: (Units=GPa)
#
#
# Indices 1 2 3 4 5 6 
#
# 1 43.2607 -3.0209 25.2497 0.0000 0.0000 0.6732
# 2 -3.0209 43.2606 25.2497 0.0000 0.0000 -0.6732
# 3 25.2497 25.2497 129.2956 0.0000 0.0000 0.0000
# 4 0.0000 0.0000 0.0000 -14.1451 0.0000 0.0000
# 5 0.0000 0.0000 0.0000 0.0000 -14.1451 0.0000
# 6 0.6732 -0.6732 0.0000 0.0000 0.0000 16.3921
#
#
#
# Elastic Compliance Matrix: (Units=1/GPa)
#
#
# Indices 1 2 3 4 5 6 
#
# 1 0.027276 0.005643 -0.006429 0.000000 0.000000 -0.000888
# 2 0.005643 0.027276 -0.006429 0.000000 0.000000 0.000888
# 3 -0.006429 -0.006429 0.010245 0.000000 0.000000 0.000000
# 4 0.000000 0.000000 0.000000 -0.070696 0.000000 0.000000
# 5 0.000000 0.000000 0.000000 0.000000 -0.070696 0.000000
# 6 -0.000888 0.000888 0.000000 0.000000 0.000000 0.061078
#
#
# Mechanical properties :
#
#
# Convention : Reuss Voigt Hill
#
# Bulk Modulus (GPa) = 19.85382 34.53041 27.19212
# Shear Modulus (GPa) = 318.47428 8.84297 163.65862
#
# Velocity S-wave (km/s) = 12.63087 2.10472 9.05452
# Velocity P-wave (km/s) = 14.92194 4.81710 11.08758
#
# Compressibility (1/GPa) = 0.05036814
#
# Stress axis : x y z
#
# Youngs Moduli (GPa) = 36.66267 36.66266 97.60823
#
# Poissons Ratio (x) = -0.20689 0.62748
# Poissons Ratio (y) = -0.20689 0.62748
# Poissons Ratio (z) = 0.23569 0.23569
#
# Static dielectric constant tensor:
#      x y z
#    x 1.785660 0.000000 0.000000 
#    y 0.000000 1.785660 0.000000 
#    z 0.000000 0.000000 1.700590 
# 
# From -- ./inp_files/4082.got.cif
#   From: 2010.05.17/outbox.cif.g08.bks.cpg/sg82_3_cif.got.tgz:4082.got - 2010.06.03 18:52:26.
