data_PCOD9542241
_publ_section_title
;
Structure prediction by ZEFSAII (Michael W. Deem and Ramdas Pophale) SiO2 
 PCOD9542241
Probable space group: I 41
;
_chemical_formula_sum "Si O2"
_cell_formula_units_Z 60
_cell_length_a 18.797440
_cell_length_b 18.797440
_cell_length_c 7.715497
_cell_angle_alpha 90.000000
_cell_angle_beta 90.000000
_cell_angle_gamma 90.000000
_cell_volume 2726.222647
_symmetry_space_group_name_H-M "I 41"
_symmetry_group_IT_number 80
_symmetry_cell_setting 'tetragonal'
loop_
_space_group_symop_operation_xyz
x,y,z
-y,1/2+x,1/4+z
-x,-y,z
y,1/2-x,1/4+z
1/2+x,1/2+y,1/2+z
1/2-y,x,3/4+z
1/2-x,1/2-y,1/2+z
1/2+y,-x,3/4+z
loop_
_atom_site_type_symbol
_atom_site_label
_atom_site_fract_x
_atom_site_fract_y
_atom_site_fract_z
Si Si1 0.500000 0.000000 0.804471
Si Si2 0.918234 0.121888 0.212456
Si Si3 0.902015 0.032330 0.747902
Si Si4 0.694263 0.495190 0.716024
Si Si5 0.339225 0.968503 0.321540
Si Si6 0.388453 0.413894 0.970875
Si Si7 0.246925 0.497096 0.341730
Si Si8 0.845816 0.740781 0.935055
O O1 0.494633 0.065138 0.668013
O O2 0.565191 0.018861 0.927376
O O3 0.915904 0.148912 0.409135
O O4 0.943218 0.186611 0.094476
O O5 0.847637 0.077543 0.175704
O O6 0.940947 0.107416 0.718827
O O7 0.913028 0.982917 0.581276
O O8 0.817785 0.032080 0.765225
O O9 0.755823 0.477747 0.856628
O O10 0.732570 0.519663 0.541449
O O11 0.640655 0.553728 0.791990
O O12 0.363724 0.044324 0.245489
O O13 0.322158 0.372477 0.057349
O O14 0.228314 0.421186 0.255622
O O15 0.798795 0.702068 0.084286
#
# Coordination Sequence:
#
# PCOD9542241 Si02
#       8
#     4   8   8   8   8   8   8   8
#     4  12  22  36  72  94 130 168 232 282 342 384
#     4  11  24  41  66  96 135 176 227 286 333 408
#     4  11  22  39  65  99 130 171 230 285 343 411
#     4  11  23  42  68  98 138 177 231 283 350 407
#     4  11  23  40  67  97 133 177 224 286 347 410
#     4  11  22  41  66 100 133 173 228 284 343 407
#     4  10  26  44  67 100 139 180 231 288 350 407
#     4  11  27  45  67  99 144 184 228 274 348 432
#
# _framework density 22.008472999999999
#
# number of rings (size 3 to 8) (size 9 to 14) (size 15 to 20)
#    0.000    1.067    4.000    1.600    3.733    6.400 
#    0.000    0.000   11.733    0.000    0.000    0.000 
#    0.000    0.000    0.000    0.000    0.000    0.000 
#
# Total GULP energy -167569.556119 kJ/mol
# GULP energy per Si atom -5585.651871 kJ/mol
# Density = 2.195838 g / cm^3
# Si number density = 22.008473 Si / 1000 Ang^3
#
#
#
# Elastic Constant Matrix: (Units=GPa)
#
#
# Indices 1 2 3 4 5 6 
#
# 1 112.6329 42.2584 13.3222 0.0000 0.0000 -3.4649
# 2 42.2584 112.6329 13.3222 0.0000 0.0000 3.4649
# 3 13.3222 13.3222 60.4420 0.0000 0.0000 0.0000
# 4 0.0000 0.0000 0.0000 28.7008 0.0000 0.0000
# 5 0.0000 0.0000 0.0000 0.0000 28.7008 0.0000
# 6 -3.4649 3.4649 0.0000 0.0000 0.0000 36.6156
#
#
#
# Elastic Compliance Matrix: (Units=1/GPa)
#
#
# Indices 1 2 3 4 5 6 
#
# 1 0.010527 -0.003816 -0.001479 0.000000 0.000000 0.001357
# 2 -0.003816 0.010527 -0.001479 0.000000 0.000000 -0.001357
# 3 -0.001479 -0.001479 0.017197 0.000000 0.000000 0.000000
# 4 0.000000 0.000000 0.000000 0.034842 0.000000 0.000000
# 5 0.000000 0.000000 0.000000 0.000000 0.034842 0.000000
# 6 0.001357 -0.001357 0.000000 0.000000 0.000000 0.027568
#
#
# Mechanical properties :
#
#
# Convention : Reuss Voigt Hill
#
# Bulk Modulus (GPa) = 40.48325 47.05704 43.77014
# Shear Modulus (GPa) = 31.78926 33.25712 32.52319
#
# Velocity S-wave (km/s) = 3.80466 3.89151 3.84833
# Velocity P-wave (km/s) = 6.14288 6.45132 6.29899
#
# Compressibility (1/GPa) = 0.02470157
#
# Stress axis : x y z
#
# Youngs Moduli (GPa) = 94.99412 94.99412 58.15033
#
# Poissons Ratio (x) = 0.36253 0.08601
# Poissons Ratio (y) = 0.36253 0.08601
# Poissons Ratio (z) = 0.14051 0.14051
#
# Static dielectric constant tensor:
#      x y z
#    x 1.821650 0.000000 0.000000 
#    y 0.000000 1.821650 0.000000 
#    z 0.000000 0.000000 1.866470 
# 
# From -- ./inp_files/749.got.cif
#   From: 2010.05.17/outbox.cif.g08.bks.cpg/sg80_cif.got.tgz:749.got - 2010.06.03 18:49:13.
