data_PCOD9542079
_publ_section_title
;
Structure prediction by ZEFSAII (Michael W. Deem and Ramdas Pophale) SiO2 
 PCOD9542079
Probable space group: I 41
;
_chemical_formula_sum "Si O2"
_cell_formula_units_Z 48
_cell_length_a 16.616374
_cell_length_b 16.616374
_cell_length_c 8.272692
_cell_angle_alpha 90.000000
_cell_angle_beta 90.000000
_cell_angle_gamma 90.000000
_cell_volume 2284.122400
_symmetry_space_group_name_H-M "I 41"
_symmetry_group_IT_number 80
_symmetry_cell_setting 'tetragonal'
loop_
_space_group_symop_operation_xyz
x,y,z
-y,1/2+x,1/4+z
-x,-y,z
y,1/2-x,1/4+z
1/2+x,1/2+y,1/2+z
1/2-y,x,3/4+z
1/2-x,1/2-y,1/2+z
1/2+y,-x,3/4+z
loop_
_atom_site_type_symbol
_atom_site_label
_atom_site_fract_x
_atom_site_fract_y
_atom_site_fract_z
Si Si1 0.419714 0.608070 0.802750
Si Si2 0.000000 0.000000 0.049906
Si Si3 0.518864 0.748566 0.379698
Si Si4 0.159340 0.732558 0.995289
Si Si5 0.500000 0.500000 0.045694
Si Si6 0.418312 0.737291 0.054353
Si Si7 0.586471 0.903670 0.549091
O O1 0.475000 0.576317 0.657869
O O2 0.326198 0.612222 0.759909
O O3 0.431185 0.536138 0.933895
O O4 0.446053 0.688096 0.897164
O O5 0.075526 0.020940 0.936324
O O6 0.434780 0.748420 0.480273
O O7 0.484520 0.750540 0.195133
O O8 0.568990 0.821519 0.456719
O O9 0.576649 0.671366 0.378652
O O10 0.207212 0.806974 0.917790
O O11 0.184760 0.655390 0.882158
O O12 0.529657 0.570446 0.161118
#
# Coordination Sequence:
#
# PCOD9542079 Si02
#       7
#     8   4   8   8   4   8   8
#     4  11  21  39  61  98 142 184 223 274 347 433
#     4  10  28  40  62 102 142 184 226 298 358 430
#     4  11  23  40  72  95 130 183 241 300 348 417
#     4  10  21  36  56 101 140 176 212 263 346 426
#     4  10  18  36  68  92 132 170 238 272 330 440
#     4  11  19  36  66  99 137 181 225 275 345 433
#     4  11  23  43  66  97 130 181 239 293 359 414
#
# _framework density 21.014634000000001
#
# number of rings (size 3 to 8) (size 9 to 14) (size 15 to 20)
#    0.000    1.333    6.667    0.000    7.000    2.667 
#    0.000    0.000    3.667    0.000    0.000    0.000 
#    0.000    0.000    0.000    0.000    0.000    0.000 
#
# Total GULP energy -134003.478271 kJ/mol
# GULP energy per Si atom -5583.478261 kJ/mol
# Density = 2.096680 g / cm^3
# Si number density = 21.014634 Si / 1000 Ang^3
#
#
#
# Elastic Constant Matrix: (Units=GPa)
#
#
# Indices 1 2 3 4 5 6 
#
# 1 113.3232 62.2734 46.4569 0.0000 0.0000 3.4530
# 2 62.2734 113.3232 46.4569 0.0000 0.0000 -3.4530
# 3 46.4569 46.4569 98.7189 0.0000 0.0000 0.0000
# 4 0.0000 0.0000 0.0000 30.5354 0.0000 0.0000
# 5 0.0000 0.0000 0.0000 0.0000 30.5354 0.0000
# 6 3.4530 -3.4530 0.0000 0.0000 0.0000 31.4469
#
#
#
# Elastic Compliance Matrix: (Units=1/GPa)
#
#
# Indices 1 2 3 4 5 6 
#
# 1 0.013734 -0.006150 -0.003569 0.000000 0.000000 -0.002183
# 2 -0.006150 0.013734 -0.003569 0.000000 0.000000 0.002183
# 3 -0.003569 -0.003569 0.013489 0.000000 0.000000 0.000000
# 4 0.000000 0.000000 0.000000 0.032749 0.000000 0.000000
# 5 0.000000 0.000000 0.000000 0.000000 0.032749 0.000000
# 6 -0.002183 0.002183 0.000000 0.000000 0.000000 0.032279
#
#
# Mechanical properties :
#
#
# Convention : Reuss Voigt Hill
#
# Bulk Modulus (GPa) = 69.53923 70.63774 70.08848
# Shear Modulus (GPa) = 29.39422 29.84874 29.62148
#
# Velocity S-wave (km/s) = 3.74404 3.77288 3.75849
# Velocity P-wave (km/s) = 7.20092 7.25714 7.22908
#
# Compressibility (1/GPa) = 0.01438037
#
# Stress axis : x y z
#
# Youngs Moduli (GPa) = 72.81407 72.81407 74.13709
#
# Poissons Ratio (x) = 0.44784 0.26457
# Poissons Ratio (y) = 0.44784 0.26457
# Poissons Ratio (z) = 0.25984 0.25984
#
# Static dielectric constant tensor:
#      x y z
#    x 1.772990 0.000000 0.000000 
#    y 0.000000 1.772990 0.000000 
#    z 0.000000 0.000000 1.811210 
# 
# From -- ./inp_files/691.got.cif
#   From: 2010.05.17/outbox.cif.g08.bks.cpg/sg80_cif.got.tgz:691.got - 2010.06.03 18:49:13.
