data_PCOD9542899
_publ_section_title
;
Structure prediction by ZEFSAII (Michael W. Deem and Ramdas Pophale) SiO2 
 PCOD9542899
Probable space group: I -4 
;
_chemical_formula_sum "Si O2"
_cell_formula_units_Z 36
_cell_length_a 10.846588
_cell_length_b 10.846588
_cell_length_c 11.995337
_cell_angle_alpha 90.000000
_cell_angle_beta 90.000000
_cell_angle_gamma 90.000000
_cell_volume 1411.233060
_symmetry_space_group_name_H-M "I -4 "
_symmetry_group_IT_number 82
_symmetry_cell_setting 'tetragonal'
loop_
_space_group_symop_operation_xyz
x,y,z
y,-x,-z
-x,-y,z
-y,x,-z
1/2+x,1/2+y,1/2+z
1/2+y,1/2-x,1/2-z
1/2-x,1/2-y,1/2+z
1/2-y,1/2+x,1/2-z
loop_
_atom_site_type_symbol
_atom_site_label
_atom_site_fract_x
_atom_site_fract_y
_atom_site_fract_z
Si Si1 0.372730 0.862735 0.906382
Si Si2 0.349228 0.121914 0.905718
Si Si3 0.500000 0.500000 0.500000
Si Si4 0.753550 0.101729 0.127518
Si Si5 0.098352 0.239265 0.623926
Si Si6 0.000000 0.000000 0.500000
O O1 0.358419 0.885658 0.039872
O O2 0.511993 0.864885 0.865645
O O3 0.317389 0.735505 0.870592
O O4 0.303920 0.986734 0.871466
O O5 0.246448 0.212692 0.864350
O O6 0.372455 0.150953 0.037042
O O7 0.375880 0.535622 0.572038
O O8 0.729363 0.053722 0.251829
O O9 0.018199 0.127194 0.569695
#
# Coordination Sequence:
#
# PCOD9542899 Si02
#       6
#     8   8   2   8   8   2
#     4  10  22  44  64  92 134 162 212 268 314 386
#     4  10  22  44  64  92 134 162 212 268 314 386
#     4  12  22  48  64  94 136 160 226 264 300 398
#     4  11  24  42  69  94 126 176 213 261 323 373
#     4  11  24  42  69  94 126 176 213 261 323 373
#     4  12  22  48  64  94 136 160 226 264 300 398
#
# _framework density 25.509608
#
# number of rings (size 3 to 8) (size 9 to 14) (size 15 to 20)
#    0.000    1.333    4.444    0.667    0.000    3.556 
#    0.000    4.444    0.000    0.000    0.000    0.000 
#    0.000    0.000    0.000    0.000    0.000    0.000 
#
# Total GULP energy -100439.063650 kJ/mol
# GULP energy per Si atom -5579.947981 kJ/mol
# Density = 2.545155 g / cm^3
# Si number density = 25.509608 Si / 1000 Ang^3
#
#
#
# Elastic Constant Matrix: (Units=GPa)
#
#
# Indices 1 2 3 4 5 6 
#
# 1 92.3816 -20.2914 -6.4205 0.0000 0.0000 -12.5151
# 2 -20.2914 92.3815 -6.4205 0.0000 0.0000 12.5151
# 3 -6.4205 -6.4205 194.3202 0.0000 0.0000 0.0000
# 4 0.0000 0.0000 0.0000 -1.7746 0.0000 0.0000
# 5 0.0000 0.0000 0.0000 0.0000 -1.7746 0.0000
# 6 -12.5151 12.5151 0.0000 0.0000 0.0000 27.9649
#
#
#
# Elastic Compliance Matrix: (Units=1/GPa)
#
#
# Indices 1 2 3 4 5 6 
#
# 1 0.011904 0.002049 0.000461 0.000000 0.000000 0.004410
# 2 0.002049 0.011904 0.000461 0.000000 0.000000 -0.004410
# 3 0.000461 0.000461 0.005177 0.000000 0.000000 0.000000
# 4 0.000000 0.000000 0.000000 -0.563493 0.000005 0.000000
# 5 0.000000 0.000000 0.000000 0.000005 -0.563509 0.000000
# 6 0.004410 -0.004410 0.000000 0.000000 0.000000 0.039707
#
#
# Mechanical properties :
#
#
# Convention : Reuss Voigt Hill
#
# Bulk Modulus (GPa) = 28.63028 34.75762 31.69395
# Shear Modulus (GPa) = -4.75010 32.36419 13.80704
#
# Velocity S-wave (km/s) = -1.36606 3.56575 2.32900
# Velocity P-wave (km/s) = 2.95965 5.53242 4.43662
#
# Compressibility (1/GPa) = 0.03492805
#
# Stress axis : x y z
#
# Youngs Moduli (GPa) = 84.00309 84.00308 193.17658
#
# Poissons Ratio (x) = -0.17215 -0.08906
# Poissons Ratio (y) = -0.17215 -0.08906
# Poissons Ratio (z) = -0.03873 -0.03873
#
# Static dielectric constant tensor:
#      x y z
#    x 1.991610 0.000000 0.000000 
#    y 0.000000 1.991610 0.000000 
#    z 0.000000 0.000000 2.147550 
# 
# From -- ./inp_files/1630.got.cif
#   From: 2010.05.17/outbox.cif.g08.bks.cpg/sg82_1_cif.got.tgz:1630.got - 2010.06.03 18:52:26.
