data_PCOD9542103
_publ_section_title
;
Structure prediction by ZEFSAII (Michael W. Deem and Ramdas Pophale) SiO2 
 PCOD9542103
Probable space group: I 41
;
_chemical_formula_sum "Si O2"
_cell_formula_units_Z 48
_cell_length_a 19.511587
_cell_length_b 19.511587
_cell_length_c 5.289246
_cell_angle_alpha 90.000000
_cell_angle_beta 90.000000
_cell_angle_gamma 90.000000
_cell_volume 2013.626675
_symmetry_space_group_name_H-M "I 41"
_symmetry_group_IT_number 80
_symmetry_cell_setting 'tetragonal'
loop_
_space_group_symop_operation_xyz
x,y,z
-y,1/2+x,1/4+z
-x,-y,z
y,1/2-x,1/4+z
1/2+x,1/2+y,1/2+z
1/2-y,x,3/4+z
1/2-x,1/2-y,1/2+z
1/2+y,-x,3/4+z
loop_
_atom_site_type_symbol
_atom_site_label
_atom_site_fract_x
_atom_site_fract_y
_atom_site_fract_z
Si Si1 0.558182 0.776223 0.983340
Si Si2 0.774487 0.152706 0.852175
Si Si3 0.414440 0.583294 0.313943
Si Si4 0.333768 0.298947 0.239517
Si Si5 0.555595 0.331454 0.824122
Si Si6 0.055757 0.365875 0.993010
O O1 0.509278 0.716007 0.883598
O O2 0.552725 0.830472 0.764302
O O3 0.634854 0.747312 0.016003
O O4 0.542028 0.815034 0.251421
O O5 0.820536 0.219447 0.903083
O O6 0.722008 0.120000 0.057273
O O7 0.831119 0.094805 0.808441
O O8 0.441723 0.621847 0.567741
O O9 0.422794 0.502409 0.268532
O O10 0.439026 0.620769 0.064713
O O11 0.328920 0.241879 0.453772
O O12 0.384608 0.363672 0.238019
#
# Coordination Sequence:
#
# PCOD9542103 Si02
#       6
#     8   8   8   8   8   8
#     4  11  23  41  67  97 133 172 216 268 340 397
#     4  10  20  32  54  86 124 164 218 268 300 348
#     4  11  23  38  60  90 132 177 221 261 313 379
#     4  10  22  42  73 104 130 156 209 282 344 406
#     4  11  23  38  60  90 132 177 221 261 313 379
#     4  11  23  41  67  97 133 172 216 268 340 397
#
# _framework density 23.837586999999999
#
# number of rings (size 3 to 8) (size 9 to 14) (size 15 to 20)
#    0.000    1.333    1.667    4.000    4.667    4.000 
#    0.000    0.833    0.000    2.000    0.000    0.000 
#    0.000    0.000    0.000    0.000    0.000    0.000 
#
# Total GULP energy -133770.212148 kJ/mol
# GULP energy per Si atom -5573.758839 kJ/mol
# Density = 2.378333 g / cm^3
# Si number density = 23.837587 Si / 1000 Ang^3
#
#
#
# Elastic Constant Matrix: (Units=GPa)
#
#
# Indices 1 2 3 4 5 6 
#
# 1 -16.8554 100.4640 20.9841 0.0000 0.0000 76.0863
# 2 100.4640 -16.8554 20.9841 0.0000 0.0000 -76.0863
# 3 20.9841 20.9841 137.8529 0.0000 0.0000 0.0000
# 4 0.0000 0.0000 0.0000 15.6738 0.0000 0.0000
# 5 0.0000 0.0000 0.0000 0.0000 15.6738 0.0000
# 6 76.0863 -76.0863 0.0000 0.0000 0.0000 -56.7889
#
#
#
# Elastic Compliance Matrix: (Units=1/GPa)
#
#
# Indices 1 2 3 4 5 6 
#
# 1 0.012251 0.000699 -0.001971 0.000000 0.000000 0.015478
# 2 0.000699 0.012251 -0.001971 0.000000 0.000000 -0.015478
# 3 -0.001971 -0.001971 0.007854 0.000000 0.000000 0.000000
# 4 0.000000 0.000000 0.000000 0.063801 0.000000 0.000000
# 5 0.000000 0.000000 0.000000 0.000000 0.063801 0.000000
# 6 0.015478 -0.015478 0.000000 0.000000 0.000000 0.023866
#
#
# Mechanical properties :
#
#
# Convention : Reuss Voigt Hill
#
# Bulk Modulus (GPa) = 38.65601 43.22292 40.93946
# Shear Modulus (GPa) = 25.13398 -7.64092 8.74653
#
# Velocity S-wave (km/s) = 3.25065 -1.79231 1.91760
# Velocity P-wave (km/s) = 5.50823 3.72672 4.70261
#
# Compressibility (1/GPa) = 0.02586920
#
# Stress axis : x y z
#
# Youngs Moduli (GPa) = 81.62505 81.62505 127.31968
#
# Poissons Ratio (x) = -0.05704 0.25098
# Poissons Ratio (y) = -0.05704 0.25098
# Poissons Ratio (z) = 0.16090 0.16090
#
# Static dielectric constant tensor:
#      x y z
#    x 2.087090 0.000000 0.000000 
#    y 0.000000 2.087090 0.000000 
#    z 0.000000 0.000000 1.893580 
# 
# From -- ./inp_files/287.got.cif
#   From: 2010.05.17/outbox.cif.g08.bks.cpg/sg80_cif.got.tgz:287.got - 2010.06.03 18:49:13.
