data_PCOD9542054
_publ_section_title
;
Structure prediction by ZEFSAII (Michael W. Deem and Ramdas Pophale) SiO2 
 PCOD9542054
Probable space group: I 41
;
_chemical_formula_sum "Si O2"
_cell_formula_units_Z 48
_cell_length_a 14.226798
_cell_length_b 14.226798
_cell_length_c 9.836721
_cell_angle_alpha 90.000000
_cell_angle_beta 90.000000
_cell_angle_gamma 90.000000
_cell_volume 1990.969853
_symmetry_space_group_name_H-M "I 41"
_symmetry_group_IT_number 80
_symmetry_cell_setting 'tetragonal'
loop_
_space_group_symop_operation_xyz
x,y,z
-y,1/2+x,1/4+z
-x,-y,z
y,1/2-x,1/4+z
1/2+x,1/2+y,1/2+z
1/2-y,x,3/4+z
1/2-x,1/2-y,1/2+z
1/2+y,-x,3/4+z
loop_
_atom_site_type_symbol
_atom_site_label
_atom_site_fract_x
_atom_site_fract_y
_atom_site_fract_z
Si Si1 0.129345 0.799224 0.677120
Si Si2 0.214216 0.607112 0.628830
Si Si3 0.543711 0.822504 0.233630
Si Si4 0.182909 0.298769 0.102156
Si Si5 0.000016 0.394064 0.010587
Si Si6 0.966506 0.401913 0.455663
O O1 0.208492 0.721832 0.637922
O O2 0.080629 0.818778 0.531303
O O3 0.050118 0.740244 0.754231
O O4 0.147126 0.894710 0.755682
O O5 0.134502 0.578835 0.525268
O O6 0.313984 0.558073 0.609899
O O7 0.628423 0.752721 0.272009
O O8 0.538460 0.897371 0.354503
O O9 0.532988 0.866483 0.082496
O O10 0.200530 0.206733 0.011235
O O11 0.076251 0.330599 0.083967
O O12 0.000000 0.500000 0.063545
O O13 0.000000 0.500000 0.396286
#
# Coordination Sequence:
#
# PCOD9542054 Si02
#       6
#     8   8   8   8   8   8
#     4  10  15  29  46  79 116 141 192 253 321 362
#     4   8  18  28  46  78 115 145 189 248 320 364
#     4   9  18  28  50  82 116 153 189 265 314 362
#     4  10  22  37  57  87 126 164 212 263 323 384
#     4  11  18  28  53  87 117 146 208 260 332 364
#     4  10  18  31  53  82 115 151 197 250 315 383
#
# _framework density 24.108854000000001
#
# number of rings (size 3 to 8) (size 9 to 14) (size 15 to 20)
#    0.000    2.667    5.000    0.500    0.000    1.333 
#    0.000    0.000    7.333    0.000    0.000    5.833 
#    0.000    0.000    0.000    0.000    0.000    0.000 
#
# Total GULP energy -133840.540871 kJ/mol
# GULP energy per Si atom -5576.689203 kJ/mol
# Density = 2.405398 g / cm^3
# Si number density = 24.108854 Si / 1000 Ang^3
#
#
#
# Elastic Constant Matrix: (Units=GPa)
#
#
# Indices 1 2 3 4 5 6 
#
# 1 107.9454 21.1495 7.6858 0.0000 0.0000 -19.4312
# 2 21.1495 107.9454 7.6858 0.0000 0.0000 19.4312
# 3 7.6858 7.6858 49.9492 0.0000 0.0000 0.0000
# 4 0.0000 0.0000 0.0000 4.9967 0.0000 0.0000
# 5 0.0000 0.0000 0.0000 0.0000 4.9967 0.0000
# 6 -19.4312 19.4312 0.0000 0.0000 0.0000 23.5126
#
#
#
# Elastic Compliance Matrix: (Units=1/GPa)
#
#
# Indices 1 2 3 4 5 6 
#
# 1 0.013090 -0.005199 -0.001214 0.000000 0.000000 0.015114
# 2 -0.005199 0.013090 -0.001214 0.000000 0.000000 -0.015114
# 3 -0.001214 -0.001214 0.020394 0.000000 0.000000 0.000000
# 4 0.000000 0.000000 0.000000 0.200132 0.000000 0.000000
# 5 0.000000 0.000000 0.000000 0.000000 0.200132 0.000000
# 6 0.015114 -0.015114 0.000000 0.000000 0.000000 0.067511
#
#
# Mechanical properties :
#
#
# Convention : Reuss Voigt Hill
#
# Bulk Modulus (GPa) = 31.92958 37.65359 34.79159
# Shear Modulus (GPa) = 9.25852 21.98913 15.62382
#
# Velocity S-wave (km/s) = 1.96179 3.02334 2.54845
# Velocity P-wave (km/s) = 4.29001 5.27631 4.80852
#
# Compressibility (1/GPa) = 0.03131892
#
# Stress axis : x y z
#
# Youngs Moduli (GPa) = 76.39640 76.39640 49.03398
#
# Poissons Ratio (x) = 0.39717 0.05954
# Poissons Ratio (y) = 0.39717 0.05954
# Poissons Ratio (z) = 0.09276 0.09276
#
# Static dielectric constant tensor:
#      x y z
#    x 1.961220 0.000000 0.000000 
#    y 0.000000 1.961220 0.000000 
#    z 0.000000 0.000000 1.987360 
# 
# From -- ./inp_files/1024.got.cif
#   From: 2010.05.17/outbox.cif.g08.bks.cpg/sg80_cif.got.tgz:1024.got - 2010.06.03 18:49:13.
