data_PCOD9542098
_publ_section_title
;
Structure prediction by ZEFSAII (Michael W. Deem and Ramdas Pophale) SiO2 
 PCOD9542098
Probable space group: I 41
;
_chemical_formula_sum "Si O2"
_cell_formula_units_Z 44
_cell_length_a 8.403341
_cell_length_b 8.403341
_cell_length_c 29.809732
_cell_angle_alpha 90.000000
_cell_angle_beta 90.000000
_cell_angle_gamma 90.000000
_cell_volume 2105.048207
_symmetry_space_group_name_H-M "I 41"
_symmetry_group_IT_number 80
_symmetry_cell_setting 'tetragonal'
loop_
_space_group_symop_operation_xyz
x,y,z
-y,1/2+x,1/4+z
-x,-y,z
y,1/2-x,1/4+z
1/2+x,1/2+y,1/2+z
1/2-y,x,3/4+z
1/2-x,1/2-y,1/2+z
1/2+y,-x,3/4+z
loop_
_atom_site_type_symbol
_atom_site_label
_atom_site_fract_x
_atom_site_fract_y
_atom_site_fract_z
Si Si1 0.822892 0.718084 0.608810
Si Si2 0.218992 0.713690 0.951382
Si Si3 0.324631 0.959566 0.879718
Si Si4 0.500000 0.000000 0.181803
Si Si5 0.882909 0.346532 0.282905
Si Si6 0.500000 0.000000 0.038233
Si Si7 0.500000 0.000000 0.389882
O O1 0.631635 0.725866 0.610395
O O2 0.887241 0.611044 0.650454
O O3 0.917938 0.637422 0.568142
O O4 0.880734 0.896842 0.611289
O O5 0.235284 0.871644 0.919968
O O6 0.386545 0.622251 0.957901
O O7 0.117669 0.597238 0.920830
O O8 0.128122 0.743273 0.997652
O O9 0.340760 0.844444 0.835915
O O10 0.500000 0.000000 0.897507
O O11 0.937021 0.167149 0.267330
O O12 0.000000 0.500000 0.278549
#
# Coordination Sequence:
#
# PCOD9542098 Si02
#       7
#     8   8   8   4   8   4   4
#     4  10  19  38  67  95 128 177 223 274 349 420
#     4  11  24  42  65  96 134 178 229 289 356 418
#     4  11  20  41  71 100 130 173 233 295 343 421
#     4   9  18  38  63  88 124 172 224 264 331 431
#     4  11  24  41  65 106 135 174 239 299 347 429
#     4  11  20  42  68  94 137 178 227 288 348 425
#     4  10  24  40  61  94 135 178 221 280 355 432
#
# _framework density 20.902132000000002
#
# number of rings (size 3 to 8) (size 9 to 14) (size 15 to 20)
#    0.000    1.455    5.455    2.182    3.818    0.000 
#    3.273    7.273    0.000    0.000    0.000    0.000 
#    0.000    0.000    0.000    0.000    0.000    0.000 
#
# Total GULP energy -122469.053344 kJ/mol
# GULP energy per Si atom -5566.775152 kJ/mol
# Density = 2.085456 g / cm^3
# Si number density = 20.902132 Si / 1000 Ang^3
#
#
#
# Elastic Constant Matrix: (Units=GPa)
#
#
# Indices 1 2 3 4 5 6 
#
# 1 93.1487 16.2457 5.1101 0.0000 0.0000 -4.7434
# 2 16.2457 93.1487 5.1101 0.0000 0.0000 4.7434
# 3 5.1101 5.1101 48.1357 0.0000 0.0000 0.0000
# 4 0.0000 0.0000 0.0000 -95.8830 0.0000 0.0000
# 5 0.0000 0.0000 0.0000 0.0000 -95.8830 0.0000
# 6 -4.7434 4.7434 0.0000 0.0000 0.0000 22.5216
#
#
#
# Elastic Compliance Matrix: (Units=1/GPa)
#
#
# Indices 1 2 3 4 5 6 
#
# 1 0.011292 -0.002059 -0.000980 0.000000 0.000000 0.002812
# 2 -0.002059 0.011292 -0.000980 0.000000 0.000000 -0.002812
# 3 -0.000980 -0.000980 0.020983 0.000000 0.000000 0.000000
# 4 0.000000 0.000000 0.000000 -0.010429 0.000000 0.000000
# 5 0.000000 0.000000 0.000000 0.000000 -0.010429 0.000000
# 6 0.002812 -0.002812 0.000000 0.000000 0.000000 0.045586
#
#
# Mechanical properties :
#
#
# Convention : Reuss Voigt Hill
#
# Bulk Modulus (GPa) = 28.14706 31.92945 30.03826
# Shear Modulus (GPa) = 56.70616 -19.98441 18.36088
#
# Velocity S-wave (km/s) = 5.21424 -3.09543 2.96703
# Velocity P-wave (km/s) = 7.05311 1.59162 5.11271
#
# Compressibility (1/GPa) = 0.03552768
#
# Stress axis : x y z
#
# Youngs Moduli (GPa) = 88.56197 88.56197 47.65831
#
# Poissons Ratio (x) = 0.18233 0.04671
# Poissons Ratio (y) = 0.18233 0.04671
# Poissons Ratio (z) = 0.08680 0.08680
#
# Static dielectric constant tensor:
#      x y z
#    x 1.881790 0.000000 0.000000 
#    y 0.000000 1.881790 0.000000 
#    z 0.000000 0.000000 1.727660 
# 
# From -- ./inp_files/2569.got.cif
#   From: 2010.05.17/outbox.cif.g08.bks.cpg/sg80_cif.got.tgz:2569.got - 2010.06.03 18:49:13.
