data_PCOD9542418
_publ_section_title
;
Structure prediction by ZEFSAII (Michael W. Deem and Ramdas Pophale) SiO2 
 PCOD9542418
Probable space group: P -4
;
_chemical_formula_sum "Si O2"
_cell_formula_units_Z 24
_cell_length_a 10.390037
_cell_length_b 10.390037
_cell_length_c 9.554319
_cell_angle_alpha 90.000000
_cell_angle_beta 90.000000
_cell_angle_gamma 90.000000
_cell_volume 1031.416146
_symmetry_space_group_name_H-M "P -4"
_symmetry_group_IT_number 81
_symmetry_cell_setting 'tetragonal'
loop_
_space_group_symop_operation_xyz
x,y,z
y,-x,-z
-x,-y,z
-y,x,-z
loop_
_atom_site_type_symbol
_atom_site_label
_atom_site_fract_x
_atom_site_fract_y
_atom_site_fract_z
Si Si1 0.781855 0.843289 0.601420
Si Si2 0.354685 0.883509 0.587211
Si Si3 0.000000 0.000000 0.500000
Si Si4 0.365034 0.370419 0.742530
Si Si5 0.500000 0.000000 0.341627
Si Si6 0.500000 0.500000 0.500000
Si Si7 0.412706 0.190465 0.134349
Si Si8 0.579865 0.230960 0.881375
O O1 0.786276 0.759140 0.458424
O O2 0.927339 0.898020 0.598753
O O3 0.731350 0.749185 0.721733
O O4 0.697474 0.971217 0.602243
O O5 0.442190 0.895136 0.448916
O O6 0.414755 0.842696 0.733361
O O7 0.439679 0.392092 0.597948
O O8 0.290022 0.498458 0.779615
O O9 0.474619 0.342548 0.855457
O O10 0.601756 0.931104 0.237888
O O11 0.288452 0.276828 0.092924
O O12 0.508924 0.155701 0.005975
#
# Coordination Sequence:
#
# PCOD9542418 Si02
#       8
#     4   4   1   4   2   1   4   4
#     4  10  21  40  66 102 130 181 235 299 355 417
#     4  11  23  41  70 100 140 181 242 299 360 414
#     4   8  20  40  64  92 142 176 220 300 370 408
#     4  12  23  38  66 100 141 179 236 288 360 430
#     4  12  26  42  66 106 138 180 246 306 342 422
#     4  12  24  32  62 112 148 180 230 300 376 428
#     4  12  26  45  67 100 146 191 233 290 362 442
#     4  12  25  45  69 100 143 194 234 284 366 448
#
# _framework density 23.268979000000002
#
# number of rings (size 3 to 8) (size 9 to 14) (size 15 to 20)
#    0.000    0.667    5.000    3.000    2.333    2.000 
#    0.000    0.000    0.000    0.000    0.000    0.000 
#    0.000    0.000    0.000    0.000    0.000    0.000 
#
# Total GULP energy -134000.140596 kJ/mol
# GULP energy per Si atom -5583.339191 kJ/mol
# Density = 2.321602 g / cm^3
# Si number density = 23.268979 Si / 1000 Ang^3
#
#
#
# Elastic Constant Matrix: (Units=GPa)
#
#
# Indices 1 2 3 4 5 6 
#
# 1 69.9764 18.7366 29.1549 0.0000 0.0000 6.3043
# 2 18.7366 69.9764 29.1549 0.0000 0.0000 -6.3043
# 3 29.1549 29.1549 131.2779 0.0000 0.0000 0.0000
# 4 0.0000 0.0000 0.0000 35.8268 0.0000 0.0000
# 5 0.0000 0.0000 0.0000 0.0000 35.8268 0.0000
# 6 6.3043 -6.3043 0.0000 0.0000 0.0000 44.9972
#
#
#
# Elastic Compliance Matrix: (Units=1/GPa)
#
#
# Indices 1 2 3 4 5 6 
#
# 1 0.016706 -0.003507 -0.002931 0.000000 0.000000 -0.002832
# 2 -0.003507 0.016706 -0.002931 0.000000 0.000000 0.002832
# 3 -0.002931 -0.002931 0.008919 0.000000 0.000000 0.000000
# 4 0.000000 0.000000 0.000000 0.027912 0.000000 0.000000
# 5 0.000000 0.000000 0.000000 0.000000 0.027912 0.000000
# 6 -0.002832 0.002832 0.000000 0.000000 0.000000 0.023017
#
#
# Mechanical properties :
#
#
# Convention : Reuss Voigt Hill
#
# Bulk Modulus (GPa) = 42.38682 47.25815 44.82248
# Shear Modulus (GPa) = 33.83501 36.27576 35.05539
#
# Velocity S-wave (km/s) = 3.81738 3.95267 3.88561
# Velocity P-wave (km/s) = 6.13885 6.41756 6.27975
#
# Compressibility (1/GPa) = 0.02359224
#
# Stress axis : x y z
#
# Youngs Moduli (GPa) = 59.85882 59.85882 112.11481
#
# Poissons Ratio (x) = 0.20992 0.32864
# Poissons Ratio (y) = 0.20992 0.32864
# Poissons Ratio (z) = 0.17546 0.17546
#
# Static dielectric constant tensor:
#      x y z
#    x 1.948120 0.000000 0.000000 
#    y 0.000000 1.948120 0.000000 
#    z 0.000000 0.000000 1.905280 
# 
# From -- ./inp_files/919.got.cif
#   From: 2010.05.17/outbox.cif.g08.bks.cpg/sg81_cif.got.tgz:919.got - 2010.06.03 18:51:07.
