data_PCOD9542316
_publ_section_title
;
Structure prediction by ZEFSAII (Michael W. Deem and Ramdas Pophale) SiO2 
 PCOD9542316
Probable space group: I 41
;
_chemical_formula_sum "Si O2"
_cell_formula_units_Z 30
_cell_length_a 18.000000
_cell_length_b 18.000000
_cell_length_c 9.000000
_cell_angle_alpha 90.000000
_cell_angle_beta 90.000000
_cell_angle_gamma 90.000000
_cell_volume 2916.000000
_symmetry_space_group_name_H-M "I 41"
_symmetry_group_IT_number 80
_symmetry_cell_setting 'tetragonal'
loop_
_space_group_symop_operation_xyz
x,y,z
-y,1/2+x,1/4+z
-x,-y,z
y,1/2-x,1/4+z
1/2+x,1/2+y,1/2+z
1/2-y,x,3/4+z
1/2-x,1/2-y,1/2+z
1/2+y,-x,3/4+z
loop_
_atom_site_type_symbol
_atom_site_label
_atom_site_fract_x
_atom_site_fract_y
_atom_site_fract_z
Si Si1 0.615518 0.409038 0.402470
Si Si2 0.713978 0.557387 0.431525
Si Si3 0.893345 0.572718 0.759725
Si Si4 0.930569 0.406063 0.811294
Si Si5 0.500000 0.000000 0.845541
Si Si6 0.619432 0.888115 0.945072
Si Si7 0.744046 0.337425 0.074732
Si Si8 0.814360 0.682071 0.951718
O O1 0.681914 0.472188 0.422437
O O2 0.586051 0.416343 0.235863
O O3 0.549570 0.441372 0.503391
O O4 0.634518 0.320125 0.412145
O O5 0.677057 0.598404 0.577842
O O6 0.802959 0.568120 0.420316
O O7 0.689043 0.608509 0.293999
O O8 0.893565 0.481682 0.739937
O O9 0.876325 0.626600 0.619323
O O10 0.830256 0.601545 0.875222
O O11 0.980250 0.589879 0.793608
O O12 0.895733 0.322875 0.779946
O O13 0.549750 0.943395 0.935700
O O14 0.702427 0.278542 0.180806
O O15 0.809653 0.747420 0.824284
#
# Coordination Sequence:
#
# PCOD9542316 Si02
#       8
#     8   8   8   8   4   8   8   8
#     4  10  22  41  70 105 133 186 238 292 353 426
#     4  11  24  45  69 103 141 186 241 289 359 424
#     4  11  25  44  71 103 141 186 234 292 367 425
#     4  10  22  44  71 102 140 181 240 291 352 437
#     4  10  22  40  70 100 140 178 242 292 362 410
#     4  11  26  44  68 106 141 186 232 301 351 438
#     4  10  24  45  68  99 138 181 232 289 351 417
#     4  12  28  44  73 101 145 186 235 295 356 434
#
# _framework density 10.288066000000001
#
# number of rings (size 3 to 8) (size 9 to 14) (size 15 to 20)
#    0.000    1.333    2.667    1.600    9.333    3.200 
#    4.800    0.000    0.000    0.000    0.000    0.000 
#    0.000    0.000    0.000    0.000    0.000    0.000 
#
# Total GULP energy -167067.265145 kJ/mol
# GULP energy per Si atom -5568.908838 kJ/mol
# Density = 1.026465 g / cm^3
# Si number density = 10.288066 Si / 1000 Ang^3
#
#
#
# Elastic Constant Matrix: (Units=GPa)
#
#
# Indices 1 2 3 4 5 6 
#
# 1 114.8962 31.0032 13.8137 0.0000 0.0000 3.6711
# 2 31.0032 114.8962 13.8137 0.0000 0.0000 -3.6711
# 3 13.8137 13.8137 72.7674 0.0000 0.0000 0.0000
# 4 0.0000 0.0000 0.0000 34.4373 0.0000 0.0000
# 5 0.0000 0.0000 0.0000 0.0000 34.4373 0.0000
# 6 3.6711 -3.6711 0.0000 0.0000 0.0000 36.6686
#
#
#
# Elastic Compliance Matrix: (Units=1/GPa)
#
#
# Indices 1 2 3 4 5 6 
#
# 1 0.009567 -0.002458 -0.001350 0.000000 0.000000 -0.001204
# 2 -0.002458 0.009567 -0.001350 0.000000 0.000000 0.001204
# 3 -0.001350 -0.001350 0.014255 0.000000 0.000000 0.000000
# 4 0.000000 0.000000 0.000000 0.029038 0.000000 0.000000
# 5 0.000000 0.000000 0.000000 0.000000 0.029038 0.000000
# 6 -0.001204 0.001204 0.000000 0.000000 0.000000 0.027512
#
#
# Mechanical properties :
#
#
# Convention : Reuss Voigt Hill
#
# Bulk Modulus (GPa) = 43.33605 46.64677 44.99141
# Shear Modulus (GPa) = 36.50039 37.37057 36.93548
#
# Velocity S-wave (km/s) = 4.21636 4.26632 4.24142
# Velocity P-wave (km/s) = 6.69408 6.85480 6.77491
#
# Compressibility (1/GPa) = 0.02307548
#
# Stress axis : x y z
#
# Youngs Moduli (GPa) = 104.52101 104.52101 70.15161
#
# Poissons Ratio (x) = 0.25690 0.09468
# Poissons Ratio (y) = 0.25690 0.09468
# Poissons Ratio (z) = 0.14107 0.14107
#
# Static dielectric constant tensor:
#      x y z
#    x 1.764170 0.000000 0.000000 
#    y 0.000000 1.764170 0.000000 
#    z 0.000000 0.000000 1.812260 
# 
# From -- ./inp_files/737.got.cif
#   From: 2010.05.17/outbox.ucp.g08.bks.cvg/sg80_cif.got.tgz:737.got - 2010.06.11 10:34:24.
