data_PCOD9542683
_publ_section_title
;
Structure prediction by ZEFSAII (Michael W. Deem and Ramdas Pophale) SiO2 
 PCOD9542683
Probable space group: I -4 
;
_chemical_formula_sum "Si O2"
_cell_formula_units_Z 40
_cell_length_a 8.925832
_cell_length_b 8.925832
_cell_length_c 25.237763
_cell_angle_alpha 90.000000
_cell_angle_beta 90.000000
_cell_angle_gamma 90.000000
_cell_volume 2010.704614
_symmetry_space_group_name_H-M "I -4 "
_symmetry_group_IT_number 82
_symmetry_cell_setting 'tetragonal'
loop_
_space_group_symop_operation_xyz
x,y,z
y,-x,-z
-x,-y,z
-y,x,-z
1/2+x,1/2+y,1/2+z
1/2+y,1/2-x,1/2-z
1/2-x,1/2-y,1/2+z
1/2-y,1/2+x,1/2-z
loop_
_atom_site_type_symbol
_atom_site_label
_atom_site_fract_x
_atom_site_fract_y
_atom_site_fract_z
Si Si1 0.704870 0.667428 0.081854
Si Si2 0.912948 0.266308 0.190649
Si Si3 0.579628 0.244194 0.806184
Si Si4 0.027272 0.832045 0.077461
Si Si5 0.420352 0.161006 0.989505
O O1 0.666799 0.637035 0.142854
O O2 0.867590 0.748181 0.080960
O O3 0.733862 0.514390 0.049817
O O4 0.594672 0.766660 0.046958
O O5 0.798178 0.405265 0.186234
O O6 0.892394 0.189444 0.247848
O O7 0.080159 0.339457 0.193659
O O8 0.905801 0.172113 0.137060
O O9 0.131705 0.740698 0.037296
O O10 0.000000 0.000000 0.060761
O O11 0.500000 0.000000 0.992326
#
# Coordination Sequence:
#
# PCOD9542683 Si02
#       5
#     8   8   8   8   8
#     4  10  20  35  55  78 113 152 191 230 282 341
#     4   8  13  26  49  80 111 140 182 235 278 328
#     4   8  13  26  52  78 106 147 184 227 284 328
#     4  10  20  31  53  86 116 145 184 238 288 334
#     4  10  22  36  55  82 119 150 187 234 285 340
#
# _framework density 19.893522000000001
#
# number of rings (size 3 to 8) (size 9 to 14) (size 15 to 20)
#    0.000    2.800    2.000    1.200    5.600    0.400 
#    0.000    0.000    4.400    0.000    0.000    0.000 
#    0.000    0.000    0.000    0.000    0.000    0.000 
#
# Total GULP energy -111583.595649 kJ/mol
# GULP energy per Si atom -5579.179782 kJ/mol
# Density = 1.984824 g / cm^3
# Si number density = 19.893522 Si / 1000 Ang^3
#
#
#
# Elastic Constant Matrix: (Units=GPa)
#
#
# Indices 1 2 3 4 5 6 
#
# 1 41.4527 2.7692 32.4051 0.0000 0.0000 2.3949
# 2 2.7692 41.4527 32.4051 0.0000 0.0000 -2.3949
# 3 32.4051 32.4051 191.9574 0.0000 0.0000 0.0000
# 4 0.0000 0.0000 0.0000 18.7401 0.0000 0.0000
# 5 0.0000 0.0000 0.0000 0.0000 18.7401 0.0000
# 6 2.3949 -2.3949 0.0000 0.0000 0.0000 8.8163
#
#
#
# Elastic Compliance Matrix: (Units=1/GPa)
#
#
# Indices 1 2 3 4 5 6 
#
# 1 0.028399 0.001648 -0.005072 0.000000 0.000000 -0.007267
# 2 0.001648 0.028399 -0.005072 0.000000 0.000000 0.007267
# 3 -0.005072 -0.005072 0.006922 0.000000 0.000000 0.000000
# 4 0.000000 0.000000 0.000000 0.053362 0.000000 0.000000
# 5 0.000000 0.000000 0.000000 0.000000 0.053362 0.000000
# 6 -0.007267 0.007267 0.000000 0.000000 0.000000 0.117374
#
#
# Mechanical properties :
#
#
# Convention : Reuss Voigt Hill
#
# Bulk Modulus (GPa) = 21.40100 45.55799 33.47949
# Shear Modulus (GPa) = 15.60621 23.07819 19.34220
#
# Velocity S-wave (km/s) = 2.80391 3.40970 3.12153
# Velocity P-wave (km/s) = 4.61125 6.20097 5.46423
#
# Compressibility (1/GPa) = 0.04672679
#
# Stress axis : x y z
#
# Youngs Moduli (GPa) = 35.21269 35.21270 144.46550
#
# Poissons Ratio (x) = -0.05804 0.73278
# Poissons Ratio (y) = -0.05804 0.73278
# Poissons Ratio (z) = 0.17861 0.17861
#
# Static dielectric constant tensor:
#      x y z
#    x 1.691740 0.000000 0.000000 
#    y 0.000000 1.691740 0.000000 
#    z 0.000000 0.000000 1.737160 
# 
# From -- ./inp_files/3688.got.cif
#   From: 2010.05.17/outbox.cif.g08.bks.cpg/sg82_2_cif.got.tgz:3688.got - 2010.06.03 18:52:26.
