data_PCOD9542796
_publ_section_title
;
Structure prediction by ZEFSAII (Michael W. Deem and Ramdas Pophale) SiO2 
 PCOD9542796
Probable space group: I -4 
;
_chemical_formula_sum "Si O2"
_cell_formula_units_Z 32
_cell_length_a 13.184539
_cell_length_b 13.184539
_cell_length_c 7.962565
_cell_angle_alpha 90.000000
_cell_angle_beta 90.000000
_cell_angle_gamma 90.000000
_cell_volume 1384.149146
_symmetry_space_group_name_H-M "I -4 "
_symmetry_group_IT_number 82
_symmetry_cell_setting 'tetragonal'
loop_
_space_group_symop_operation_xyz
x,y,z
y,-x,-z
-x,-y,z
-y,x,-z
1/2+x,1/2+y,1/2+z
1/2+y,1/2-x,1/2-z
1/2-x,1/2-y,1/2+z
1/2-y,1/2+x,1/2-z
loop_
_atom_site_type_symbol
_atom_site_label
_atom_site_fract_x
_atom_site_fract_y
_atom_site_fract_z
Si Si1 0.863652 0.217251 0.526619
Si Si2 0.267299 0.055451 0.966138
Si Si3 0.377186 0.287929 0.326487
Si Si4 0.727706 0.070406 0.638493
O O1 0.803296 0.312082 0.596698
O O2 0.814226 0.167371 0.357385
O O3 0.834462 0.129454 0.656391
O O4 0.974836 0.250610 0.478947
O O5 0.161631 0.112311 0.925231
O O6 0.354898 0.141249 0.937462
O O7 0.296354 0.974149 0.821252
O O8 0.247043 0.991898 0.135625
#
# Coordination Sequence:
#
# PCOD9542796 Si02
#       4
#     8   8   8   8
#     4  10  22  39  61  89 124 163 205 255 308 364
#     4  10  21  39  61  87 122 163 206 249 308 370
#     4  10  21  37  60  90 125 162 204 257 309 363
#     4  10  22  39  62  90 121 164 207 253 307 367
#
# _framework density 23.118897
#
# number of rings (size 3 to 8) (size 9 to 14) (size 15 to 20)
#    0.000    2.000    0.000    4.500    0.000   10.500 
#    0.000    5.000    0.000   15.000    0.000    0.000 
#    0.000    0.000    0.000    0.000    0.000    0.000 
#
# Total GULP energy -89196.985759 kJ/mol
# GULP energy per Si atom -5574.811610 kJ/mol
# Density = 2.306628 g / cm^3
# Si number density = 23.118897 Si / 1000 Ang^3
#
#
#
# Elastic Constant Matrix: (Units=GPa)
#
#
# Indices 1 2 3 4 5 6 
#
# 1 117.1034 18.4561 36.6029 0.0000 0.0000 -7.5104
# 2 18.4561 117.1034 36.6029 0.0000 0.0000 7.5104
# 3 36.6029 36.6029 77.3987 0.0000 0.0000 0.0000
# 4 0.0000 0.0000 0.0000 31.9399 0.0000 0.0000
# 5 0.0000 0.0000 0.0000 0.0000 31.9399 0.0000
# 6 -7.5104 7.5104 0.0000 0.0000 0.0000 30.7397
#
#
#
# Elastic Compliance Matrix: (Units=1/GPa)
#
#
# Indices 1 2 3 4 5 6 
#
# 1 0.010218 -0.000311 -0.004685 0.000000 0.000000 0.002572
# 2 -0.000311 0.010218 -0.004685 0.000000 0.000000 -0.002572
# 3 -0.004685 -0.004685 0.017351 0.000000 0.000000 0.000000
# 4 0.000000 0.000000 0.000000 0.031309 0.000000 0.000000
# 5 0.000000 0.000000 0.000000 0.000000 0.031309 0.000000
# 6 0.002572 -0.002572 0.000000 0.000000 0.000000 0.033788
#
#
# Mechanical properties :
#
#
# Convention : Reuss Voigt Hill
#
# Bulk Modulus (GPa) = 54.27468 54.99215 54.63342
# Shear Modulus (GPa) = 31.30929 33.58680 32.44805
#
# Velocity S-wave (km/s) = 3.68404 3.81568 3.75043
# Velocity P-wave (km/s) = 6.45162 6.57654 6.51438
#
# Compressibility (1/GPa) = 0.01842480
#
# Stress axis : x y z
#
# Youngs Moduli (GPa) = 97.86771 97.86771 57.63216
#
# Poissons Ratio (x) = 0.03043 0.27001
# Poissons Ratio (y) = 0.03043 0.27001
# Poissons Ratio (z) = 0.45852 0.45852
#
# Static dielectric constant tensor:
#      x y z
#    x 1.877260 0.000000 0.000000 
#    y 0.000000 1.877260 0.000000 
#    z 0.000000 0.000000 1.969200 
# 
# From -- ./inp_files/764.got.cif
#   From: 2010.05.17/outbox.cif.g08.bks.cpg/sg82_1_cif.got.tgz:764.got - 2010.06.03 18:52:26.
