data_PCOD9542530
_publ_section_title
;
Structure prediction by ZEFSAII (Michael W. Deem and Ramdas Pophale) SiO2 
 PCOD9542530
Probable space group: P -4
;
_chemical_formula_sum "Si O2"
_cell_formula_units_Z 13
_cell_length_a 7.916318
_cell_length_b 7.916318
_cell_length_c 9.471711
_cell_angle_alpha 90.000000
_cell_angle_beta 90.000000
_cell_angle_gamma 90.000000
_cell_volume 593.574044
_symmetry_space_group_name_H-M "P -4"
_symmetry_group_IT_number 81
_symmetry_cell_setting 'tetragonal'
loop_
_space_group_symop_operation_xyz
x,y,z
y,-x,-z
-x,-y,z
-y,x,-z
loop_
_atom_site_type_symbol
_atom_site_label
_atom_site_fract_x
_atom_site_fract_y
_atom_site_fract_z
Si Si1 0.000000 0.000000 0.500000
Si Si2 0.882819 0.260664 0.721591
Si Si3 0.394827 0.761182 0.204063
Si Si4 0.190516 0.447833 0.122082
O O1 0.894106 0.131957 0.593224
O O2 0.807241 0.448758 0.693429
O O3 0.746910 0.197719 0.834125
O O4 0.074568 0.275994 0.778865
O O5 0.306445 0.578946 0.211018
O O6 0.464474 0.767807 0.043543
O O7 0.000000 0.500000 0.144085
#
# Coordination Sequence:
#
# PCOD9542530 Si02
#       4
#     1   4   4   4
#     4  12  28  52  66  96 160 216 268 278 344 472
#     4  11  25  45  69 102 148 202 250 302 360 451
#     4  11  22  43  73 112 145 179 246 319 390 443
#     4  12  21  40  76 113 144 181 237 326 398 438
#
# _framework density 21.901226999999999
#
# number of rings (size 3 to 8) (size 9 to 14) (size 15 to 20)
#    0.000    0.615    6.154    2.769    0.000    0.000 
#   16.615    0.000    0.000    0.000    0.000    0.000 
#    0.000    0.000    0.000    0.000    0.000    0.000 
#
# Total GULP energy -72555.687535 kJ/mol
# GULP energy per Si atom -5581.206733 kJ/mol
# Density = 2.185138 g / cm^3
# Si number density = 21.901227 Si / 1000 Ang^3
#
#
#
# Elastic Constant Matrix: (Units=GPa)
#
#
# Indices 1 2 3 4 5 6 
#
# 1 68.2083 24.8808 25.7816 0.0000 0.0000 -9.6782
# 2 24.8808 68.2083 25.7816 0.0000 0.0000 9.6782
# 3 25.7816 25.7816 52.9121 0.0000 0.0000 0.0000
# 4 0.0000 0.0000 0.0000 3.9091 0.0000 0.0000
# 5 0.0000 0.0000 0.0000 0.0000 3.9091 0.0000
# 6 -9.6782 9.6782 0.0000 0.0000 0.0000 42.5434
#
#
#
# Elastic Compliance Matrix: (Units=1/GPa)
#
#
# Indices 1 2 3 4 5 6 
#
# 1 0.020202 -0.005489 -0.007169 0.000000 0.000000 0.005844
# 2 -0.005489 0.020202 -0.007169 0.000000 0.000000 -0.005844
# 3 -0.007169 -0.007169 0.025886 0.000000 0.000000 0.000000
# 4 0.000000 0.000000 0.000000 0.255811 0.000000 0.000000
# 5 0.000000 0.000000 0.000000 0.000000 0.255811 0.000000
# 6 0.005844 -0.005844 0.000000 0.000000 0.000000 0.026165
#
#
# Mechanical properties :
#
#
# Convention : Reuss Voigt Hill
#
# Bulk Modulus (GPa) = 37.54330 38.02406 37.78368
# Shear Modulus (GPa) = 7.66154 17.59798 12.62976
#
# Velocity S-wave (km/s) = 1.87238 2.83771 2.40400
# Velocity P-wave (km/s) = 4.67480 5.30435 4.99949
#
# Compressibility (1/GPa) = 0.02663591
#
# Stress axis : x y z
#
# Youngs Moduli (GPa) = 49.49939 49.49939 38.63140
#
# Poissons Ratio (x) = 0.27169 0.27696
# Poissons Ratio (y) = 0.27169 0.27696
# Poissons Ratio (z) = 0.35487 0.35487
#
# Static dielectric constant tensor:
#      x y z
#    x 1.843510 0.000000 0.000000 
#    y 0.000000 1.843510 0.000000 
#    z 0.000000 0.000000 1.754930 
# 
# From -- ./inp_files/474.got.cif
#   From: 2010.05.17/outbox.cif.g08.bks.cpg/sg81_cif.got.tgz:474.got - 2010.06.03 18:51:07.
