data_PCOD9542251
_publ_section_title
;
Structure prediction by ZEFSAII (Michael W. Deem and Ramdas Pophale) SiO2 
 PCOD9542251
Probable space group: I 41
;
_chemical_formula_sum "Si O2"
_cell_formula_units_Z 60
_cell_length_a 17.770887
_cell_length_b 17.770887
_cell_length_c 9.352086
_cell_angle_alpha 90.000000
_cell_angle_beta 90.000000
_cell_angle_gamma 90.000000
_cell_volume 2953.430140
_symmetry_space_group_name_H-M "I 41"
_symmetry_group_IT_number 80
_symmetry_cell_setting 'tetragonal'
loop_
_space_group_symop_operation_xyz
x,y,z
-y,1/2+x,1/4+z
-x,-y,z
y,1/2-x,1/4+z
1/2+x,1/2+y,1/2+z
1/2-y,x,3/4+z
1/2-x,1/2-y,1/2+z
1/2+y,-x,3/4+z
loop_
_atom_site_type_symbol
_atom_site_label
_atom_site_fract_x
_atom_site_fract_y
_atom_site_fract_z
Si Si1 0.739517 0.571758 0.364660
Si Si2 0.310024 0.201735 0.038111
Si Si3 0.881473 0.568601 0.157406
Si Si4 0.821486 0.936409 0.439190
Si Si5 0.576956 0.137696 0.038882
Si Si6 0.716872 0.045546 0.109226
Si Si7 0.000000 0.000000 0.127267
Si Si8 0.651596 0.943079 0.364633
O O1 0.758405 0.647530 0.448106
O O2 0.796884 0.571049 0.228802
O O3 0.649198 0.582635 0.358010
O O4 0.763518 0.503715 0.469532
O O5 0.303198 0.278117 0.949315
O O6 0.391530 0.161331 0.040434
O O7 0.935450 0.534109 0.276351
O O8 0.882180 0.521338 0.008712
O O9 0.732478 0.915975 0.429428
O O10 0.877521 0.902235 0.554879
O O11 0.834739 0.024360 0.420188
O O12 0.660597 0.113284 0.076618
O O13 0.572866 0.205399 0.927127
O O14 0.537111 0.063934 0.974898
O O15 0.674623 0.994365 0.229975
#
# Coordination Sequence:
#
# PCOD9542251 Si02
#       8
#     8   8   8   8   8   8   4   8
#     4  12  22  40  58  93 134 179 212 261 305 399
#     4  12  22  33  52  84 130 177 216 249 305 382
#     4  12  26  39  61  96 138 175 218 263 330 385
#     4  11  21  37  61  89 130 174 219 256 321 393
#     4  11  23  42  73  99 118 170 219 278 328 398
#     4  11  23  44  73  92 126 165 228 271 331 387
#     4  12  22  40  68  94 128 166 216 268 338 388
#     4  11  24  39  58  95 137 175 211 268 317 397
#
# _framework density 20.315360999999999
#
# number of rings (size 3 to 8) (size 9 to 14) (size 15 to 20)
#    0.000    0.533    6.667    3.200    1.867    1.067 
#    0.000    0.000    5.867    0.000    0.000    0.000 
#    0.000    0.000    0.000    0.000    0.000    0.000 
#
# Total GULP energy -167168.017229 kJ/mol
# GULP energy per Si atom -5572.267241 kJ/mol
# Density = 2.026912 g / cm^3
# Si number density = 20.315361 Si / 1000 Ang^3
#
#
#
# Elastic Constant Matrix: (Units=GPa)
#
#
# Indices 1 2 3 4 5 6 
#
# 1 76.6055 30.3140 22.1812 0.0000 0.0000 -6.7279
# 2 30.3140 76.6055 22.1812 0.0000 0.0000 6.7279
# 3 22.1812 22.1812 101.5953 0.0000 0.0000 0.0000
# 4 0.0000 0.0000 0.0000 8.8605 0.0000 0.0000
# 5 0.0000 0.0000 0.0000 0.0000 8.8605 0.0000
# 6 -6.7279 6.7279 0.0000 0.0000 0.0000 34.7910
#
#
#
# Elastic Compliance Matrix: (Units=1/GPa)
#
#
# Indices 1 2 3 4 5 6 
#
# 1 0.016587 -0.006302 -0.002245 0.000000 0.000000 0.004426
# 2 -0.006302 0.016587 -0.002245 0.000000 0.000000 -0.004426
# 3 -0.002245 -0.002245 0.010823 0.000000 0.000000 0.000000
# 4 0.000000 0.000000 0.000000 0.112861 0.000000 0.000000
# 5 0.000000 0.000000 0.000000 0.000000 0.112861 0.000000
# 6 0.004426 -0.004426 0.000000 0.000000 0.000000 0.030455
#
#
# Mechanical properties :
#
#
# Convention : Reuss Voigt Hill
#
# Bulk Modulus (GPa) = 44.62133 44.90657 44.76395
# Shear Modulus (GPa) = 15.18698 22.51106 18.84902
#
# Velocity S-wave (km/s) = 2.73712 3.33240 3.04932
# Velocity P-wave (km/s) = 5.65696 6.07941 5.87198
#
# Compressibility (1/GPa) = 0.02241081
#
# Stress axis : x y z
#
# Youngs Moduli (GPa) = 60.28942 60.28942 92.39200
#
# Poissons Ratio (x) = 0.37995 0.20746
# Poissons Ratio (y) = 0.37995 0.20746
# Poissons Ratio (z) = 0.13537 0.13537
#
# Static dielectric constant tensor:
#      x y z
#    x 1.811530 0.000000 0.000000 
#    y 0.000000 1.811530 0.000000 
#    z 0.000000 0.000000 1.823010 
# 
# From -- ./inp_files/741.got.cif
#   From: 2010.05.17/outbox.cif.g08.bks.cpg/sg80_cif.got.tgz:741.got - 2010.06.03 18:49:13.
