data_PCOD9542612
_publ_section_title
;
Structure prediction by ZEFSAII (Michael W. Deem and Ramdas Pophale) SiO2 
 PCOD9542612
Probable space group: I -4 
;
_chemical_formula_sum "Si O2"
_cell_formula_units_Z 36
_cell_length_a 9.074078
_cell_length_b 9.074078
_cell_length_c 25.414038
_cell_angle_alpha 90.000000
_cell_angle_beta 90.000000
_cell_angle_gamma 90.000000
_cell_volume 2092.563719
_symmetry_space_group_name_H-M "I -4 "
_symmetry_group_IT_number 82
_symmetry_cell_setting 'tetragonal'
loop_
_space_group_symop_operation_xyz
x,y,z
y,-x,-z
-x,-y,z
-y,x,-z
1/2+x,1/2+y,1/2+z
1/2+y,1/2-x,1/2-z
1/2-x,1/2-y,1/2+z
1/2-y,1/2+x,1/2-z
loop_
_atom_site_type_symbol
_atom_site_label
_atom_site_fract_x
_atom_site_fract_y
_atom_site_fract_z
Si Si1 0.280888 0.665012 0.864460
Si Si2 0.529144 0.171784 0.946994
Si Si3 0.000000 0.000000 0.289362
Si Si4 0.834856 0.923698 0.441961
Si Si5 0.571694 0.214838 0.270273
O O1 0.343117 0.784841 0.905519
O O2 0.414048 0.616231 0.825919
O O3 0.250296 0.517676 0.898419
O O4 0.145480 0.707975 0.827471
O O5 0.379841 0.257240 0.929496
O O6 0.500000 0.000000 0.951119
O O7 0.566397 0.245346 0.003727
O O8 0.123564 0.077076 0.254059
O O9 0.000000 0.000000 0.443999
O O10 0.403010 0.159403 0.266197
#
# Coordination Sequence:
#
# PCOD9542612 Si02
#       5
#     8   8   4   8   8
#     4  10  18  37  61  80 111 158 194 238 292 340
#     4  11  19  33  59  91 115 145 199 242 287 350
#     4  10  18  36  61  76 114 149 198 246 270 350
#     4  10  16  37  61  80 111 154 199 232 276 365
#     4   9  20  38  57  86 113 146 201 236 287 346
#
# _framework density 17.203775
#
# number of rings (size 3 to 8) (size 9 to 14) (size 15 to 20)
#    0.000    2.000    7.778    0.000    0.000    0.000 
#   16.000    0.000    0.000    0.667    0.000    0.000 
#    0.000    0.000    0.000    0.000    0.000    0.000 
#
# Total GULP energy -100204.555499 kJ/mol
# GULP energy per Si atom -5566.919750 kJ/mol
# Density = 1.716462 g / cm^3
# Si number density = 17.203775 Si / 1000 Ang^3
#
#
#
# Elastic Constant Matrix: (Units=GPa)
#
#
# Indices 1 2 3 4 5 6 
#
# 1 97.9915 18.2092 52.9816 0.0000 0.0000 0.7106
# 2 18.2092 97.9915 52.9816 0.0000 0.0000 -0.7106
# 3 52.9816 52.9816 131.9790 0.0000 0.0000 0.0000
# 4 0.0000 0.0000 0.0000 27.1363 0.0000 0.0000
# 5 0.0000 0.0000 0.0000 0.0000 27.1363 0.0000
# 6 0.7106 -0.7106 0.0000 0.0000 0.0000 12.3582
#
#
#
# Elastic Compliance Matrix: (Units=1/GPa)
#
#
# Indices 1 2 3 4 5 6 
#
# 1 0.013061 0.000514 -0.005450 0.000000 0.000000 -0.000721
# 2 0.000514 0.013061 -0.005450 0.000000 0.000000 0.000721
# 3 -0.005450 -0.005450 0.011952 0.000000 0.000000 0.000000
# 4 0.000000 0.000000 0.000000 0.036851 0.000000 0.000000
# 5 0.000000 0.000000 0.000000 0.000000 0.036851 0.000000
# 6 -0.000721 0.000721 0.000000 0.000000 0.000000 0.081001
#
#
# Mechanical properties :
#
#
# Convention : Reuss Voigt Hill
#
# Bulk Modulus (GPa) = 57.78885 64.03409 60.91147
# Shear Modulus (GPa) = 22.79817 26.91214 24.85515
#
# Velocity S-wave (km/s) = 3.64426 3.95943 3.80511
# Velocity P-wave (km/s) = 7.16737 7.62919 7.40188
#
# Compressibility (1/GPa) = 0.01730438
#
# Stress axis : x y z
#
# Youngs Moduli (GPa) = 76.56283 76.56283 83.66512
#
# Poissons Ratio (x) = -0.03937 0.45595
# Poissons Ratio (y) = -0.03937 0.45595
# Poissons Ratio (z) = 0.41724 0.41724
#
# Static dielectric constant tensor:
#      x y z
#    x 1.602370 0.000000 0.000000 
#    y 0.000000 1.602370 0.000000 
#    z 0.000000 0.000000 1.629850 
# 
# From -- ./inp_files/3642.got.cif
#   From: 2010.05.17/outbox.cif.g08.bks.cpg/sg82_2_cif.got.tgz:3642.got - 2010.06.03 18:52:26.
