data_PCOD9542618
_publ_section_title
;
Structure prediction by ZEFSAII (Michael W. Deem and Ramdas Pophale) SiO2 
 PCOD9542618
Probable space group: I -4 
;
_chemical_formula_sum "Si O2"
_cell_formula_units_Z 64
_cell_length_a 15.178225
_cell_length_b 15.178225
_cell_length_c 17.170325
_cell_angle_alpha 90.000000
_cell_angle_beta 90.000000
_cell_angle_gamma 90.000000
_cell_volume 3955.673961
_symmetry_space_group_name_H-M "I -4 "
_symmetry_group_IT_number 82
_symmetry_cell_setting 'tetragonal'
loop_
_space_group_symop_operation_xyz
x,y,z
y,-x,-z
-x,-y,z
-y,x,-z
1/2+x,1/2+y,1/2+z
1/2+y,1/2-x,1/2-z
1/2-x,1/2-y,1/2+z
1/2-y,1/2+x,1/2-z
loop_
_atom_site_type_symbol
_atom_site_label
_atom_site_fract_x
_atom_site_fract_y
_atom_site_fract_z
Si Si1 0.858262 0.687466 0.902166
Si Si2 0.132902 0.064714 0.996255
Si Si3 0.062985 0.630858 0.732787
Si Si4 0.402043 0.099184 0.981439
Si Si5 0.242210 0.350953 0.371282
Si Si6 0.577340 0.124637 0.765172
Si Si7 0.435671 0.777825 0.383095
Si Si8 0.607212 0.896858 0.556531
O O1 0.850468 0.597646 0.853148
O O2 0.792726 0.758840 0.866737
O O3 0.958304 0.719853 0.889790
O O4 0.849686 0.668953 0.994208
O O5 0.192190 0.094276 0.069764
O O6 0.189700 0.086444 0.919117
O O7 0.039182 0.113142 0.996964
O O8 0.110339 0.540489 0.760692
O O9 0.087131 0.707598 0.793560
O O10 0.341393 0.159761 0.928214
O O11 0.503609 0.121626 0.973627
O O12 0.386995 0.999377 0.948389
O O13 0.362731 0.096720 0.067839
O O14 0.202090 0.390530 0.292081
O O15 0.470856 0.114018 0.763354
O O16 0.608535 0.136083 0.854198
#
# Coordination Sequence:
#
# PCOD9542618 Si02
#       8
#     8   8   8   8   8   8   8   8
#     4  10  20  32  48  73 106 130 172 217 252 298
#     4  10  20  35  53  71 102 144 176 208 256 311
#     4   9  17  32  51  74 103 137 169 210 266 316
#     4   9  16  29  52  74  97 130 167 199 257 318
#     4  11  20  33  48  76 109 129 168 222 248 304
#     4  11  19  33  53  77 105 137 168 206 267 324
#     4   9  17  31  50  73  99 133 172 211 254 304
#     4  10  17  32  52  72 100 138 163 203 259 326
#
# _framework density 16.179290999999999
#
# number of rings (size 3 to 8) (size 9 to 14) (size 15 to 20)
#    0.000    2.125    3.750    1.500    0.000    3.000 
#    6.750    0.000    0.000    0.000    0.000    0.000 
#    0.000    0.500    0.000    0.125    0.000    0.000 
#
# Total GULP energy -178281.789384 kJ/mol
# GULP energy per Si atom -5571.305918 kJ/mol
# Density = 1.614247 g / cm^3
# Si number density = 16.179291 Si / 1000 Ang^3
#
#
#
# Elastic Constant Matrix: (Units=GPa)
#
#
# Indices 1 2 3 4 5 6 
#
# 1 47.6730 13.9601 25.9433 0.0000 0.0000 -1.6748
# 2 13.9601 47.6730 25.9433 0.0000 0.0000 1.6748
# 3 25.9433 25.9433 111.2672 0.0000 0.0000 0.0000
# 4 0.0000 0.0000 0.0000 14.9927 0.0000 0.0000
# 5 0.0000 0.0000 0.0000 0.0000 14.9927 0.0000
# 6 -1.6748 1.6748 0.0000 0.0000 0.0000 15.2663
#
#
#
# Elastic Compliance Matrix: (Units=1/GPa)
#
#
# Indices 1 2 3 4 5 6 
#
# 1 0.025088 -0.004901 -0.004707 0.000000 0.000000 0.003290
# 2 -0.004901 0.025088 -0.004707 0.000000 0.000000 -0.003290
# 3 -0.004707 -0.004707 0.011182 0.000000 0.000000 0.000000
# 4 0.000000 0.000000 0.000000 0.066699 0.000000 0.000000
# 5 0.000000 0.000000 0.000000 0.000000 0.066699 0.000000
# 6 0.003290 -0.003290 0.000000 0.000000 0.000000 0.066226
#
#
# Mechanical properties :
#
#
# Convention : Reuss Voigt Hill
#
# Bulk Modulus (GPa) = 30.55326 37.58963 34.07145
# Shear Modulus (GPa) = 16.63770 18.43477 17.53623
#
# Velocity S-wave (km/s) = 3.21024 3.37917 3.29579
# Velocity P-wave (km/s) = 5.71542 6.20554 5.96551
#
# Compressibility (1/GPa) = 0.03272974
#
# Stress axis : x y z
#
# Youngs Moduli (GPa) = 39.85899 39.85899 89.42650
#
# Poissons Ratio (x) = 0.19534 0.42093
# Poissons Ratio (y) = 0.19534 0.42093
# Poissons Ratio (z) = 0.18762 0.18762
#
# Static dielectric constant tensor:
#      x y z
#    x 1.543810 0.000000 0.000000 
#    y 0.000000 1.543810 0.000000 
#    z 0.000000 0.000000 1.563150 
# 
# From -- ./inp_files/2725.got.cif
#   From: 2010.05.17/outbox.cif.g08.bks.cpg/sg82_2_cif.got.tgz:2725.got - 2010.06.03 18:52:26.
