data_PCOD9542484
_publ_section_title
;
Structure prediction by ZEFSAII (Michael W. Deem and Ramdas Pophale) SiO2 
 PCOD9542484
Probable space group: P -4
;
_chemical_formula_sum "Si O2"
_cell_formula_units_Z 22
_cell_length_a 7.758691
_cell_length_b 7.758691
_cell_length_c 14.563233
_cell_angle_alpha 90.000000
_cell_angle_beta 90.000000
_cell_angle_gamma 90.000000
_cell_volume 876.667102
_symmetry_space_group_name_H-M "P -4"
_symmetry_group_IT_number 81
_symmetry_cell_setting 'tetragonal'
loop_
_space_group_symop_operation_xyz
x,y,z
y,-x,-z
-x,-y,z
-y,x,-z
loop_
_atom_site_type_symbol
_atom_site_label
_atom_site_fract_x
_atom_site_fract_y
_atom_site_fract_z
Si Si1 0.581503 0.697307 0.719715
Si Si2 0.403384 0.173858 0.200585
Si Si3 0.726719 0.762818 0.389206
Si Si4 0.000000 0.500000 0.136975
Si Si5 0.367437 0.245749 0.006885
Si Si6 0.674221 0.911238 0.573415
O O1 0.674256 0.541795 0.774265
O O2 0.429360 0.670724 0.643370
O O3 0.726761 0.779473 0.652813
O O4 0.501581 0.835718 0.791895
O O5 0.297418 0.141848 0.293273
O O6 0.297243 0.211424 0.108679
O O7 0.500000 0.000000 0.178293
O O8 0.622742 0.829375 0.476442
O O9 0.918759 0.788571 0.428937
O O10 0.912726 0.362893 0.064324
O O11 0.285100 0.427510 0.977651
O O12 0.500000 0.000000 0.610652
#
# Coordination Sequence:
#
# PCOD9542484 Si02
#       6
#     4   4   4   2   4   4
#     4  11  24  45  70  99 140 190 236 304 368 441
#     4  12  26  44  68 108 141 187 244 307 370 441
#     4  11  24  44  69  97 139 179 241 294 364 444
#     4  12  20  46  70 100 148 188 242 310 378 446
#     4  11  24  40  73 104 139 186 244 303 366 446
#     4  10  24  44  65 100 134 183 231 299 362 441
#
# _framework density 25.095044000000001
#
# number of rings (size 3 to 8) (size 9 to 14) (size 15 to 20)
#    0.000    0.909    5.455    2.182   10.182    0.364 
#    0.000    0.000    0.000    2.727    0.000    0.000 
#    0.000    0.000    0.000    0.000    0.000    0.000 
#
# Total GULP energy -122484.196649 kJ/mol
# GULP energy per Si atom -5567.463484 kJ/mol
# Density = 2.503793 g / cm^3
# Si number density = 25.095044 Si / 1000 Ang^3
#
#
#
# Elastic Constant Matrix: (Units=GPa)
#
#
# Indices 1 2 3 4 5 6 
#
# 1 84.8227 3.9048 30.6902 0.0000 0.0000 0.0663
# 2 3.9048 84.8227 30.6902 0.0000 0.0000 -0.0663
# 3 30.6902 30.6902 207.7478 0.0000 0.0000 0.0000
# 4 0.0000 0.0000 0.0000 37.7996 0.0000 0.0000
# 5 0.0000 0.0000 0.0000 0.0000 37.7996 0.0000
# 6 0.0663 -0.0663 0.0000 0.0000 0.0000 15.6623
#
#
#
# Elastic Compliance Matrix: (Units=1/GPa)
#
#
# Indices 1 2 3 4 5 6 
#
# 1 0.012456 0.000098 -0.001854 0.000000 0.000000 -0.000052
# 2 0.000098 0.012456 -0.001854 0.000000 0.000000 0.000052
# 3 -0.001854 -0.001854 0.005361 0.000000 0.000000 0.000000
# 4 0.000000 0.000000 0.000000 0.026455 0.000000 0.000000
# 5 0.000000 0.000000 0.000000 0.000000 0.026455 0.000000
# 6 -0.000052 0.000052 0.000000 0.000000 0.000000 0.063848
#
#
# Mechanical properties :
#
#
# Convention : Reuss Voigt Hill
#
# Bulk Modulus (GPa) = 43.38349 56.44040 49.91194
# Shear Modulus (GPa) = 30.87604 39.05949 34.96777
#
# Velocity S-wave (km/s) = 3.51146 3.94948 3.73689
# Velocity P-wave (km/s) = 5.81082 6.58311 6.20899
#
# Compressibility (1/GPa) = 0.02305025
#
# Stress axis : x y z
#
# Youngs Moduli (GPa) = 80.28369 80.28369 186.51672
#
# Poissons Ratio (x) = -0.00783 0.34589
# Poissons Ratio (y) = -0.00783 0.34589
# Poissons Ratio (z) = 0.14889 0.14889
#
# Static dielectric constant tensor:
#      x y z
#    x 2.288470 0.000000 0.000000 
#    y 0.000000 2.288470 0.000000 
#    z 0.000000 0.000000 2.026270 
# 
# From -- ./inp_files/1621.got.cif
#   From: 2010.05.17/outbox.cif.g08.bks.cpg/sg81_cif.got.tgz:1621.got - 2010.06.03 18:51:07.
