data_PCOD9542868
_publ_section_title
;
Structure prediction by ZEFSAII (Michael W. Deem and Ramdas Pophale) SiO2 
 PCOD9542868
Probable space group: I -4 
;
_chemical_formula_sum "Si O2"
_cell_formula_units_Z 40
_cell_length_a 8.850747
_cell_length_b 8.850747
_cell_length_c 24.397903
_cell_angle_alpha 90.000000
_cell_angle_beta 90.000000
_cell_angle_gamma 90.000000
_cell_volume 1911.227358
_symmetry_space_group_name_H-M "I -4 "
_symmetry_group_IT_number 82
_symmetry_cell_setting 'tetragonal'
loop_
_space_group_symop_operation_xyz
x,y,z
y,-x,-z
-x,-y,z
-y,x,-z
1/2+x,1/2+y,1/2+z
1/2+y,1/2-x,1/2-z
1/2-x,1/2-y,1/2+z
1/2-y,1/2+x,1/2-z
loop_
_atom_site_type_symbol
_atom_site_label
_atom_site_fract_x
_atom_site_fract_y
_atom_site_fract_z
Si Si1 0.355938 0.579532 0.715666
Si Si2 0.690790 0.689905 0.080689
Si Si3 0.588514 0.838508 0.968167
Si Si4 0.882746 0.639727 0.682633
Si Si5 0.019313 0.822496 0.107523
O O1 0.500000 0.500000 0.742966
O O2 0.274060 0.450157 0.680039
O O3 0.236231 0.625183 0.761433
O O4 0.416594 0.694803 0.669799
O O5 0.716405 0.516955 0.063001
O O6 0.594142 0.744398 0.132944
O O7 0.859981 0.742285 0.096925
O O8 0.629961 0.778385 0.027953
O O9 0.740329 0.866189 0.933703
O O10 0.500000 0.000000 0.972318
O O11 0.000000 0.500000 0.682876
O O12 0.000000 0.000000 0.095262
#
# Coordination Sequence:
#
# PCOD9542868 Si02
#       5
#     8   8   8   8   8
#     4  11  22  42  68 104 132 177 242 284 351 427
#     4  11  24  45  65 100 144 183 232 295 363 431
#     4  10  25  43  67 106 141 181 239 299 365 431
#     4  12  23  44  71 101 140 187 236 295 356 435
#     4  10  22  40  73  99 134 180 239 289 352 439
#
# _framework density 20.928957
#
# number of rings (size 3 to 8) (size 9 to 14) (size 15 to 20)
#    0.000    1.200    6.000    0.600    5.600    3.600 
#    3.600    0.000    0.000    0.000    0.000    0.000 
#    0.000    0.000    0.000    0.000    0.000    0.000 
#
# Total GULP energy -111530.525872 kJ/mol
# GULP energy per Si atom -5576.526294 kJ/mol
# Density = 2.088132 g / cm^3
# Si number density = 20.928957 Si / 1000 Ang^3
#
#
#
# Elastic Constant Matrix: (Units=GPa)
#
#
# Indices 1 2 3 4 5 6 
#
# 1 81.2252 14.5691 38.3380 0.0000 0.0000 10.3314
# 2 14.5691 81.2252 38.3380 0.0000 0.0000 -10.3314
# 3 38.3380 38.3380 143.2116 0.0000 0.0000 0.0000
# 4 0.0000 0.0000 0.0000 26.9881 0.0000 0.0000
# 5 0.0000 0.0000 0.0000 0.0000 26.9881 0.0000
# 6 10.3314 -10.3314 0.0000 0.0000 0.0000 23.7580
#
#
#
# Elastic Compliance Matrix: (Units=1/GPa)
#
#
# Indices 1 2 3 4 5 6 
#
# 1 0.015313 -0.002027 -0.003557 0.000000 0.000000 -0.007540
# 2 -0.002027 0.015313 -0.003557 0.000000 0.000000 0.007540
# 3 -0.003557 -0.003557 0.008887 0.000000 0.000000 0.000000
# 4 0.000000 0.000000 0.000000 0.037053 0.000000 0.000000
# 5 0.000000 0.000000 0.000000 0.000000 0.037053 0.000000
# 6 -0.007540 0.007540 0.000000 0.000000 0.000000 0.048649
#
#
# Mechanical properties :
#
#
# Convention : Reuss Voigt Hill
#
# Bulk Modulus (GPa) = 47.09863 54.23913 50.66888
# Shear Modulus (GPa) = 26.64872 29.84131 28.24501
#
# Velocity S-wave (km/s) = 3.57220 3.78012 3.67763
# Velocity P-wave (km/s) = 6.29023 6.71003 6.50352
#
# Compressibility (1/GPa) = 0.02123204
#
# Stress axis : x y z
#
# Youngs Moduli (GPa) = 65.30469 65.30469 112.52498
#
# Poissons Ratio (x) = 0.13237 0.40021
# Poissons Ratio (y) = 0.13237 0.40021
# Poissons Ratio (z) = 0.23227 0.23227
#
# Static dielectric constant tensor:
#      x y z
#    x 1.813450 0.000000 0.000000 
#    y 0.000000 1.813450 0.000000 
#    z 0.000000 0.000000 1.767930 
# 
# From -- ./inp_files/3336.got.cif
#   From: 2010.05.17/outbox.cif.g08.bks.cpg/sg82_2_cif.got.tgz:3336.got - 2010.06.03 18:52:26.
