data_PCOD9542499
_publ_section_title
;
Structure prediction by ZEFSAII (Michael W. Deem and Ramdas Pophale) SiO2 
 PCOD9542499
Probable space group: P -4
;
_chemical_formula_sum "Si O2"
_cell_formula_units_Z 15
_cell_length_a 9.510901
_cell_length_b 9.510901
_cell_length_c 8.174215
_cell_angle_alpha 90.000000
_cell_angle_beta 90.000000
_cell_angle_gamma 90.000000
_cell_volume 739.416910
_symmetry_space_group_name_H-M "P -4"
_symmetry_group_IT_number 81
_symmetry_cell_setting 'tetragonal'
loop_
_space_group_symop_operation_xyz
x,y,z
y,-x,-z
-x,-y,z
-y,x,-z
loop_
_atom_site_type_symbol
_atom_site_label
_atom_site_fract_x
_atom_site_fract_y
_atom_site_fract_z
Si Si1 0.355021 0.927644 0.184494
Si Si2 0.907195 0.183741 0.572565
Si Si3 0.000000 0.500000 0.132927
Si Si4 0.635571 0.746487 0.666026
Si Si5 0.500000 0.500000 0.500000
O O1 0.324940 0.768492 0.240881
O O2 0.500000 0.000000 0.252538
O O3 0.229675 0.021281 0.259524
O O4 0.380695 0.940181 0.991201
O O5 0.805092 0.300470 0.502834
O O6 0.034011 0.168596 0.439204
O O7 0.874174 0.433800 0.236081
O O8 0.521737 0.632480 0.616566
#
# Coordination Sequence:
#
# PCOD9542499 Si02
#       5
#     4   4   2   4   1
#     4   9  21  43  63  94 135 177 221 289 342 413
#     4   9  19  36  66  94 121 165 223 283 329 394
#     4  10  26  38  66  98 138 184 212 296 346 424
#     4  11  24  42  66 100 130 186 231 281 344 406
#     4  12  28  40  70 104 136 192 238 288 328 424
#
# _framework density 20.286256000000002
#
# number of rings (size 3 to 8) (size 9 to 14) (size 15 to 20)
#    0.800    1.333    0.000    1.600    9.333    4.267 
#    0.000    0.000    0.000    0.000    0.000    0.000 
#    0.000    0.000    0.000    0.000    0.000    0.000 
#
# Total GULP energy -83621.600434 kJ/mol
# GULP energy per Si atom -5574.773362 kJ/mol
# Density = 2.024008 g / cm^3
# Si number density = 20.286256 Si / 1000 Ang^3
#
#
#
# Elastic Constant Matrix: (Units=GPa)
#
#
# Indices 1 2 3 4 5 6 
#
# 1 86.9364 57.7757 38.8907 0.0000 0.0000 -0.7444
# 2 57.7757 86.9364 38.8907 0.0000 0.0000 0.7444
# 3 38.8907 38.8907 50.7258 0.0000 0.0000 0.0000
# 4 0.0000 0.0000 0.0000 22.5147 0.0000 0.0000
# 5 0.0000 0.0000 0.0000 0.0000 22.5147 0.0000
# 6 -0.7444 0.7444 0.0000 0.0000 0.0000 48.8241
#
#
#
# Elastic Compliance Matrix: (Units=1/GPa)
#
#
# Indices 1 2 3 4 5 6 
#
# 1 0.023037 -0.011283 -0.009012 0.000000 0.000000 0.000523
# 2 -0.011283 0.023037 -0.009012 0.000000 0.000000 -0.000523
# 3 -0.009012 -0.009012 0.033532 0.000000 0.000000 0.000000
# 4 0.000000 0.000000 0.000000 0.044415 0.000000 0.000000
# 5 0.000000 0.000000 0.000000 0.000000 0.044415 0.000000
# 6 0.000523 -0.000523 0.000000 0.000000 0.000000 0.020498
#
#
# Mechanical properties :
#
#
# Convention : Reuss Voigt Hill
#
# Bulk Modulus (GPa) = 47.63381 55.07922 51.35651
# Shear Modulus (GPa) = 19.64302 24.70679 22.17491
#
# Velocity S-wave (km/s) = 3.11512 3.49364 3.30979
# Velocity P-wave (km/s) = 6.03907 6.59424 6.32275
#
# Compressibility (1/GPa) = 0.02099349
#
# Stress axis : x y z
#
# Youngs Moduli (GPa) = 43.40905 43.40905 29.82236
#
# Poissons Ratio (x) = 0.48977 0.26875
# Poissons Ratio (y) = 0.48977 0.26875
# Poissons Ratio (z) = 0.39118 0.39118
#
# Static dielectric constant tensor:
#      x y z
#    x 1.764370 0.000000 0.000000 
#    y 0.000000 1.764370 0.000000 
#    z 0.000000 0.000000 1.706630 
# 
# From -- ./inp_files/646.got.cif
#   From: 2010.05.17/outbox.cif.g08.bks.cpg/sg81_cif.got.tgz:646.got - 2010.06.03 18:51:07.
