data_PCOD9542511
_publ_section_title
;
Structure prediction by ZEFSAII (Michael W. Deem and Ramdas Pophale) SiO2 
 PCOD9542511
Probable space group: P -4
;
_chemical_formula_sum "Si O2"
_cell_formula_units_Z 16
_cell_length_a 9.457821
_cell_length_b 9.457821
_cell_length_c 7.503039
_cell_angle_alpha 90.000000
_cell_angle_beta 90.000000
_cell_angle_gamma 90.000000
_cell_volume 671.149675
_symmetry_space_group_name_H-M "P -4"
_symmetry_group_IT_number 81
_symmetry_cell_setting 'tetragonal'
loop_
_space_group_symop_operation_xyz
x,y,z
y,-x,-z
-x,-y,z
-y,x,-z
loop_
_atom_site_type_symbol
_atom_site_label
_atom_site_fract_x
_atom_site_fract_y
_atom_site_fract_z
Si Si1 0.722436 0.406796 0.229809
Si Si2 0.500000 0.000000 0.574740
Si Si3 0.500000 0.500000 0.000000
Si Si4 0.971095 0.200782 0.579142
Si Si5 0.853634 0.180986 0.962597
Si Si6 0.500000 0.500000 0.500000
O O1 0.863131 0.471902 0.307673
O O2 0.639711 0.521402 0.112196
O O3 0.603178 0.394986 0.386173
O O4 0.765423 0.279710 0.097139
O O5 0.359127 0.986209 0.460490
O O6 0.889022 0.117709 0.418717
O O7 0.867614 0.204380 0.749114
O O8 0.019062 0.193195 0.015757
#
# Coordination Sequence:
#
# PCOD9542511 Si02
#       6
#     4   2   1   4   4   1
#     4  11  27  49  78 109 159 207 260 320 394 480
#     4  12  28  44  78 112 144 208 260 310 394 476
#     4  10  28  50  72 106 160 202 252 326 384 466
#     4  11  25  48  74 110 157 199 249 325 396 459
#     4  11  24  46  79 117 155 200 262 335 395 458
#     4  10  28  54  80 110 168 210 256 326 406 460
#
# _framework density 23.839687999999999
#
# number of rings (size 3 to 8) (size 9 to 14) (size 15 to 20)
#    0.000    1.000    0.000    6.000   14.000    3.000 
#    0.000    0.000    0.000    0.000    0.000    0.000 
#    0.000    0.000    0.000    0.000    0.000    0.000 
#
# Total GULP energy -89307.108015 kJ/mol
# GULP energy per Si atom -5581.694251 kJ/mol
# Density = 2.378543 g / cm^3
# Si number density = 23.839688 Si / 1000 Ang^3
#
#
#
# Elastic Constant Matrix: (Units=GPa)
#
#
# Indices 1 2 3 4 5 6 
#
# 1 114.3720 31.3494 38.0839 0.0000 0.0000 3.0973
# 2 31.3494 114.3720 38.0839 0.0000 0.0000 -3.0973
# 3 38.0839 38.0839 106.6884 0.0000 0.0000 0.0000
# 4 0.0000 0.0000 0.0000 -6.9814 0.0000 0.0000
# 5 0.0000 0.0000 0.0000 0.0000 -6.9814 0.0000
# 6 3.0973 -3.0973 0.0000 0.0000 0.0000 24.7605
#
#
#
# Elastic Compliance Matrix: (Units=1/GPa)
#
#
# Indices 1 2 3 4 5 6 
#
# 1 0.010297 -0.001861 -0.003012 0.000000 0.000000 -0.001521
# 2 -0.001861 0.010297 -0.003012 0.000000 0.000000 0.001521
# 3 -0.003012 -0.003012 0.011523 0.000000 0.000000 0.000000
# 4 0.000000 0.000000 0.000000 -0.143238 0.000000 0.000000
# 5 0.000000 0.000000 0.000000 0.000000 -0.143238 0.000000
# 6 -0.001521 0.001521 0.000000 0.000000 0.000000 0.040767
#
#
# Mechanical properties :
#
#
# Convention : Reuss Voigt Hill
#
# Bulk Modulus (GPa) = 61.16201 61.16297 61.16249
# Shear Modulus (GPa) = -25.99117 17.35391 -4.31863
#
# Velocity S-wave (km/s) = -3.30547 2.70097 -1.34739
# Velocity P-wave (km/s) = 3.33812 5.95303 4.82606
#
# Compressibility (1/GPa) = 0.01635002
#
# Stress axis : x y z
#
# Youngs Moduli (GPa) = 97.11141 97.11141 86.78220
#
# Poissons Ratio (x) = 0.18072 0.26135
# Poissons Ratio (y) = 0.18072 0.26135
# Poissons Ratio (z) = 0.29245 0.29245
#
# Static dielectric constant tensor:
#      x y z
#    x 1.923060 0.000000 0.000000 
#    y 0.000000 1.923060 0.000000 
#    z 0.000000 0.000000 2.046100 
# 
# From -- ./inp_files/648.got.cif
#   From: 2010.05.17/outbox.cif.g08.bks.cpg/sg81_cif.got.tgz:648.got - 2010.06.03 18:51:07.
