data_PCOD9542817
_publ_section_title
;
Structure prediction by ZEFSAII (Michael W. Deem and Ramdas Pophale) SiO2 
 PCOD9542817
Probable space group: I -4 
;
_chemical_formula_sum "Si O2"
_cell_formula_units_Z 40
_cell_length_a 14.325590
_cell_length_b 14.325590
_cell_length_c 8.767961
_cell_angle_alpha 90.000000
_cell_angle_beta 90.000000
_cell_angle_gamma 90.000000
_cell_volume 1799.383129
_symmetry_space_group_name_H-M "I -4 "
_symmetry_group_IT_number 82
_symmetry_cell_setting 'tetragonal'
loop_
_space_group_symop_operation_xyz
x,y,z
y,-x,-z
-x,-y,z
-y,x,-z
1/2+x,1/2+y,1/2+z
1/2+y,1/2-x,1/2-z
1/2-x,1/2-y,1/2+z
1/2-y,1/2+x,1/2-z
loop_
_atom_site_type_symbol
_atom_site_label
_atom_site_fract_x
_atom_site_fract_y
_atom_site_fract_z
Si Si1 0.279004 0.112605 0.772678
Si Si2 0.793814 0.347847 0.763828
Si Si3 0.564692 0.763702 0.910739
Si Si4 0.886788 0.152264 0.780857
Si Si5 0.721114 0.465894 0.529585
O O1 0.203446 0.193842 0.754683
O O2 0.375778 0.165961 0.802915
O O3 0.275956 0.043033 0.629968
O O4 0.254716 0.048237 0.918485
O O5 0.864675 0.261844 0.764792
O O6 0.803531 0.415112 0.619750
O O7 0.789684 0.405010 0.919849
O O8 0.599140 0.658866 0.863121
O O9 0.992893 0.151544 0.839820
O O10 0.830220 0.107398 0.921482
#
# Coordination Sequence:
#
# PCOD9542817 Si02
#       5
#     8   8   8   8   8
#     4  10  22  42  62  93 125 174 208 269 326 374
#     4  11  21  40  64  90 124 168 214 253 322 387
#     4  10  22  39  64  89 128 164 216 262 321 382
#     4  10  21  39  64  91 123 165 204 265 318 382
#     4  11  20  40  65  93 127 166 215 257 331 381
#
# _framework density 22.229841
#
# number of rings (size 3 to 8) (size 9 to 14) (size 15 to 20)
#    0.000    1.600    4.000    1.200    2.800    0.800 
#    0.000    0.000    0.000    0.600    0.000    0.000 
#    0.000    0.000    0.000    0.000    0.000    0.000 
#
# Total GULP energy -111720.102329 kJ/mol
# GULP energy per Si atom -5586.005116 kJ/mol
# Density = 2.217924 g / cm^3
# Si number density = 22.229841 Si / 1000 Ang^3
#
#
#
# Elastic Constant Matrix: (Units=GPa)
#
#
# Indices 1 2 3 4 5 6 
#
# 1 56.4945 -6.1413 7.0348 0.0000 0.0000 -4.9761
# 2 -6.1413 56.4945 7.0348 0.0000 0.0000 4.9761
# 3 7.0348 7.0348 43.3863 0.0000 0.0000 0.0000
# 4 0.0000 0.0000 0.0000 34.5329 0.0000 0.0000
# 5 0.0000 0.0000 0.0000 0.0000 34.5329 0.0000
# 6 -4.9761 4.9761 0.0000 0.0000 0.0000 -1.1798
#
#
#
# Elastic Compliance Matrix: (Units=1/GPa)
#
#
# Indices 1 2 3 4 5 6 
#
# 1 0.015181 0.005622 -0.003373 0.000000 0.000000 -0.040319
# 2 0.005622 0.015181 -0.003373 0.000000 0.000000 0.040319
# 3 -0.003373 -0.003373 0.024143 0.000000 0.000000 0.000000
# 4 0.000000 0.000000 0.000000 0.028958 0.000000 0.000000
# 5 0.000000 0.000000 0.000000 0.000000 0.028958 0.000000
# 6 -0.040319 0.040319 0.000000 0.000000 0.000000 -0.507513
#
#
# Mechanical properties :
#
#
# Convention : Reuss Voigt Hill
#
# Bulk Modulus (GPa) = 19.13686 19.13687 19.13687
# Shear Modulus (GPa) = -13.31819 23.47366 5.07773
#
# Velocity S-wave (km/s) = -2.45033 3.25307 1.51300
# Velocity P-wave (km/s) = 0.78855 4.76836 3.41753
#
# Compressibility (1/GPa) = 0.05225517
#
# Stress axis : x y z
#
# Youngs Moduli (GPa) = 65.87338 65.87338 41.42059
#
# Poissons Ratio (x) = -0.37031 0.13971
# Poissons Ratio (y) = -0.37031 0.13971
# Poissons Ratio (z) = 0.22219 0.22219
#
# Static dielectric constant tensor:
#      x y z
#    x 1.840640 0.000000 0.000000 
#    y 0.000000 1.840640 0.000000 
#    z 0.000000 0.000000 1.873620 
# 
# From -- ./inp_files/961.got.cif
#   From: 2010.05.17/outbox.cif.g08.bks.cpg/sg82_1_cif.got.tgz:961.got - 2010.06.03 18:52:26.
