data_PCOD9542403
_publ_section_title
;
Structure prediction by ZEFSAII (Michael W. Deem and Ramdas Pophale) SiO2 
 PCOD9542403
Probable space group: P -4
;
_chemical_formula_sum "Si O2"
_cell_formula_units_Z 17
_cell_length_a 12.426038
_cell_length_b 12.426038
_cell_length_c 4.974624
_cell_angle_alpha 90.000000
_cell_angle_beta 90.000000
_cell_angle_gamma 90.000000
_cell_volume 768.113885
_symmetry_space_group_name_H-M "P -4"
_symmetry_group_IT_number 81
_symmetry_cell_setting 'tetragonal'
loop_
_space_group_symop_operation_xyz
x,y,z
y,-x,-z
-x,-y,z
-y,x,-z
loop_
_atom_site_type_symbol
_atom_site_label
_atom_site_fract_x
_atom_site_fract_y
_atom_site_fract_z
Si Si1 0.792413 0.248074 0.619138
Si Si2 0.962388 0.704923 0.532643
Si Si3 0.500000 0.500000 0.000000
Si Si4 0.351009 0.690062 0.121749
Si Si5 0.909113 0.582994 0.028964
O O1 0.793715 0.117402 0.593740
O O2 0.744159 0.293962 0.898284
O O3 0.910186 0.284474 0.530688
O O4 0.704775 0.285906 0.402933
O O5 0.926775 0.605567 0.342473
O O6 0.933418 0.686838 0.843743
O O7 0.579208 0.584485 0.855547
O O8 0.436079 0.784777 0.039569
O O9 0.000000 0.500000 0.941724
#
# Coordination Sequence:
#
# PCOD9542403 Si02
#       5
#     4   4   1   4   4
#     4  10  22  42  62  96 124 162 204 256 300 380
#     4  10  21  37  64  88 126 156 200 252 308 358
#     4  12  28  46  64  90 128 174 196 274 312 370
#     4  10  25  41  61  91 126 160 214 248 318 367
#     4  10  21  39  62  89 112 165 209 255 303 363
#
# _framework density 22.132137
#
# number of rings (size 3 to 8) (size 9 to 14) (size 15 to 20)
#    0.000    1.882    0.000    2.118    6.588    3.294 
#    0.000    0.000    0.000    8.471    0.000    0.000 
#    0.000    0.000    0.000    0.000    0.000    0.000 
#
# Total GULP energy -94718.376735 kJ/mol
# GULP energy per Si atom -5571.669220 kJ/mol
# Density = 2.208176 g / cm^3
# Si number density = 22.132137 Si / 1000 Ang^3
#
#
#
# Elastic Constant Matrix: (Units=GPa)
#
#
# Indices 1 2 3 4 5 6 
#
# 1 84.8776 24.4331 2.8125 0.0000 0.0000 10.8461
# 2 24.4331 84.8776 2.8125 0.0000 0.0000 -10.8461
# 3 2.8125 2.8125 96.7549 0.0000 0.0000 0.0000
# 4 0.0000 0.0000 0.0000 6.2743 0.0000 0.0000
# 5 0.0000 0.0000 0.0000 0.0000 6.2743 0.0000
# 6 10.8461 -10.8461 0.0000 0.0000 0.0000 17.0702
#
#
#
# Elastic Compliance Matrix: (Units=1/GPa)
#
#
# Indices 1 2 3 4 5 6 
#
# 1 0.015296 -0.006134 -0.000266 0.000000 0.000000 -0.013617
# 2 -0.006134 0.015296 -0.000266 0.000000 0.000000 0.013617
# 3 -0.000266 -0.000266 0.010351 0.000000 0.000000 0.000000
# 4 0.000000 0.000000 0.000000 0.159381 0.000000 0.000000
# 5 0.000000 0.000000 0.000000 0.000000 0.159381 0.000000
# 6 -0.013617 0.013617 0.000000 0.000000 0.000000 0.075886
#
#
# Mechanical properties :
#
#
# Convention : Reuss Voigt Hill
#
# Bulk Modulus (GPa) = 36.21944 36.29179 36.25561
# Shear Modulus (GPa) = 10.91397 21.68721 16.30059
#
# Velocity S-wave (km/s) = 2.22306 3.13373 2.71682
# Velocity P-wave (km/s) = 4.79478 5.43388 5.12430
#
# Compressibility (1/GPa) = 0.02760948
#
# Stress axis : x y z
#
# Youngs Moduli (GPa) = 65.37476 65.37476 96.61017
#
# Poissons Ratio (x) = 0.40104 0.02573
# Poissons Ratio (y) = 0.40104 0.02573
# Poissons Ratio (z) = 0.01741 0.01741
#
# Static dielectric constant tensor:
#      x y z
#    x 1.885170 0.000000 0.000000 
#    y 0.000000 1.885170 0.000000 
#    z 0.000000 0.000000 1.779530 
# 
# From -- ./inp_files/108.got.cif
#   From: 2010.05.17/outbox.cif.g08.bks.cpg/sg81_cif.got.tgz:108.got - 2010.06.03 18:51:07.
