data_PCOD9542891
_publ_section_title
;
Structure prediction by ZEFSAII (Michael W. Deem and Ramdas Pophale) SiO2 
 PCOD9542891
Probable space group: I -4 
;
_chemical_formula_sum "Si O2"
_cell_formula_units_Z 48
_cell_length_a 8.493070
_cell_length_b 8.493070
_cell_length_c 26.413124
_cell_angle_alpha 90.000000
_cell_angle_beta 90.000000
_cell_angle_gamma 90.000000
_cell_volume 1905.237747
_symmetry_space_group_name_H-M "I -4 "
_symmetry_group_IT_number 82
_symmetry_cell_setting 'tetragonal'
loop_
_space_group_symop_operation_xyz
x,y,z
y,-x,-z
-x,-y,z
-y,x,-z
1/2+x,1/2+y,1/2+z
1/2+y,1/2-x,1/2-z
1/2-x,1/2-y,1/2+z
1/2-y,1/2+x,1/2-z
loop_
_atom_site_type_symbol
_atom_site_label
_atom_site_fract_x
_atom_site_fract_y
_atom_site_fract_z
Si Si1 0.206049 0.229816 0.299000
Si Si2 0.777254 0.387110 0.937609
Si Si3 0.561306 0.663673 0.700604
Si Si4 0.392162 0.715329 0.522687
Si Si5 0.327335 0.068287 0.625967
Si Si6 0.116486 0.300390 0.893473
O O1 0.242168 0.406785 0.280417
O O2 0.165226 0.129177 0.250140
O O3 0.351168 0.180577 0.334417
O O4 0.061757 0.244635 0.338428
O O5 0.629825 0.288690 0.917572
O O6 0.779310 0.567355 0.921515
O O7 0.936640 0.322679 0.909614
O O8 0.818046 0.367132 0.996689
O O9 0.500000 0.500000 0.677884
O O10 0.641980 0.779541 0.661322
O O11 0.573008 0.694345 0.507913
O O12 0.359353 0.681636 0.581158
O O13 0.500000 0.000000 0.610184
#
# Coordination Sequence:
#
# PCOD9542891 Si02
#       6
#     8   8   8   8   8   8
#     4  11  23  40  61  92 129 163 221 261 329 383
#     4  10  22  43  62  97 135 166 221 268 325 393
#     4  11  23  40  64  92 127 171 211 274 322 391
#     4   9  20  39  64  93 127 171 220 257 312 392
#     4  10  23  39  62  93 125 171 215 268 316 388
#     4  10  23  40  65  94 132 175 208 275 330 387
#
# _framework density 25.193705999999999
#
# number of rings (size 3 to 8) (size 9 to 14) (size 15 to 20)
#    0.000    1.833    1.667    1.000    7.000    1.333 
#    3.000    0.000    0.000    2.000    0.000    0.000 
#    0.000    0.000    0.000    0.000    0.000    0.000 
#
# Total GULP energy -134320.129150 kJ/mol
# GULP energy per Si atom -5596.672048 kJ/mol
# Density = 2.513636 g / cm^3
# Si number density = 25.193706 Si / 1000 Ang^3
#
#
#
# Elastic Constant Matrix: (Units=GPa)
#
#
# Indices 1 2 3 4 5 6 
#
# 1 79.5632 -1.2661 25.9495 0.0000 0.0000 -7.7578
# 2 -1.2661 79.5632 25.9495 0.0000 0.0000 7.7578
# 3 25.9495 25.9495 79.7472 0.0000 0.0000 0.0000
# 4 0.0000 0.0000 0.0000 37.5996 0.0000 0.0000
# 5 0.0000 0.0000 0.0000 0.0000 37.5996 0.0000
# 6 -7.7578 7.7578 0.0000 0.0000 0.0000 36.9243
#
#
#
# Elastic Compliance Matrix: (Units=1/GPa)
#
#
# Indices 1 2 3 4 5 6 
#
# 1 0.014588 0.001696 -0.005299 0.000000 0.000000 0.002709
# 2 0.001696 0.014588 -0.005299 0.000000 0.000000 -0.002709
# 3 -0.005299 -0.005299 0.015988 0.000000 0.000000 0.000000
# 4 0.000000 0.000000 0.000000 0.026596 0.000000 0.000000
# 5 0.000000 0.000000 0.000000 0.000000 0.026596 0.000000
# 6 0.002709 -0.002709 0.000000 0.000000 0.000000 0.028221
#
#
# Mechanical properties :
#
#
# Convention : Reuss Voigt Hill
#
# Bulk Modulus (GPa) = 36.54821 37.79327 37.17074
# Shear Modulus (GPa) = 32.57336 34.97407 33.77372
#
# Velocity S-wave (km/s) = 3.59962 3.72991 3.66534
# Velocity P-wave (km/s) = 5.64045 5.79511 5.71830
#
# Compressibility (1/GPa) = 0.02736112
#
# Stress axis : x y z
#
# Youngs Moduli (GPa) = 68.54991 68.54991 62.54675
#
# Poissons Ratio (x) = -0.11628 0.33142
# Poissons Ratio (y) = -0.11628 0.33142
# Poissons Ratio (z) = 0.36323 0.36323
#
# Static dielectric constant tensor:
#      x y z
#    x 2.003230 0.000000 0.000000 
#    y 0.000000 2.003230 0.000000 
#    z 0.000000 0.000000 1.956730 
# 
# From -- ./inp_files/4039.got.cif
#   From: 2010.05.17/outbox.cif.g08.bks.cpg/sg82_3_cif.got.tgz:4039.got - 2010.06.03 18:52:26.
