data_PCOD9542032
_publ_section_title
;
Structure prediction by ZEFSAII (Michael W. Deem and Ramdas Pophale) SiO2 
 PCOD9542032
Probable space group: I 4
;
_chemical_formula_sum "Si O2"
_cell_formula_units_Z 42
_cell_length_a 8.421976
_cell_length_b 8.421976
_cell_length_c 24.685431
_cell_angle_alpha 90.000000
_cell_angle_beta 90.000000
_cell_angle_gamma 90.000000
_cell_volume 1750.929715
_symmetry_space_group_name_H-M "I 4"
_symmetry_group_IT_number 79
_symmetry_cell_setting 'tetragonal'
loop_
_space_group_symop_operation_xyz
x,y,z
-y,x,z
-x,-y,z
y,-x,z
1/2+x,1/2+y,1/2+z
1/2-y,1/2+x,1/2+z
1/2-x,1/2-y,1/2+z
1/2+y,1/2-x,1/2+z
loop_
_atom_site_type_symbol
_atom_site_label
_atom_site_fract_x
_atom_site_fract_y
_atom_site_fract_z
Si Si1 0.387756 0.733984 0.769800
Si Si2 0.698727 0.334150 0.174242
Si Si3 0.744601 0.925336 0.458787
Si Si4 0.500000 0.500000 0.575148
Si Si5 0.579938 0.753001 0.363981
Si Si6 0.611083 0.854553 0.576883
O O1 0.296854 0.570353 0.783121
O O2 0.343107 0.755315 0.706727
O O3 0.325190 0.877583 0.805725
O O4 0.712058 0.518655 0.190306
O O5 0.683183 0.267818 0.113162
O O6 0.629359 0.874173 0.410614
O O7 0.665023 0.901599 0.516904
O O8 0.897303 0.810393 0.454500
O O9 0.510019 0.694898 0.574501
O O10 0.402379 0.691187 0.369317
O O11 0.500000 0.000000 0.598924
#
# Coordination Sequence:
#
# PCOD9542032 Si02
#       6
#     8   8   8   2   8   8
#     4  11  26  45  70 103 142 189 248 311 379 459
#     4  11  25  45  71 104 146 192 247 308 380 457
#     4  11  25  45  71 104 146 192 247 308 380 457
#     4  12  28  44  76 104 148 188 260 300 364 474
#     4  11  26  45  70 103 142 189 248 311 379 459
#     4  12  28  47  74 111 152 199 251 318 390 450
#
# _framework density 23.987254
#
# number of rings (size 3 to 8) (size 9 to 14) (size 15 to 20)
#    0.000    0.762    0.000    5.714   10.667    8.381 
#    0.000    0.000    0.000    0.000    0.000    0.000 
#    0.000    0.000    0.000    0.000    0.000    0.000 
#
# Total GULP energy -117276.560061 kJ/mol
# GULP energy per Si atom -5584.598098 kJ/mol
# Density = 2.393266 g / cm^3
# Si number density = 23.987254 Si / 1000 Ang^3
#
#
#
# Elastic Constant Matrix: (Units=GPa)
#
#
# Indices 1 2 3 4 5 6 
#
# 1 73.7307 26.2636 1.0243 0.0000 0.0000 -2.3075
# 2 26.2636 73.7307 1.0243 0.0000 0.0000 2.3075
# 3 1.0243 1.0243 108.0122 0.0000 0.0000 0.0000
# 4 0.0000 0.0000 0.0000 29.3934 0.0000 0.0000
# 5 0.0000 0.0000 0.0000 0.0000 29.3934 0.0000
# 6 -2.3075 2.3075 0.0000 0.0000 0.0000 25.4514
#
#
#
# Elastic Compliance Matrix: (Units=1/GPa)
#
#
# Indices 1 2 3 4 5 6 
#
# 1 0.015629 -0.005626 -0.000095 0.000000 0.000000 0.001927
# 2 -0.005626 0.015629 -0.000095 0.000000 0.000000 -0.001927
# 3 -0.000095 -0.000095 0.009260 0.000000 0.000000 0.000000
# 4 0.000000 0.000000 0.000000 0.034021 0.000000 0.000000
# 5 0.000000 0.000000 0.000000 0.000000 0.034021 0.000000
# 6 0.001927 -0.001927 0.000000 0.000000 0.000000 0.039640
#
#
# Mechanical properties :
#
#
# Convention : Reuss Voigt Hill
#
# Bulk Modulus (GPa) = 34.61930 34.67754 34.64842
# Shear Modulus (GPa) = 29.50557 31.99175 30.74866
#
# Velocity S-wave (km/s) = 3.51101 3.65594 3.58421
# Velocity P-wave (km/s) = 5.55878 5.68413 5.62180
#
# Compressibility (1/GPa) = 0.02888562
#
# Stress axis : x y z
#
# Youngs Moduli (GPa) = 63.98552 63.98552 107.99119
#
# Poissons Ratio (x) = 0.35998 0.01024
# Poissons Ratio (y) = 0.35998 0.01024
# Poissons Ratio (z) = 0.00607 0.00607
#
# Static dielectric constant tensor:
#      x y z
#    x 1.885130 0.000000 0.000000 
#    y 0.000000 1.885130 0.000000 
#    z 0.000000 0.000000 1.881300 
# 
# From -- ./inp_files/2038.got.cif
#   From: 2010.05.17/outbox.cif.g08.bks.cpg/sg79_cif.got.tgz:2038.got - 2010.06.03 18:47:27.
