data_PCOD9542665
_publ_section_title
;
Structure prediction by ZEFSAII (Michael W. Deem and Ramdas Pophale) SiO2 
 PCOD9542665
Probable space group: I -4 
;
_chemical_formula_sum "Si O2"
_cell_formula_units_Z 64
_cell_length_a 17.981130
_cell_length_b 17.981130
_cell_length_c 11.152224
_cell_angle_alpha 90.000000
_cell_angle_beta 90.000000
_cell_angle_gamma 90.000000
_cell_volume 3605.748618
_symmetry_space_group_name_H-M "I -4 "
_symmetry_group_IT_number 82
_symmetry_cell_setting 'tetragonal'
loop_
_space_group_symop_operation_xyz
x,y,z
y,-x,-z
-x,-y,z
-y,x,-z
1/2+x,1/2+y,1/2+z
1/2+y,1/2-x,1/2-z
1/2-x,1/2-y,1/2+z
1/2-y,1/2+x,1/2-z
loop_
_atom_site_type_symbol
_atom_site_label
_atom_site_fract_x
_atom_site_fract_y
_atom_site_fract_z
Si Si1 0.198817 0.932348 0.550473
Si Si2 0.290056 0.796507 0.996821
Si Si3 0.069754 0.307394 0.655093
Si Si4 0.931769 0.902232 0.019534
Si Si5 0.646200 0.686036 0.326435
Si Si6 0.163950 0.176737 0.212113
Si Si7 0.168451 0.103752 0.599266
Si Si8 0.394893 0.821487 0.202903
O O1 0.275249 0.918966 0.477826
O O2 0.195935 0.883965 0.670851
O O3 0.130081 0.907411 0.464618
O O4 0.190093 0.019841 0.573201
O O5 0.223888 0.788541 0.095304
O O6 0.350963 0.841181 0.078020
O O7 0.247449 0.825241 0.877676
O O8 0.336804 0.725783 0.956753
O O9 0.108361 0.245089 0.738832
O O10 0.115800 0.379227 0.696935
O O11 0.982111 0.312708 0.679265
O O12 0.883799 0.883295 0.136273
O O13 0.913451 0.839277 0.923429
O O14 0.019437 0.907230 0.037436
O O15 0.668770 0.619104 0.240817
O O16 0.243442 0.141298 0.250445
#
# Coordination Sequence:
#
# PCOD9542665 Si02
#       8
#     8   8   8   8   8   8   8   8
#     4  11  21  36  57  88 123 152 194 233 298 354
#     4  10  19  36  57  81 110 147 192 244 275 338
#     4  10  21  37  59  84 113 148 192 253 291 347
#     4  10  20  34  51  77 118 157 193 235 284 354
#     4   9  20  34  54  78 110 145 196 232 285 332
#     4  11  21  34  61  84 114 159 197 239 296 349
#     4  11  21  35  55  84 119 152 185 237 289 352
#     4  11  21  38  60  84 116 149 197 247 297 348
#
# _framework density 17.749433
#
# number of rings (size 3 to 8) (size 9 to 14) (size 15 to 20)
#    0.000    1.625    2.500    3.750    0.000    1.500 
#    0.000    0.000    0.000    0.000    0.000    0.000 
#    0.000    0.000    0.000    0.000    0.000    0.000 
#
# Total GULP energy -178240.639240 kJ/mol
# GULP energy per Si atom -5570.019976 kJ/mol
# Density = 1.770903 g / cm^3
# Si number density = 17.749433 Si / 1000 Ang^3
#
#
#
# Elastic Constant Matrix: (Units=GPa)
#
#
# Indices 1 2 3 4 5 6 
#
# 1 81.6781 33.3705 38.8188 0.0000 0.0000 2.3061
# 2 33.3705 81.6781 38.8188 0.0000 0.0000 -2.3061
# 3 38.8188 38.8188 109.0914 0.0000 0.0000 0.0000
# 4 0.0000 0.0000 0.0000 27.3373 0.0000 0.0000
# 5 0.0000 0.0000 0.0000 0.0000 27.3373 0.0000
# 6 2.3061 -2.3061 0.0000 0.0000 0.0000 21.6650
#
#
#
# Elastic Compliance Matrix: (Units=1/GPa)
#
#
# Indices 1 2 3 4 5 6 
#
# 1 0.016176 -0.004737 -0.004070 0.000000 0.000000 -0.002226
# 2 -0.004737 0.016176 -0.004070 0.000000 0.000000 0.002226
# 3 -0.004070 -0.004070 0.012063 0.000000 0.000000 0.000000
# 4 0.000000 0.000000 0.000000 0.036580 0.000000 0.000000
# 5 0.000000 0.000000 0.000000 0.000000 0.036580 0.000000
# 6 -0.002226 0.002226 0.000000 0.000000 0.000000 0.046631
#
#
# Mechanical properties :
#
#
# Convention : Reuss Voigt Hill
#
# Bulk Modulus (GPa) = 53.59191 54.94041 54.26616
# Shear Modulus (GPa) = 25.48647 26.03054 25.75850
#
# Velocity S-wave (km/s) = 3.79344 3.83372 3.81363
# Velocity P-wave (km/s) = 7.03179 7.11457 7.07330
#
# Compressibility (1/GPa) = 0.01865953
#
# Stress axis : x y z
#
# Youngs Moduli (GPa) = 61.82007 61.82007 82.89555
#
# Poissons Ratio (x) = 0.29286 0.33741
# Poissons Ratio (y) = 0.29286 0.33741
# Poissons Ratio (z) = 0.25163 0.25163
#
# Static dielectric constant tensor:
#      x y z
#    x 1.616850 0.000000 0.000000 
#    y 0.000000 1.616850 0.000000 
#    z 0.000000 0.000000 1.644660 
# 
# From -- ./inp_files/1902.got.cif
#   From: 2010.05.17/outbox.cif.g08.bks.cpg/sg82_1_cif.got.tgz:1902.got - 2010.06.03 18:52:26.
