data_PCOD9542750
_publ_section_title
;
Structure prediction by ZEFSAII (Michael W. Deem and Ramdas Pophale) SiO2 
 PCOD9542750
Probable space group: I -4 
;
_chemical_formula_sum "Si O2"
_cell_formula_units_Z 40
_cell_length_a 16.265570
_cell_length_b 16.265570
_cell_length_c 5.529750
_cell_angle_alpha 90.000000
_cell_angle_beta 90.000000
_cell_angle_gamma 90.000000
_cell_volume 1462.999142
_symmetry_space_group_name_H-M "I -4 "
_symmetry_group_IT_number 82
_symmetry_cell_setting 'tetragonal'
loop_
_space_group_symop_operation_xyz
x,y,z
y,-x,-z
-x,-y,z
-y,x,-z
1/2+x,1/2+y,1/2+z
1/2+y,1/2-x,1/2-z
1/2-x,1/2-y,1/2+z
1/2-y,1/2+x,1/2-z
loop_
_atom_site_type_symbol
_atom_site_label
_atom_site_fract_x
_atom_site_fract_y
_atom_site_fract_z
Si Si1 0.823504 0.304224 0.143788
Si Si2 0.552844 0.786263 0.223254
Si Si3 0.517513 0.622169 0.953852
Si Si4 0.937459 0.586677 0.108105
Si Si5 0.148217 0.170221 0.085194
O O1 0.870483 0.350814 0.354975
O O2 0.730070 0.297652 0.238105
O O3 0.817633 0.369260 0.928323
O O4 0.867526 0.220214 0.074738
O O5 0.507699 0.716235 0.053154
O O6 0.520179 0.864738 0.385384
O O7 0.589631 0.727221 0.428327
O O8 0.571194 0.562313 0.130774
O O9 0.586090 0.619793 0.743337
O O10 0.911078 0.491492 0.140887
#
# Coordination Sequence:
#
# PCOD9542750 Si02
#       5
#     8   8   8   8   8
#     4  10  20  39  65  95 131 174 230 282 343 412
#     4  10  22  42  66  94 136 184 230 286 350 410
#     4  10  24  43  64 100 143 180 232 285 347 426
#     4  10  24  43  64 100 143 180 232 285 347 426
#     4  10  20  39  65  95 131 174 230 282 343 412
#
# _framework density 27.341096
#
# number of rings (size 3 to 8) (size 9 to 14) (size 15 to 20)
#    0.000    2.000    2.000    0.000    2.800    3.200 
#   14.400    4.000    0.000    0.000    0.000    0.000 
#    0.000    0.000    0.000    0.000    0.000    0.000 
#
# Total GULP energy -111453.981118 kJ/mol
# GULP energy per Si atom -5572.699056 kJ/mol
# Density = 2.727887 g / cm^3
# Si number density = 27.341096 Si / 1000 Ang^3
#
#
#
# Elastic Constant Matrix: (Units=GPa)
#
#
# Indices 1 2 3 4 5 6 
#
# 1 88.3190 45.8761 14.7019 0.0000 0.0000 5.1397
# 2 45.8761 88.3190 14.7019 0.0000 0.0000 -5.1397
# 3 14.7019 14.7019 56.1123 0.0000 0.0000 0.0000
# 4 0.0000 0.0000 0.0000 22.3558 0.0000 0.0000
# 5 0.0000 0.0000 0.0000 0.0000 22.3558 0.0000
# 6 5.1397 -5.1397 0.0000 0.0000 0.0000 46.3903
#
#
#
# Elastic Compliance Matrix: (Units=1/GPa)
#
#
# Indices 1 2 3 4 5 6 
#
# 1 0.016058 -0.008153 -0.002071 0.000000 0.000000 -0.002682
# 2 -0.008153 0.016058 -0.002071 0.000000 0.000000 0.002682
# 3 -0.002071 -0.002071 0.018907 0.000000 0.000000 0.000000
# 4 0.000000 0.000000 0.000000 0.044731 0.000000 0.000000
# 5 0.000000 0.000000 0.000000 0.000000 0.044731 0.000000
# 6 -0.002682 0.002682 0.000000 0.000000 0.000000 0.022151
#
#
# Mechanical properties :
#
#
# Convention : Reuss Voigt Hill
#
# Bulk Modulus (GPa) = 37.83180 42.59001 40.21090
# Shear Modulus (GPa) = 25.50531 28.71840 27.11186
#
# Velocity S-wave (km/s) = 3.05758 3.24446 3.15241
# Velocity P-wave (km/s) = 5.13148 5.44486 5.29049
#
# Compressibility (1/GPa) = 0.02643279
#
# Stress axis : x y z
#
# Youngs Moduli (GPa) = 62.27335 62.27335 52.89095
#
# Poissons Ratio (x) = 0.50769 0.10956
# Poissons Ratio (y) = 0.50769 0.10956
# Poissons Ratio (z) = 0.12899 0.12899
#
# Static dielectric constant tensor:
#      x y z
#    x 2.253900 0.000000 0.000000 
#    y 0.000000 2.253900 0.000000 
#    z 0.000000 0.000000 2.379880 
# 
# From -- ./inp_files/225.got.cif
#   From: 2010.05.17/outbox.cif.g08.bks.cpg/sg82_1_cif.got.tgz:225.got - 2010.06.03 18:52:26.
