data_PCOD9542777
_publ_section_title
;
Structure prediction by ZEFSAII (Michael W. Deem and Ramdas Pophale) SiO2 
 PCOD9542777
Probable space group: I -4 
;
_chemical_formula_sum "Si O2"
_cell_formula_units_Z 48
_cell_length_a 20.656159
_cell_length_b 20.656159
_cell_length_c 5.218556
_cell_angle_alpha 90.000000
_cell_angle_beta 90.000000
_cell_angle_gamma 90.000000
_cell_volume 2226.637321
_symmetry_space_group_name_H-M "I -4 "
_symmetry_group_IT_number 82
_symmetry_cell_setting 'tetragonal'
loop_
_space_group_symop_operation_xyz
x,y,z
y,-x,-z
-x,-y,z
-y,x,-z
1/2+x,1/2+y,1/2+z
1/2+y,1/2-x,1/2-z
1/2-x,1/2-y,1/2+z
1/2-y,1/2+x,1/2-z
loop_
_atom_site_type_symbol
_atom_site_label
_atom_site_fract_x
_atom_site_fract_y
_atom_site_fract_z
Si Si1 0.645196 0.756656 0.378233
Si Si2 0.910139 0.257881 0.279529
Si Si3 0.727311 0.032222 0.421037
Si Si4 0.673247 0.268971 0.286115
Si Si5 0.498086 0.099423 0.345004
Si Si6 0.099895 0.370160 0.217206
O O1 0.669976 0.715328 0.619941
O O2 0.620413 0.825943 0.475148
O O3 0.581189 0.728364 0.241847
O O4 0.708297 0.776082 0.210633
O O5 0.880994 0.234728 0.010217
O O6 0.910831 0.335931 0.241036
O O7 0.981450 0.240866 0.384066
O O8 0.861629 0.235281 0.509505
O O9 0.673109 0.993363 0.252491
O O10 0.682612 0.082096 0.575450
O O11 0.561869 0.056281 0.325403
O O12 0.464795 0.096115 0.620800
#
# Coordination Sequence:
#
# PCOD9542777 Si02
#       6
#     8   8   8   8   8   8
#     4  10  22  38  60  83 113 156 210 253 311 367
#     4  11  24  39  57  84 123 153 200 253 311 351
#     4  11  23  35  56  82 118 162 199 257 305 369
#     4  11  23  40  61  86 115 157 204 260 307 369
#     4  10  21  33  46  69 108 160 214 248 280 332
#     4  10  21  33  53  75 112 155 203 246 293 356
#
# _framework density 21.557168999999998
#
# number of rings (size 3 to 8) (size 9 to 14) (size 15 to 20)
#    0.000    1.500    3.333    2.000    9.333    0.000 
#    0.000    1.667    0.000    0.000    0.000    0.000 
#    0.000    4.000    0.000    0.000    0.000    0.000 
#
# Total GULP energy -133988.807455 kJ/mol
# GULP energy per Si atom -5582.866977 kJ/mol
# Density = 2.150810 g / cm^3
# Si number density = 21.557169 Si / 1000 Ang^3
#
#
#
# Elastic Constant Matrix: (Units=GPa)
#
#
# Indices 1 2 3 4 5 6 
#
# 1 57.2114 22.9532 17.9522 0.0000 0.0000 -8.7004
# 2 22.9532 57.2114 17.9522 0.0000 0.0000 8.7004
# 3 17.9522 17.9522 97.2956 0.0000 0.0000 0.0000
# 4 0.0000 0.0000 0.0000 40.2864 0.0000 0.0000
# 5 0.0000 0.0000 0.0000 0.0000 40.2864 0.0000
# 6 -8.7004 8.7004 0.0000 0.0000 0.0000 21.8205
#
#
#
# Elastic Compliance Matrix: (Units=1/GPa)
#
#
# Indices 1 2 3 4 5 6 
#
# 1 0.025101 -0.011502 -0.002509 0.000000 0.000000 0.014595
# 2 -0.011502 0.025101 -0.002509 0.000000 0.000000 -0.014595
# 3 -0.002509 -0.002509 0.011204 0.000000 0.000000 0.000000
# 4 0.000000 0.000000 0.000000 0.024822 0.000000 0.000000
# 5 0.000000 0.000000 0.000000 0.000000 0.024822 0.000000
# 6 0.014595 -0.014595 0.000000 0.000000 0.000000 0.057467
#
#
# Mechanical properties :
#
#
# Convention : Reuss Voigt Hill
#
# Bulk Modulus (GPa) = 35.25603 36.60377 35.92990
# Shear Modulus (GPa) = 23.69534 30.66939 27.18237
#
# Velocity S-wave (km/s) = 3.31899 3.77596 3.55483
# Velocity P-wave (km/s) = 5.57475 6.00227 5.79245
#
# Compressibility (1/GPa) = 0.02836394
#
# Stress axis : x y z
#
# Youngs Moduli (GPa) = 39.83973 39.83973 89.25511
#
# Poissons Ratio (x) = 0.45826 0.22394
# Poissons Ratio (y) = 0.45826 0.22394
# Poissons Ratio (z) = 0.09996 0.09996
#
# Static dielectric constant tensor:
#      x y z
#    x 1.824120 0.000000 0.000000 
#    y 0.000000 1.824120 0.000000 
#    z 0.000000 0.000000 2.035460 
# 
# From -- ./inp_files/375.got.cif
#   From: 2010.05.17/outbox.cif.g08.bks.cpg/sg82_1_cif.got.tgz:375.got - 2010.06.03 18:52:26.
