data_PCOD9542218
_publ_section_title
;
Structure prediction by ZEFSAII (Michael W. Deem and Ramdas Pophale) SiO2 
 PCOD9542218
Probable space group: I 41
;
_chemical_formula_sum "Si O2"
_cell_formula_units_Z 32
_cell_length_a 9.376476
_cell_length_b 9.376476
_cell_length_c 14.627184
_cell_angle_alpha 90.000000
_cell_angle_beta 90.000000
_cell_angle_gamma 90.000000
_cell_volume 1285.997183
_symmetry_space_group_name_H-M "I 41"
_symmetry_group_IT_number 80
_symmetry_cell_setting 'tetragonal'
loop_
_space_group_symop_operation_xyz
x,y,z
-y,1/2+x,1/4+z
-x,-y,z
y,1/2-x,1/4+z
1/2+x,1/2+y,1/2+z
1/2-y,x,3/4+z
1/2-x,1/2-y,1/2+z
1/2+y,-x,3/4+z
loop_
_atom_site_type_symbol
_atom_site_label
_atom_site_fract_x
_atom_site_fract_y
_atom_site_fract_z
Si Si1 0.803684 0.376086 0.399000
Si Si2 0.798525 0.403563 0.006838
Si Si3 0.178806 0.104498 0.168924
Si Si4 0.850003 0.623268 0.845495
O O1 0.674945 0.403773 0.328065
O O2 0.761343 0.235819 0.455077
O O3 0.842337 0.522918 0.448894
O O4 0.961307 0.339135 0.358985
O O5 0.687343 0.498014 0.066231
O O6 0.848529 0.516286 0.930780
O O7 0.252208 0.238935 0.121863
O O8 0.276336 0.060477 0.254803
#
# Coordination Sequence:
#
# PCOD9542218 Si02
#       4
#     8   8   8   8
#     4  11  24  41  69 100 139 187 242 295 356 424
#     4  11  25  45  72 108 143 188 241 302 360 431
#     4  10  23  45  67  99 142 194 240 295 360 434
#     4  10  24  44  70 102 146 190 239 295 364 435
#
# _framework density 24.883414999999999
#
# number of rings (size 3 to 8) (size 9 to 14) (size 15 to 20)
#    0.000    1.500    0.000    3.000    0.000   18.000 
#    0.000    0.000    0.000    0.000    0.000    0.000 
#    0.000    0.000    0.000    0.000    0.000    0.000 
#
# Total GULP energy -89360.223426 kJ/mol
# GULP energy per Si atom -5585.013964 kJ/mol
# Density = 2.482678 g / cm^3
# Si number density = 24.883415 Si / 1000 Ang^3
#
#
#
# Elastic Constant Matrix: (Units=GPa)
#
#
# Indices 1 2 3 4 5 6 
#
# 1 121.0951 2.7826 15.2012 0.0000 0.0000 -1.8296
# 2 2.7826 121.0951 15.2012 0.0000 0.0000 1.8296
# 3 15.2012 15.2012 50.3355 0.0000 0.0000 0.0000
# 4 0.0000 0.0000 0.0000 27.3897 0.0000 0.0000
# 5 0.0000 0.0000 0.0000 0.0000 27.3897 0.0000
# 6 -1.8296 1.8296 0.0000 0.0000 0.0000 27.7031
#
#
#
# Elastic Compliance Matrix: (Units=1/GPa)
#
#
# Indices 1 2 3 4 5 6 
#
# 1 0.008594 0.000125 -0.002633 0.000000 0.000000 0.000559
# 2 0.000125 0.008594 -0.002633 0.000000 0.000000 -0.000559
# 3 -0.002633 -0.002633 0.021457 0.000000 0.000000 0.000000
# 4 0.000000 0.000000 0.000000 0.036510 0.000000 0.000000
# 5 0.000000 0.000000 0.000000 0.000000 0.036510 0.000000
# 6 0.000559 -0.000559 0.000000 0.000000 0.000000 0.036171
#
#
# Mechanical properties :
#
#
# Convention : Reuss Voigt Hill
#
# Bulk Modulus (GPa) = 35.25808 39.87730 37.56769
# Shear Modulus (GPa) = 29.83769 33.78588 31.81178
#
# Velocity S-wave (km/s) = 3.46656 3.68879 3.57940
# Velocity P-wave (km/s) = 5.49752 5.84836 5.67565
#
# Compressibility (1/GPa) = 0.02836230
#
# Stress axis : x y z
#
# Youngs Moduli (GPa) = 116.35906 116.35907 46.60477
#
# Poissons Ratio (x) = -0.01450 0.12271
# Poissons Ratio (y) = -0.01450 0.12271
# Poissons Ratio (z) = 0.30638 0.30638
#
# Static dielectric constant tensor:
#      x y z
#    x 1.945430 0.000000 0.000000 
#    y 0.000000 1.945430 0.000000 
#    z 0.000000 0.000000 2.001530 
# 
# From -- ./inp_files/1469.got.cif
#   From: 2010.05.17/outbox.cif.g08.bks.cpg/sg80_cif.got.tgz:1469.got - 2010.06.03 18:49:13.
