data_PCOD9542257
_publ_section_title
;
Structure prediction by ZEFSAII (Michael W. Deem and Ramdas Pophale) SiO2 
 PCOD9542257
Probable space group: I 41
;
_chemical_formula_sum "Si O2"
_cell_formula_units_Z 40
_cell_length_a 7.413646
_cell_length_b 7.413646
_cell_length_c 32.432207
_cell_angle_alpha 90.000000
_cell_angle_beta 90.000000
_cell_angle_gamma 90.000000
_cell_volume 1782.543729
_symmetry_space_group_name_H-M "I 41"
_symmetry_group_IT_number 80
_symmetry_cell_setting 'tetragonal'
loop_
_space_group_symop_operation_xyz
x,y,z
-y,1/2+x,1/4+z
-x,-y,z
y,1/2-x,1/4+z
1/2+x,1/2+y,1/2+z
1/2-y,x,3/4+z
1/2-x,1/2-y,1/2+z
1/2+y,-x,3/4+z
loop_
_atom_site_type_symbol
_atom_site_label
_atom_site_fract_x
_atom_site_fract_y
_atom_site_fract_z
Si Si1 0.115973 0.773326 0.412830
Si Si2 0.634867 0.160961 0.998366
Si Si3 0.131903 0.832771 0.581713
Si Si4 0.863880 0.734166 0.157442
Si Si5 0.000000 0.500000 0.086193
Si Si6 0.500000 0.500000 0.475937
O O1 0.143653 0.810183 0.461626
O O2 0.219654 0.859459 0.374250
O O3 0.187817 0.566823 0.410847
O O4 0.900504 0.771118 0.406859
O O5 0.561691 0.226851 0.041895
O O6 0.500000 0.000000 0.984972
O O7 0.835284 0.078992 0.001449
O O8 0.337916 0.884944 0.567001
O O9 0.000000 0.000000 0.588332
O O10 0.852585 0.592127 0.195002
O O11 0.876396 0.626185 0.115308
#
# Coordination Sequence:
#
# PCOD9542257 Si02
#       6
#     8   8   8   8   4   4
#     4   9  17  39  67  94 130 177 230 296 356 422
#     4  11  22  41  68 100 137 179 239 297 354 438
#     4  11  26  43  62  98 144 186 239 295 352 432
#     4   8  14  32  68  97 120 168 230 279 353 429
#     4   9  20  40  62  90 136 176 214 288 352 417
#     4   9  16  32  62 104 124 170 226 292 350 421
#
# _framework density 22.439841999999999
#
# number of rings (size 3 to 8) (size 9 to 14) (size 15 to 20)
#    0.000    2.400    4.000    1.200    0.000    6.400 
#    1.800    3.000    0.000    0.000    0.000    0.000 
#    0.000    0.000    0.000    0.000    0.000    0.000 
#
# Total GULP energy -111420.473979 kJ/mol
# GULP energy per Si atom -5571.023699 kJ/mol
# Density = 2.238877 g / cm^3
# Si number density = 22.439842 Si / 1000 Ang^3
#
#
#
# Elastic Constant Matrix: (Units=GPa)
#
#
# Indices 1 2 3 4 5 6 
#
# 1 93.9618 29.3081 39.5026 0.0000 0.0000 5.4749
# 2 29.3081 93.9618 39.5026 0.0000 0.0000 -5.4749
# 3 39.5026 39.5026 136.6114 0.0000 0.0000 0.0000
# 4 0.0000 0.0000 0.0000 16.6212 0.0000 0.0000
# 5 0.0000 0.0000 0.0000 0.0000 16.6212 0.0000
# 6 5.4749 -5.4749 0.0000 0.0000 0.0000 32.9466
#
#
#
# Elastic Compliance Matrix: (Units=1/GPa)
#
#
# Indices 1 2 3 4 5 6 
#
# 1 0.012936 -0.002979 -0.002879 0.000000 0.000000 -0.002645
# 2 -0.002979 0.012936 -0.002879 0.000000 0.000000 0.002645
# 3 -0.002879 -0.002879 0.008985 0.000000 0.000000 0.000000
# 4 0.000000 0.000000 0.000000 0.060164 0.000000 0.000000
# 5 0.000000 0.000000 0.000000 0.000000 0.060164 0.000000
# 6 -0.002645 0.002645 0.000000 0.000000 0.000000 0.031231
#
#
# Mechanical properties :
#
#
# Convention : Reuss Voigt Hill
#
# Bulk Modulus (GPa) = 57.52697 60.12908 58.82802
# Shear Modulus (GPa) = 23.84515 27.65257 25.74886
#
# Velocity S-wave (km/s) = 3.26333 3.51422 3.39110
# Velocity P-wave (km/s) = 6.31592 6.58181 6.45023
#
# Compressibility (1/GPa) = 0.01738315
#
# Stress axis : x y z
#
# Youngs Moduli (GPa) = 77.30177 77.30178 111.29367
#
# Poissons Ratio (x) = 0.23025 0.32046
# Poissons Ratio (y) = 0.23025 0.32046
# Poissons Ratio (z) = 0.22258 0.22258
#
# Static dielectric constant tensor:
#      x y z
#    x 1.961220 0.000000 0.000000 
#    y 0.000000 1.961220 0.000000 
#    z 0.000000 0.000000 1.835280 
# 
# From -- ./inp_files/2344.got.cif
#   From: 2010.05.17/outbox.cif.g08.bks.cpg/sg80_cif.got.tgz:2344.got - 2010.06.03 18:49:13.
