data_PCOD9542793
_publ_section_title
;
Structure prediction by ZEFSAII (Michael W. Deem and Ramdas Pophale) SiO2 
 PCOD9542793
Probable space group: I -4 
;
_chemical_formula_sum "Si O2"
_cell_formula_units_Z 32
_cell_length_a 8.257439
_cell_length_b 8.257439
_cell_length_c 19.705079
_cell_angle_alpha 90.000000
_cell_angle_beta 90.000000
_cell_angle_gamma 90.000000
_cell_volume 1343.596700
_symmetry_space_group_name_H-M "I -4 "
_symmetry_group_IT_number 82
_symmetry_cell_setting 'tetragonal'
loop_
_space_group_symop_operation_xyz
x,y,z
y,-x,-z
-x,-y,z
-y,x,-z
1/2+x,1/2+y,1/2+z
1/2+y,1/2-x,1/2-z
1/2-x,1/2-y,1/2+z
1/2-y,1/2+x,1/2-z
loop_
_atom_site_type_symbol
_atom_site_label
_atom_site_fract_x
_atom_site_fract_y
_atom_site_fract_z
Si Si1 0.370710 0.775397 0.108832
Si Si2 0.874495 0.271406 0.849150
Si Si3 0.618048 0.769949 0.772715
Si Si4 0.227299 0.867720 0.980168
O O1 0.550986 0.804982 0.135458
O O2 0.286000 0.630375 0.149446
O O3 0.361726 0.783256 0.027220
O O4 0.272635 0.937353 0.130685
O O5 0.859211 0.213179 0.772833
O O6 0.772589 0.157460 0.899889
O O7 0.438402 0.792779 0.744299
O O8 0.058022 0.786476 0.004618
#
# Coordination Sequence:
#
# PCOD9542793 Si02
#       4
#     8   8   8   8
#     4  10  21  37  58  84 113 145 182 225 273 326
#     4  10  21  37  58  84 113 145 182 225 273 326
#     4  11  24  39  56  80 110 145 186 231 276 324
#     4   9  18  34  56  81 112 150 186 221 266 321
#
# _framework density 23.816672000000001
#
# number of rings (size 3 to 8) (size 9 to 14) (size 15 to 20)
#    0.000    2.000    0.000    3.000    0.000   10.000 
#    0.000    5.000    0.000    0.000    0.000    0.000 
#    0.000    0.000    0.000    0.000    0.000    0.000 
#
# Total GULP energy -89459.874410 kJ/mol
# GULP energy per Si atom -5591.242151 kJ/mol
# Density = 2.376246 g / cm^3
# Si number density = 23.816672 Si / 1000 Ang^3
#
#
#
# Elastic Constant Matrix: (Units=GPa)
#
#
# Indices 1 2 3 4 5 6 
#
# 1 5.1093 15.6233 -3.1633 0.0000 0.0000 -2.3554
# 2 15.6233 5.1093 -3.1633 0.0000 0.0000 2.3554
# 3 -3.1633 -3.1633 69.2840 0.0000 0.0000 0.0000
# 4 0.0000 0.0000 0.0000 28.4431 0.0000 0.0000
# 5 0.0000 0.0000 0.0000 0.0000 28.4431 0.0000
# 6 -2.3554 2.3554 0.0000 0.0000 0.0000 17.6450
#
#
#
# Elastic Compliance Matrix: (Units=1/GPa)
#
#
# Indices 1 2 3 4 5 6 
#
# 1 -0.020415 0.069330 0.002233 0.000000 0.000000 -0.011980
# 2 0.069330 -0.020415 0.002233 0.000000 0.000000 0.011980
# 3 0.002233 0.002233 0.014637 0.000000 0.000000 0.000000
# 4 0.000000 0.000000 0.000000 0.035158 0.000000 0.000000
# 5 0.000000 0.000000 0.000000 0.000000 0.035158 0.000000
# 6 -0.011980 0.011980 0.000000 0.000000 0.000000 0.053475
#
#
# Mechanical properties :
#
#
# Convention : Reuss Voigt Hill
#
# Bulk Modulus (GPa) = 8.23722 10.89953 9.56838
# Shear Modulus (GPa) = -524.82638 19.58664 -252.61987
#
# Velocity S-wave (km/s) = -14.86066 2.87085 -10.31013
# Velocity P-wave (km/s) = 17.05832 3.94657 11.73480
#
# Compressibility (1/GPa) = 0.12140013
#
# Stress axis : x y z
#
# Youngs Moduli (GPa) = -48.98417 -48.98416 68.31864
#
# Poissons Ratio (x) = 3.39605 -0.15258
# Poissons Ratio (y) = 3.39605 -0.15258
# Poissons Ratio (z) = 0.10940 0.10940
#
# Static dielectric constant tensor:
#      x y z
#    x 1.903500 0.000000 0.000000 
#    y 0.000000 1.903500 0.000000 
#    z 0.000000 0.000000 1.916480 
# 
# From -- ./inp_files/2862.got.cif
#   From: 2010.05.17/outbox.cif.g08.bks.cpg/sg82_2_cif.got.tgz:2862.got - 2010.06.03 18:52:26.
