data_PCOD9542040
_publ_section_title
;
Structure prediction by ZEFSAII (Michael W. Deem and Ramdas Pophale) SiO2 
 PCOD9542040
Probable space group: I 4
;
_chemical_formula_sum "Si O2"
_cell_formula_units_Z 50
_cell_length_a 8.313639
_cell_length_b 8.313639
_cell_length_c 31.817355
_cell_angle_alpha 90.000000
_cell_angle_beta 90.000000
_cell_angle_gamma 90.000000
_cell_volume 2199.107189
_symmetry_space_group_name_H-M "I 4"
_symmetry_group_IT_number 79
_symmetry_cell_setting 'tetragonal'
loop_
_space_group_symop_operation_xyz
x,y,z
-y,x,z
-x,-y,z
y,-x,z
1/2+x,1/2+y,1/2+z
1/2-y,1/2+x,1/2+z
1/2-x,1/2-y,1/2+z
1/2+y,1/2-x,1/2+z
loop_
_atom_site_type_symbol
_atom_site_label
_atom_site_fract_x
_atom_site_fract_y
_atom_site_fract_z
Si Si1 0.907045 0.746011 0.405180
Si Si2 0.259995 0.920631 0.496389
Si Si3 0.382372 0.143673 0.160529
Si Si4 0.500000 0.500000 0.144134
Si Si5 0.627495 0.259113 0.323900
Si Si6 0.179842 0.789996 0.734451
Si Si7 0.245315 0.428374 0.569264
O O1 0.884186 0.663163 0.450584
O O2 0.854391 0.658323 0.363156
O O3 0.091095 0.801782 0.404368
O O4 0.369389 0.884871 0.535982
O O5 0.100805 0.808788 0.497958
O O6 0.482533 0.302452 0.146382
O O7 0.251297 0.205800 0.195157
O O8 0.306811 0.081914 0.117414
O O9 0.500000 0.000000 0.176568
O O10 0.706883 0.436676 0.325389
O O11 0.700227 0.201400 0.278995
O O12 0.984612 0.787398 0.732760
O O13 0.394105 0.308996 0.561684
#
# Coordination Sequence:
#
# PCOD9542040 Si02
#       7
#     8   8   8   2   8   8   8
#     4   9  19  39  58  86 124 161 206 261 316 387
#     4   9  21  39  66  89 113 160 219 266 320 401
#     4  12  24  40  68  97 123 176 228 271 340 413
#     4  12  24  44  68  92 132 176 216 288 324 392
#     4   9  19  35  59  87 121 158 202 256 318 381
#     4   9  17  37  61  87 122 161 209 267 316 380
#     4  11  27  44  57  89 131 161 205 278 337 402
#
# _framework density 22.736498000000001
#
# number of rings (size 3 to 8) (size 9 to 14) (size 15 to 20)
#    0.000    2.080    1.600    2.880    4.480    1.920 
#    5.760    4.800    0.000    1.920    0.000    0.000 
#    0.000    0.000    0.000    0.000    0.000    0.000 
#
# Total GULP energy -139182.849187 kJ/mol
# GULP energy per Si atom -5567.313967 kJ/mol
# Density = 2.268475 g / cm^3
# Si number density = 22.736498 Si / 1000 Ang^3
#
#
#
# Elastic Constant Matrix: (Units=GPa)
#
#
# Indices 1 2 3 4 5 6 
#
# 1 -180.4125 247.6779 14.4083 0.0000 0.0000 -204.9408
# 2 247.6779 -180.4126 14.4082 0.0000 0.0000 204.9408
# 3 14.4083 14.4082 142.9269 0.0000 0.0000 0.0000
# 4 0.0000 0.0000 0.0000 10.2040 0.0000 0.0000
# 5 0.0000 0.0000 0.0000 0.0000 10.2040 0.0000
# 6 -204.9408 204.9408 0.0000 0.0000 0.0000 -176.6758
#
#
#
# Elastic Compliance Matrix: (Units=1/GPa)
#
#
# Indices 1 2 3 4 5 6 
#
# 1 0.018325 -0.002788 -0.001566 0.000000 0.000000 -0.024490
# 2 -0.002788 0.018325 -0.001566 0.000000 0.000000 0.024490
# 3 -0.001566 -0.001566 0.007312 0.000000 0.000000 0.000000
# 4 0.000000 0.000000 0.000000 0.098001 0.000000 0.000000
# 5 0.000000 0.000000 0.000000 0.000000 0.098001 0.000000
# 6 -0.024490 0.024490 0.000000 0.000000 0.000000 0.051157
#
#
# Mechanical properties :
#
#
# Convention : Reuss Voigt Hill
#
# Bulk Modulus (GPa) = 31.13118 37.23229 34.18174
# Shear Modulus (GPa) = 15.94038 -64.21307 -24.13635
#
# Velocity S-wave (km/s) = 2.65069 -5.32011 -3.26171
# Velocity P-wave (km/s) = 4.80521 4.61812 0.93890
#
# Compressibility (1/GPa) = 0.03212213
#
# Stress axis : x y z
#
# Youngs Moduli (GPa) = 54.57001 54.57000 136.75436
#
# Poissons Ratio (x) = 0.15212 0.21420
# Poissons Ratio (y) = 0.15212 0.21420
# Poissons Ratio (z) = 0.08547 0.08547
#
# Static dielectric constant tensor:
#      x y z
#    x 1.868410 0.000000 0.000000 
#    y 0.000000 1.868410 0.000000 
#    z 0.000000 0.000000 1.982060 
# 
# From -- ./inp_files/2151.got.cif
#   From: 2010.05.17/outbox.cif.g08.bks.cpg/sg79_cif.got.tgz:2151.got - 2010.06.03 18:47:27.
