data_PCOD9542199
_publ_section_title
;
Structure prediction by ZEFSAII (Michael W. Deem and Ramdas Pophale) SiO2 
 PCOD9542199
Probable space group: I 41
;
_chemical_formula_sum "Si O2"
_cell_formula_units_Z 48
_cell_length_a 19.492113
_cell_length_b 19.492113
_cell_length_c 5.422511
_cell_angle_alpha 90.000000
_cell_angle_beta 90.000000
_cell_angle_gamma 90.000000
_cell_volume 2060.242219
_symmetry_space_group_name_H-M "I 41"
_symmetry_group_IT_number 80
_symmetry_cell_setting 'tetragonal'
loop_
_space_group_symop_operation_xyz
x,y,z
-y,1/2+x,1/4+z
-x,-y,z
y,1/2-x,1/4+z
1/2+x,1/2+y,1/2+z
1/2-y,x,3/4+z
1/2-x,1/2-y,1/2+z
1/2+y,-x,3/4+z
loop_
_atom_site_type_symbol
_atom_site_label
_atom_site_fract_x
_atom_site_fract_y
_atom_site_fract_z
Si Si1 0.504315 0.885375 0.836100
Si Si2 0.589571 0.863780 0.341768
Si Si3 0.367069 0.956054 0.854792
Si Si4 0.059996 0.212629 0.811262
Si Si5 0.748843 0.065994 0.231743
Si Si6 0.790102 0.337476 0.106044
O O1 0.542097 0.888957 0.571769
O O2 0.447632 0.944716 0.877797
O O3 0.460158 0.814127 0.830112
O O4 0.554296 0.879880 0.076419
O O5 0.599971 0.781642 0.381644
O O6 0.662824 0.900563 0.374608
O O7 0.342340 0.898274 0.660687
O O8 0.337247 0.029306 0.771064
O O9 0.323473 0.937293 0.094171
O O10 0.992082 0.244795 0.691321
O O11 0.753692 0.138493 0.367780
O O12 0.828231 0.266714 0.063513
#
# Coordination Sequence:
#
# PCOD9542199 Si02
#       6
#     8   8   8   8   8   8
#     4  11  25  42  72 100 144 185 234 281 352 426
#     4  11  26  49  73 107 138 184 232 301 359 432
#     4  11  23  42  67  95 140 191 230 289 354 421
#     4  10  25  47  74 102 141 179 236 297 368 426
#     4  10  22  43  64  90 139 187 233 290 350 412
#     4  11  25  35  57  96 137 187 248 293 342 415
#
# _framework density 23.29823
#
# number of rings (size 3 to 8) (size 9 to 14) (size 15 to 20)
#    0.000    1.333    1.667    2.000   16.333    0.667 
#    0.000    3.333    0.000    0.000    0.000    0.000 
#    0.000    0.000    0.000    0.000    0.000    0.000 
#
# Total GULP energy -134087.277912 kJ/mol
# GULP energy per Si atom -5586.969913 kJ/mol
# Density = 2.324520 g / cm^3
# Si number density = 23.298230 Si / 1000 Ang^3
#
#
#
# Elastic Constant Matrix: (Units=GPa)
#
#
# Indices 1 2 3 4 5 6 
#
# 1 23.0586 61.4759 3.5824 0.0000 0.0000 5.4606
# 2 61.4759 23.0586 3.5824 0.0000 0.0000 -5.4606
# 3 3.5824 3.5824 90.3242 0.0000 0.0000 0.0000
# 4 0.0000 0.0000 0.0000 34.9820 0.0000 0.0000
# 5 0.0000 0.0000 0.0000 0.0000 34.9820 0.0000
# 6 5.4606 -5.4606 0.0000 0.0000 0.0000 35.2902
#
#
#
# Elastic Compliance Matrix: (Units=1/GPa)
#
#
# Indices 1 2 3 4 5 6 
#
# 1 -0.006532 0.018401 -0.000471 0.000000 0.000000 0.003858
# 2 0.018401 -0.006532 -0.000471 0.000000 0.000000 -0.003858
# 3 -0.000471 -0.000471 0.011109 0.000000 0.000000 0.000000
# 4 0.000000 0.000000 0.000000 0.028586 0.000000 0.000000
# 5 0.000000 0.000000 0.000000 0.000000 0.028586 0.000000
# 6 0.003858 -0.003858 0.000000 0.000000 0.000000 0.027143
#
#
# Mechanical properties :
#
#
# Convention : Reuss Voigt Hill
#
# Bulk Modulus (GPa) = 30.33585 30.41366 30.37475
# Shear Modulus (GPa) = 85.57507 25.57087 55.57297
#
# Velocity S-wave (km/s) = 6.06713 3.31652 4.88924
# Velocity P-wave (km/s) = 7.88219 5.26765 6.70362
#
# Compressibility (1/GPa) = 0.03296430
#
# Stress axis : x y z
#
# Youngs Moduli (GPa) = -153.09502 -153.09502 90.02057
#
# Poissons Ratio (x) = 2.81714 0.04238
# Poissons Ratio (y) = 2.81714 0.04238
# Poissons Ratio (z) = -0.07207 -0.07207
#
# Static dielectric constant tensor:
#      x y z
#    x 1.918500 0.000000 0.000000 
#    y 0.000000 1.918500 0.000000 
#    z 0.000000 0.000000 1.929670 
# 
# From -- ./inp_files/274.got.cif
#   From: 2010.05.17/outbox.cif.g08.bks.cpg/sg80_cif.got.tgz:274.got - 2010.06.03 18:49:13.
