data_PCOD9542313
_publ_section_title
;
Structure prediction by ZEFSAII (Michael W. Deem and Ramdas Pophale) SiO2 
 PCOD9542313
Probable space group: I 41
;
_chemical_formula_sum "Si O2"
_cell_formula_units_Z 28
_cell_length_a 7.498261
_cell_length_b 7.498261
_cell_length_c 17.593731
_cell_angle_alpha 90.000000
_cell_angle_beta 90.000000
_cell_angle_gamma 90.000000
_cell_volume 989.188489
_symmetry_space_group_name_H-M "I 41"
_symmetry_group_IT_number 80
_symmetry_cell_setting 'tetragonal'
loop_
_space_group_symop_operation_xyz
x,y,z
-y,1/2+x,1/4+z
-x,-y,z
y,1/2-x,1/4+z
1/2+x,1/2+y,1/2+z
1/2-y,x,3/4+z
1/2-x,1/2-y,1/2+z
1/2+y,-x,3/4+z
loop_
_atom_site_type_symbol
_atom_site_label
_atom_site_fract_x
_atom_site_fract_y
_atom_site_fract_z
Si Si1 0.284783 0.036003 0.072660
Si Si2 0.123727 0.143447 0.913940
Si Si3 0.500000 0.500000 0.014293
Si Si4 0.213448 0.625929 0.901397
O O1 0.530825 0.341623 0.072593
O O2 0.768639 0.137171 0.123443
O O3 0.500000 0.000000 0.067233
O O4 0.199249 0.053095 0.990119
O O5 0.290439 0.212341 0.866389
O O6 0.972364 0.293889 0.931192
O O7 0.000000 0.000000 0.870541
O O8 0.324130 0.508730 0.962320
#
# Coordination Sequence:
#
# PCOD9542313 Si02
#       4
#     8   8   4   8
#     4  12  31  60  93 138 197 253 321 417 498 593
#     4  12  33  55  94 139 190 255 330 401 502 601
#     4  12  30  58  94 140 196 262 336 418 508 600
#     4  12  30  56  97 139 193 261 334 414 508 602
#
# _framework density 28.306034
#
# number of rings (size 3 to 8) (size 9 to 14) (size 15 to 20)
#    0.000    0.000    1.429    3.429   20.000    0.000 
#    0.000    0.000    0.000    0.000    0.000    0.000 
#    0.000    0.000    0.000    0.000    0.000    0.000 
#
# Total GULP energy -78358.594198 kJ/mol
# GULP energy per Si atom -5597.042443 kJ/mol
# Density = 2.824161 g / cm^3
# Si number density = 28.306034 Si / 1000 Ang^3
#
#
#
# Elastic Constant Matrix: (Units=GPa)
#
#
# Indices 1 2 3 4 5 6 
#
# 1 237.2303 68.4820 83.5440 0.0000 0.0000 1.8139
# 2 68.4820 237.2303 83.5440 0.0000 0.0000 -1.8139
# 3 83.5440 83.5440 172.8965 0.0000 0.0000 0.0000
# 4 0.0000 0.0000 0.0000 44.2377 0.0000 0.0000
# 5 0.0000 0.0000 0.0000 0.0000 44.2377 0.0000
# 6 1.8139 -1.8139 0.0000 0.0000 0.0000 46.4340
#
#
#
# Elastic Compliance Matrix: (Units=1/GPa)
#
#
# Indices 1 2 3 4 5 6 
#
# 1 0.005188 -0.000743 -0.002148 0.000000 0.000000 -0.000232
# 2 -0.000743 0.005188 -0.002148 0.000000 0.000000 0.000232
# 3 -0.002148 -0.002148 0.007859 0.000000 0.000000 0.000000
# 4 0.000000 0.000000 0.000000 0.022605 0.000000 0.000000
# 5 0.000000 0.000000 0.000000 0.000000 0.022605 0.000000
# 6 -0.000232 0.000232 0.000000 0.000000 0.000000 0.021554
#
#
# Mechanical properties :
#
#
# Convention : Reuss Voigt Hill
#
# Bulk Modulus (GPa) = 122.57737 124.27747 123.42742
# Shear Modulus (GPa) = 51.12666 54.43435 52.78050
#
# Velocity S-wave (km/s) = 4.25456 4.39003 4.32283
# Velocity P-wave (km/s) = 8.21787 8.34846 8.28342
#
# Compressibility (1/GPa) = 0.00815811
#
# Stress axis : x y z
#
# Youngs Moduli (GPa) = 192.75426 192.75426 127.23529
#
# Poissons Ratio (x) = 0.14322 0.27328
# Poissons Ratio (y) = 0.14322 0.27328
# Poissons Ratio (z) = 0.41400 0.41400
#
# Static dielectric constant tensor:
#      x y z
#    x 2.403830 0.000000 0.000000 
#    y 0.000000 2.403830 0.000000 
#    z 0.000000 0.000000 2.182260 
# 
# From -- ./inp_files/1649.got.cif
#   From: 2010.05.17/outbox.cif.g08.bks.cpg/sg80_cif.got.tgz:1649.got - 2010.06.03 18:49:13.
