data_PCOD9542325
_publ_section_title
;
Structure prediction by ZEFSAII (Michael W. Deem and Ramdas Pophale) SiO2 
 PCOD9542325
Probable space group: P -4
;
_chemical_formula_sum "Si O2"
_cell_formula_units_Z 21
_cell_length_a 14.642210
_cell_length_b 14.642210
_cell_length_c 5.235852
_cell_angle_alpha 90.000000
_cell_angle_beta 90.000000
_cell_angle_gamma 90.000000
_cell_volume 1122.536896
_symmetry_space_group_name_H-M "P -4"
_symmetry_group_IT_number 81
_symmetry_cell_setting 'tetragonal'
loop_
_space_group_symop_operation_xyz
x,y,z
y,-x,-z
-x,-y,z
-y,x,-z
loop_
_atom_site_type_symbol
_atom_site_label
_atom_site_fract_x
_atom_site_fract_y
_atom_site_fract_z
Si Si1 0.885404 0.595684 0.863158
Si Si2 0.762288 0.099353 0.463414
Si Si3 0.917503 0.162119 0.780353
Si Si4 0.000000 0.000000 0.000000
Si Si5 0.489696 0.110185 0.640493
Si Si6 0.678857 0.955619 0.860393
O O1 0.857166 0.693325 0.742415
O O2 0.863793 0.524749 0.637466
O O3 0.851551 0.552548 0.129106
O O4 0.993927 0.618120 0.917841
O O5 0.832540 0.168884 0.591329
O O6 0.817873 0.017174 0.333144
O O7 0.706800 0.041150 0.678669
O O8 0.923498 0.055259 0.849099
O O9 0.911132 0.232421 0.013128
O O10 0.383459 0.116984 0.712791
O O11 0.500000 0.000000 0.644453
#
# Coordination Sequence:
#
# PCOD9542325 Si02
#       6
#     4   4   4   1   4   4
#     4  10  19  31  52  71  90 114 149 206 255 303
#     4  11  21  35  46  69  91 133 169 214 248 291
#     4  11  23  33  47  64  96 133 180 218 249 281
#     4  12  20  38  44  60  90 140 186 220 246 268
#     4  10  17  30  50  72  91 108 146 206 254 303
#     4  10  21  31  51  70  90 119 164 210 257 293
#
# _framework density 18.707626000000001
#
# number of rings (size 3 to 8) (size 9 to 14) (size 15 to 20)
#    0.000    1.524    5.714    2.857    2.667    0.000 
#    0.000    0.000    0.000    0.000    0.000    0.000 
#    0.000    0.000    0.000    0.000    0.000    5.714 
#
# Total GULP energy -117003.529151 kJ/mol
# GULP energy per Si atom -5571.596626 kJ/mol
# Density = 1.866505 g / cm^3
# Si number density = 18.707626 Si / 1000 Ang^3
#
#
#
# Elastic Constant Matrix: (Units=GPa)
#
#
# Indices 1 2 3 4 5 6 
#
# 1 46.4760 0.4011 14.9341 0.0000 0.0000 -0.8677
# 2 0.4011 46.4760 14.9341 0.0000 0.0000 0.8677
# 3 14.9341 14.9341 101.3539 0.0000 0.0000 0.0000
# 4 0.0000 0.0000 0.0000 25.7892 0.0000 0.0000
# 5 0.0000 0.0000 0.0000 0.0000 25.7892 0.0000
# 6 -0.8677 0.8677 0.0000 0.0000 0.0000 4.6233
#
#
#
# Elastic Compliance Matrix: (Units=1/GPa)
#
#
# Indices 1 2 3 4 5 6 
#
# 1 0.022700 0.000842 -0.003469 0.000000 0.000000 0.004102
# 2 0.000842 0.022700 -0.003469 0.000000 0.000000 -0.004102
# 3 -0.003469 -0.003469 0.010889 0.000000 0.000000 0.000000
# 4 0.000000 0.000000 0.000000 0.038776 0.000000 0.000000
# 5 0.000000 0.000000 0.000000 0.000000 0.038776 0.000000
# 6 0.004102 -0.004102 0.000000 0.000000 0.000000 0.217834
#
#
# Mechanical properties :
#
#
# Convention : Reuss Voigt Hill
#
# Bulk Modulus (GPa) = 22.67664 28.31607 25.49635
# Shear Modulus (GPa) = 13.20772 22.17611 17.69191
#
# Velocity S-wave (km/s) = 2.65996 3.44671 3.07857
# Velocity P-wave (km/s) = 4.64562 5.56854 5.12789
#
# Compressibility (1/GPa) = 0.04409825
#
# Stress axis : x y z
#
# Youngs Moduli (GPa) = 44.05199 44.05199 91.83846
#
# Poissons Ratio (x) = -0.03710 0.31858
# Poissons Ratio (y) = -0.03710 0.31858
# Poissons Ratio (z) = 0.15281 0.15281
#
# Static dielectric constant tensor:
#      x y z
#    x 1.723590 0.000000 0.000000 
#    y 0.000000 1.723590 0.000000 
#    z 0.000000 0.000000 1.832630 
# 
# From -- ./inp_files/269.got.cif
#   From: 2010.05.17/outbox.cif.g08.bks.cpg/sg81_cif.got.tgz:269.got - 2010.06.03 18:51:07.
