data_PCOD9542105
_publ_section_title
;
Structure prediction by ZEFSAII (Michael W. Deem and Ramdas Pophale) SiO2 
 PCOD9542105
Probable space group: I 41
;
_chemical_formula_sum "Si O2"
_cell_formula_units_Z 56
_cell_length_a 13.291603
_cell_length_b 13.291603
_cell_length_c 15.517934
_cell_angle_alpha 90.000000
_cell_angle_beta 90.000000
_cell_angle_gamma 90.000000
_cell_volume 2741.502351
_symmetry_space_group_name_H-M "I 41"
_symmetry_group_IT_number 80
_symmetry_cell_setting 'tetragonal'
loop_
_space_group_symop_operation_xyz
x,y,z
-y,1/2+x,1/4+z
-x,-y,z
y,1/2-x,1/4+z
1/2+x,1/2+y,1/2+z
1/2-y,x,3/4+z
1/2-x,1/2-y,1/2+z
1/2+y,-x,3/4+z
loop_
_atom_site_type_symbol
_atom_site_label
_atom_site_fract_x
_atom_site_fract_y
_atom_site_fract_z
Si Si1 0.611521 0.082887 0.784590
Si Si2 0.588301 0.843376 0.789046
Si Si3 0.197683 0.837599 0.872667
Si Si4 0.347761 0.434634 0.166829
Si Si5 0.793699 0.152350 0.464183
Si Si6 0.805881 0.840281 0.852627
Si Si7 0.560141 0.362692 0.102748
O O1 0.526891 0.159800 0.823379
O O2 0.719998 0.095296 0.826726
O O3 0.615407 0.116756 0.685501
O O4 0.595734 0.964416 0.787832
O O5 0.689596 0.805086 0.836126
O O6 0.596760 0.804723 0.691188
O O7 0.141829 0.776080 0.798512
O O8 0.266993 0.763123 0.930365
O O9 0.249903 0.385410 0.121383
O O10 0.339608 0.400265 0.266720
O O11 0.445528 0.387466 0.121041
O O12 0.372463 0.553380 0.154635
O O13 0.747899 0.082762 0.390388
O O14 0.903200 0.133794 0.503650
#
# Coordination Sequence:
#
# PCOD9542105 Si02
#       7
#     8   8   8   8   8   8   8
#     4  10  20  34  56  84 109 146 180 235 275 346
#     4  10  22  35  56  80 112 146 193 222 287 331
#     4   9  19  32  53  81 110 136 173 225 284 324
#     4  10  22  35  56  80 112 146 193 222 287 331
#     4   9  19  32  53  81 110 136 173 225 284 324
#     4  10  22  37  52  82 113 152 184 240 278 335
#     4  10  20  34  56  84 109 146 180 235 275 346
#
# _framework density 20.426755
#
# number of rings (size 3 to 8) (size 9 to 14) (size 15 to 20)
#    0.000    2.286    0.000    1.714   16.000    1.143 
#    5.143    0.000    0.000    0.000    0.000    0.000 
#    0.000    0.000    0.000    0.000    0.000    0.000 
#
# Total GULP energy -155908.563440 kJ/mol
# GULP energy per Si atom -5568.162980 kJ/mol
# Density = 2.038026 g / cm^3
# Si number density = 20.426755 Si / 1000 Ang^3
#
#
#
# Elastic Constant Matrix: (Units=GPa)
#
#
# Indices 1 2 3 4 5 6 
#
# 1 49.6294 -1.7498 4.5477 0.0000 0.0000 -4.7235
# 2 -1.7498 49.6294 4.5477 0.0000 0.0000 4.7235
# 3 4.5477 4.5477 36.5719 0.0000 0.0000 0.0000
# 4 0.0000 0.0000 0.0000 20.4720 0.0000 0.0000
# 5 0.0000 0.0000 0.0000 0.0000 20.4720 0.0000
# 6 -4.7235 4.7235 0.0000 0.0000 0.0000 19.6120
#
#
#
# Elastic Compliance Matrix: (Units=1/GPa)
#
#
# Indices 1 2 3 4 5 6 
#
# 1 0.020878 0.000513 -0.002660 0.000000 0.000000 0.004905
# 2 0.000513 0.020878 -0.002660 0.000000 0.000000 -0.004905
# 3 -0.002660 -0.002660 0.028005 0.000000 0.000000 0.000000
# 4 0.000000 0.000000 0.000000 0.048847 0.000000 0.000000
# 5 0.000000 0.000000 0.000000 0.000000 0.048847 0.000000
# 6 0.004905 -0.004905 0.000000 0.000000 0.000000 0.053352
#
#
# Mechanical properties :
#
#
# Convention : Reuss Voigt Hill
#
# Bulk Modulus (GPa) = 16.62592 16.72467 16.67530
# Shear Modulus (GPa) = 19.96249 20.67690 20.31970
#
# Velocity S-wave (km/s) = 3.12953 3.18503 3.15740
# Velocity P-wave (km/s) = 4.60603 4.66169 4.63394
#
# Compressibility (1/GPa) = 0.06014705
#
# Stress axis : x y z
#
# Youngs Moduli (GPa) = 47.89735 47.89735 35.70798
#
# Poissons Ratio (x) = -0.02457 0.09498
# Poissons Ratio (y) = -0.02457 0.09498
# Poissons Ratio (z) = 0.12741 0.12741
#
# Static dielectric constant tensor:
#      x y z
#    x 1.823870 0.000000 0.000000 
#    y 0.000000 1.823870 0.000000 
#    z 0.000000 0.000000 1.721750 
# 
# From -- ./inp_files/1326.got.cif
#   From: 2010.05.17/outbox.cif.g08.bks.cpg/sg80_cif.got.tgz:1326.got - 2010.06.03 18:49:13.
