data_PCOD9542025
_publ_section_title
;
Structure prediction by ZEFSAII (Michael W. Deem and Ramdas Pophale) SiO2 
 PCOD9542025
Probable space group: I 4
;
_chemical_formula_sum "Si O2"
_cell_formula_units_Z 42
_cell_length_a 9.588158
_cell_length_b 9.588158
_cell_length_c 23.577865
_cell_angle_alpha 90.000000
_cell_angle_beta 90.000000
_cell_angle_gamma 90.000000
_cell_volume 2167.578531
_symmetry_space_group_name_H-M "I 4"
_symmetry_group_IT_number 79
_symmetry_cell_setting 'tetragonal'
loop_
_space_group_symop_operation_xyz
x,y,z
-y,x,z
-x,-y,z
y,-x,z
1/2+x,1/2+y,1/2+z
1/2-y,1/2+x,1/2+z
1/2-x,1/2-y,1/2+z
1/2+y,1/2-x,1/2+z
loop_
_atom_site_type_symbol
_atom_site_label
_atom_site_fract_x
_atom_site_fract_y
_atom_site_fract_z
Si Si1 0.969185 0.658443 0.637530
Si Si2 0.875679 0.198117 0.463117
Si Si3 0.247882 0.789347 0.073872
Si Si4 0.391581 0.707671 0.831009
Si Si5 0.500000 0.500000 0.591491
Si Si6 0.091663 0.211996 0.757398
O O1 0.853235 0.668094 0.588841
O O2 0.913346 0.742745 0.691721
O O3 0.000000 0.500000 0.655199
O O4 0.111913 0.714890 0.611270
O O5 0.798035 0.293283 0.508619
O O6 0.862374 0.238816 0.397277
O O7 0.041786 0.184117 0.472082
O O8 0.150429 0.917299 0.089797
O O9 0.318873 0.556468 0.820726
O O10 0.331027 0.830416 0.792749
O O11 0.930135 0.177036 0.769701
#
# Coordination Sequence:
#
# PCOD9542025 Si02
#       6
#     8   8   8   8   2   8
#     4  12  25  41  68  97 133 175 224 276 343 403
#     4   9  18  37  71 101 126 167 230 279 317 389
#     4  12  23  43  67  99 132 173 223 275 338 411
#     4   9  21  43  67  97 130 175 227 271 326 398
#     4  12  28  44  56  92 148 172 212 264 344 430
#     4  11  25  42  62  96 130 167 221 280 334 390
#
# _framework density 19.376462
#
# number of rings (size 3 to 8) (size 9 to 14) (size 15 to 20)
#    0.000    1.333    5.714    1.143    2.667    0.381 
#    3.429    0.000    0.000    0.000    0.000    0.000 
#    0.000    0.000    0.000    0.000    0.000    0.000 
#
# Total GULP energy -116918.510682 kJ/mol
# GULP energy per Si atom -5567.548128 kJ/mol
# Density = 1.933236 g / cm^3
# Si number density = 19.376462 Si / 1000 Ang^3
#
#
#
# Elastic Constant Matrix: (Units=GPa)
#
#
# Indices 1 2 3 4 5 6 
#
# 1 81.1178 33.1295 37.0023 0.0000 0.0000 7.9137
# 2 33.1295 81.1178 37.0023 0.0000 0.0000 -7.9137
# 3 37.0023 37.0023 80.2483 0.0000 0.0000 0.0000
# 4 0.0000 0.0000 0.0000 14.7479 0.0000 0.0000
# 5 0.0000 0.0000 0.0000 0.0000 14.7479 0.0000
# 6 7.9137 -7.9137 0.0000 0.0000 0.0000 56.3949
#
#
#
# Elastic Compliance Matrix: (Units=1/GPa)
#
#
# Indices 1 2 3 4 5 6 
#
# 1 0.017165 -0.004685 -0.005755 0.000000 0.000000 -0.003066
# 2 -0.004685 0.017165 -0.005755 0.000000 0.000000 0.003066
# 3 -0.005755 -0.005755 0.017768 0.000000 0.000000 0.000000
# 4 0.000000 0.000000 0.000000 0.067806 0.000000 0.000000
# 5 0.000000 0.000000 0.000000 0.000000 0.067806 0.000000
# 6 -0.003066 0.003066 0.000000 0.000000 0.000000 0.018593
#
#
# Mechanical properties :
#
#
# Convention : Reuss Voigt Hill
#
# Bulk Modulus (GPa) = 50.73439 50.75020 50.74230
# Shear Modulus (GPa) = 20.38638 26.20148 23.29393
#
# Velocity S-wave (km/s) = 3.24716 3.68126 3.47100
# Velocity P-wave (km/s) = 6.34816 6.65713 6.50448
#
# Compressibility (1/GPa) = 0.01971050
#
# Stress axis : x y z
#
# Youngs Moduli (GPa) = 58.25753 58.25753 56.27981
#
# Poissons Ratio (x) = 0.27291 0.32388
# Poissons Ratio (y) = 0.27291 0.32388
# Poissons Ratio (z) = 0.33526 0.33526
#
# Static dielectric constant tensor:
#      x y z
#    x 1.779620 0.000000 0.000000 
#    y 0.000000 1.779620 0.000000 
#    z 0.000000 0.000000 1.682830 
# 
# From -- ./inp_files/2032.got.cif
#   From: 2010.05.17/outbox.cif.g08.bks.cpg/sg79_cif.got.tgz:2032.got - 2010.06.03 18:47:27.
