data_PCOD9542766
_publ_section_title
;
Structure prediction by ZEFSAII (Michael W. Deem and Ramdas Pophale) SiO2 
 PCOD9542766
Probable space group: I -4 
;
_chemical_formula_sum "Si O2"
_cell_formula_units_Z 64
_cell_length_a 10.974279
_cell_length_b 10.974279
_cell_length_c 26.347507
_cell_angle_alpha 90.000000
_cell_angle_beta 90.000000
_cell_angle_gamma 90.000000
_cell_volume 3173.156725
_symmetry_space_group_name_H-M "I -4 "
_symmetry_group_IT_number 82
_symmetry_cell_setting 'tetragonal'
loop_
_space_group_symop_operation_xyz
x,y,z
y,-x,-z
-x,-y,z
-y,x,-z
1/2+x,1/2+y,1/2+z
1/2+y,1/2-x,1/2-z
1/2-x,1/2-y,1/2+z
1/2-y,1/2+x,1/2-z
loop_
_atom_site_type_symbol
_atom_site_label
_atom_site_fract_x
_atom_site_fract_y
_atom_site_fract_z
Si Si1 0.072085 0.339920 0.274471
Si Si2 0.142873 0.961645 0.159160
Si Si3 0.576072 0.302407 0.119773
Si Si4 0.037606 0.356284 0.915375
Si Si5 0.367780 0.442980 0.770893
Si Si6 0.065549 0.628466 0.017784
Si Si7 0.341179 0.817753 0.625047
Si Si8 0.171473 0.936835 0.475969
O O1 0.146832 0.431109 0.238748
O O2 0.116802 0.202556 0.266712
O O3 0.096048 0.389263 0.330873
O O4 0.251180 0.012440 0.122400
O O5 0.153266 0.816168 0.150798
O O6 0.171313 0.000451 0.217166
O O7 0.000000 0.000000 0.149475
O O8 0.626898 0.178599 0.095979
O O9 0.536565 0.289618 0.178113
O O10 0.704201 0.373864 0.117412
O O11 0.468951 0.344791 0.083196
O O12 0.000000 0.500000 0.910233
O O13 0.014543 0.313166 0.972971
O O14 0.500000 0.500000 0.782390
O O15 0.090477 0.689193 0.071714
O O16 0.000000 0.500000 0.028438
O O17 0.195896 0.609736 0.990363
O O18 0.065392 0.849656 0.495497
#
# Coordination Sequence:
#
# PCOD9542766 Si02
#       8
#     8   8   8   8   8   8   8   8
#     4  10  21  38  62  91 126 159 209 262 310 378
#     4  10  22  46  65  92 131 171 217 267 328 400
#     4  10  20  41  61  90 124 163 209 269 320 379
#     4  10  21  43  63  89 131 166 215 274 319 394
#     4  10  22  40  66  88 128 172 206 265 330 383
#     4  11  22  40  62  89 128 171 203 262 334 376
#     4  10  22  41  64  88 128 166 206 267 320 383
#     4  11  22  37  63  91 121 156 213 266 312 386
#
# _framework density 20.169187999999998
#
# number of rings (size 3 to 8) (size 9 to 14) (size 15 to 20)
#    0.000    1.750    3.750    1.500    3.500    0.000 
#   15.750    0.000    0.000    0.000    0.000    0.000 
#    0.000    0.000    0.000    0.000    0.000    0.000 
#
# Total GULP energy -178205.791483 kJ/mol
# GULP energy per Si atom -5568.930984 kJ/mol
# Density = 2.012328 g / cm^3
# Si number density = 20.169188 Si / 1000 Ang^3
#
#
#
# Elastic Constant Matrix: (Units=GPa)
#
#
# Indices 1 2 3 4 5 6 
#
# 1 64.9960 -12.0568 50.1390 0.0000 0.0000 -0.1580
# 2 -12.0568 64.9960 50.1390 0.0000 0.0000 0.1580
# 3 50.1390 50.1390 199.9967 0.0000 0.0000 0.0000
# 4 0.0000 0.0000 0.0000 12.2051 0.0000 0.0000
# 5 0.0000 0.0000 0.0000 0.0000 12.2051 0.0000
# 6 -0.1580 0.1580 0.0000 0.0000 0.0000 17.8788
#
#
#
# Elastic Compliance Matrix: (Units=1/GPa)
#
#
# Indices 1 2 3 4 5 6 
#
# 1 0.024475 0.011497 -0.009018 0.000000 0.000000 0.000115
# 2 0.011497 0.024475 -0.009018 0.000000 0.000000 -0.000115
# 3 -0.009018 -0.009018 0.009522 0.000000 0.000000 0.000000
# 4 0.000000 0.000000 0.000000 0.081933 0.000000 0.000000
# 5 0.000000 0.000000 0.000000 0.000000 0.081933 0.000000
# 6 0.000115 -0.000115 0.000000 0.000000 0.000000 0.055934
#
#
# Mechanical properties :
#
#
# Convention : Reuss Voigt Hill
#
# Bulk Modulus (GPa) = 22.02980 56.27012 39.14996
# Shear Modulus (GPa) = 16.31411 24.57561 20.44486
#
# Velocity S-wave (km/s) = 2.84714 3.49445 3.18727
# Velocity P-wave (km/s) = 4.66417 6.65141 5.74437
#
# Compressibility (1/GPa) = 0.04539307
#
# Stress axis : x y z
#
# Youngs Moduli (GPa) = 40.85759 40.85759 105.02251
#
# Poissons Ratio (x) = -0.46973 0.94711
# Poissons Ratio (y) = -0.46973 0.94711
# Poissons Ratio (z) = 0.36846 0.36846
#
# Static dielectric constant tensor:
#      x y z
#    x 1.894500 0.000000 0.000000 
#    y 0.000000 1.894500 0.000000 
#    z 0.000000 0.000000 1.765980 
# 
# From -- ./inp_files/3811.got.cif
#   From: 2010.05.17/outbox.cif.g08.bks.cpg/sg82_2_cif.got.tgz:3811.got - 2010.06.03 18:52:26.
