data_PCOD9542963
_publ_section_title
;
Structure prediction by ZEFSAII (Michael W. Deem and Ramdas Pophale) SiO2 
 PCOD9542963
Probable space group: I -4 
;
_chemical_formula_sum "Si O2"
_cell_formula_units_Z 40
_cell_length_a 14.102628
_cell_length_b 14.102628
_cell_length_c 7.945918
_cell_angle_alpha 90.000000
_cell_angle_beta 90.000000
_cell_angle_gamma 90.000000
_cell_volume 1580.316881
_symmetry_space_group_name_H-M "I -4 "
_symmetry_group_IT_number 82
_symmetry_cell_setting 'tetragonal'
loop_
_space_group_symop_operation_xyz
x,y,z
y,-x,-z
-x,-y,z
-y,x,-z
1/2+x,1/2+y,1/2+z
1/2+y,1/2-x,1/2-z
1/2-x,1/2-y,1/2+z
1/2-y,1/2+x,1/2-z
loop_
_atom_site_type_symbol
_atom_site_label
_atom_site_fract_x
_atom_site_fract_y
_atom_site_fract_z
Si Si1 0.272541 0.245372 0.684613
Si Si2 0.389790 0.825025 0.124871
Si Si3 0.500000 0.500000 0.500000
Si Si4 0.000000 0.500000 0.750000
Si Si5 0.202462 0.544089 0.127342
Si Si6 0.500000 0.500000 0.000000
Si Si7 0.000000 0.500000 0.250000
Si Si8 0.147477 0.077353 0.760523
O O1 0.232297 0.351427 0.711989
O O2 0.317776 0.192730 0.520914
O O3 0.349462 0.233634 0.835500
O O4 0.180615 0.181573 0.719510
O O5 0.421203 0.932494 0.161517
O O6 0.483635 0.777696 0.041180
O O7 0.574321 0.568385 0.409411
O O8 0.089975 0.536981 0.147867
O O9 0.256611 0.483811 0.271724
O O10 0.528108 0.411656 0.887356
#
# Coordination Sequence:
#
# PCOD9542963 Si02
#       8
#     8   8   2   2   8   2   2   8
#     4  11  27  49  78 115 160 220 278 347 431 515
#     4  11  28  51  81 121 167 220 282 357 428 518
#     4  10  24  46  64 110 144 198 260 346 396 502
#     4  12  30  52  86 132 170 216 298 356 422 512
#     4  11  24  45  75 108 154 216 270 343 422 506
#     4  10  24  46  68 102 148 206 264 326 420 510
#     4  12  18  44  72 106 146 212 276 334 422 488
#     4  10  24  44  72 101 149 200 263 333 413 497
#
# _framework density 25.311381000000001
#
# number of rings (size 3 to 8) (size 9 to 14) (size 15 to 20)
#    0.000    1.200    4.000    0.600   11.200    1.600 
#    3.600    0.000    0.000    0.000    0.000    0.000 
#    0.000    0.000    0.000    0.000    0.000    0.000 
#
# Total GULP energy -111686.677208 kJ/mol
# GULP energy per Si atom -5584.333860 kJ/mol
# Density = 2.525377 g / cm^3
# Si number density = 25.311381 Si / 1000 Ang^3
#
#
#
# Elastic Constant Matrix: (Units=GPa)
#
#
# Indices 1 2 3 4 5 6 
#
# 1 114.5761 38.0421 27.8915 0.0000 0.0000 3.1390
# 2 38.0421 114.5761 27.8915 0.0000 0.0000 -3.1390
# 3 27.8915 27.8915 57.8790 0.0000 0.0000 0.0000
# 4 0.0000 0.0000 0.0000 32.7814 0.0000 0.0000
# 5 0.0000 0.0000 0.0000 0.0000 32.7814 0.0000
# 6 3.1390 -3.1390 0.0000 0.0000 0.0000 59.6748
#
#
#
# Elastic Compliance Matrix: (Units=1/GPa)
#
#
# Indices 1 2 3 4 5 6 
#
# 1 0.010538 -0.002585 -0.003833 0.000000 0.000000 -0.000690
# 2 -0.002585 0.010538 -0.003833 0.000000 0.000000 0.000690
# 3 -0.003833 -0.003833 0.020971 0.000000 0.000000 0.000000
# 4 0.000000 0.000000 0.000000 0.030505 0.000000 0.000000
# 5 0.000000 0.000000 0.000000 0.000000 0.030505 0.000000
# 6 -0.000690 0.000690 0.000000 0.000000 0.000000 0.016830
#
#
# Mechanical properties :
#
#
# Convention : Reuss Voigt Hill
#
# Bulk Modulus (GPa) = 46.40974 52.74239 49.57606
# Shear Modulus (GPa) = 33.88232 37.92793 35.90513
#
# Velocity S-wave (km/s) = 3.66268 3.87519 3.77043
# Velocity P-wave (km/s) = 6.02182 6.39573 6.21159
#
# Compressibility (1/GPa) = 0.02154720
#
# Stress axis : x y z
#
# Youngs Moduli (GPa) = 94.89540 94.89540 47.68447
#
# Poissons Ratio (x) = 0.24528 0.18275
# Poissons Ratio (y) = 0.24528 0.18275
# Poissons Ratio (z) = 0.36369 0.36369
#
# Static dielectric constant tensor:
#      x y z
#    x 1.932650 0.000000 0.000000 
#    y 0.000000 1.932650 0.000000 
#    z 0.000000 0.000000 2.164390 
# 
# From -- ./inp_files/988.got.cif
#   From: 2010.05.17/outbox.cif.g08.bks.cpg/sg82_1_cif.got.tgz:988.got - 2010.06.03 18:52:26.
