data_PCOD9542170
_publ_section_title
;
Structure prediction by ZEFSAII (Michael W. Deem and Ramdas Pophale) SiO2 
 PCOD9542170
Probable space group: I 41
;
_chemical_formula_sum "Si O2"
_cell_formula_units_Z 40
_cell_length_a 16.040868
_cell_length_b 16.040868
_cell_length_c 7.686516
_cell_angle_alpha 90.000000
_cell_angle_beta 90.000000
_cell_angle_gamma 90.000000
_cell_volume 1977.813175
_symmetry_space_group_name_H-M "I 41"
_symmetry_group_IT_number 80
_symmetry_cell_setting 'tetragonal'
loop_
_space_group_symop_operation_xyz
x,y,z
-y,1/2+x,1/4+z
-x,-y,z
y,1/2-x,1/4+z
1/2+x,1/2+y,1/2+z
1/2-y,x,3/4+z
1/2-x,1/2-y,1/2+z
1/2+y,-x,3/4+z
loop_
_atom_site_type_symbol
_atom_site_label
_atom_site_fract_x
_atom_site_fract_y
_atom_site_fract_z
Si Si1 0.540317 0.407258 0.177450
Si Si2 0.478617 0.310855 0.519200
Si Si3 0.290159 0.355740 0.034254
Si Si4 0.549767 0.586354 0.852519
Si Si5 0.641317 0.220138 0.518456
O O1 0.500000 0.500000 0.181109
O O2 0.509819 0.363474 0.352969
O O3 0.639601 0.397673 0.171855
O O4 0.504762 0.367312 0.000861
O O5 0.409759 0.250860 0.437905
O O6 0.442873 0.367454 0.670859
O O7 0.559548 0.264156 0.596656
O O8 0.328326 0.275724 0.135546
O O9 0.359847 0.413268 0.941905
O O10 0.500000 0.500000 0.821878
O O11 0.711330 0.185307 0.647437
#
# Coordination Sequence:
#
# PCOD9542170 Si02
#       5
#     8   8   8   8   8
#     4  10  21  44  67  94 140 180 228 283 333 411
#     4  11  23  43  67 103 134 182 230 280 351 406
#     4  12  25  47  71 106 140 181 233 296 353 413
#     4  11  24  44  71 102 134 188 231 278 345 423
#     4  10  24  42  67 101 138 181 224 293 343 404
#
# _framework density 20.224356
#
# number of rings (size 3 to 8) (size 9 to 14) (size 15 to 20)
#    0.000    1.200    2.000    4.200    2.800    0.000 
#    7.200    0.000    0.000    0.000    0.000    0.000 
#    0.000    0.000    0.000    0.000    0.000    0.000 
#
# Total GULP energy -111561.116950 kJ/mol
# GULP energy per Si atom -5578.055848 kJ/mol
# Density = 2.017832 g / cm^3
# Si number density = 20.224356 Si / 1000 Ang^3
#
#
#
# Elastic Constant Matrix: (Units=GPa)
#
#
# Indices 1 2 3 4 5 6 
#
# 1 107.6964 39.9704 31.3997 0.0000 0.0000 5.1400
# 2 39.9704 107.6964 31.3997 0.0000 0.0000 -5.1400
# 3 31.3997 31.3997 103.4161 0.0000 0.0000 0.0000
# 4 0.0000 0.0000 0.0000 24.7323 0.0000 0.0000
# 5 0.0000 0.0000 0.0000 0.0000 24.7323 0.0000
# 6 5.1400 -5.1400 0.0000 0.0000 0.0000 25.0863
#
#
#
# Elastic Compliance Matrix: (Units=1/GPa)
#
#
# Indices 1 2 3 4 5 6 
#
# 1 0.011508 -0.003732 -0.002361 0.000000 0.000000 -0.003122
# 2 -0.003732 0.011508 -0.002361 0.000000 0.000000 0.003122
# 3 -0.002361 -0.002361 0.011103 0.000000 0.000000 0.000000
# 4 0.000000 0.000000 0.000000 0.040433 0.000000 0.000000
# 5 0.000000 0.000000 0.000000 0.000000 0.040433 0.000000
# 6 -0.003122 0.003122 0.000000 0.000000 0.000000 0.041142
#
#
# Mechanical properties :
#
#
# Convention : Reuss Voigt Hill
#
# Bulk Modulus (GPa) = 58.10060 58.26093 58.18077
# Shear Modulus (GPa) = 27.96871 29.31278 28.64074
#
# Velocity S-wave (km/s) = 3.72280 3.81120 3.76726
# Velocity P-wave (km/s) = 6.87527 6.94528 6.91036
#
# Compressibility (1/GPa) = 0.01721153
#
# Stress axis : x y z
#
# Youngs Moduli (GPa) = 86.89826 86.89826 90.06256
#
# Poissons Ratio (x) = 0.32427 0.21264
# Poissons Ratio (y) = 0.32427 0.21264
# Poissons Ratio (z) = 0.20517 0.20517
#
# Static dielectric constant tensor:
#      x y z
#    x 1.774760 0.000000 0.000000 
#    y 0.000000 1.774760 0.000000 
#    z 0.000000 0.000000 1.691210 
# 
# From -- ./inp_files/613.got.cif
#   From: 2010.05.17/outbox.cif.g08.bks.cpg/sg80_cif.got.tgz:613.got - 2010.06.03 18:49:13.
