data_PCOD9542834
_publ_section_title
;
Structure prediction by ZEFSAII (Michael W. Deem and Ramdas Pophale) SiO2 
 PCOD9542834
Probable space group: I -4 
;
_chemical_formula_sum "Si O2"
_cell_formula_units_Z 48
_cell_length_a 8.569116
_cell_length_b 8.569116
_cell_length_c 29.716019
_cell_angle_alpha 90.000000
_cell_angle_beta 90.000000
_cell_angle_gamma 90.000000
_cell_volume 2182.039817
_symmetry_space_group_name_H-M "I -4 "
_symmetry_group_IT_number 82
_symmetry_cell_setting 'tetragonal'
loop_
_space_group_symop_operation_xyz
x,y,z
y,-x,-z
-x,-y,z
-y,x,-z
1/2+x,1/2+y,1/2+z
1/2+y,1/2-x,1/2-z
1/2-x,1/2-y,1/2+z
1/2-y,1/2+x,1/2-z
loop_
_atom_site_type_symbol
_atom_site_label
_atom_site_fract_x
_atom_site_fract_y
_atom_site_fract_z
Si Si1 0.648018 0.208229 0.821779
Si Si2 0.751241 0.085235 0.002939
Si Si3 0.093064 0.754139 0.422445
Si Si4 0.914080 0.834716 0.253216
Si Si5 0.959038 0.321514 0.682610
Si Si6 0.244632 0.094021 0.417695
O O1 0.610408 0.177099 0.873290
O O2 0.765953 0.095385 0.796340
O O3 0.501450 0.223341 0.788536
O O4 0.723345 0.381253 0.820882
O O5 0.645104 0.138872 0.961410
O O6 0.657759 0.125803 0.048349
O O7 0.908105 0.191075 0.000986
O O8 0.916804 0.815341 0.427335
O O9 0.201628 0.910829 0.423997
O O10 0.744941 0.861563 0.275631
O O11 0.000000 0.000000 0.252170
O O12 0.879501 0.293076 0.634144
O O13 0.000000 0.500000 0.688237
#
# Coordination Sequence:
#
# PCOD9542834 Si02
#       6
#     8   8   8   8   8   8
#     4  10  22  41  64  92 135 173 216 276 324 387
#     4  11  26  44  61  93 135 169 214 273 331 391
#     4  10  21  43  67  96 128 168 218 269 324 389
#     4  10  22  42  62  96 137 173 219 274 327 382
#     4  10  22  37  66 100 127 168 222 264 321 392
#     4  10  21  41  69  96 124 166 215 264 323 391
#
# _framework density 21.997765999999999
#
# number of rings (size 3 to 8) (size 9 to 14) (size 15 to 20)
#    0.000    1.833    1.667    1.000    9.333    3.667 
#    6.000    1.667    0.000    0.000    0.000    0.000 
#    0.000    0.000    0.000    0.000    0.000    0.000 
#
# Total GULP energy -134309.468699 kJ/mol
# GULP energy per Si atom -5596.227862 kJ/mol
# Density = 2.194770 g / cm^3
# Si number density = 21.997766 Si / 1000 Ang^3
#
#
#
# Elastic Constant Matrix: (Units=GPa)
#
#
# Indices 1 2 3 4 5 6 
#
# 1 64.6409 20.1609 29.8973 0.0000 0.0000 -3.1481
# 2 20.1609 64.6409 29.8973 0.0000 0.0000 3.1480
# 3 29.8973 29.8973 120.9574 0.0000 0.0000 0.0000
# 4 0.0000 0.0000 0.0000 20.6616 0.0000 0.0000
# 5 0.0000 0.0000 0.0000 0.0000 20.6616 0.0000
# 6 -3.1481 3.1480 0.0000 0.0000 0.0000 31.5269
#
#
#
# Elastic Compliance Matrix: (Units=1/GPa)
#
#
# Indices 1 2 3 4 5 6 
#
# 1 0.018543 -0.004262 -0.003530 0.000000 0.000000 0.002277
# 2 -0.004262 0.018543 -0.003530 0.000000 0.000000 -0.002277
# 3 -0.003530 -0.003530 0.010012 0.000000 0.000000 0.000000
# 4 0.000000 0.000000 0.000000 0.048399 0.000000 0.000000
# 5 0.000000 0.000000 0.000000 0.000000 0.048399 0.000000
# 6 0.002277 -0.002277 0.000000 0.000000 0.000000 0.032174
#
#
# Mechanical properties :
#
#
# Convention : Reuss Voigt Hill
#
# Bulk Modulus (GPa) = 40.89131 45.57224 43.23178
# Shear Modulus (GPa) = 24.17049 25.92228 25.04639
#
# Velocity S-wave (km/s) = 3.31837 3.43651 3.37796
# Velocity P-wave (km/s) = 5.77159 6.04218 5.90843
#
# Compressibility (1/GPa) = 0.02445507
#
# Stress axis : x y z
#
# Youngs Moduli (GPa) = 53.92944 53.92943 99.87662
#
# Poissons Ratio (x) = 0.22983 0.35255
# Poissons Ratio (y) = 0.22983 0.35255
# Poissons Ratio (z) = 0.19037 0.19037
#
# Static dielectric constant tensor:
#      x y z
#    x 1.805860 0.000000 0.000000 
#    y 0.000000 1.805860 0.000000 
#    z 0.000000 0.000000 1.760450 
# 
# From -- ./inp_files/4024.got.cif
#   From: 2010.05.17/outbox.cif.g08.bks.cpg/sg82_3_cif.got.tgz:4024.got - 2010.06.03 18:52:26.
