data_PCOD9542540
_publ_section_title
;
Structure prediction by ZEFSAII (Michael W. Deem and Ramdas Pophale) SiO2 
 PCOD9542540
Probable space group: P -4
;
_chemical_formula_sum "Si O2"
_cell_formula_units_Z 28
_cell_length_a 7.786430
_cell_length_b 7.786430
_cell_length_c 20.158744
_cell_angle_alpha 90.000000
_cell_angle_beta 90.000000
_cell_angle_gamma 90.000000
_cell_volume 1222.194252
_symmetry_space_group_name_H-M "P -4"
_symmetry_group_IT_number 81
_symmetry_cell_setting 'tetragonal'
loop_
_space_group_symop_operation_xyz
x,y,z
y,-x,-z
-x,-y,z
-y,x,-z
loop_
_atom_site_type_symbol
_atom_site_label
_atom_site_fract_x
_atom_site_fract_y
_atom_site_fract_z
Si Si1 0.000000 0.500000 0.747590
Si Si2 0.730716 0.098918 0.361516
Si Si3 0.610868 0.769311 0.855922
Si Si4 0.767613 0.384746 1.000000
Si Si5 0.269284 0.901082 0.638484
Si Si6 0.230689 0.610868 0.855922
Si Si7 0.602180 0.230674 0.500000
Si Si8 0.500000 0.000000 0.747590
O O1 0.871532 0.599206 0.698303
O O2 0.900191 0.368965 0.795852
O O3 0.649072 0.131990 0.433089
O O4 0.901179 0.211831 0.356320
O O5 0.788169 0.901179 0.356320
O O6 0.648855 0.850469 0.928502
O O7 0.409153 0.714086 0.852134
O O8 0.714086 0.590847 0.852134
O O9 0.631035 0.900191 0.795852
O O10 0.585723 0.284985 1.000000
O O11 0.850469 0.351145 0.928502
O O12 0.350928 0.868010 0.566911
O O13 0.400794 0.871532 0.698303
O O14 0.405139 0.286817 0.500000
#
# Coordination Sequence:
#
# PCOD9542540 Si02
#       8
#     2   4   4   4   4   4   4   2
#     4  12  22  34  54  82 114 146 188 232 270 326
#     4  11  24  41  60  83 115 153 186 222 276 336
#     4   9  18  33  53  77 107 144 185 232 283 329
#     4   7  12  27  50  74 102 138 182 230 280 331
#     4  11  24  41  60  83 115 153 186 222 276 336
#     4   9  18  33  53  77 107 144 185 232 283 329
#     4  11  24  43  68  93 112 136 180 233 274 317
#     4  12  22  34  54  82 114 146 188 232 270 326
#
# _framework density 22.909614000000001
#
# number of rings (size 3 to 8) (size 9 to 14) (size 15 to 20)
#    0.000    2.000    0.000    6.000    0.000    3.429 
#    0.000    2.857    0.000    0.000    0.000    0.000 
#    0.000   18.286    0.000    0.000    0.000    0.000 
#
# Total GULP energy -156570.548956 kJ/mol
# GULP energy per Si atom -5591.805320 kJ/mol
# Density = 2.285747 g / cm^3
# Si number density = 22.909614 Si / 1000 Ang^3
#
#
#
# Elastic Constant Matrix: (Units=GPa)
#
#
# Indices 1 2 3 4 5 6 
#
# 1 57.7711 3.6028 29.8103 0.0000 0.0000 8.8618
# 2 3.6028 57.7711 29.8103 0.0000 0.0000 -8.8618
# 3 29.8103 29.8103 217.1177 0.0000 0.0000 0.0000
# 4 0.0000 0.0000 0.0000 17.5329 0.0000 0.0000
# 5 0.0000 0.0000 0.0000 0.0000 17.5329 0.0000
# 6 8.8618 -8.8618 0.0000 0.0000 0.0000 24.5563
#
#
#
# Elastic Compliance Matrix: (Units=1/GPa)
#
#
# Indices 1 2 3 4 5 6 
#
# 1 0.019867 -0.001066 -0.002581 0.000000 0.000000 -0.007554
# 2 -0.001066 0.019867 -0.002581 0.000000 0.000000 0.007554
# 3 -0.002581 -0.002581 0.005315 0.000000 0.000000 0.000000
# 4 0.000000 0.000000 0.000000 0.057036 0.000000 0.000000
# 5 0.000000 0.000000 0.000000 0.000000 0.057036 0.000000
# 6 -0.007554 0.007554 0.000000 0.000000 0.000000 0.046175
#
#
# Mechanical properties :
#
#
# Convention : Reuss Voigt Hill
#
# Bulk Modulus (GPa) = 30.68287 51.01185 40.84736
# Shear Modulus (GPa) = 21.87078 29.88686 25.87882
#
# Velocity S-wave (km/s) = 3.09310 3.61578 3.36461
# Velocity P-wave (km/s) = 5.11649 6.30450 5.74131
#
# Compressibility (1/GPa) = 0.03259148
#
# Stress axis : x y z
#
# Youngs Moduli (GPa) = 50.33490 50.33490 188.15909
#
# Poissons Ratio (x) = 0.05364 0.48572
# Poissons Ratio (y) = 0.05364 0.48572
# Poissons Ratio (z) = 0.12994 0.12994
#
# Static dielectric constant tensor:
#      x y z
#    x 1.853530 0.000000 0.000000 
#    y 0.000000 1.853530 0.000000 
#    z 0.000000 0.000000 1.866440 
# 
# From -- ./inp_files/1790.got.cif
#   From: 2010.05.17/outbox.cif.g08.bks.cpg/sg81_cif.got.tgz:1790.got - 2010.06.03 18:51:07.
