data_PCOD9542967
_publ_section_title
;
Structure prediction by ZEFSAII (Michael W. Deem and Ramdas Pophale) SiO2 
 PCOD9542967
Probable space group: I -4 
;
_chemical_formula_sum "Si O2"
_cell_formula_units_Z 50
_cell_length_a 8.581926
_cell_length_b 8.581926
_cell_length_c 32.092999
_cell_angle_alpha 90.000000
_cell_angle_beta 90.000000
_cell_angle_gamma 90.000000
_cell_volume 2363.631849
_symmetry_space_group_name_H-M "I -4 "
_symmetry_group_IT_number 82
_symmetry_cell_setting 'tetragonal'
loop_
_space_group_symop_operation_xyz
x,y,z
y,-x,-z
-x,-y,z
-y,x,-z
1/2+x,1/2+y,1/2+z
1/2+y,1/2-x,1/2-z
1/2-x,1/2-y,1/2+z
1/2-y,1/2+x,1/2-z
loop_
_atom_site_type_symbol
_atom_site_label
_atom_site_fract_x
_atom_site_fract_y
_atom_site_fract_z
Si Si1 0.594074 0.762073 0.239688
Si Si2 0.114929 0.207735 0.432322
Si Si3 0.786208 0.871230 0.001325
Si Si4 0.000000 0.500000 0.123411
Si Si5 0.790978 0.761080 0.158428
Si Si6 0.500000 0.500000 0.000000
Si Si7 0.666923 0.074968 0.417724
Si Si8 0.000000 0.000000 0.796394
O O1 0.411548 0.813483 0.241302
O O2 0.661215 0.728768 0.193822
O O3 0.608614 0.606231 0.266961
O O4 0.251291 0.273537 0.460639
O O5 0.055805 0.350445 0.404332
O O6 0.995593 0.145345 0.468128
O O7 0.195538 0.054339 0.412903
O O8 0.654351 0.854646 0.036658
O O9 0.953404 0.808585 0.015316
O O10 0.076815 0.367807 0.151851
O O11 0.709071 0.791582 0.114697
O O12 0.878891 0.912041 0.174831
O O13 0.500000 0.000000 0.406933
#
# Coordination Sequence:
#
# PCOD9542967 Si02
#       8
#     8   8   8   4   8   2   8   4
#     4   9  21  44  73 105 137 183 231 280 342 438
#     4  12  26  43  67  94 136 186 241 288 344 425
#     4  11  24  43  65  95 134 181 239 293 349 412
#     4  12  30  46  65 102 148 184 228 304 367 410
#     4  11  27  45  71 104 146 184 228 295 357 415
#     4  12  24  40  70  92 124 184 248 292 336 422
#     4  12  26  42  69 107 133 188 234 299 355 416
#     4  10  24  44  77 108 139 182 233 284 338 431
#
# _framework density 21.153884999999999
#
# number of rings (size 3 to 8) (size 9 to 14) (size 15 to 20)
#    0.000    0.960    3.200    1.920   10.080    5.120 
#    0.000    0.000    0.000    0.000    0.000    0.000 
#    0.000    0.000    0.000    0.000    0.000    0.000 
#
# Total GULP energy -139533.811811 kJ/mol
# GULP energy per Si atom -5581.352472 kJ/mol
# Density = 2.110574 g / cm^3
# Si number density = 21.153885 Si / 1000 Ang^3
#
#
#
# Elastic Constant Matrix: (Units=GPa)
#
#
# Indices 1 2 3 4 5 6 
#
# 1 79.9965 11.9621 19.3777 0.0000 0.0000 8.0991
# 2 11.9621 79.9965 19.3777 0.0000 0.0000 -8.0991
# 3 19.3777 19.3777 66.8665 0.0000 0.0000 0.0000
# 4 0.0000 0.0000 0.0000 24.4404 0.0000 0.0000
# 5 0.0000 0.0000 0.0000 0.0000 24.4404 0.0000
# 6 8.0991 -8.0991 0.0000 0.0000 0.0000 38.7529
#
#
#
# Elastic Compliance Matrix: (Units=1/GPa)
#
#
# Indices 1 2 3 4 5 6 
#
# 1 0.013928 -0.001540 -0.003590 0.000000 0.000000 -0.003233
# 2 -0.001540 0.013928 -0.003590 0.000000 0.000000 0.003233
# 3 -0.003590 -0.003590 0.017036 0.000000 0.000000 0.000000
# 4 0.000000 0.000000 0.000000 0.040916 0.000000 0.000000
# 5 0.000000 0.000000 0.000000 0.000000 0.040916 0.000000
# 6 -0.003233 0.003233 0.000000 0.000000 0.000000 0.027156
#
#
# Mechanical properties :
#
#
# Convention : Reuss Voigt Hill
#
# Bulk Modulus (GPa) = 36.42820 36.47717 36.45269
# Shear Modulus (GPa) = 27.70556 29.26954 28.48755
#
# Velocity S-wave (km/s) = 3.62292 3.72378 3.67370
# Velocity P-wave (km/s) = 5.89565 5.98079 5.93837
#
# Compressibility (1/GPa) = 0.02745126
#
# Stress axis : x y z
#
# Youngs Moduli (GPa) = 71.79909 71.79910 58.69990
#
# Poissons Ratio (x) = 0.11060 0.21072
# Poissons Ratio (y) = 0.11060 0.21072
# Poissons Ratio (z) = 0.25775 0.25775
#
# Static dielectric constant tensor:
#      x y z
#    x 1.819170 0.000000 0.000000 
#    y 0.000000 1.819170 0.000000 
#    z 0.000000 0.000000 1.734840 
# 
# From -- ./inp_files/4126.got.cif
#   From: 2010.05.17/outbox.cif.g08.bks.cpg/sg82_3_cif.got.tgz:4126.got - 2010.06.03 18:52:26.
