data_PCOD9542340
_publ_section_title
;
Structure prediction by ZEFSAII (Michael W. Deem and Ramdas Pophale) SiO2 
 PCOD9542340
Probable space group: P -4
;
_chemical_formula_sum "Si O2"
_cell_formula_units_Z 20
_cell_length_a 8.119974
_cell_length_b 8.119974
_cell_length_c 12.188429
_cell_angle_alpha 90.000000
_cell_angle_beta 90.000000
_cell_angle_gamma 90.000000
_cell_volume 803.631607
_symmetry_space_group_name_H-M "P -4"
_symmetry_group_IT_number 81
_symmetry_cell_setting 'tetragonal'
loop_
_space_group_symop_operation_xyz
x,y,z
y,-x,-z
-x,-y,z
-y,x,-z
loop_
_atom_site_type_symbol
_atom_site_label
_atom_site_fract_x
_atom_site_fract_y
_atom_site_fract_z
Si Si1 0.121064 0.748760 0.495904
Si Si2 0.205363 0.720227 0.263476
Si Si3 0.813203 0.074325 0.886778
Si Si4 0.709628 0.635515 0.950355
Si Si5 0.667176 0.924756 0.272261
O O1 0.183679 0.656084 0.386186
O O2 0.926019 0.791125 0.480919
O O3 0.145618 0.642889 0.606280
O O4 0.354920 0.683744 0.180995
O O5 0.215888 0.916058 0.288431
O O6 0.053093 0.701591 0.180734
O O7 0.813092 0.236183 0.811191
O O8 0.735281 0.132811 0.002233
O O9 0.000000 0.000000 0.890084
O O10 0.715554 0.452658 0.996449
O O11 0.500000 0.000000 0.226642
#
# Coordination Sequence:
#
# PCOD9542340 Si02
#       5
#     4   4   4   4   4
#     4   9  16  34  56  86 124 160 205 262 326 380
#     4  10  21  37  62  87 121 168 209 266 318 375
#     4  10  22  39  63  92 122 163 218 267 313 373
#     4  11  26  46  64  90 134 177 214 262 325 393
#     4  10  19  34  60  92 127 162 204 264 326 387
#
# _framework density 24.887025000000001
#
# number of rings (size 3 to 8) (size 9 to 14) (size 15 to 20)
#    0.000    2.000    2.000    1.200    5.600    0.800 
#    3.600    0.000    0.000    0.000    0.000    2.800 
#    0.000    0.000    0.000    0.000    0.000    0.000 
#
# Total GULP energy -111666.336230 kJ/mol
# GULP energy per Si atom -5583.316811 kJ/mol
# Density = 2.483038 g / cm^3
# Si number density = 24.887025 Si / 1000 Ang^3
#
#
#
# Elastic Constant Matrix: (Units=GPa)
#
#
# Indices 1 2 3 4 5 6 
#
# 1 59.2012 -4.3613 14.4915 0.0000 0.0000 -11.4892
# 2 -4.3613 59.2012 14.4915 0.0000 0.0000 11.4892
# 3 14.4915 14.4915 170.3030 0.0000 0.0000 0.0000
# 4 0.0000 0.0000 0.0000 27.0348 0.0000 0.0000
# 5 0.0000 0.0000 0.0000 0.0000 27.0348 0.0000
# 6 -11.4892 11.4892 0.0000 0.0000 0.0000 29.8438
#
#
#
# Elastic Compliance Matrix: (Units=1/GPa)
#
#
# Indices 1 2 3 4 5 6 
#
# 1 0.018685 0.000409 -0.001625 0.000000 0.000000 0.007036
# 2 0.000409 0.018685 -0.001625 0.000000 0.000000 -0.007036
# 3 -0.001625 -0.001625 0.006148 0.000000 0.000000 0.000000
# 4 0.000000 0.000000 0.000000 0.036989 0.000000 0.000000
# 5 0.000000 0.000000 0.000000 0.000000 0.036989 0.000000
# 6 0.007036 -0.007036 0.000000 0.000000 0.000000 0.038925
#
#
# Mechanical properties :
#
#
# Convention : Reuss Voigt Hill
#
# Bulk Modulus (GPa) = 26.42938 37.54984 31.98961
# Shear Modulus (GPa) = 28.61796 34.38826 31.50311
#
# Velocity S-wave (km/s) = 3.39472 3.72126 3.56173
# Velocity P-wave (km/s) = 5.09983 5.79522 5.45861
#
# Compressibility (1/GPa) = 0.03783668
#
# Stress axis : x y z
#
# Youngs Moduli (GPa) = 53.51937 53.51937 162.64423
#
# Poissons Ratio (x) = -0.02188 0.26425
# Poissons Ratio (y) = -0.02188 0.26425
# Poissons Ratio (z) = 0.08695 0.08695
#
# Static dielectric constant tensor:
#      x y z
#    x 1.993960 0.000000 0.000000 
#    y 0.000000 1.993960 0.000000 
#    z 0.000000 0.000000 2.055580 
# 
# From -- ./inp_files/1224.got.cif
#   From: 2010.05.17/outbox.cif.g08.bks.cpg/sg81_cif.got.tgz:1224.got - 2010.06.03 18:51:07.
