data_PCOD9542954
_publ_section_title
;
Structure prediction by ZEFSAII (Michael W. Deem and Ramdas Pophale) SiO2 
 PCOD9542954
Probable space group: I -4 
;
_chemical_formula_sum "Si O2"
_cell_formula_units_Z 36
_cell_length_a 9.099228
_cell_length_b 9.099228
_cell_length_c 22.630488
_cell_angle_alpha 90.000000
_cell_angle_beta 90.000000
_cell_angle_gamma 90.000000
_cell_volume 1873.712757
_symmetry_space_group_name_H-M "I -4 "
_symmetry_group_IT_number 82
_symmetry_cell_setting 'tetragonal'
loop_
_space_group_symop_operation_xyz
x,y,z
y,-x,-z
-x,-y,z
-y,x,-z
1/2+x,1/2+y,1/2+z
1/2+y,1/2-x,1/2-z
1/2-x,1/2-y,1/2+z
1/2-y,1/2+x,1/2-z
loop_
_atom_site_type_symbol
_atom_site_label
_atom_site_fract_x
_atom_site_fract_y
_atom_site_fract_z
Si Si1 0.760474 0.505440 0.741097
Si Si2 0.488363 0.669790 0.390026
Si Si3 0.825160 0.811054 0.584862
Si Si4 0.000000 0.000000 0.330025
Si Si5 0.643345 0.909388 0.471584
O O1 0.858539 0.371735 0.765571
O O2 0.696600 0.462285 0.677374
O O3 0.633922 0.542628 0.787343
O O4 0.500000 0.500000 0.406391
O O5 0.318762 0.721083 0.392006
O O6 0.581710 0.771509 0.434586
O O7 0.749054 0.866716 0.525062
O O8 0.866847 0.941687 0.629166
O O9 0.980335 0.732609 0.570504
O O10 0.500000 0.000000 0.493072
#
# Coordination Sequence:
#
# PCOD9542954 Si02
#       5
#     8   8   8   4   8
#     4  11  23  42  67  95 129 173 223 274 329 403
#     4  11  24  40  65 100 134 171 220 276 337 397
#     4  11  23  42  65  98 130 178 219 275 332 397
#     4  12  22  41  70  96 133 172 224 278 332 398
#     4  10  24  41  66  98 131 175 222 271 334 399
#
# _framework density 19.213189
#
# number of rings (size 3 to 8) (size 9 to 14) (size 15 to 20)
#    0.000    1.111    3.333    2.667   12.444    0.000 
#    0.000    0.000    0.000    0.000    0.000    0.000 
#    0.000    0.000    0.000    0.000    0.000    0.000 
#
# Total GULP energy -100596.071831 kJ/mol
# GULP energy per Si atom -5588.670657 kJ/mol
# Density = 1.916946 g / cm^3
# Si number density = 19.213189 Si / 1000 Ang^3
#
#
#
# Elastic Constant Matrix: (Units=GPa)
#
#
# Indices 1 2 3 4 5 6 
#
# 1 129.6489 53.3854 46.5748 0.0000 0.0000 -3.4171
# 2 53.3854 129.6489 46.5748 0.0000 0.0000 3.4171
# 3 46.5748 46.5748 84.2576 0.0000 0.0000 0.0000
# 4 0.0000 0.0000 0.0000 31.8469 0.0000 0.0000
# 5 0.0000 0.0000 0.0000 0.0000 31.8469 0.0000
# 6 -3.4171 3.4171 0.0000 0.0000 0.0000 20.1236
#
#
#
# Elastic Compliance Matrix: (Units=1/GPa)
#
#
# Indices 1 2 3 4 5 6 
#
# 1 0.010459 -0.002857 -0.004202 0.000000 0.000000 0.002261
# 2 -0.002857 0.010459 -0.004202 0.000000 0.000000 -0.002261
# 3 -0.004202 -0.004202 0.016514 0.000000 0.000000 0.000000
# 4 0.000000 0.000000 0.000000 0.031400 0.000000 0.000000
# 5 0.000000 0.000000 0.000000 0.000000 0.031400 0.000000
# 6 0.002261 -0.002261 0.000000 0.000000 0.000000 0.050461
#
#
# Mechanical properties :
#
#
# Convention : Reuss Voigt Hill
#
# Bulk Modulus (GPa) = 67.07162 70.73615 68.90388
# Shear Modulus (GPa) = 28.06095 29.89817 28.97956
#
# Velocity S-wave (km/s) = 3.82580 3.94906 3.88792
# Velocity P-wave (km/s) = 7.38245 7.59538 7.48967
#
# Compressibility (1/GPa) = 0.01490944
#
# Stress axis : x y z
#
# Youngs Moduli (GPa) = 95.61576 95.61576 60.55482
#
# Poissons Ratio (x) = 0.27313 0.25446
# Poissons Ratio (y) = 0.27313 0.25446
# Poissons Ratio (z) = 0.40179 0.40179
#
# Static dielectric constant tensor:
#      x y z
#    x 1.660820 0.000000 0.000000 
#    y 0.000000 1.660820 0.000000 
#    z 0.000000 0.000000 1.690530 
# 
# From -- ./inp_files/2947.got.cif
#   From: 2010.05.17/outbox.cif.g08.bks.cpg/sg82_2_cif.got.tgz:2947.got - 2010.06.03 18:52:26.
