data_PCOD9542698
_publ_section_title
;
Structure prediction by ZEFSAII (Michael W. Deem and Ramdas Pophale) SiO2 
 PCOD9542698
Probable space group: I -4 
;
_chemical_formula_sum "Si O2"
_cell_formula_units_Z 44
_cell_length_a 9.071185
_cell_length_b 9.071185
_cell_length_c 28.418061
_cell_angle_alpha 90.000000
_cell_angle_beta 90.000000
_cell_angle_gamma 90.000000
_cell_volume 2338.419858
_symmetry_space_group_name_H-M "I -4 "
_symmetry_group_IT_number 82
_symmetry_cell_setting 'tetragonal'
loop_
_space_group_symop_operation_xyz
x,y,z
y,-x,-z
-x,-y,z
-y,x,-z
1/2+x,1/2+y,1/2+z
1/2+y,1/2-x,1/2-z
1/2-x,1/2-y,1/2+z
1/2-y,1/2+x,1/2-z
loop_
_atom_site_type_symbol
_atom_site_label
_atom_site_fract_x
_atom_site_fract_y
_atom_site_fract_z
Si Si1 0.417339 0.723735 0.010297
Si Si2 0.000000 0.500000 0.750000
Si Si3 0.500000 0.000000 0.948793
Si Si4 0.000000 0.500000 0.250000
Si Si5 0.797854 0.256608 0.097841
Si Si6 0.500000 0.500000 0.634595
Si Si7 0.752756 0.312643 0.203547
Si Si8 0.697155 0.528556 0.717308
O O1 0.328540 0.752146 0.058388
O O2 0.586725 0.667101 0.015159
O O3 0.423276 0.874029 0.980634
O O4 0.871768 0.558112 0.716449
O O5 0.618744 0.912840 0.918070
O O6 0.123970 0.571126 0.217288
O O7 0.728747 0.299984 0.148087
O O8 0.895124 0.108708 0.105554
O O9 0.608729 0.582844 0.671788
O O10 0.610353 0.348755 0.235116
O O11 0.811336 0.148770 0.217854
#
# Coordination Sequence:
#
# PCOD9542698 Si02
#       8
#     8   2   4   2   8   4   8   8
#     4   9  20  41  62  82 112 145 182 231 290 344
#     4   8  16  32  54  72  96 154 200 216 266 324
#     4  10  21  40  61  83 112 141 178 236 294 334
#     4  12  22  32  52  80 116 154 184 228 282 312
#     4  10  21  37  58  85 111 146 191 229 273 341
#     4  10  20  34  53  84 120 146 185 232 274 326
#     4  10  20  36  55  80 111 149 191 227 270 327
#     4   9  18  35  53  74 111 150 181 228 274 312
#
# _framework density 18.816123000000001
#
# number of rings (size 3 to 8) (size 9 to 14) (size 15 to 20)
#    0.000    2.364    0.000    2.727    0.000    2.909 
#    0.000   31.818    0.000    0.000    0.000    0.000 
#    0.000    0.000    0.000    0.000    0.000    0.000 
#
# Total GULP energy -122570.110197 kJ/mol
# GULP energy per Si atom -5571.368645 kJ/mol
# Density = 1.877330 g / cm^3
# Si number density = 18.816123 Si / 1000 Ang^3
#
#
#
# Elastic Constant Matrix: (Units=GPa)
#
#
# Indices 1 2 3 4 5 6 
#
# 1 86.0527 27.3101 69.3816 0.0000 0.0000 -4.7947
# 2 27.3101 86.0527 69.3816 0.0000 0.0000 4.7947
# 3 69.3816 69.3816 140.9152 0.0000 0.0000 0.0000
# 4 0.0000 0.0000 0.0000 25.2954 0.0000 0.0000
# 5 0.0000 0.0000 0.0000 0.0000 25.2954 0.0000
# 6 -4.7947 4.7947 0.0000 0.0000 0.0000 25.4234
#
#
#
# Elastic Compliance Matrix: (Units=1/GPa)
#
#
# Indices 1 2 3 4 5 6 
#
# 1 0.019883 0.002319 -0.010931 0.000000 0.000000 0.003313
# 2 0.002319 0.019883 -0.010931 0.000000 0.000000 -0.003313
# 3 -0.010931 -0.010931 0.017861 0.000000 0.000000 0.000000
# 4 0.000000 0.000000 0.000000 0.039533 0.000000 0.000000
# 5 0.000000 0.000000 0.000000 0.000000 0.039533 0.000000
# 6 0.003313 -0.003313 0.000000 0.000000 0.000000 0.040583
#
#
# Mechanical properties :
#
#
# Convention : Reuss Voigt Hill
#
# Bulk Modulus (GPa) = 53.93987 71.68524 62.81256
# Shear Modulus (GPa) = 22.46744 24.99931 23.73338
#
# Velocity S-wave (km/s) = 3.45926 3.64897 3.55538
# Velocity P-wave (km/s) = 6.68463 7.47889 7.09289
#
# Compressibility (1/GPa) = 0.01853916
#
# Stress axis : x y z
#
# Youngs Moduli (GPa) = 50.29389 50.29389 55.98787
#
# Poissons Ratio (x) = -0.11663 0.61203
# Poissons Ratio (y) = -0.11663 0.61203
# Poissons Ratio (z) = 0.54979 0.54979
#
# Static dielectric constant tensor:
#      x y z
#    x 1.693080 0.000000 0.000000 
#    y 0.000000 1.693080 0.000000 
#    z 0.000000 0.000000 1.638350 
# 
# From -- ./inp_files/3988.got.cif
#   From: 2010.05.17/outbox.cif.g08.bks.cpg/sg82_2_cif.got.tgz:3988.got - 2010.06.03 18:52:26.
