data_PCOD9542452
_publ_section_title
;
Structure prediction by ZEFSAII (Michael W. Deem and Ramdas Pophale) SiO2 
 PCOD9542452
Probable space group: P -4
;
_chemical_formula_sum "Si O2"
_cell_formula_units_Z 20
_cell_length_a 7.912732
_cell_length_b 7.912732
_cell_length_c 12.740098
_cell_angle_alpha 90.000000
_cell_angle_beta 90.000000
_cell_angle_gamma 90.000000
_cell_volume 797.674451
_symmetry_space_group_name_H-M "P -4"
_symmetry_group_IT_number 81
_symmetry_cell_setting 'tetragonal'
loop_
_space_group_symop_operation_xyz
x,y,z
y,-x,-z
-x,-y,z
-y,x,-z
loop_
_atom_site_type_symbol
_atom_site_label
_atom_site_fract_x
_atom_site_fract_y
_atom_site_fract_z
Si Si1 0.187495 0.214471 0.252305
Si Si2 0.336885 0.878068 0.199015
Si Si3 0.256514 0.911682 0.533430
Si Si4 0.695570 0.528577 0.622892
Si Si5 0.853801 0.758959 0.018590
O O1 0.059062 0.274301 0.341989
O O2 0.358524 0.253315 0.316148
O O3 0.180375 0.297289 0.137203
O O4 0.188686 0.013559 0.224041
O O5 0.335113 0.736638 0.287306
O O6 0.500000 0.000000 0.206186
O O7 0.344967 0.799550 0.083299
O O8 0.408938 0.813693 0.473957
O O9 0.089393 0.794707 0.517721
O O10 0.500000 0.500000 0.601831
O O11 0.055581 0.776517 0.002425
#
# Coordination Sequence:
#
# PCOD9542452 Si02
#       5
#     4   4   4   4   4
#     4  10  22  42  63 100 134 179 231 280 350 417
#     4   9  19  42  67  90 137 179 225 285 348 417
#     4  11  25  42  72 101 134 182 243 290 340 415
#     4  11  25  45  66  96 141 188 223 288 361 423
#     4   9  19  36  69  98 129 178 232 292 348 414
#
# _framework density 25.072883999999998
#
# number of rings (size 3 to 8) (size 9 to 14) (size 15 to 20)
#    0.000    2.000    2.000    0.000    5.600    1.600 
#   10.800    0.000    0.000    0.000    0.000    0.000 
#    0.000    0.000    0.000    0.000    0.000    0.000 
#
# Total GULP energy -111620.408704 kJ/mol
# GULP energy per Si atom -5581.020435 kJ/mol
# Density = 2.501582 g / cm^3
# Si number density = 25.072884 Si / 1000 Ang^3
#
#
#
# Elastic Constant Matrix: (Units=GPa)
#
#
# Indices 1 2 3 4 5 6 
#
# 1 87.8247 16.0935 43.0576 0.0000 0.0000 6.9017
# 2 16.0935 87.8247 43.0576 0.0000 0.0000 -6.9017
# 3 43.0576 43.0576 266.1684 0.0000 0.0000 0.0000
# 4 0.0000 0.0000 0.0000 27.3126 0.0000 0.0000
# 5 0.0000 0.0000 0.0000 0.0000 27.3126 0.0000
# 6 6.9017 -6.9017 0.0000 0.0000 0.0000 16.7239
#
#
#
# Elastic Compliance Matrix: (Units=1/GPa)
#
#
# Indices 1 2 3 4 5 6 
#
# 1 0.013128 -0.002015 -0.001798 0.000000 0.000000 -0.006249
# 2 -0.002015 0.013128 -0.001798 0.000000 0.000000 0.006249
# 3 -0.001798 -0.001798 0.004339 0.000000 0.000000 0.000000
# 4 0.000000 0.000000 0.000000 0.036613 0.000000 0.000000
# 5 0.000000 0.000000 0.000000 0.000000 0.036613 0.000000
# 6 -0.006249 0.006249 0.000000 0.000000 0.000000 0.064953
#
#
# Mechanical properties :
#
#
# Convention : Reuss Voigt Hill
#
# Bulk Modulus (GPa) = 51.61761 71.80394 61.71077
# Shear Modulus (GPa) = 26.81637 36.91043 31.86340
#
# Velocity S-wave (km/s) = 3.27393 3.84099 3.56874
# Velocity P-wave (km/s) = 5.90958 6.95494 6.45346
#
# Compressibility (1/GPa) = 0.01937323
#
# Stress axis : x y z
#
# Youngs Moduli (GPa) = 76.17254 76.17254 230.48726
#
# Poissons Ratio (x) = 0.15352 0.41434
# Poissons Ratio (y) = 0.15352 0.41434
# Poissons Ratio (z) = 0.13693 0.13693
#
# Static dielectric constant tensor:
#      x y z
#    x 2.116880 0.000000 0.000000 
#    y 0.000000 2.116880 0.000000 
#    z 0.000000 0.000000 2.081860 
# 
# From -- ./inp_files/1256.got.cif
#   From: 2010.05.17/outbox.cif.g08.bks.cpg/sg81_cif.got.tgz:1256.got - 2010.06.03 18:51:07.
