data_PCOD9542500
_publ_section_title
;
Structure prediction by ZEFSAII (Michael W. Deem and Ramdas Pophale) SiO2 
 PCOD9542500
Probable space group: P -4
;
_chemical_formula_sum "Si O2"
_cell_formula_units_Z 19
_cell_length_a 11.681815
_cell_length_b 11.681815
_cell_length_c 6.051881
_cell_angle_alpha 90.000000
_cell_angle_beta 90.000000
_cell_angle_gamma 90.000000
_cell_volume 825.868741
_symmetry_space_group_name_H-M "P -4"
_symmetry_group_IT_number 81
_symmetry_cell_setting 'tetragonal'
loop_
_space_group_symop_operation_xyz
x,y,z
y,-x,-z
-x,-y,z
-y,x,-z
loop_
_atom_site_type_symbol
_atom_site_label
_atom_site_fract_x
_atom_site_fract_y
_atom_site_fract_z
Si Si1 0.352901 0.663912 0.286824
Si Si2 0.950659 0.884132 0.336217
Si Si3 0.000000 0.500000 0.672306
Si Si4 0.462794 0.200811 0.018814
Si Si5 0.500000 0.500000 0.500000
Si Si6 0.148656 0.347575 0.348891
O O1 0.256118 0.645548 0.102993
O O2 0.390094 0.537296 0.362224
O O3 0.320122 0.741456 0.495923
O O4 0.468768 0.711798 0.176382
O O5 0.901770 0.768435 0.241284
O O6 0.058178 0.856838 0.499098
O O7 0.000000 0.000000 0.777969
O O8 0.939042 0.593992 0.520660
O O9 0.908174 0.438877 0.830466
O O10 0.556727 0.168599 0.834681
#
# Coordination Sequence:
#
# PCOD9542500 Si02
#       6
#     4   4   2   4   1   4
#     4  11  24  38  64  95 132 180 223 277 342 413
#     4   6  17  37  59  93 115 156 220 266 320 400
#     4  10  26  40  60  98 132 174 226 284 346 408
#     4  11  24  42  60 100 132 172 230 284 332 426
#     4  12  20  46  60  96 142 184 220 270 352 420
#     4  11  21  41  69  91 132 183 219 284 355 405
#
# _framework density 23.006077000000001
#
# number of rings (size 3 to 8) (size 9 to 14) (size 15 to 20)
#    1.263    0.842    2.105    1.895    0.000    5.053 
#    0.000    0.000    0.000    5.053    0.000    0.000 
#    0.000    0.000    0.000    0.000    0.000    0.000 
#
# Total GULP energy -105876.062474 kJ/mol
# GULP energy per Si atom -5572.424341 kJ/mol
# Density = 2.295371 g / cm^3
# Si number density = 23.006077 Si / 1000 Ang^3
#
#
#
# Elastic Constant Matrix: (Units=GPa)
#
#
# Indices 1 2 3 4 5 6 
#
# 1 79.3196 17.8689 15.8133 0.0000 0.0000 -15.8210
# 2 17.8689 79.3196 15.8133 0.0000 0.0000 15.8210
# 3 15.8133 15.8133 76.8672 0.0000 0.0000 0.0000
# 4 0.0000 0.0000 0.0000 150.2135 0.0000 0.0000
# 5 0.0000 0.0000 0.0000 0.0000 150.2135 0.0000
# 6 -15.8210 15.8210 0.0000 0.0000 0.0000 30.3894
#
#
#
# Elastic Compliance Matrix: (Units=1/GPa)
#
#
# Indices 1 2 3 4 5 6 
#
# 1 0.016630 -0.005603 -0.002269 0.000000 0.000000 0.011575
# 2 -0.005603 0.016630 -0.002269 0.000000 0.000000 -0.011575
# 3 -0.002269 -0.002269 0.013943 0.000000 0.000000 0.000000
# 4 0.000000 0.000000 0.000000 0.006657 0.000000 0.000000
# 5 0.000000 0.000000 0.000000 0.000000 0.006657 0.000000
# 6 0.011575 -0.011575 0.000000 0.000000 0.000000 0.044958
#
#
# Mechanical properties :
#
#
# Convention : Reuss Voigt Hill
#
# Bulk Modulus (GPa) = 37.14233 37.16639 37.15436
# Shear Modulus (GPa) = 37.11101 78.56397 57.83749
#
# Velocity S-wave (km/s) = 4.02069 5.85007 5.01943
# Velocity P-wave (km/s) = 6.14282 7.86265 7.05534
#
# Compressibility (1/GPa) = 0.02692346
#
# Stress axis : x y z
#
# Youngs Moduli (GPa) = 60.13083 60.13083 71.72128
#
# Poissons Ratio (x) = 0.33691 0.16271
# Poissons Ratio (y) = 0.33691 0.16271
# Poissons Ratio (z) = 0.13641 0.13641
#
# Static dielectric constant tensor:
#      x y z
#    x 1.785440 0.000000 0.000000 
#    y 0.000000 1.785440 0.000000 
#    z 0.000000 0.000000 1.905290 
# 
# From -- ./inp_files/232.got.cif
#   From: 2010.05.17/outbox.cif.g08.bks.cpg/sg81_cif.got.tgz:232.got - 2010.06.03 18:51:07.
