data_PCOD9542022
_publ_section_title
;
Structure prediction by ZEFSAII (Michael W. Deem and Ramdas Pophale) SiO2 
 PCOD9542022
Probable space group: I 4
;
_chemical_formula_sum "Si O2"
_cell_formula_units_Z 24
_cell_length_a 10.391430
_cell_length_b 10.391430
_cell_length_c 8.633328
_cell_angle_alpha 90.000000
_cell_angle_beta 90.000000
_cell_angle_gamma 90.000000
_cell_volume 932.242448
_symmetry_space_group_name_H-M "I 4"
_symmetry_group_IT_number 79
_symmetry_cell_setting 'tetragonal'
loop_
_space_group_symop_operation_xyz
x,y,z
-y,x,z
-x,-y,z
y,-x,z
1/2+x,1/2+y,1/2+z
1/2-y,1/2+x,1/2+z
1/2-x,1/2-y,1/2+z
1/2+y,1/2-x,1/2+z
loop_
_atom_site_type_symbol
_atom_site_label
_atom_site_fract_x
_atom_site_fract_y
_atom_site_fract_z
Si Si1 0.865518 0.291479 0.280230
Si Si2 0.635214 0.345791 0.471281
Si Si3 0.973999 0.781172 0.565785
O O1 0.740151 0.264793 0.384573
O O2 0.868019 0.179487 0.153229
O O3 0.984175 0.283890 0.399928
O O4 0.834517 0.419264 0.175754
O O5 0.673852 0.489420 0.427123
O O6 0.106074 0.865425 0.590452
#
# Coordination Sequence:
#
# PCOD9542022 Si02
#       3
#     8   8   8
#     4  12  24  48  83 123 158 216 290 348 440 522
#     4  11  26  48  77 112 158 220 281 354 428 519
#     4  11  24  48  85 122 173 228 284 359 440 529
#
# _framework density 25.744373
#
# number of rings (size 3 to 8) (size 9 to 14) (size 15 to 20)
#    0.000    0.667    3.333    4.000    0.000    5.333 
#    0.000    5.000    0.000    0.000    0.000    0.000 
#    0.000    0.000    0.000    0.000    0.000    0.000 
#
# Total GULP energy -66886.096892 kJ/mol
# GULP energy per Si atom -5573.841408 kJ/mol
# Density = 2.568578 g / cm^3
# Si number density = 25.744373 Si / 1000 Ang^3
#
#
#
# Elastic Constant Matrix: (Units=GPa)
#
#
# Indices 1 2 3 4 5 6 
#
# 1 200.7288 -19.9164 61.4506 0.0000 0.0000 -9.8738
# 2 -19.9164 200.7288 61.4506 0.0000 0.0000 9.8738
# 3 61.4506 61.4506 155.6035 0.0000 0.0000 0.0000
# 4 0.0000 0.0000 0.0000 69.7435 0.0000 0.0000
# 5 0.0000 0.0000 0.0000 0.0000 69.7435 0.0000
# 6 -9.8738 9.8738 0.0000 0.0000 0.0000 35.8181
#
#
#
# Elastic Compliance Matrix: (Units=1/GPa)
#
#
# Indices 1 2 3 4 5 6 
#
# 1 0.006103 0.001457 -0.002986 0.000000 0.000000 0.001281
# 2 0.001457 0.006103 -0.002986 0.000000 0.000000 -0.001281
# 3 -0.002986 -0.002986 0.008785 0.000000 0.000000 0.000000
# 4 0.000000 0.000000 0.000000 0.014338 0.000000 0.000000
# 5 0.000000 0.000000 0.000000 0.000000 0.014338 0.000000
# 6 0.001281 -0.001281 0.000000 0.000000 0.000000 0.028625
#
#
# Mechanical properties :
#
#
# Convention : Reuss Voigt Hill
#
# Bulk Modulus (GPa) = 83.59572 84.78118 84.18845
# Shear Modulus (GPa) = 54.75879 65.33276 60.04578
#
# Velocity S-wave (km/s) = 4.61697 5.04307 4.83472
# Velocity P-wave (km/s) = 7.80793 8.18007 7.99616
#
# Compressibility (1/GPa) = 0.01196234
#
# Stress axis : x y z
#
# Youngs Moduli (GPa) = 163.84404 163.84404 113.83449
#
# Poissons Ratio (x) = -0.23865 0.33986
# Poissons Ratio (y) = -0.23865 0.33986
# Poissons Ratio (z) = 0.48916 0.48916
#
# Static dielectric constant tensor:
#      x y z
#    x 2.021580 0.000000 0.000000 
#    y 0.000000 2.021580 0.000000 
#    z 0.000000 0.000000 2.176070 
# 
# From -- ./inp_files/367.got.cif
#   From: 2010.05.17/outbox.cif.g08.bks.cpg/sg79_cif.got.tgz:367.got - 2010.06.03 18:47:27.
