data_PCOD9542180
_publ_section_title
;
Structure prediction by ZEFSAII (Michael W. Deem and Ramdas Pophale) SiO2 
 PCOD9542180
Probable space group: I 41
;
_chemical_formula_sum "Si O2"
_cell_formula_units_Z 36
_cell_length_a 8.999275
_cell_length_b 8.999275
_cell_length_c 19.749210
_cell_angle_alpha 90.000000
_cell_angle_beta 90.000000
_cell_angle_gamma 90.000000
_cell_volume 1599.428293
_symmetry_space_group_name_H-M "I 41"
_symmetry_group_IT_number 80
_symmetry_cell_setting 'tetragonal'
loop_
_space_group_symop_operation_xyz
x,y,z
-y,1/2+x,1/4+z
-x,-y,z
y,1/2-x,1/4+z
1/2+x,1/2+y,1/2+z
1/2-y,x,3/4+z
1/2-x,1/2-y,1/2+z
1/2+y,-x,3/4+z
loop_
_atom_site_type_symbol
_atom_site_label
_atom_site_fract_x
_atom_site_fract_y
_atom_site_fract_z
Si Si1 0.529879 0.324944 0.368810
Si Si2 0.255027 0.336819 0.908645
Si Si3 0.485043 0.841453 0.948838
Si Si4 0.500000 0.500000 0.823429
Si Si5 0.850515 0.218495 0.722069
O O1 0.500000 0.500000 0.371085
O O2 0.372274 0.241632 0.365930
O O3 0.630568 0.286262 0.303246
O O4 0.602115 0.261233 0.437749
O O5 0.348438 0.222109 0.954889
O O6 0.385909 0.398177 0.861776
O O7 0.191864 0.480458 0.946818
O O8 0.372758 0.705316 0.937255
O O9 0.500000 0.000000 0.908674
O O10 0.412650 0.899360 0.019092
#
# Coordination Sequence:
#
# PCOD9542180 Si02
#       5
#     8   8   8   4   8
#     4  12  28  48  73 112 153 205 262 325 399 465
#     4  12  22  45  72 105 146 200 251 315 387 468
#     4  10  23  41  67 104 146 188 241 315 382 461
#     4  10  22  38  70 102 138 188 244 306 382 456
#     4  12  25  48  75 111 151 203 257 320 396 472
#
# _framework density 22.508043000000001
#
# number of rings (size 3 to 8) (size 9 to 14) (size 15 to 20)
#    0.667    0.000    2.222    6.000    0.000    1.778 
#    0.000    1.111    0.000    0.000    0.000    0.000 
#    0.000    0.000    0.000    0.000    0.000    0.000 
#
# Total GULP energy -100224.943099 kJ/mol
# GULP energy per Si atom -5568.052394 kJ/mol
# Density = 2.245681 g / cm^3
# Si number density = 22.508043 Si / 1000 Ang^3
#
#
#
# Elastic Constant Matrix: (Units=GPa)
#
#
# Indices 1 2 3 4 5 6 
#
# 1 121.7206 36.0102 24.8422 0.0000 0.0000 7.0976
# 2 36.0102 121.7206 24.8422 0.0000 0.0000 -7.0976
# 3 24.8422 24.8422 72.9287 0.0000 0.0000 0.0000
# 4 0.0000 0.0000 0.0000 19.0747 0.0000 0.0000
# 5 0.0000 0.0000 0.0000 0.0000 19.0747 0.0000
# 6 7.0976 -7.0976 0.0000 0.0000 0.0000 44.5590
#
#
#
# Elastic Compliance Matrix: (Units=1/GPa)
#
#
# Indices 1 2 3 4 5 6 
#
# 1 0.009543 -0.002441 -0.002419 0.000000 0.000000 -0.001909
# 2 -0.002441 0.009543 -0.002419 0.000000 0.000000 0.001909
# 3 -0.002419 -0.002419 0.015360 0.000000 0.000000 0.000000
# 4 0.000000 0.000000 0.000000 0.052425 0.000000 0.000000
# 5 0.000000 0.000000 0.000000 0.000000 0.052425 0.000000
# 6 -0.001909 0.001909 0.000000 0.000000 0.000000 0.023050
#
#
# Mechanical properties :
#
#
# Convention : Reuss Voigt Hill
#
# Bulk Modulus (GPa) = 50.28332 54.19545 52.23938
# Shear Modulus (GPa) = 27.24296 31.92004 29.58150
#
# Velocity S-wave (km/s) = 3.48280 3.76993 3.62921
# Velocity P-wave (km/s) = 6.20982 6.56357 6.38914
#
# Compressibility (1/GPa) = 0.01988731
#
# Stress axis : x y z
#
# Youngs Moduli (GPa) = 104.79280 104.79280 65.10352
#
# Poissons Ratio (x) = 0.25577 0.15750
# Poissons Ratio (y) = 0.25577 0.15750
# Poissons Ratio (z) = 0.25351 0.25351
#
# Static dielectric constant tensor:
#      x y z
#    x 1.988630 0.000000 0.000000 
#    y 0.000000 1.988630 0.000000 
#    z 0.000000 0.000000 1.893430 
# 
# From -- ./inp_files/1733.got.cif
#   From: 2010.05.17/outbox.cif.g08.bks.cpg/sg80_cif.got.tgz:1733.got - 2010.06.03 18:49:13.
