data_PCOD9542946
_publ_section_title
;
Structure prediction by ZEFSAII (Michael W. Deem and Ramdas Pophale) SiO2 
 PCOD9542946
Probable space group: I -4 
;
_chemical_formula_sum "Si O2"
_cell_formula_units_Z 36
_cell_length_a 11.880382
_cell_length_b 11.880382
_cell_length_c 9.563791
_cell_angle_alpha 90.000000
_cell_angle_beta 90.000000
_cell_angle_gamma 90.000000
_cell_volume 1349.866710
_symmetry_space_group_name_H-M "I -4 "
_symmetry_group_IT_number 82
_symmetry_cell_setting 'tetragonal'
loop_
_space_group_symop_operation_xyz
x,y,z
y,-x,-z
-x,-y,z
-y,x,-z
1/2+x,1/2+y,1/2+z
1/2+y,1/2-x,1/2-z
1/2-x,1/2-y,1/2+z
1/2-y,1/2+x,1/2-z
loop_
_atom_site_type_symbol
_atom_site_label
_atom_site_fract_x
_atom_site_fract_y
_atom_site_fract_z
Si Si1 0.292488 0.461258 0.815689
Si Si2 0.500000 0.500000 0.500000
Si Si3 0.276768 0.806700 0.361678
Si Si4 0.000000 0.000000 0.500000
Si Si5 0.987655 0.234011 0.996509
Si Si6 0.401707 0.877727 0.827068
O O1 0.224552 0.350195 0.776142
O O2 0.227279 0.561545 0.890773
O O3 0.303057 0.516890 0.661407
O O4 0.405765 0.444880 0.900985
O O5 0.513951 0.619747 0.580199
O O6 0.354438 0.755755 0.485088
O O7 0.159251 0.742432 0.341164
O O8 0.053170 0.343798 0.045937
O O9 0.534651 0.866813 0.798737
#
# Coordination Sequence:
#
# PCOD9542946 Si02
#       6
#     8   2   8   2   8   8
#     4  10  26  47  71 114 152 207 253 338 400 478
#     4  12  18  40  76 102 136 204 266 300 388 498
#     4  10  25  47  76 105 152 210 255 322 414 472
#     4  12  26  48  84 122 160 192 302 336 386 484
#     4  10  23  45  71 106 149 206 249 322 406 473
#     4  11  26  46  73 116 152 201 272 326 391 484
#
# _framework density 26.669298000000001
#
# number of rings (size 3 to 8) (size 9 to 14) (size 15 to 20)
#    1.333    0.222    2.222    0.667    6.222    4.000 
#   12.000    0.000    0.000    0.000    0.000    0.000 
#    0.000    0.000    0.000    0.000    0.000    0.000 
#
# Total GULP energy -100401.063279 kJ/mol
# GULP energy per Si atom -5577.836849 kJ/mol
# Density = 2.660860 g / cm^3
# Si number density = 26.669298 Si / 1000 Ang^3
#
#
#
# Elastic Constant Matrix: (Units=GPa)
#
#
# Indices 1 2 3 4 5 6 
#
# 1 78.6874 -27.6533 12.5355 0.0000 0.0000 4.4609
# 2 -27.6533 78.6874 12.5355 0.0000 0.0000 -4.4609
# 3 12.5355 12.5355 111.3757 0.0000 0.0000 0.0000
# 4 0.0000 0.0000 0.0000 37.7692 0.0000 0.0000
# 5 0.0000 0.0000 0.0000 0.0000 37.7692 0.0000
# 6 4.4609 -4.4609 0.0000 0.0000 0.0000 50.4120
#
#
#
# Elastic Compliance Matrix: (Units=1/GPa)
#
#
# Indices 1 2 3 4 5 6 
#
# 1 0.015108 0.005634 -0.002334 0.000000 0.000000 -0.000838
# 2 0.005634 0.015108 -0.002334 0.000000 0.000000 0.000838
# 3 -0.002334 -0.002334 0.009504 0.000000 0.000000 0.000000
# 4 0.000000 0.000000 0.000000 0.026477 0.000000 0.000000
# 5 0.000000 0.000000 0.000000 0.000000 0.026477 0.000000
# 6 -0.000838 0.000838 0.000000 0.000000 0.000000 0.019985
#
#
# Mechanical properties :
#
#
# Convention : Reuss Voigt Hill
#
# Bulk Modulus (GPa) = 24.00999 29.28732 26.64865
# Shear Modulus (GPa) = 40.12471 43.27893 41.70182
#
# Velocity S-wave (km/s) = 3.88303 4.03277 3.95861
# Velocity P-wave (km/s) = 5.39688 5.71750 5.55950
#
# Compressibility (1/GPa) = 0.04164932
#
# Stress axis : x y z
#
# Youngs Moduli (GPa) = 66.19083 66.19083 105.21747
#
# Poissons Ratio (x) = -0.37290 0.24563
# Poissons Ratio (y) = -0.37290 0.24563
# Poissons Ratio (z) = 0.15452 0.15452
#
# Static dielectric constant tensor:
#      x y z
#    x 2.079700 0.000000 0.000000 
#    y 0.000000 2.079700 0.000000 
#    z 0.000000 0.000000 2.241730 
# 
# From -- ./inp_files/1621.got.cif
#   From: 2010.05.17/outbox.cif.g08.bks.cpg/sg82_1_cif.got.tgz:1621.got - 2010.06.03 18:52:26.
