data_PCOD9542112
_publ_section_title
;
Structure prediction by ZEFSAII (Michael W. Deem and Ramdas Pophale) SiO2 
 PCOD9542112
Probable space group: I 41
;
_chemical_formula_sum "Si O2"
_cell_formula_units_Z 56
_cell_length_a 13.545709
_cell_length_b 13.545709
_cell_length_c 15.375517
_cell_angle_alpha 90.000000
_cell_angle_beta 90.000000
_cell_angle_gamma 90.000000
_cell_volume 2821.195684
_symmetry_space_group_name_H-M "I 41"
_symmetry_group_IT_number 80
_symmetry_cell_setting 'tetragonal'
loop_
_space_group_symop_operation_xyz
x,y,z
-y,1/2+x,1/4+z
-x,-y,z
y,1/2-x,1/4+z
1/2+x,1/2+y,1/2+z
1/2-y,x,3/4+z
1/2-x,1/2-y,1/2+z
1/2+y,-x,3/4+z
loop_
_atom_site_type_symbol
_atom_site_label
_atom_site_fract_x
_atom_site_fract_y
_atom_site_fract_z
Si Si1 0.399898 0.621857 0.372690
Si Si2 0.861137 0.683440 0.543925
Si Si3 0.831294 0.644877 0.360403
Si Si4 0.898923 0.612788 0.723493
Si Si5 0.890705 0.113621 0.515486
Si Si6 0.600143 0.887994 0.675795
Si Si7 0.684221 0.174227 0.442322
O O1 0.518101 0.633643 0.369933
O O2 0.381318 0.518683 0.421363
O O3 0.347614 0.715118 0.417330
O O4 0.359471 0.620891 0.275012
O O5 0.886361 0.630163 0.452730
O O6 0.755376 0.646719 0.577963
O O7 0.923447 0.660628 0.629629
O O8 0.849896 0.798766 0.518823
O O9 0.715751 0.637680 0.386446
O O10 0.862184 0.587426 0.273754
O O11 0.881515 0.494834 0.716473
O O12 0.997253 0.630129 0.778826
O O13 0.799028 0.163693 0.466974
O O14 0.894700 0.162228 0.609934
#
# Coordination Sequence:
#
# PCOD9542112 Si02
#       7
#     8   8   8   8   8   8   8
#     4  10  22  39  60  86 119 156 206 242 302 358
#     4   9  19  36  57  87 118 151 190 241 305 347
#     4   9  19  36  57  87 118 151 190 241 305 347
#     4  10  20  37  61  89 121 154 197 254 294 367
#     4  10  22  39  60  86 119 156 206 242 302 358
#     4  10  20  37  61  89 121 154 197 254 294 367
#     4  10  22  41  58  86 119 162 202 250 302 355
#
# _framework density 19.849740000000001
#
# number of rings (size 3 to 8) (size 9 to 14) (size 15 to 20)
#    0.000    2.286    0.000    1.714    4.000    2.286 
#   20.571    2.857    0.000    0.000    0.000    0.000 
#    0.000    0.000    0.000    0.000    0.000    0.000 
#
# Total GULP energy -155990.007475 kJ/mol
# GULP energy per Si atom -5571.071696 kJ/mol
# Density = 1.980456 g / cm^3
# Si number density = 19.849740 Si / 1000 Ang^3
#
#
#
# Elastic Constant Matrix: (Units=GPa)
#
#
# Indices 1 2 3 4 5 6 
#
# 1 49.6825 -5.2863 40.3495 0.0000 0.0000 -0.6601
# 2 -5.2863 49.6824 40.3495 0.0000 0.0000 0.6601
# 3 40.3495 40.3495 142.4974 0.0000 0.0000 0.0000
# 4 0.0000 0.0000 0.0000 16.6791 0.0000 0.0000
# 5 0.0000 0.0000 0.0000 0.0000 16.6791 0.0000
# 6 -0.6601 0.6601 0.0000 0.0000 0.0000 26.3555
#
#
#
# Elastic Compliance Matrix: (Units=1/GPa)
#
#
# Indices 1 2 3 4 5 6 
#
# 1 0.032308 0.014105 -0.013142 0.000000 0.000000 0.000456
# 2 0.014105 0.032308 -0.013142 0.000000 0.000000 -0.000456
# 3 -0.013142 -0.013142 0.014460 0.000000 0.000000 0.000000
# 4 0.000000 0.000000 0.000000 0.059955 0.000000 0.000000
# 5 0.000000 0.000000 0.000000 0.000000 0.059955 0.000000
# 6 0.000456 -0.000456 0.000000 0.000000 0.000000 0.037966
#
#
# Mechanical properties :
#
#
# Convention : Reuss Voigt Hill
#
# Bulk Modulus (GPa) = 18.27564 43.63196 30.95380
# Shear Modulus (GPa) = 17.88579 23.03938 20.46259
#
# Velocity S-wave (km/s) = 3.00502 3.41059 3.21421
# Velocity P-wave (km/s) = 4.61164 6.12685 5.42243
#
# Compressibility (1/GPa) = 0.05471763
#
# Stress axis : x y z
#
# Youngs Moduli (GPa) = 30.95187 30.95186 69.15415
#
# Poissons Ratio (x) = -0.43658 0.90885
# Poissons Ratio (y) = -0.43658 0.90885
# Poissons Ratio (z) = 0.40678 0.40678
#
# Static dielectric constant tensor:
#      x y z
#    x 1.715920 0.000000 0.000000 
#    y 0.000000 1.715920 0.000000 
#    z 0.000000 0.000000 1.989990 
# 
# From -- ./inp_files/1337.got.cif
#   From: 2010.05.17/outbox.cif.g08.bks.cpg/sg80_cif.got.tgz:1337.got - 2010.06.03 18:49:13.
