data_PCOD9542548
_publ_section_title
;
Structure prediction by ZEFSAII (Michael W. Deem and Ramdas Pophale) SiO2 
 PCOD9542548
Probable space group: P -4
;
_chemical_formula_sum "Si O2"
_cell_formula_units_Z 23
_cell_length_a 9.131602
_cell_length_b 9.131602
_cell_length_c 13.507455
_cell_angle_alpha 90.000000
_cell_angle_beta 90.000000
_cell_angle_gamma 90.000000
_cell_volume 1126.334737
_symmetry_space_group_name_H-M "P -4"
_symmetry_group_IT_number 81
_symmetry_cell_setting 'tetragonal'
loop_
_space_group_symop_operation_xyz
x,y,z
y,-x,-z
-x,-y,z
-y,x,-z
loop_
_atom_site_type_symbol
_atom_site_label
_atom_site_fract_x
_atom_site_fract_y
_atom_site_fract_z
Si Si1 0.339272 0.948370 0.717777
Si Si2 0.837433 0.162146 0.158932
Si Si3 0.848415 0.309779 0.808117
Si Si4 0.957127 0.755183 0.501171
Si Si5 0.369988 0.304556 0.991358
Si Si6 0.500000 0.000000 0.340526
Si Si7 0.000000 0.000000 0.000000
O O1 0.272797 0.803317 0.768056
O O2 0.331674 0.929739 0.600363
O O3 0.500000 0.000000 0.750642
O O4 0.230705 0.078952 0.749459
O O5 0.768161 0.007197 0.186821
O O6 0.729980 0.274057 0.104770
O O7 0.957024 0.130408 0.072571
O O8 0.810000 0.354303 0.919612
O O9 0.871088 0.443810 0.732342
O O10 0.957969 0.638622 0.590679
O O11 0.114728 0.837192 0.494200
O O12 0.318478 0.460176 0.034229
#
# Coordination Sequence:
#
# PCOD9542548 Si02
#       7
#     4   4   4   4   4   2   1
#     4  12  24  40  67 101 137 176 230 288 352 415
#     4  12  22  41  64 100 135 176 229 287 333 406
#     4  12  24  42  69 103 134 183 233 284 347 410
#     4  11  24  44  71  97 131 175 228 291 348 408
#     4  11  25  44  65  96 143 189 225 272 344 421
#     4  12  24  44  70 102 138 172 228 296 352 414
#     4  12  20  36  64  96 138 160 224 284 324 384
#
# _framework density 20.420218999999999
#
# number of rings (size 3 to 8) (size 9 to 14) (size 15 to 20)
#    0.000    0.348    6.087    3.130    2.435    0.000 
#    1.565    0.000    0.000    4.696    0.000    0.000 
#    0.000    0.000    0.000    0.000    0.000    0.000 
#
# Total GULP energy -128576.756301 kJ/mol
# GULP energy per Si atom -5590.293752 kJ/mol
# Density = 2.037374 g / cm^3
# Si number density = 20.420219 Si / 1000 Ang^3
#
#
#
# Elastic Constant Matrix: (Units=GPa)
#
#
# Indices 1 2 3 4 5 6 
#
# 1 80.3061 25.9995 15.9847 0.0000 0.0000 0.1194
# 2 25.9995 80.3061 15.9847 0.0000 0.0000 -0.1194
# 3 15.9847 15.9847 90.0190 0.0000 0.0000 0.0000
# 4 0.0000 0.0000 0.0000 35.4301 0.0000 0.0000
# 5 0.0000 0.0000 0.0000 0.0000 35.4301 0.0000
# 6 0.1194 -0.1194 0.0000 0.0000 0.0000 31.8861
#
#
#
# Elastic Compliance Matrix: (Units=1/GPa)
#
#
# Indices 1 2 3 4 5 6 
#
# 1 0.014176 -0.004238 -0.001765 0.000000 0.000000 -0.000069
# 2 -0.004238 0.014176 -0.001765 0.000000 0.000000 0.000069
# 3 -0.001765 -0.001765 0.011735 0.000000 0.000000 0.000000
# 4 0.000000 0.000000 0.000000 0.028225 0.000000 0.000000
# 5 0.000000 0.000000 0.000000 0.000000 0.028225 0.000000
# 6 -0.000069 0.000069 0.000000 0.000000 0.000000 0.031362
#
#
# Mechanical properties :
#
#
# Convention : Reuss Voigt Hill
#
# Bulk Modulus (GPa) = 40.72978 40.72987 40.72982
# Shear Modulus (GPa) = 32.97765 33.39340 33.18552
#
# Velocity S-wave (km/s) = 4.02300 4.04828 4.03566
# Velocity P-wave (km/s) = 6.44737 6.46843 6.45791
#
# Compressibility (1/GPa) = 0.02455206
#
# Stress axis : x y z
#
# Youngs Moduli (GPa) = 70.54225 70.54225 85.21190
#
# Poissons Ratio (x) = 0.29899 0.15037
# Poissons Ratio (y) = 0.29899 0.15037
# Poissons Ratio (z) = 0.12448 0.12448
#
# Static dielectric constant tensor:
#      x y z
#    x 1.745550 0.000000 0.000000 
#    y 0.000000 1.745550 0.000000 
#    z 0.000000 0.000000 1.718780 
# 
# From -- ./inp_files/1636.got.cif
#   From: 2010.05.17/outbox.cif.g08.bks.cpg/sg81_cif.got.tgz:1636.got - 2010.06.03 18:51:07.
