data_PCOD9542756
_publ_section_title
;
Structure prediction by ZEFSAII (Michael W. Deem and Ramdas Pophale) SiO2 
 PCOD9542756
Probable space group: I -4 
;
_chemical_formula_sum "Si O2"
_cell_formula_units_Z 30
_cell_length_a 8.190088
_cell_length_b 8.190088
_cell_length_c 18.574548
_cell_angle_alpha 90.000000
_cell_angle_beta 90.000000
_cell_angle_gamma 90.000000
_cell_volume 1245.935013
_symmetry_space_group_name_H-M "I -4 "
_symmetry_group_IT_number 82
_symmetry_cell_setting 'tetragonal'
loop_
_space_group_symop_operation_xyz
x,y,z
y,-x,-z
-x,-y,z
-y,x,-z
1/2+x,1/2+y,1/2+z
1/2+y,1/2-x,1/2-z
1/2-x,1/2-y,1/2+z
1/2-y,1/2+x,1/2-z
loop_
_atom_site_type_symbol
_atom_site_label
_atom_site_fract_x
_atom_site_fract_y
_atom_site_fract_z
Si Si1 0.500000 0.000000 0.250000
Si Si2 0.785425 0.629702 0.639641
Si Si3 0.500000 0.000000 0.024184
Si Si4 0.258176 0.584943 0.239621
Si Si5 0.307878 0.487682 0.081754
O O1 0.635829 0.064824 0.303625
O O2 0.842797 0.500103 0.578833
O O3 0.638920 0.617987 0.697167
O O4 0.767992 0.800418 0.600389
O O5 0.475232 0.162922 0.975549
O O6 0.198749 0.400833 0.252286
O O7 0.299156 0.590984 0.155448
O O8 0.500000 0.500000 0.065090
#
# Coordination Sequence:
#
# PCOD9542756 Si02
#       5
#     2   8   4   8   8
#     4  10  20  40  60  92 122 184 246 310 364 452
#     4  10  22  40  66  96 144 188 242 312 379 448
#     4  11  26  41  67 110 159 186 252 323 386 459
#     4   9  18  39  71 106 141 190 259 320 369 449
#     4  11  23  41  71 105 142 206 254 302 389 473
#
# _framework density 24.078303999999999
#
# number of rings (size 3 to 8) (size 9 to 14) (size 15 to 20)
#    0.000    1.867    0.000    4.800    3.733    0.000 
#    0.000    0.000   23.467    0.000    0.000    0.000 
#    0.000    0.000    0.000    0.000    0.000    0.000 
#
# Total GULP energy -83526.729797 kJ/mol
# GULP energy per Si atom -5568.448653 kJ/mol
# Density = 2.402350 g / cm^3
# Si number density = 24.078304 Si / 1000 Ang^3
#
#
#
# Elastic Constant Matrix: (Units=GPa)
#
#
# Indices 1 2 3 4 5 6 
#
# 1 92.0441 39.3206 76.8296 0.0000 0.0000 5.1260
# 2 39.3206 92.0441 76.8296 0.0000 0.0000 -5.1260
# 3 76.8296 76.8296 214.7962 0.0000 0.0000 0.0000
# 4 0.0000 0.0000 0.0000 -131.3317 0.0000 0.0000
# 5 0.0000 0.0000 0.0000 0.0000 -131.3317 0.0000
# 6 5.1260 -5.1260 0.0000 0.0000 0.0000 37.9943
#
#
#
# Elastic Compliance Matrix: (Units=1/GPa)
#
#
# Indices 1 2 3 4 5 6 
#
# 1 0.016283 -0.003195 -0.004682 0.000000 0.000000 -0.002628
# 2 -0.003195 0.016283 -0.004682 0.000000 0.000000 0.002628
# 3 -0.004682 -0.004682 0.008005 0.000000 0.000000 0.000000
# 4 0.000000 0.000000 0.000000 -0.007614 0.000000 0.000000
# 5 0.000000 0.000000 0.000000 0.000000 -0.007614 0.000000
# 6 -0.002628 0.002628 0.000000 0.000000 0.000000 0.027029
#
#
# Mechanical properties :
#
#
# Convention : Reuss Voigt Hill
#
# Bulk Modulus (GPa) = 64.70251 87.20490 75.95370
# Shear Modulus (GPa) = 60.50437 -31.20687 14.64875
#
# Velocity S-wave (km/s) = 5.01824 -3.60399 2.46921
# Velocity P-wave (km/s) = 7.77862 4.35632 6.30415
#
# Compressibility (1/GPa) = 0.01545535
#
# Stress axis : x y z
#
# Youngs Moduli (GPa) = 61.41304 61.41304 124.92745
#
# Poissons Ratio (x) = 0.19620 0.58486
# Poissons Ratio (y) = 0.19620 0.58486
# Poissons Ratio (z) = 0.28751 0.28751
#
# Static dielectric constant tensor:
#      x y z
#    x 2.035450 0.000000 0.000000 
#    y 0.000000 2.035450 0.000000 
#    z 0.000000 0.000000 2.017820 
# 
# From -- ./inp_files/2895.got.cif
#   From: 2010.05.17/outbox.cif.g08.bks.cpg/sg82_2_cif.got.tgz:2895.got - 2010.06.03 18:52:26.
