data_PCOD9542650
_publ_section_title
;
Structure prediction by ZEFSAII (Michael W. Deem and Ramdas Pophale) SiO2 
 PCOD9542650
Probable space group: I -4 
;
_chemical_formula_sum "Si O2"
_cell_formula_units_Z 40
_cell_length_a 9.434322
_cell_length_b 9.434322
_cell_length_c 23.814170
_cell_angle_alpha 90.000000
_cell_angle_beta 90.000000
_cell_angle_gamma 90.000000
_cell_volume 2119.614293
_symmetry_space_group_name_H-M "I -4 "
_symmetry_group_IT_number 82
_symmetry_cell_setting 'tetragonal'
loop_
_space_group_symop_operation_xyz
x,y,z
y,-x,-z
-x,-y,z
-y,x,-z
1/2+x,1/2+y,1/2+z
1/2+y,1/2-x,1/2-z
1/2-x,1/2-y,1/2+z
1/2-y,1/2+x,1/2-z
loop_
_atom_site_type_symbol
_atom_site_label
_atom_site_fract_x
_atom_site_fract_y
_atom_site_fract_z
Si Si1 0.624579 0.325238 0.867227
Si Si2 0.552825 0.232769 0.747132
Si Si3 0.506551 0.831752 0.634023
Si Si4 0.741870 0.134473 0.552791
Si Si5 0.493174 0.831600 0.065072
O O1 0.578842 0.329215 0.801531
O O2 0.487144 0.317886 0.908358
O O3 0.739050 0.440867 0.884464
O O4 0.694956 0.170514 0.876201
O O5 0.394811 0.166991 0.750106
O O6 0.556849 0.272368 0.681404
O O7 0.409907 0.834526 0.579885
O O8 0.500000 0.000000 0.653832
O O9 0.718373 0.077710 0.490497
O O10 0.835678 0.274249 0.555158
O O11 0.500000 0.000000 0.072550
#
# Coordination Sequence:
#
# PCOD9542650 Si02
#       5
#     8   8   8   8   8
#     4  10  19  33  61  92 114 149 196 244 294 340
#     4   9  12  26  55  92 114 136 187 254 285 312
#     4   9  16  31  61  94 117 142 196 255 290 333
#     4  11  21  37  62  86 115 152 203 236 297 352
#     4  12  25  39  57  85 125 158 190 248 298 358
#
# _framework density 18.871359999999999
#
# number of rings (size 3 to 8) (size 9 to 14) (size 15 to 20)
#    0.000    1.800    8.000    2.400    0.000    0.000 
#    0.000    1.000    4.400    0.000    0.000    0.000 
#    0.000    0.000    0.000    0.000    0.000    0.000 
#
# Total GULP energy -111386.730860 kJ/mol
# GULP energy per Si atom -5569.336543 kJ/mol
# Density = 1.882841 g / cm^3
# Si number density = 18.871360 Si / 1000 Ang^3
#
#
#
# Elastic Constant Matrix: (Units=GPa)
#
#
# Indices 1 2 3 4 5 6 
#
# 1 54.6311 24.8436 10.5515 0.0000 0.0000 -4.8070
# 2 24.8436 54.6311 10.5515 0.0000 0.0000 4.8070
# 3 10.5515 10.5515 76.9981 0.0000 0.0000 0.0000
# 4 0.0000 0.0000 0.0000 12.9510 0.0000 0.0000
# 5 0.0000 0.0000 0.0000 0.0000 12.9510 0.0000
# 6 -4.8070 4.8070 0.0000 0.0000 0.0000 17.7751
#
#
#
# Elastic Compliance Matrix: (Units=1/GPa)
#
#
# Indices 1 2 3 4 5 6 
#
# 1 0.024920 -0.011862 -0.001789 0.000000 0.000000 0.009947
# 2 -0.011862 0.024920 -0.001789 0.000000 0.000000 -0.009947
# 3 -0.001789 -0.001789 0.013478 0.000000 0.000000 0.000000
# 4 0.000000 0.000000 0.000000 0.077214 0.000000 0.000000
# 5 0.000000 0.000000 0.000000 0.000000 0.077214 0.000000
# 6 0.009947 -0.009947 0.000000 0.000000 0.000000 0.061639
#
#
# Mechanical properties :
#
#
# Convention : Reuss Voigt Hill
#
# Bulk Modulus (GPa) = 30.83017 30.90593 30.86805
# Shear Modulus (GPa) = 15.57257 18.08966 16.83111
#
# Velocity S-wave (km/s) = 2.87574 3.09945 2.98969
# Velocity P-wave (km/s) = 5.23440 5.40569 5.32074
#
# Compressibility (1/GPa) = 0.03243576
#
# Stress axis : x y z
#
# Youngs Moduli (GPa) = 40.12896 40.12896 74.19631
#
# Poissons Ratio (x) = 0.47601 0.13277
# Poissons Ratio (y) = 0.47601 0.13277
# Poissons Ratio (z) = 0.07181 0.07181
#
# Static dielectric constant tensor:
#      x y z
#    x 1.669380 0.000000 0.000000 
#    y 0.000000 1.669380 0.000000 
#    z 0.000000 0.000000 1.728330 
# 
# From -- ./inp_files/3684.got.cif
#   From: 2010.05.17/outbox.cif.g08.bks.cpg/sg82_2_cif.got.tgz:3684.got - 2010.06.03 18:52:26.
