data_PCOD9542365
_publ_section_title
;
Structure prediction by ZEFSAII (Michael W. Deem and Ramdas Pophale) SiO2 
 PCOD9542365
Probable space group: P -4
;
_chemical_formula_sum "Si O2"
_cell_formula_units_Z 24
_cell_length_a 10.384233
_cell_length_b 10.384233
_cell_length_c 10.154302
_cell_angle_alpha 90.000000
_cell_angle_beta 90.000000
_cell_angle_gamma 90.000000
_cell_volume 1094.961689
_symmetry_space_group_name_H-M "P -4"
_symmetry_group_IT_number 81
_symmetry_cell_setting 'tetragonal'
loop_
_space_group_symop_operation_xyz
x,y,z
y,-x,-z
-x,-y,z
-y,x,-z
loop_
_atom_site_type_symbol
_atom_site_label
_atom_site_fract_x
_atom_site_fract_y
_atom_site_fract_z
Si Si1 0.193278 0.086371 0.484606
Si Si2 0.190107 0.085982 0.993666
Si Si3 0.474103 0.709420 0.041835
Si Si4 0.327284 0.137881 0.738094
Si Si5 0.165891 0.654020 0.763623
Si Si6 0.599916 0.157895 0.791753
O O1 0.251595 0.162169 0.606706
O O2 0.300037 0.087352 0.367105
O O3 0.055477 0.154490 0.459855
O O4 0.293480 0.088490 0.109516
O O5 0.241168 0.160452 0.866381
O O6 0.058833 0.151051 0.044383
O O7 0.519091 0.771281 0.182106
O O8 0.599648 0.635792 0.978310
O O9 0.429908 0.825085 0.946819
O O10 0.465563 0.202599 0.729594
O O11 0.364013 0.986389 0.753914
O O12 0.289733 0.745534 0.751669
#
# Coordination Sequence:
#
# PCOD9542365 Si02
#       6
#     4   4   4   4   4   4
#     4  11  22  39  59  88 127 169 205 242 301 376
#     4  11  20  33  55  90 121 154 199 245 298 364
#     4   9  19  36  62  92 118 152 203 265 316 364
#     4  11  21  36  58  83 118 164 193 247 306 359
#     4  11  20  37  61  89 119 157 201 252 300 372
#     4  10  20  37  61  80 120 155 196 245 318 355
#
# _framework density 21.918575000000001
#
# number of rings (size 3 to 8) (size 9 to 14) (size 15 to 20)
#    0.000    1.500    5.000    1.000    0.000    2.667 
#    0.000    1.667    7.333    0.000    0.000    0.000 
#    0.000    0.000    0.000    0.000    0.000    0.000 
#
# Total GULP energy -133715.394378 kJ/mol
# GULP energy per Si atom -5571.474766 kJ/mol
# Density = 2.186869 g / cm^3
# Si number density = 21.918575 Si / 1000 Ang^3
#
#
#
# Elastic Constant Matrix: (Units=GPa)
#
#
# Indices 1 2 3 4 5 6 
#
# 1 36.0535 11.3744 -2.3933 0.0000 0.0000 8.9878
# 2 11.3744 36.0535 -2.3933 0.0000 0.0000 -8.9878
# 3 -2.3933 -2.3933 84.0523 0.0000 0.0000 0.0000
# 4 0.0000 0.0000 0.0000 29.9496 0.0000 0.0000
# 5 0.0000 0.0000 0.0000 0.0000 29.9496 0.0000
# 6 8.9878 -8.9878 0.0000 0.0000 0.0000 28.7615
#
#
#
# Elastic Compliance Matrix: (Units=1/GPa)
#
#
# Indices 1 2 3 4 5 6 
#
# 1 0.036803 -0.015658 0.000602 0.000000 0.000000 -0.016394
# 2 -0.015658 0.036803 0.000602 0.000000 0.000000 0.016394
# 3 0.000602 0.000602 0.011932 0.000000 0.000000 0.000000
# 4 0.000000 0.000000 0.000000 0.033389 0.000000 0.000000
# 5 0.000000 0.000000 0.000000 0.000000 0.033389 0.000000
# 6 -0.016394 0.016394 0.000000 0.000000 0.000000 0.045015
#
#
# Mechanical properties :
#
#
# Convention : Reuss Voigt Hill
#
# Bulk Modulus (GPa) = 17.65822 18.81498 18.23660
# Shear Modulus (GPa) = 20.39854 27.70355 24.05104
#
# Velocity S-wave (km/s) = 3.05397 3.55904 3.31613
# Velocity P-wave (km/s) = 4.52873 5.04893 4.79589
#
# Compressibility (1/GPa) = 0.05663084
#
# Stress axis : x y z
#
# Youngs Moduli (GPa) = 27.17159 27.17159 83.81073
#
# Poissons Ratio (x) = 0.42545 -0.05046
# Poissons Ratio (y) = 0.42545 -0.05046
# Poissons Ratio (z) = -0.01636 -0.01636
#
# Static dielectric constant tensor:
#      x y z
#    x 1.868790 0.000000 0.000000 
#    y 0.000000 1.868790 0.000000 
#    z 0.000000 0.000000 1.849210 
# 
# From -- ./inp_files/816.got.cif
#   From: 2010.05.17/outbox.cif.g08.bks.cpg/sg81_cif.got.tgz:816.got - 2010.06.03 18:51:07.
