data_PCOD9542086
_publ_section_title
;
Structure prediction by ZEFSAII (Michael W. Deem and Ramdas Pophale) SiO2 
 PCOD9542086
Probable space group: I 41
;
_chemical_formula_sum "Si O2"
_cell_formula_units_Z 56
_cell_length_a 24.285431
_cell_length_b 24.285431
_cell_length_c 5.194334
_cell_angle_alpha 90.000000
_cell_angle_beta 90.000000
_cell_angle_gamma 90.000000
_cell_volume 3063.525520
_symmetry_space_group_name_H-M "I 41"
_symmetry_group_IT_number 80
_symmetry_cell_setting 'tetragonal'
loop_
_space_group_symop_operation_xyz
x,y,z
-y,1/2+x,1/4+z
-x,-y,z
y,1/2-x,1/4+z
1/2+x,1/2+y,1/2+z
1/2-y,x,3/4+z
1/2-x,1/2-y,1/2+z
1/2+y,-x,3/4+z
loop_
_atom_site_type_symbol
_atom_site_label
_atom_site_fract_x
_atom_site_fract_y
_atom_site_fract_z
Si Si1 0.871598 0.850231 0.520830
Si Si2 0.447308 0.541446 0.837305
Si Si3 0.015083 0.935022 0.840007
Si Si4 0.438529 0.337457 0.513647
Si Si5 0.671985 0.774840 0.606515
Si Si6 0.158030 0.025463 0.517423
Si Si7 0.542197 0.773677 0.749761
O O1 0.911371 0.822517 0.736672
O O2 0.811161 0.829320 0.594601
O O3 0.869357 0.915203 0.569063
O O4 0.893039 0.847302 0.232449
O O5 0.500000 0.500000 0.800957
O O6 0.437906 0.565371 0.555282
O O7 0.392604 0.512691 0.937972
O O8 0.467453 0.583407 0.056417
O O9 0.969793 0.894409 0.956991
O O10 0.000000 0.000000 0.803378
O O11 0.472269 0.287897 0.648102
O O12 0.715541 0.804431 0.789024
O O13 0.609384 0.774955 0.712613
O O14 0.187121 0.013824 0.788131
O O15 0.202443 0.029863 0.283536
#
# Coordination Sequence:
#
# PCOD9542086 Si02
#       7
#     8   8   8   8   8   8   8
#     4  11  22  36  53  68  93 134 176 238 289 329
#     4  10  19  33  54  81 100 124 164 221 285 325
#     4  10  19  32  55  80 103 124 164 222 283 327
#     4  12  22  38  54  77 105 134 178 226 284 350
#     4  11  25  36  50  68  92 135 194 259 294 329
#     4  11  22  38  56  75 105 134 177 226 283 352
#     4  11  25  39  51  75 100 147 181 220 297 340
#
# _framework density 18.279592000000001
#
# number of rings (size 3 to 8) (size 9 to 14) (size 15 to 20)
#    0.000    1.143    1.429    7.714    4.000    0.000 
#    0.000    0.000    0.000    0.000    0.000    0.000 
#    0.000    0.000    0.000    0.000    0.000   40.000 
#
# Total GULP energy -156140.831835 kJ/mol
# GULP energy per Si atom -5576.458280 kJ/mol
# Density = 1.823799 g / cm^3
# Si number density = 18.279592 Si / 1000 Ang^3
#
#
#
# Elastic Constant Matrix: (Units=GPa)
#
#
# Indices 1 2 3 4 5 6 
#
# 1 42.1689 19.0169 0.9112 0.0000 0.0000 -0.2104
# 2 19.0169 42.1689 0.9112 0.0000 0.0000 0.2104
# 3 0.9112 0.9112 89.5444 0.0000 0.0000 0.0000
# 4 0.0000 0.0000 0.0000 20.8840 0.0000 0.0000
# 5 0.0000 0.0000 0.0000 0.0000 20.8840 0.0000
# 6 -0.2104 0.2104 0.0000 0.0000 0.0000 20.1075
#
#
#
# Elastic Compliance Matrix: (Units=1/GPa)
#
#
# Indices 1 2 3 4 5 6 
#
# 1 0.029775 -0.013426 -0.000166 0.000000 0.000000 0.000452
# 2 -0.013426 0.029775 -0.000166 0.000000 0.000000 -0.000452
# 3 -0.000166 -0.000166 0.011171 0.000000 0.000000 0.000000
# 4 0.000000 0.000000 0.000000 0.047884 0.000000 0.000000
# 5 0.000000 0.000000 0.000000 0.000000 0.047884 0.000000
# 6 0.000452 -0.000452 0.000000 0.000000 0.000000 0.049742
#
#
# Mechanical properties :
#
#
# Convention : Reuss Voigt Hill
#
# Bulk Modulus (GPa) = 23.14664 23.95120 23.54892
# Shear Modulus (GPa) = 19.36868 22.57795 20.97332
#
# Velocity S-wave (km/s) = 3.25865 3.51828 3.39095
# Velocity P-wave (km/s) = 5.18155 5.44385 5.31432
#
# Compressibility (1/GPa) = 0.04320281
#
# Stress axis : x y z
#
# Youngs Moduli (GPa) = 33.58544 33.58544 89.51725
#
# Poissons Ratio (x) = 0.45092 0.01489
# Poissons Ratio (y) = 0.45092 0.01489
# Poissons Ratio (z) = 0.00559 0.00559
#
# Static dielectric constant tensor:
#      x y z
#    x 1.852040 0.000000 0.000000 
#    y 0.000000 1.852040 0.000000 
#    z 0.000000 0.000000 1.744420 
# 
# From -- ./inp_files/406.got.cif
#   From: 2010.05.17/outbox.cif.g08.bks.cpg/sg80_cif.got.tgz:406.got - 2010.06.03 18:49:13.
