data_PCOD9542730
_publ_section_title
;
Structure prediction by ZEFSAII (Michael W. Deem and Ramdas Pophale) SiO2 
 PCOD9542730
Probable space group: I -4 
;
_chemical_formula_sum "Si O2"
_cell_formula_units_Z 32
_cell_length_a 10.807438
_cell_length_b 10.807438
_cell_length_c 12.180946
_cell_angle_alpha 90.000000
_cell_angle_beta 90.000000
_cell_angle_gamma 90.000000
_cell_volume 1422.743216
_symmetry_space_group_name_H-M "I -4 "
_symmetry_group_IT_number 82
_symmetry_cell_setting 'tetragonal'
loop_
_space_group_symop_operation_xyz
x,y,z
y,-x,-z
-x,-y,z
-y,x,-z
1/2+x,1/2+y,1/2+z
1/2+y,1/2-x,1/2-z
1/2-x,1/2-y,1/2+z
1/2-y,1/2+x,1/2-z
loop_
_atom_site_type_symbol
_atom_site_label
_atom_site_fract_x
_atom_site_fract_y
_atom_site_fract_z
Si Si1 0.311144 0.551891 0.459108
Si Si2 0.839328 0.864106 0.257990
Si Si3 0.886201 0.780956 0.660431
Si Si4 0.107503 0.734057 0.520140
O O1 0.419491 0.647357 0.497039
O O2 0.310374 0.561072 0.326302
O O3 0.185942 0.609865 0.505856
O O4 0.708675 0.812598 0.213888
O O5 0.827284 0.834946 0.387107
O O6 0.840059 0.013788 0.257279
O O7 0.808141 0.882304 0.593496
O O8 0.973792 0.712355 0.571936
#
# Coordination Sequence:
#
# PCOD9542730 Si02
#       4
#     8   8   8   8
#     4  10  20  38  55  82 118 156 197 248 307 371
#     4   9  19  37  57  86 114 161 191 251 300 361
#     4   9  19  37  59  89 123 148 208 247 302 365
#     4   9  20  38  55  91 116 151 201 254 298 363
#
# _framework density 22.491762000000001
#
# number of rings (size 3 to 8) (size 9 to 14) (size 15 to 20)
#    1.500    1.250    0.000    1.500    0.000    1.000 
#   22.500    0.000    0.000    0.000    0.000    0.000 
#    0.000    0.000    0.000    0.000    0.000    0.000 
#
# Total GULP energy -89171.352323 kJ/mol
# GULP energy per Si atom -5573.209520 kJ/mol
# Density = 2.244057 g / cm^3
# Si number density = 22.491762 Si / 1000 Ang^3
#
#
#
# Elastic Constant Matrix: (Units=GPa)
#
#
# Indices 1 2 3 4 5 6 
#
# 1 31.4416 21.8758 0.3971 0.0000 0.0000 -1.7999
# 2 21.8758 31.4416 0.3971 0.0000 0.0000 1.7999
# 3 0.3971 0.3971 89.4480 0.0000 0.0000 0.0000
# 4 0.0000 0.0000 0.0000 36.5525 0.0000 0.0000
# 5 0.0000 0.0000 0.0000 0.0000 36.5525 0.0000
# 6 -1.7999 1.7999 0.0000 0.0000 0.0000 18.3943
#
#
#
# Elastic Compliance Matrix: (Units=1/GPa)
#
#
# Indices 1 2 3 4 5 6 
#
# 1 0.063646 -0.044889 -0.000083 0.000000 0.000000 0.010620
# 2 -0.044889 0.063646 -0.000083 0.000000 0.000000 -0.010620
# 3 -0.000083 -0.000083 0.011180 0.000000 0.000000 0.000000
# 4 0.000000 0.000000 0.000000 0.027358 0.000000 0.000000
# 5 0.000000 0.000000 0.000000 0.000000 0.027358 0.000000
# 6 0.010620 -0.010620 0.000000 0.000000 0.000000 0.056443
#
#
# Mechanical properties :
#
#
# Convention : Reuss Voigt Hill
#
# Bulk Modulus (GPa) = 20.67780 21.96346 21.32063
# Shear Modulus (GPa) = 14.05031 26.94392 20.49712
#
# Velocity S-wave (km/s) = 2.50209 3.46489 3.02208
# Velocity P-wave (km/s) = 4.19055 5.07874 4.65587
#
# Compressibility (1/GPa) = 0.04836105
#
# Stress axis : x y z
#
# Youngs Moduli (GPa) = 15.71184 15.71185 89.44208
#
# Poissons Ratio (x) = 0.70530 0.00745
# Poissons Ratio (y) = 0.70529 0.00745
# Poissons Ratio (z) = 0.00131 0.00131
#
# Static dielectric constant tensor:
#      x y z
#    x 1.807740 0.000000 0.000000 
#    y 0.000000 1.807740 0.000000 
#    z 0.000000 0.000000 1.890530 
# 
# From -- ./inp_files/2081.got.cif
#   From: 2010.05.17/outbox.cif.g08.bks.cpg/sg82_2_cif.got.tgz:2081.got - 2010.06.03 18:52:26.
