data_PCOD9542254
_publ_section_title
;
Structure prediction by ZEFSAII (Michael W. Deem and Ramdas Pophale) SiO2 
 PCOD9542254
Probable space group: I 41
;
_chemical_formula_sum "Si O2"
_cell_formula_units_Z 48
_cell_length_a 8.975819
_cell_length_b 8.975819
_cell_length_c 26.463556
_cell_angle_alpha 90.000000
_cell_angle_beta 90.000000
_cell_angle_gamma 90.000000
_cell_volume 2132.045035
_symmetry_space_group_name_H-M "I 41"
_symmetry_group_IT_number 80
_symmetry_cell_setting 'tetragonal'
loop_
_space_group_symop_operation_xyz
x,y,z
-y,1/2+x,1/4+z
-x,-y,z
y,1/2-x,1/4+z
1/2+x,1/2+y,1/2+z
1/2-y,x,3/4+z
1/2-x,1/2-y,1/2+z
1/2+y,-x,3/4+z
loop_
_atom_site_type_symbol
_atom_site_label
_atom_site_fract_x
_atom_site_fract_y
_atom_site_fract_z
Si Si1 0.479132 0.676774 0.993460
Si Si2 0.730354 0.801036 0.937578
Si Si3 0.278749 0.654885 0.445708
Si Si4 0.126707 0.110785 0.595881
Si Si5 0.174397 0.027096 0.745732
Si Si6 0.623734 0.115633 0.594889
O O1 0.500000 0.500000 0.984557
O O2 0.559941 0.764644 0.947918
O O3 0.316216 0.746162 0.984719
O O4 0.544081 0.697904 0.050375
O O5 0.793134 0.717538 0.887421
O O6 0.804690 0.714090 0.984691
O O7 0.753403 0.977436 0.945638
O O8 0.444166 0.709934 0.459365
O O9 0.273494 0.690642 0.386023
O O10 0.247986 0.992898 0.574200
O O11 0.000000 0.000000 0.619001
O O12 0.199133 0.966601 0.801689
O O13 0.000000 0.000000 0.735383
O O14 0.500000 0.000000 0.617307
#
# Coordination Sequence:
#
# PCOD9542254 Si02
#       6
#     8   8   8   8   8   8
#     4  11  26  47  68 100 149 194 247 302 382 452
#     4  12  24  43  70 103 143 191 243 311 380 448
#     4  12  24  45  67 107 148 188 237 319 378 443
#     4  11  23  42  73 102 137 191 252 304 362 454
#     4  11  22  40  73 104 138 186 249 302 362 451
#     4  11  21  41  71 106 140 187 249 305 372 453
#
# _framework density 22.513598000000002
#
# number of rings (size 3 to 8) (size 9 to 14) (size 15 to 20)
#    0.000    0.667    3.333    6.500    2.333    0.000 
#    3.000    1.667    0.000    0.000    0.000    0.000 
#    0.000    0.000    0.000    0.000    0.000    0.000 
#
# Total GULP energy -133797.800565 kJ/mol
# GULP energy per Si atom -5574.908357 kJ/mol
# Density = 2.246236 g / cm^3
# Si number density = 22.513598 Si / 1000 Ang^3
#
#
#
# Elastic Constant Matrix: (Units=GPa)
#
#
# Indices 1 2 3 4 5 6 
#
# 1 79.9507 0.5922 16.9207 0.0000 0.0000 -8.0073
# 2 0.5922 79.9507 16.9207 0.0000 0.0000 8.0073
# 3 16.9207 16.9207 127.9186 0.0000 0.0000 0.0000
# 4 0.0000 0.0000 0.0000 35.8700 0.0000 0.0000
# 5 0.0000 0.0000 0.0000 0.0000 35.8700 0.0000
# 6 -8.0073 8.0073 0.0000 0.0000 0.0000 38.4423
#
#
#
# Elastic Compliance Matrix: (Units=1/GPa)
#
#
# Indices 1 2 3 4 5 6 
#
# 1 0.013150 -0.000004 -0.001739 0.000000 0.000000 0.002740
# 2 -0.000004 0.013150 -0.001739 0.000000 0.000000 -0.002740
# 3 -0.001739 -0.001739 0.008278 0.000000 0.000000 0.000000
# 4 0.000000 0.000000 0.000000 0.027878 0.000000 0.000000
# 5 0.000000 0.000000 0.000000 0.000000 0.027878 0.000000
# 6 0.002740 -0.002740 0.000000 0.000000 0.000000 0.027154
#
#
# Mechanical properties :
#
#
# Convention : Reuss Voigt Hill
#
# Bulk Modulus (GPa) = 36.21294 39.63193 37.92243
# Shear Modulus (GPa) = 37.40908 38.92890 38.16899
#
# Velocity S-wave (km/s) = 4.08072 4.16279 4.12196
# Velocity P-wave (km/s) = 6.19055 6.38333 6.28768
#
# Compressibility (1/GPa) = 0.02761444
#
# Stress axis : x y z
#
# Youngs Moduli (GPa) = 76.04462 76.04462 120.80907
#
# Poissons Ratio (x) = 0.00029 0.21008
# Poissons Ratio (y) = 0.00029 0.21008
# Poissons Ratio (z) = 0.13224 0.13224
#
# Static dielectric constant tensor:
#      x y z
#    x 1.847180 0.000000 0.000000 
#    y 0.000000 1.847180 0.000000 
#    z 0.000000 0.000000 1.883540 
# 
# From -- ./inp_files/2599.got.cif
#   From: 2010.05.17/outbox.cif.g08.bks.cpg/sg80_cif.got.tgz:2599.got - 2010.06.03 18:49:13.
