data_PCOD9542109
_publ_section_title
;
Structure prediction by ZEFSAII (Michael W. Deem and Ramdas Pophale) SiO2 
 PCOD9542109
Probable space group: I 41
;
_chemical_formula_sum "Si O2"
_cell_formula_units_Z 52
_cell_length_a 17.491337
_cell_length_b 17.491337
_cell_length_c 9.702560
_cell_angle_alpha 90.000000
_cell_angle_beta 90.000000
_cell_angle_gamma 90.000000
_cell_volume 2968.467863
_symmetry_space_group_name_H-M "I 41"
_symmetry_group_IT_number 80
_symmetry_cell_setting 'tetragonal'
loop_
_space_group_symop_operation_xyz
x,y,z
-y,1/2+x,1/4+z
-x,-y,z
y,1/2-x,1/4+z
1/2+x,1/2+y,1/2+z
1/2-y,x,3/4+z
1/2-x,1/2-y,1/2+z
1/2+y,-x,3/4+z
loop_
_atom_site_type_symbol
_atom_site_label
_atom_site_fract_x
_atom_site_fract_y
_atom_site_fract_z
Si Si1 0.081732 0.775225 0.291700
Si Si2 0.166136 0.569629 0.979231
Si Si3 0.428683 0.127449 0.119753
Si Si4 0.124329 0.597757 0.286283
Si Si5 0.789199 0.554842 0.759912
Si Si6 0.339335 0.598894 0.982421
Si Si7 0.000000 0.000000 0.188192
O O1 0.116158 0.689943 0.290082
O O2 0.073664 0.805903 0.136293
O O3 0.132538 0.839387 0.370024
O O4 0.005531 0.775721 0.385241
O O5 0.182582 0.491710 0.895234
O O6 0.249139 0.607715 0.993595
O O7 0.115498 0.619676 0.876117
O O8 0.133377 0.566655 0.131896
O O9 0.411049 0.205794 0.039424
O O10 0.358060 0.110179 0.219132
O O11 0.512579 0.140985 0.186435
O O12 0.442637 0.051227 0.029520
O O13 0.049092 0.559639 0.351007
#
# Coordination Sequence:
#
# PCOD9542109 Si02
#       7
#     8   8   8   8   8   8   4
#     4  11  20  35  57  89 119 163 202 238 280 373
#     4  10  22  35  52  89 123 161 190 247 294 363
#     4  11  20  40  68  89 108 156 207 252 297 364
#     4  12  23  34  55  87 127 156 198 244 306 345
#     4  10  21  39  67  84 113 151 211 248 299 359
#     4  10  20  37  58  82 119 161 205 231 299 357
#     4  12  20  36  60  86 112 158 196 242 292 364
#
# _framework density 17.517454000000001
#
# number of rings (size 3 to 8) (size 9 to 14) (size 15 to 20)
#    0.000    1.231    4.615    3.692    0.000    4.923 
#    0.000    0.000    6.769    0.000    0.000    0.000 
#    0.000    0.000    0.000    0.000    0.000    0.000 
#
# Total GULP energy -145065.533587 kJ/mol
# GULP energy per Si atom -5579.443600 kJ/mol
# Density = 1.747758 g / cm^3
# Si number density = 17.517454 Si / 1000 Ang^3
#
#
#
# Elastic Constant Matrix: (Units=GPa)
#
#
# Indices 1 2 3 4 5 6 
#
# 1 75.0959 33.2965 25.6897 0.0000 0.0000 -4.2890
# 2 33.2965 75.0959 25.6897 0.0000 0.0000 4.2890
# 3 25.6897 25.6897 109.0436 0.0000 0.0000 0.0000
# 4 0.0000 0.0000 0.0000 -31.3487 0.0000 0.0000
# 5 0.0000 0.0000 0.0000 0.0000 -31.3487 0.0000
# 6 -4.2890 4.2890 0.0000 0.0000 0.0000 15.0245
#
#
#
# Elastic Compliance Matrix: (Units=1/GPa)
#
#
# Indices 1 2 3 4 5 6 
#
# 1 0.017899 -0.007514 -0.002447 0.000000 0.000000 0.007254
# 2 -0.007514 0.017899 -0.002447 0.000000 0.000000 -0.007254
# 3 -0.002447 -0.002447 0.010324 0.000000 0.000000 0.000000
# 4 0.000000 0.000000 0.000000 -0.031899 0.000000 0.000000
# 5 0.000000 0.000000 0.000000 0.000000 -0.031899 0.000000
# 6 0.007254 -0.007254 0.000000 0.000000 0.000000 0.070700
#
#
# Mechanical properties :
#
#
# Convention : Reuss Voigt Hill
#
# Bulk Modulus (GPa) = 46.93162 47.62082 47.27622
# Shear Modulus (GPa) = 58.86569 2.10274 30.48421
#
# Velocity S-wave (km/s) = 5.80319 1.09680 4.17612
# Velocity P-wave (km/s) = 8.47066 5.37101 7.09225
#
# Compressibility (1/GPa) = 0.02130760
#
# Stress axis : x y z
#
# Youngs Moduli (GPa) = 55.86897 55.86897 96.86637
#
# Poissons Ratio (x) = 0.41977 0.23701
# Poissons Ratio (y) = 0.41977 0.23701
# Poissons Ratio (z) = 0.13670 0.13670
#
# Static dielectric constant tensor:
#      x y z
#    x 1.606600 0.000000 0.000000 
#    y 0.000000 1.606600 0.000000 
#    z 0.000000 0.000000 1.614170 
# 
# From -- ./inp_files/697.got.cif
#   From: 2010.05.17/outbox.cif.g08.bks.cpg/sg80_cif.got.tgz:697.got - 2010.06.03 18:49:13.
