data_PCOD9542420
_publ_section_title
;
Structure prediction by ZEFSAII (Michael W. Deem and Ramdas Pophale) SiO2 
 PCOD9542420
Probable space group: P -4
;
_chemical_formula_sum "Si O2"
_cell_formula_units_Z 17
_cell_length_a 11.723700
_cell_length_b 11.723700
_cell_length_c 3.785812
_cell_angle_alpha 90.000000
_cell_angle_beta 90.000000
_cell_angle_gamma 90.000000
_cell_volume 520.341467
_symmetry_space_group_name_H-M "P -4"
_symmetry_group_IT_number 81
_symmetry_cell_setting 'tetragonal'
loop_
_space_group_symop_operation_xyz
x,y,z
y,-x,-z
-x,-y,z
-y,x,-z
loop_
_atom_site_type_symbol
_atom_site_label
_atom_site_fract_x
_atom_site_fract_y
_atom_site_fract_z
Si Si1 0.968731 0.376820 0.489322
Si Si2 0.848116 0.914954 0.039047
Si Si3 0.565431 0.741877 0.968133
Si Si4 0.802490 0.674732 0.039782
Si Si5 0.500000 0.500000 0.000000
O O1 0.941906 0.264618 0.728265
O O2 0.854643 0.404425 0.261227
O O3 0.000000 0.500000 0.661606
O O4 0.084856 0.348921 0.271257
O O5 0.824790 0.794637 0.841267
O O6 0.973334 0.880178 0.188498
O O7 0.677799 0.708641 0.193478
O O8 0.445044 0.775870 0.148394
O O9 0.533063 0.618446 0.803474
#
# Coordination Sequence:
#
# PCOD9542420 Si02
#       5
#     4   4   4   4   1
#     4  10  23  45  74 106 142 191 248 301 362 440
#     4  11  26  45  67  98 140 191 248 309 365 420
#     4   9  19  40  71 109 148 189 230 288 364 442
#     4  10  21  41  71 108 146 184 231 289 363 444
#     4   8  16  36  72 110 156 190 224 284 364 450
#
# _framework density 32.670856000000001
#
# number of rings (size 3 to 8) (size 9 to 14) (size 15 to 20)
#    0.000    2.118    0.000    1.412    0.000    7.529 
#    0.000   16.471    0.000   12.706    0.000    0.000 
#    0.000    0.000    0.000    0.000    0.000    0.000 
#
# Total GULP energy -94724.919328 kJ/mol
# GULP energy per Si atom -5572.054078 kJ/mol
# Density = 3.259650 g / cm^3
# Si number density = 32.670856 Si / 1000 Ang^3
#
#
#
# Elastic Constant Matrix: (Units=GPa)
#
#
# Indices 1 2 3 4 5 6 
#
# 1 454.9412 77.7022 110.5687 0.0000 0.0000 -71.6329
# 2 77.7022 454.9412 110.5687 0.0000 0.0000 71.6329
# 3 110.5687 110.5687 88.8828 0.0000 0.0000 0.0000
# 4 0.0000 0.0000 0.0000 86.0103 0.0000 0.0000
# 5 0.0000 0.0000 0.0000 0.0000 86.0103 0.0000
# 6 -71.6329 71.6329 0.0000 0.0000 0.0000 94.0023
#
#
#
# Elastic Compliance Matrix: (Units=1/GPa)
#
#
# Indices 1 2 3 4 5 6 
#
# 1 0.003807 0.000076 -0.004830 0.000000 0.000000 0.002843
# 2 0.000076 0.003807 -0.004830 0.000000 0.000000 -0.002843
# 3 -0.004830 -0.004830 0.023268 0.000000 0.000000 0.000000
# 4 0.000000 0.000000 0.000000 0.011627 0.000000 0.000000
# 5 0.000000 0.000000 0.000000 0.000000 0.011627 0.000000
# 6 0.002843 -0.002843 0.000000 0.000000 0.000000 0.014971
#
#
# Mechanical properties :
#
#
# Convention : Reuss Voigt Hill
#
# Bulk Modulus (GPa) = 85.37502 177.38269 131.37886
# Shear Modulus (GPa) = 54.24376 99.86631 77.05504
#
# Velocity S-wave (km/s) = 4.07911 5.53478 4.86173
# Velocity P-wave (km/s) = 6.95515 9.75996 8.47440
#
# Compressibility (1/GPa) = 0.01171303
#
# Stress axis : x y z
#
# Youngs Moduli (GPa) = 262.70389 262.70389 42.97806
#
# Poissons Ratio (x) = -0.02000 0.20758
# Poissons Ratio (y) = -0.02000 0.20758
# Poissons Ratio (z) = 1.26886 1.26886
#
# Static dielectric constant tensor:
#      x y z
#    x 2.444070 0.000000 0.000000 
#    y 0.000000 2.444070 0.000000 
#    z 0.000000 0.000000 2.741650 
# 
# From -- ./inp_files/693.got.cif
#   From: 2010.05.17/outbox.cif.g08.bks.cpg/sg81_cif.got.tgz:693.got - 2010.06.03 18:51:07.
