data_PCOD9542792
_publ_section_title
;
Structure prediction by ZEFSAII (Michael W. Deem and Ramdas Pophale) SiO2 
 PCOD9542792
Probable space group: I -4 
;
_chemical_formula_sum "Si O2"
_cell_formula_units_Z 54
_cell_length_a 11.691353
_cell_length_b 11.691353
_cell_length_c 19.253238
_cell_angle_alpha 90.000000
_cell_angle_beta 90.000000
_cell_angle_gamma 90.000000
_cell_volume 2631.681493
_symmetry_space_group_name_H-M "I -4 "
_symmetry_group_IT_number 82
_symmetry_cell_setting 'tetragonal'
loop_
_space_group_symop_operation_xyz
x,y,z
y,-x,-z
-x,-y,z
-y,x,-z
1/2+x,1/2+y,1/2+z
1/2+y,1/2-x,1/2-z
1/2-x,1/2-y,1/2+z
1/2-y,1/2+x,1/2-z
loop_
_atom_site_type_symbol
_atom_site_label
_atom_site_fract_x
_atom_site_fract_y
_atom_site_fract_z
Si Si1 0.500000 0.500000 0.143324
Si Si2 0.831155 0.890711 0.106345
Si Si3 0.285790 0.175102 0.326375
Si Si4 0.000000 0.000000 0.000000
Si Si5 0.624826 0.043635 0.054471
Si Si6 0.662643 0.230651 0.943850
Si Si7 0.899473 0.797734 0.431922
Si Si8 0.667380 0.470220 0.743705
O O1 0.427868 0.580067 0.093156
O O2 0.429458 0.424651 0.198887
O O3 0.796241 0.757414 0.114772
O O4 0.870046 0.962026 0.174021
O O5 0.715214 0.948979 0.077472
O O6 0.927573 0.915324 0.048809
O O7 0.370055 0.116236 0.381287
O O8 0.190697 0.242395 0.372725
O O9 0.363434 0.258124 0.280537
O O10 0.234275 0.072446 0.282048
O O11 0.500000 0.000000 0.036638
O O12 0.670583 0.119319 0.992015
O O13 0.527390 0.246581 0.928655
O O14 0.701526 0.337867 0.993159
#
# Coordination Sequence:
#
# PCOD9542792 Si02
#       8
#     4   8   8   2   8   8   8   8
#     4  10  21  39  60  87 121 162 210 256 294 376
#     4  11  23  38  63  86 123 161 202 252 301 370
#     4   9  22  36  59  86 123 154 199 252 308 368
#     4  12  22  44  60  88 122 164 212 242 300 368
#     4  10  21  37  56  92 123 152 195 253 305 367
#     4  11  21  38  62  92 121 161 196 250 322 363
#     4  10  21  37  59  89 122 154 199 250 306 377
#     4  10  22  38  57  91 116 162 202 249 312 359
#
# _framework density 20.519200999999999
#
# number of rings (size 3 to 8) (size 9 to 14) (size 15 to 20)
#    0.000    1.778    1.481    2.222    6.222    1.185 
#    0.000    0.000    0.000    0.000    0.000    0.000 
#    0.000    0.000    0.000    0.000    0.000    0.000 
#
# Total GULP energy -150513.952120 kJ/mol
# GULP energy per Si atom -5574.590819 kJ/mol
# Density = 2.047250 g / cm^3
# Si number density = 20.519201 Si / 1000 Ang^3
#
#
#
# Elastic Constant Matrix: (Units=GPa)
#
#
# Indices 1 2 3 4 5 6 
#
# 1 78.7143 16.8739 15.4123 0.0000 0.0000 -6.9851
# 2 16.8739 78.7143 15.4123 0.0000 0.0000 6.9851
# 3 15.4123 15.4123 42.0904 0.0000 0.0000 0.0000
# 4 0.0000 0.0000 0.0000 -1.1169 0.0000 0.0000
# 5 0.0000 0.0000 0.0000 0.0000 -1.1169 0.0000
# 6 -6.9851 6.9851 0.0000 0.0000 0.0000 25.1798
#
#
#
# Elastic Compliance Matrix: (Units=1/GPa)
#
#
# Indices 1 2 3 4 5 6 
#
# 1 0.014557 -0.002695 -0.004344 0.000000 0.000000 0.004786
# 2 -0.002695 0.014557 -0.004344 0.000000 0.000000 -0.004786
# 3 -0.004344 -0.004344 0.026939 0.000000 0.000000 0.000000
# 4 0.000000 0.000000 0.000000 -0.895316 0.000000 0.000000
# 5 0.000000 0.000000 0.000000 0.000000 -0.895315 0.000000
# 6 0.004786 -0.004786 0.000000 0.000000 0.000000 0.042370
#
#
# Mechanical properties :
#
#
# Convention : Reuss Voigt Hill
#
# Bulk Modulus (GPa) = 30.03955 32.76843 31.40399
# Shear Modulus (GPa) = -3.01505 14.71055 5.84775
#
# Velocity S-wave (km/s) = -1.21350 2.68043 1.68999
# Velocity P-wave (km/s) = 3.56484 5.05806 4.37562
#
# Compressibility (1/GPa) = 0.03328945
#
# Stress axis : x y z
#
# Youngs Moduli (GPa) = 68.69534 68.69534 37.12031
#
# Poissons Ratio (x) = 0.18512 0.16124
# Poissons Ratio (y) = 0.18512 0.16124
# Poissons Ratio (z) = 0.29839 0.29839
#
# Static dielectric constant tensor:
#      x y z
#    x 1.762290 0.000000 0.000000 
#    y 0.000000 1.762290 0.000000 
#    z 0.000000 0.000000 1.696090 
# 
# From -- ./inp_files/3153.got.cif
#   From: 2010.05.17/outbox.cif.g08.bks.cpg/sg82_2_cif.got.tgz:3153.got - 2010.06.03 18:52:26.
