data_PCOD9542663
_publ_section_title
;
Structure prediction by ZEFSAII (Michael W. Deem and Ramdas Pophale) SiO2 
 PCOD9542663
Probable space group: I -4 
;
_chemical_formula_sum "Si O2"
_cell_formula_units_Z 36
_cell_length_a 15.791257
_cell_length_b 15.791257
_cell_length_c 5.134526
_cell_angle_alpha 90.000000
_cell_angle_beta 90.000000
_cell_angle_gamma 90.000000
_cell_volume 1280.364902
_symmetry_space_group_name_H-M "I -4 "
_symmetry_group_IT_number 82
_symmetry_cell_setting 'tetragonal'
loop_
_space_group_symop_operation_xyz
x,y,z
y,-x,-z
-x,-y,z
-y,x,-z
1/2+x,1/2+y,1/2+z
1/2+y,1/2-x,1/2-z
1/2-x,1/2-y,1/2+z
1/2-y,1/2+x,1/2-z
loop_
_atom_site_type_symbol
_atom_site_label
_atom_site_fract_x
_atom_site_fract_y
_atom_site_fract_z
Si Si1 0.500000 0.000000 0.750000
Si Si2 0.336533 0.969809 0.984822
Si Si3 0.787698 0.788186 0.781135
Si Si4 0.381760 0.556895 0.613403
Si Si5 0.000000 0.000000 0.500000
Si Si6 0.438774 0.793133 0.007345
O O1 0.524744 0.076306 0.562024
O O2 0.377909 0.877302 0.021924
O O3 0.287670 0.018260 0.213162
O O4 0.296360 0.985336 0.702105
O O5 0.881485 0.802090 0.900083
O O6 0.772215 0.873253 0.615308
O O7 0.730496 0.777794 0.043544
O O8 0.468213 0.608154 0.537900
O O9 0.406599 0.524806 0.895796
#
# Coordination Sequence:
#
# PCOD9542663 Si02
#       6
#     2   8   8   8   2   8
#     4   8  16  30  60  94 128 166 232 314 328 370
#     4  10  19  35  61  89 127 178 243 284 332 425
#     4  12  29  48  68 109 164 193 235 317 418 485
#     4   9  22  47  83 115 143 204 274 336 382 463
#     4   8  18  44  84 110 136 184 286 336 386 432
#     4  11  22  40  62  96 134 189 240 294 362 441
#
# _framework density 28.116980000000002
#
# number of rings (size 3 to 8) (size 9 to 14) (size 15 to 20)
#    0.000    2.000    0.000    5.333    6.222    2.667 
#    4.000    0.000    0.000    0.000    0.000    0.000 
#    0.000    0.000    0.000    0.000    0.000    0.000 
#
# Total GULP energy -100417.253096 kJ/mol
# GULP energy per Si atom -5578.736283 kJ/mol
# Density = 2.805298 g / cm^3
# Si number density = 28.116980 Si / 1000 Ang^3
#
#
#
# Elastic Constant Matrix: (Units=GPa)
#
#
# Indices 1 2 3 4 5 6 
#
# 1 100.4370 19.8408 27.4546 0.0000 0.0000 -4.3097
# 2 19.8408 100.4370 27.4546 0.0000 0.0000 4.3097
# 3 27.4546 27.4546 115.1853 0.0000 0.0000 0.0000
# 4 0.0000 0.0000 0.0000 -18.7968 0.0000 0.0000
# 5 0.0000 0.0000 0.0000 0.0000 -18.7968 0.0000
# 6 -4.3097 4.3097 0.0000 0.0000 0.0000 56.0646
#
#
#
# Elastic Compliance Matrix: (Units=1/GPa)
#
#
# Indices 1 2 3 4 5 6 
#
# 1 0.010920 -0.001591 -0.002224 0.000000 0.000000 0.000962
# 2 -0.001591 0.010920 -0.002224 0.000000 0.000000 -0.000962
# 3 -0.002224 -0.002224 0.009742 0.000000 0.000000 0.000000
# 4 0.000000 0.000000 0.000000 -0.053201 0.000000 0.000000
# 5 0.000000 0.000000 0.000000 0.000000 -0.053201 0.000000
# 6 0.000962 -0.000962 0.000000 0.000000 0.000000 0.017984
#
#
# Mechanical properties :
#
#
# Convention : Reuss Voigt Hill
#
# Bulk Modulus (GPa) = 51.26738 51.72881 51.49810
# Shear Modulus (GPa) = -130.69155 19.78150 -55.45503
#
# Velocity S-wave (km/s) = -6.82512 2.65532 -4.44587
# Velocity P-wave (km/s) = 6.62091 5.27623 2.82824
#
# Compressibility (1/GPa) = 0.01950558
#
# Stress axis : x y z
#
# Youngs Moduli (GPa) = 91.57675 91.57675 102.65177
#
# Poissons Ratio (x) = 0.14566 0.22826
# Poissons Ratio (y) = 0.14566 0.22826
# Poissons Ratio (z) = 0.20363 0.20363
#
# Static dielectric constant tensor:
#      x y z
#    x 2.381680 0.000000 0.000000 
#    y 0.000000 2.381680 0.000000 
#    z 0.000000 0.000000 2.223410 
# 
# From -- ./inp_files/261.got.cif
#   From: 2010.05.17/outbox.cif.g08.bks.cpg/sg82_1_cif.got.tgz:261.got - 2010.06.03 18:52:26.
