data_PCOD9542447
_publ_section_title
;
Structure prediction by ZEFSAII (Michael W. Deem and Ramdas Pophale) SiO2 
 PCOD9542447
Probable space group: P -4
;
_chemical_formula_sum "Si O2"
_cell_formula_units_Z 17
_cell_length_a 8.555346
_cell_length_b 8.555346
_cell_length_c 8.794252
_cell_angle_alpha 90.000000
_cell_angle_beta 90.000000
_cell_angle_gamma 90.000000
_cell_volume 643.685999
_symmetry_space_group_name_H-M "P -4"
_symmetry_group_IT_number 81
_symmetry_cell_setting 'tetragonal'
loop_
_space_group_symop_operation_xyz
x,y,z
y,-x,-z
-x,-y,z
-y,x,-z
loop_
_atom_site_type_symbol
_atom_site_label
_atom_site_fract_x
_atom_site_fract_y
_atom_site_fract_z
Si Si1 0.582680 0.214872 0.697128
Si Si2 0.000000 0.000000 0.000000
Si Si3 0.099829 0.693467 0.141557
Si Si4 0.052633 0.224947 0.546163
Si Si5 0.378874 0.138919 0.206806
O O1 0.630483 0.145826 0.530709
O O2 0.682983 0.369877 0.731314
O O3 0.785441 0.400660 0.257275
O O4 0.647215 0.077442 0.810304
O O5 0.124080 0.095664 0.899985
O O6 0.078907 0.833976 0.426470
O O7 0.145948 0.630401 0.973744
O O8 0.938495 0.246074 0.688071
O O9 0.500000 0.000000 0.236831
#
# Coordination Sequence:
#
# PCOD9542447 Si02
#       5
#     4   1   4   4   4
#     4  10  22  41  61 102 148 183 230 314 362 411
#     4  12  24  40  76 106 136 196 240 302 372 448
#     4  11  23  38  66 103 142 178 237 304 365 419
#     4   9  21  37  65 102 142 188 247 303 358 430
#     4  11  22  39  64 101 142 199 244 287 362 447
#
# _framework density 26.410391000000001
#
# number of rings (size 3 to 8) (size 9 to 14) (size 15 to 20)
#    0.000    1.647    4.706    0.000    6.588    0.000 
#    0.000    0.000    0.000    7.765    0.000    0.000 
#    0.000    0.000    0.000    0.000    0.000    0.000 
#
# Total GULP energy -94702.207064 kJ/mol
# GULP energy per Si atom -5570.718063 kJ/mol
# Density = 2.635028 g / cm^3
# Si number density = 26.410391 Si / 1000 Ang^3
#
#
#
# Elastic Constant Matrix: (Units=GPa)
#
#
# Indices 1 2 3 4 5 6 
#
# 1 106.4192 47.5670 29.4212 0.0000 0.0000 8.7622
# 2 47.5670 106.4192 29.4212 0.0000 0.0000 -8.7622
# 3 29.4212 29.4212 86.9917 0.0000 0.0000 0.0000
# 4 0.0000 0.0000 0.0000 16.8989 0.0000 0.0000
# 5 0.0000 0.0000 0.0000 0.0000 16.8989 0.0000
# 6 8.7622 -8.7622 0.0000 0.0000 0.0000 47.2844
#
#
#
# Elastic Compliance Matrix: (Units=1/GPa)
#
#
# Indices 1 2 3 4 5 6 
#
# 1 0.012721 -0.005263 -0.002522 0.000000 0.000000 -0.003333
# 2 -0.005263 0.012721 -0.002522 0.000000 0.000000 0.003333
# 3 -0.002522 -0.002522 0.013201 0.000000 0.000000 0.000000
# 4 0.000000 0.000000 0.000000 0.059175 0.000000 0.000000
# 5 0.000000 0.000000 0.000000 0.000000 0.059175 0.000000
# 6 -0.003333 0.003333 0.000000 0.000000 0.000000 0.022384
#
#
# Mechanical properties :
#
#
# Convention : Reuss Voigt Hill
#
# Bulk Modulus (GPa) = 55.46911 56.96100 56.21505
# Shear Modulus (GPa) = 24.27151 29.11115 26.69133
#
# Velocity S-wave (km/s) = 3.03481 3.32363 3.18250
# Velocity P-wave (km/s) = 5.77308 6.02853 5.90219
#
# Compressibility (1/GPa) = 0.01802805
#
# Stress axis : x y z
#
# Youngs Moduli (GPa) = 78.61022 78.61022 75.74898
#
# Poissons Ratio (x) = 0.41373 0.19106
# Poissons Ratio (y) = 0.41373 0.19106
# Poissons Ratio (z) = 0.19828 0.19828
#
# Static dielectric constant tensor:
#      x y z
#    x 2.442930 0.000000 0.000000 
#    y 0.000000 2.442930 0.000000 
#    z 0.000000 0.000000 2.125270 
# 
# From -- ./inp_files/692.got.cif
#   From: 2010.05.17/outbox.cif.g08.bks.cpg/sg81_cif.got.tgz:692.got - 2010.06.03 18:51:07.
