data_PCOD9542928
_publ_section_title
;
Structure prediction by ZEFSAII (Michael W. Deem and Ramdas Pophale) SiO2 
 PCOD9542928
Probable space group: I -4 
;
_chemical_formula_sum "Si O2"
_cell_formula_units_Z 24
_cell_length_a 12.018288
_cell_length_b 12.018288
_cell_length_c 7.198185
_cell_angle_alpha 90.000000
_cell_angle_beta 90.000000
_cell_angle_gamma 90.000000
_cell_volume 1039.700417
_symmetry_space_group_name_H-M "I -4 "
_symmetry_group_IT_number 82
_symmetry_cell_setting 'tetragonal'
loop_
_space_group_symop_operation_xyz
x,y,z
y,-x,-z
-x,-y,z
-y,x,-z
1/2+x,1/2+y,1/2+z
1/2+y,1/2-x,1/2-z
1/2-x,1/2-y,1/2+z
1/2-y,1/2+x,1/2-z
loop_
_atom_site_type_symbol
_atom_site_label
_atom_site_fract_x
_atom_site_fract_y
_atom_site_fract_z
Si Si1 0.363877 0.812508 0.070756
Si Si2 0.104602 0.268297 0.568884
Si Si3 0.168879 0.950878 0.058285
O O1 0.362320 0.845003 0.290903
O O2 0.486814 0.806804 0.987681
O O3 0.286455 0.907850 0.981836
O O4 0.291585 0.699455 0.049447
O O5 0.063757 0.177167 0.720443
O O6 0.072592 0.868445 0.993392
#
# Coordination Sequence:
#
# PCOD9542928 Si02
#       3
#     8   8   8
#     4  10  23  42  62 102 127 175 213 271 327 382
#     4  10  23  41  68  93 138 162 228 260 329 385
#     4   9  20  40  67  95 130 171 212 268 320 388
#
# _framework density 23.083576000000001
#
# number of rings (size 3 to 8) (size 9 to 14) (size 15 to 20)
#    2.000    0.333    0.000    2.000    0.000    9.333 
#    0.000    0.000    0.000    4.000    0.000    0.000 
#    0.000    0.000    0.000    0.000    0.000    0.000 
#
# Total GULP energy -66853.091023 kJ/mol
# GULP energy per Si atom -5571.090919 kJ/mol
# Density = 2.303104 g / cm^3
# Si number density = 23.083576 Si / 1000 Ang^3
#
#
#
# Elastic Constant Matrix: (Units=GPa)
#
#
# Indices 1 2 3 4 5 6 
#
# 1 92.5151 21.0706 15.7391 0.0000 0.0000 0.7436
# 2 21.0706 92.5151 15.7391 0.0000 0.0000 -0.7436
# 3 15.7391 15.7391 21.7490 0.0000 0.0000 0.0000
# 4 0.0000 0.0000 0.0000 30.2406 0.0000 0.0000
# 5 0.0000 0.0000 0.0000 0.0000 30.2406 0.0000
# 6 0.7436 -0.7436 0.0000 0.0000 0.0000 30.8249
#
#
#
# Elastic Compliance Matrix: (Units=1/GPa)
#
#
# Indices 1 2 3 4 5 6 
#
# 1 0.012508 -0.001496 -0.007969 0.000000 0.000000 -0.000338
# 2 -0.001496 0.012508 -0.007969 0.000000 0.000000 0.000338
# 3 -0.007969 -0.007969 0.057514 0.000000 0.000000 0.000000
# 4 0.000000 0.000000 0.000000 0.033068 0.000000 0.000000
# 5 0.000000 0.000000 0.000000 0.000000 0.033068 0.000000
# 6 -0.000338 0.000338 0.000000 0.000000 0.000000 0.032458
#
#
# Mechanical properties :
#
#
# Convention : Reuss Voigt Hill
#
# Bulk Modulus (GPa) = 20.98152 34.65298 27.81725
# Shear Modulus (GPa) = 21.56285 28.54322 25.05304
#
# Velocity S-wave (km/s) = 3.05965 3.52023 3.29799
# Velocity P-wave (km/s) = 4.64662 5.61847 5.15550
#
# Compressibility (1/GPa) = 0.04766098
#
# Stress axis : x y z
#
# Youngs Moduli (GPa) = 79.94746 79.94746 17.38715
#
# Poissons Ratio (x) = 0.11958 0.13857
# Poissons Ratio (y) = 0.11958 0.13857
# Poissons Ratio (z) = 0.63714 0.63714
#
# Static dielectric constant tensor:
#      x y z
#    x 1.890270 0.000000 0.000000 
#    y 0.000000 1.890270 0.000000 
#    z 0.000000 0.000000 1.922890 
# 
# From -- ./inp_files/581.got.cif
#   From: 2010.05.17/outbox.cif.g08.bks.cpg/sg82_1_cif.got.tgz:581.got - 2010.06.03 18:52:26.
