data_PCOD9542681
_publ_section_title
;
Structure prediction by ZEFSAII (Michael W. Deem and Ramdas Pophale) SiO2 
 PCOD9542681
Probable space group: I -4 
;
_chemical_formula_sum "Si O2"
_cell_formula_units_Z 52
_cell_length_a 15.859737
_cell_length_b 15.859737
_cell_length_c 8.791125
_cell_angle_alpha 90.000000
_cell_angle_beta 90.000000
_cell_angle_gamma 90.000000
_cell_volume 2211.242728
_symmetry_space_group_name_H-M "I -4 "
_symmetry_group_IT_number 82
_symmetry_cell_setting 'tetragonal'
loop_
_space_group_symop_operation_xyz
x,y,z
y,-x,-z
-x,-y,z
-y,x,-z
1/2+x,1/2+y,1/2+z
1/2+y,1/2-x,1/2-z
1/2-x,1/2-y,1/2+z
1/2-y,1/2+x,1/2-z
loop_
_atom_site_type_symbol
_atom_site_label
_atom_site_fract_x
_atom_site_fract_y
_atom_site_fract_z
Si Si1 0.500000 0.000000 0.750000
Si Si2 0.213832 0.211215 0.966451
Si Si3 0.580483 0.613570 0.988497
Si Si4 0.900074 0.777118 0.218143
Si Si5 0.085020 0.265039 0.722830
Si Si6 0.475514 0.677004 0.448827
Si Si7 0.138976 0.595681 0.063246
Si Si8 0.500000 0.500000 0.500000
O O1 0.434415 0.051523 0.860618
O O2 0.181624 0.255312 0.123121
O O3 0.173568 0.119783 0.998817
O O4 0.165435 0.262764 0.835657
O O5 0.308590 0.178742 0.938016
O O6 0.621910 0.646481 0.831965
O O7 0.610170 0.520605 0.031733
O O8 0.598904 0.683702 0.114899
O O9 0.944359 0.707951 0.324506
O O10 0.970217 0.802429 0.097051
O O11 0.003248 0.245193 0.825287
O O12 0.072006 0.344555 0.612374
O O13 0.500031 0.582909 0.397609
#
# Coordination Sequence:
#
# PCOD9542681 Si02
#       8
#     2   8   8   8   8   8   8   2
#     4  12  28  52  76  94 128 188 252 314 384 420
#     4  11  21  40  68  97 133 173 219 279 347 416
#     4  10  20  29  50  88 137 175 210 254 319 405
#     4  10  21  37  59  94 132 175 216 273 341 402
#     4  10  22  39  61  99 133 171 224 277 336 414
#     4  11  21  35  63  99 143 178 213 254 325 421
#     4  11  25  47  70  92 124 173 239 299 353 411
#     4  12  20  32  64  94 152 184 208 230 332 420
#
# _framework density 23.516186999999999
#
# number of rings (size 3 to 8) (size 9 to 14) (size 15 to 20)
#    0.000    1.385    3.077    3.692    0.000    1.231 
#    0.000    6.154    0.000    3.692    0.000    0.000 
#    0.000    0.000    0.000    0.000    0.000    0.000 
#
# Total GULP energy -144951.221736 kJ/mol
# GULP energy per Si atom -5575.046990 kJ/mol
# Density = 2.346266 g / cm^3
# Si number density = 23.516187 Si / 1000 Ang^3
#
#
#
# Elastic Constant Matrix: (Units=GPa)
#
#
# Indices 1 2 3 4 5 6 
#
# 1 55.6202 -3.6438 17.7129 0.0000 0.0000 6.2354
# 2 -3.6438 55.6202 17.7129 0.0000 0.0000 -6.2354
# 3 17.7129 17.7129 119.9988 0.0000 0.0000 0.0000
# 4 0.0000 0.0000 0.0000 25.7910 0.0000 0.0000
# 5 0.0000 0.0000 0.0000 0.0000 25.7910 0.0000
# 6 6.2354 -6.2354 0.0000 0.0000 0.0000 20.2385
#
#
#
# Elastic Compliance Matrix: (Units=1/GPa)
#
#
# Indices 1 2 3 4 5 6 
#
# 1 0.019718 0.001674 -0.003158 0.000000 0.000000 -0.005559
# 2 0.001674 0.019718 -0.003158 0.000000 0.000000 0.005559
# 3 -0.003158 -0.003158 0.009266 0.000000 0.000000 0.000000
# 4 0.000000 0.000000 0.000000 0.038773 0.000000 0.000000
# 5 0.000000 0.000000 0.000000 0.000000 0.038773 0.000000
# 6 -0.005559 0.005559 0.000000 0.000000 0.000000 0.052836
#
#
# Mechanical properties :
#
#
# Convention : Reuss Voigt Hill
#
# Bulk Modulus (GPa) = 25.36884 32.75594 29.06239
# Shear Modulus (GPa) = 24.81331 27.66127 26.23729
#
# Velocity S-wave (km/s) = 3.25184 3.43339 3.34385
# Velocity P-wave (km/s) = 4.99105 5.44765 5.22434
#
# Compressibility (1/GPa) = 0.03941844
#
# Stress axis : x y z
#
# Youngs Moduli (GPa) = 50.71629 50.71629 107.92611
#
# Poissons Ratio (x) = -0.08490 0.34079
# Poissons Ratio (y) = -0.08490 0.34079
# Poissons Ratio (z) = 0.16014 0.16014
#
# Static dielectric constant tensor:
#      x y z
#    x 1.960190 0.000000 0.000000 
#    y 0.000000 1.960190 0.000000 
#    z 0.000000 0.000000 1.966620 
# 
# From -- ./inp_files/1157.got.cif
#   From: 2010.05.17/outbox.cif.g08.bks.cpg/sg82_1_cif.got.tgz:1157.got - 2010.06.03 18:52:26.
