data_PCOD9542108
_publ_section_title
;
Structure prediction by ZEFSAII (Michael W. Deem and Ramdas Pophale) SiO2 
 PCOD9542108
Probable space group: I 41
;
_chemical_formula_sum "Si O2"
_cell_formula_units_Z 32
_cell_length_a 14.806162
_cell_length_b 14.806162
_cell_length_c 7.963355
_cell_angle_alpha 90.000000
_cell_angle_beta 90.000000
_cell_angle_gamma 90.000000
_cell_volume 1745.746059
_symmetry_space_group_name_H-M "I 41"
_symmetry_group_IT_number 80
_symmetry_cell_setting 'tetragonal'
loop_
_space_group_symop_operation_xyz
x,y,z
-y,1/2+x,1/4+z
-x,-y,z
y,1/2-x,1/4+z
1/2+x,1/2+y,1/2+z
1/2-y,x,3/4+z
1/2-x,1/2-y,1/2+z
1/2+y,-x,3/4+z
loop_
_atom_site_type_symbol
_atom_site_label
_atom_site_fract_x
_atom_site_fract_y
_atom_site_fract_z
Si Si1 0.209729 0.999967 0.332630
Si Si2 0.768758 0.633336 0.108555
Si Si3 0.597461 0.039127 0.190473
Si Si4 0.064765 0.079920 0.096618
O O1 0.206417 0.181407 0.744204
O O2 0.143341 0.920540 0.393422
O O3 0.313414 0.974527 0.299290
O O4 0.160249 0.041409 0.167454
O O5 0.710857 0.573074 0.981409
O O6 0.843458 0.577747 0.210543
O O7 0.500000 0.000000 0.254883
O O8 0.612786 0.985199 0.016153
O O9 0.000000 0.000000 0.031729
#
# Coordination Sequence:
#
# PCOD9542108 Si02
#       4
#     8   8   8   8
#     4  10  20  37  56  78 109 144 183 224 272 326
#     4  12  22  32  53  83 112 142 181 229 276 326
#     4   9  19  38  59  78 107 147 182 225 278 323
#     4   9  20  37  57  77 106 145 182 226 274 323
#
# _framework density 18.330269999999999
#
# number of rings (size 3 to 8) (size 9 to 14) (size 15 to 20)
#    0.000    2.500    0.000    6.000    0.000    3.000 
#    0.000    5.000    0.000    0.000    0.000    0.000 
#    0.000    0.000    0.000    0.000    0.000    0.000 
#
# Total GULP energy -89241.023595 kJ/mol
# GULP energy per Si atom -5577.563975 kJ/mol
# Density = 1.828855 g / cm^3
# Si number density = 18.330270 Si / 1000 Ang^3
#
#
#
# Elastic Constant Matrix: (Units=GPa)
#
#
# Indices 1 2 3 4 5 6 
#
# 1 104.4637 38.3569 36.0293 0.0000 0.0000 1.0478
# 2 38.3569 104.4637 36.0293 0.0000 0.0000 -1.0478
# 3 36.0293 36.0293 34.4891 0.0000 0.0000 0.0000
# 4 0.0000 0.0000 0.0000 26.9685 0.0000 0.0000
# 5 0.0000 0.0000 0.0000 0.0000 26.9685 0.0000
# 6 1.0478 -1.0478 0.0000 0.0000 0.0000 16.1907
#
#
#
# Elastic Compliance Matrix: (Units=1/GPa)
#
#
# Indices 1 2 3 4 5 6 
#
# 1 0.014982 -0.000176 -0.015466 0.000000 0.000000 -0.000981
# 2 -0.000176 0.014982 -0.015466 0.000000 0.000000 0.000981
# 3 -0.015466 -0.015466 0.061309 0.000000 0.000000 0.000000
# 4 0.000000 0.000000 0.000000 0.037080 0.000000 0.000000
# 5 0.000000 0.000000 0.000000 0.000000 0.037080 0.000000
# 6 -0.000981 0.000981 0.000000 0.000000 0.000000 0.061891
#
#
# Mechanical properties :
#
#
# Convention : Reuss Voigt Hill
#
# Bulk Modulus (GPa) = 34.41897 51.58304 43.00101
# Shear Modulus (GPa) = 16.70977 22.89229 19.80103
#
# Velocity S-wave (km/s) = 3.02254 3.53778 3.29026
# Velocity P-wave (km/s) = 5.56766 6.69999 6.15990
#
# Compressibility (1/GPa) = 0.02905375
#
# Stress axis : x y z
#
# Youngs Moduli (GPa) = 66.74837 66.74837 16.31089
#
# Poissons Ratio (x) = 0.01178 0.25227
# Poissons Ratio (y) = 0.01178 0.25227
# Poissons Ratio (z) = 1.03235 1.03235
#
# Static dielectric constant tensor:
#      x y z
#    x 1.649810 0.000000 0.000000 
#    y 0.000000 1.649810 0.000000 
#    z 0.000000 0.000000 1.600470 
# 
# From -- ./inp_files/548.got.cif
#   From: 2010.05.17/outbox.cif.g08.bks.cpg/sg80_cif.got.tgz:548.got - 2010.06.03 18:49:13.
