data_PCOD9542252
_publ_section_title
;
Structure prediction by ZEFSAII (Michael W. Deem and Ramdas Pophale) SiO2 
 PCOD9542252
Probable space group: I 41
;
_chemical_formula_sum "Si O2"
_cell_formula_units_Z 56
_cell_length_a 11.473151
_cell_length_b 11.473151
_cell_length_c 21.508742
_cell_angle_alpha 90.000000
_cell_angle_beta 90.000000
_cell_angle_gamma 90.000000
_cell_volume 2831.264406
_symmetry_space_group_name_H-M "I 41"
_symmetry_group_IT_number 80
_symmetry_cell_setting 'tetragonal'
loop_
_space_group_symop_operation_xyz
x,y,z
-y,1/2+x,1/4+z
-x,-y,z
y,1/2-x,1/4+z
1/2+x,1/2+y,1/2+z
1/2-y,x,3/4+z
1/2-x,1/2-y,1/2+z
1/2+y,-x,3/4+z
loop_
_atom_site_type_symbol
_atom_site_label
_atom_site_fract_x
_atom_site_fract_y
_atom_site_fract_z
Si Si1 0.508421 0.639628 0.008190
Si Si2 0.491905 0.639673 0.863290
Si Si3 0.771234 0.311983 0.850708
Si Si4 0.733353 0.787925 0.045400
Si Si5 0.245541 0.334187 0.163464
Si Si6 0.135224 0.536459 0.093883
Si Si7 0.860750 0.495644 0.947772
O O1 0.500000 0.500000 0.014529
O O2 0.395148 0.685005 0.044646
O O3 0.626262 0.697399 0.034795
O O4 0.511234 0.670591 0.935513
O O5 0.500000 0.500000 0.860323
O O6 0.366690 0.689556 0.846140
O O7 0.589242 0.685438 0.817236
O O8 0.832985 0.186026 0.850121
O O9 0.805435 0.386201 0.912576
O O10 0.802572 0.740444 0.105592
O O11 0.803506 0.799194 0.981641
O O12 0.214296 0.463520 0.141753
O O13 0.384257 0.312422 0.169583
O O14 0.000000 0.500000 0.104893
O O15 0.159630 0.504446 0.021662
O O16 0.000000 0.500000 0.937670
#
# Coordination Sequence:
#
# PCOD9542252 Si02
#       7
#     8   8   8   8   8   8   8
#     4  11  22  36  64 101 133 169 225 286 352 404
#     4  11  23  41  60  98 141 177 225 287 350 416
#     4  12  22  40  69  99 134 175 226 289 345 414
#     4  12  23  39  65  96 138 179 216 278 350 424
#     4  12  22  41  67  94 132 171 218 275 353 410
#     4  11  26  45  64  97 136 175 225 287 341 417
#     4  11  21  38  69 101 125 161 221 289 353 393
#
# _framework density 19.779150000000001
#
# number of rings (size 3 to 8) (size 9 to 14) (size 15 to 20)
#    0.000    0.571    7.143    2.143    2.000    0.000 
#    5.143    0.000    0.000    0.000    0.000    0.000 
#    0.000    0.000    0.000    0.000    0.000    0.000 
#
# Total GULP energy -156424.924796 kJ/mol
# GULP energy per Si atom -5586.604457 kJ/mol
# Density = 1.973413 g / cm^3
# Si number density = 19.779150 Si / 1000 Ang^3
#
#
#
# Elastic Constant Matrix: (Units=GPa)
#
#
# Indices 1 2 3 4 5 6 
#
# 1 89.6767 17.5000 30.6440 0.0000 0.0000 5.2835
# 2 17.5000 89.6767 30.6440 0.0000 0.0000 -5.2835
# 3 30.6440 30.6440 136.4266 0.0000 0.0000 0.0000
# 4 0.0000 0.0000 0.0000 17.8600 0.0000 0.0000
# 5 0.0000 0.0000 0.0000 0.0000 17.8600 0.0000
# 6 5.2835 -5.2835 0.0000 0.0000 0.0000 28.4296
#
#
#
# Elastic Compliance Matrix: (Units=1/GPa)
#
#
# Indices 1 2 3 4 5 6 
#
# 1 0.012474 -0.001768 -0.002405 0.000000 0.000000 -0.002647
# 2 -0.001768 0.012474 -0.002405 0.000000 0.000000 0.002647
# 3 -0.002405 -0.002405 0.008410 0.000000 0.000000 0.000000
# 4 0.000000 0.000000 0.000000 0.055991 0.000000 0.000000
# 5 0.000000 0.000000 0.000000 0.000000 0.055991 0.000000
# 6 -0.002647 0.002647 0.000000 0.000000 0.000000 0.036158
#
#
# Mechanical properties :
#
#
# Convention : Reuss Voigt Hill
#
# Bulk Modulus (GPa) = 49.49871 52.59508 51.04690
# Shear Modulus (GPa) = 24.82769 28.62940 26.72854
#
# Velocity S-wave (km/s) = 3.54679 3.80867 3.68006
# Velocity P-wave (km/s) = 6.46939 6.78161 6.62734
#
# Compressibility (1/GPa) = 0.02020255
#
# Stress axis : x y z
#
# Youngs Moduli (GPa) = 80.16723 80.16723 118.90316
#
# Poissons Ratio (x) = 0.14177 0.28592
# Poissons Ratio (y) = 0.14177 0.28592
# Poissons Ratio (z) = 0.19277 0.19277
#
# Static dielectric constant tensor:
#      x y z
#    x 1.717310 0.000000 0.000000 
#    y 0.000000 1.717310 0.000000 
#    z 0.000000 0.000000 1.726190 
# 
# From -- ./inp_files/1796.got.cif
#   From: 2010.05.17/outbox.cif.g08.bks.cpg/sg80_cif.got.tgz:1796.got - 2010.06.03 18:49:13.
