data_PCOD9542816
_publ_section_title
;
Structure prediction by ZEFSAII (Michael W. Deem and Ramdas Pophale) SiO2 
 PCOD9542816
Probable space group: I -4 
;
_chemical_formula_sum "Si O2"
_cell_formula_units_Z 28
_cell_length_a 9.504782
_cell_length_b 9.504782
_cell_length_c 12.884483
_cell_angle_alpha 90.000000
_cell_angle_beta 90.000000
_cell_angle_gamma 90.000000
_cell_volume 1163.995544
_symmetry_space_group_name_H-M "I -4 "
_symmetry_group_IT_number 82
_symmetry_cell_setting 'tetragonal'
loop_
_space_group_symop_operation_xyz
x,y,z
y,-x,-z
-x,-y,z
-y,x,-z
1/2+x,1/2+y,1/2+z
1/2+y,1/2-x,1/2-z
1/2-x,1/2-y,1/2+z
1/2-y,1/2+x,1/2-z
loop_
_atom_site_type_symbol
_atom_site_label
_atom_site_fract_x
_atom_site_fract_y
_atom_site_fract_z
Si Si1 0.500000 0.500000 0.000000
Si Si2 0.796201 0.561294 0.954205
Si Si3 0.798956 0.065570 0.168130
Si Si4 0.756899 0.270911 0.868144
Si Si5 0.000000 0.000000 0.000000
O O1 0.568386 0.373267 0.063588
O O2 0.679008 0.350883 0.774035
O O3 0.821537 0.395694 0.941491
O O4 0.882925 0.646136 0.869603
O O5 0.805756 0.895871 0.174391
O O6 0.905861 0.097158 0.074354
O O7 0.857219 0.312869 0.436458
#
# Coordination Sequence:
#
# PCOD9542816 Si02
#       5
#     2   8   8   8   2
#     4   8  20  38  60  92 124 178 212 274 320 384
#     4  10  21  39  63  99 130 168 228 282 319 396
#     4  12  23  43  66 102 131 180 226 276 344 398
#     4  11  23  41  70  95 129 182 227 270 331 417
#     4  12  28  42  64 102 156 160 212 310 340 378
#
# _framework density 24.055078000000002
#
# number of rings (size 3 to 8) (size 9 to 14) (size 15 to 20)
#    0.000    1.143    5.714    0.857    0.000    6.857 
#    0.000    0.000    0.000    0.000   14.857    0.000 
#    0.000    0.000    0.000    0.000    0.000    0.000 
#
# Total GULP energy -78086.216902 kJ/mol
# GULP energy per Si atom -5577.586922 kJ/mol
# Density = 2.400033 g / cm^3
# Si number density = 24.055078 Si / 1000 Ang^3
#
#
#
# Elastic Constant Matrix: (Units=GPa)
#
#
# Indices 1 2 3 4 5 6 
#
# 1 44.4536 1.8695 9.1958 0.0000 0.0000 4.0779
# 2 1.8695 44.4536 9.1958 0.0000 0.0000 -4.0779
# 3 9.1958 9.1958 115.8718 0.0000 0.0000 0.0000
# 4 0.0000 0.0000 0.0000 32.1500 0.0000 0.0000
# 5 0.0000 0.0000 0.0000 0.0000 32.1500 0.0000
# 6 4.0779 -4.0779 0.0000 0.0000 0.0000 36.5999
#
#
#
# Elastic Compliance Matrix: (Units=1/GPa)
#
#
# Indices 1 2 3 4 5 6 
#
# 1 0.023142 -0.000853 -0.001769 0.000000 0.000000 -0.002673
# 2 -0.000853 0.023142 -0.001769 0.000000 0.000000 0.002673
# 3 -0.001769 -0.001769 0.008911 0.000000 0.000000 0.000000
# 4 0.000000 0.000000 0.000000 0.031104 0.000000 0.000000
# 5 0.000000 0.000000 0.000000 0.000000 0.031104 0.000000
# 6 -0.002673 0.002673 0.000000 0.000000 0.000000 0.027918
#
#
# Mechanical properties :
#
#
# Convention : Reuss Voigt Hill
#
# Bulk Modulus (GPa) = 21.54485 27.25568 24.40026
# Shear Modulus (GPa) = 29.48546 32.48116 30.98331
#
# Velocity S-wave (km/s) = 3.50487 3.67861 3.59279
# Velocity P-wave (km/s) = 5.03534 5.42199 5.23224
#
# Compressibility (1/GPa) = 0.04641482
#
# Stress axis : x y z
#
# Youngs Moduli (GPa) = 43.21073 43.21073 112.22085
#
# Poissons Ratio (x) = 0.03684 0.19851
# Poissons Ratio (y) = 0.03684 0.19851
# Poissons Ratio (z) = 0.07644 0.07644
#
# Static dielectric constant tensor:
#      x y z
#    x 1.969450 0.000000 0.000000 
#    y 0.000000 1.969450 0.000000 
#    z 0.000000 0.000000 1.981060 
# 
# From -- ./inp_files/1461.got.cif
#   From: 2010.05.17/outbox.cif.g08.bks.cpg/sg82_1_cif.got.tgz:1461.got - 2010.06.03 18:52:26.
