data_PCOD9542466
_publ_section_title
;
Structure prediction by ZEFSAII (Michael W. Deem and Ramdas Pophale) SiO2 
 PCOD9542466
Probable space group: P -4
;
_chemical_formula_sum "Si O2"
_cell_formula_units_Z 24
_cell_length_a 13.931774
_cell_length_b 13.931774
_cell_length_c 5.050558
_cell_angle_alpha 90.000000
_cell_angle_beta 90.000000
_cell_angle_gamma 90.000000
_cell_volume 980.284655
_symmetry_space_group_name_H-M "P -4"
_symmetry_group_IT_number 81
_symmetry_cell_setting 'tetragonal'
loop_
_space_group_symop_operation_xyz
x,y,z
y,-x,-z
-x,-y,z
-y,x,-z
loop_
_atom_site_type_symbol
_atom_site_label
_atom_site_fract_x
_atom_site_fract_y
_atom_site_fract_z
Si Si1 0.133514 0.064107 0.889848
Si Si2 0.789429 0.486981 0.254985
Si Si3 0.134836 0.340409 0.556418
Si Si4 0.689613 0.418986 0.758303
Si Si5 0.000000 0.000000 0.500000
Si Si6 0.500000 0.500000 0.000000
Si Si7 0.500000 0.000000 0.599073
Si Si8 0.756517 0.209715 0.921190
O O1 0.216128 0.134161 0.974565
O O2 0.968844 0.106584 0.399264
O O3 0.035091 0.122951 0.955157
O O4 0.789281 0.586163 0.420239
O O5 0.749143 0.487882 0.960297
O O6 0.904026 0.466630 0.246836
O O7 0.725719 0.422763 0.454755
O O8 0.039339 0.406303 0.556425
O O9 0.143825 0.255527 0.340560
O O10 0.162011 0.303759 0.842419
O O11 0.579907 0.448256 0.815915
O O12 0.719083 0.315613 0.867832
#
# Coordination Sequence:
#
# PCOD9542466 Si02
#       8
#     4   4   4   4   1   1   2   4
#     4   9  22  41  66  98 138 189 223 283 353 432
#     4  10  23  46  68 102 138 176 233 283 365 427
#     4  10  23  42  65  97 139 182 210 299 341 430
#     4  12  26  44  71 101 139 187 247 293 352 431
#     4   8  18  44  64  90 144 188 238 268 370 440
#     4  12  28  46  76  98 144 210 228 318 364 410
#     4   8  24  42  76  94 144 178 222 288 378 416
#     4  12  25  42  69 103 141 170 249 285 346 420
#
# _framework density 24.482685
#
# number of rings (size 3 to 8) (size 9 to 14) (size 15 to 20)
#    1.000    0.833    0.000    4.000    4.667    7.333 
#    0.000    0.000    0.000    0.000    0.000    0.000 
#    0.000    0.000    0.000    0.000    0.000    0.000 
#
# Total GULP energy -133715.749965 kJ/mol
# GULP energy per Si atom -5571.489582 kJ/mol
# Density = 2.442696 g / cm^3
# Si number density = 24.482685 Si / 1000 Ang^3
#
#
#
# Elastic Constant Matrix: (Units=GPa)
#
#
# Indices 1 2 3 4 5 6 
#
# 1 65.3675 42.6616 9.7141 0.0000 0.0000 -38.9321
# 2 42.6616 65.3675 9.7141 0.0000 0.0000 38.9321
# 3 9.7141 9.7141 75.9530 0.0000 0.0000 0.0000
# 4 0.0000 0.0000 0.0000 27.5524 0.0000 0.0000
# 5 0.0000 0.0000 0.0000 0.0000 27.5524 0.0000
# 6 -38.9321 38.9321 0.0000 0.0000 0.0000 14.0739
#
#
#
# Elastic Compliance Matrix: (Units=1/GPa)
#
#
# Indices 1 2 3 4 5 6 
#
# 1 0.002142 0.007332 -0.001212 0.000000 0.000000 -0.014356
# 2 0.007332 0.002142 -0.001212 0.000000 0.000000 0.014356
# 3 -0.001212 -0.001212 0.013476 0.000000 0.000000 0.000000
# 4 0.000000 0.000000 0.000000 0.036295 0.000000 0.000000
# 5 0.000000 0.000000 0.000000 0.000000 0.036295 0.000000
# 6 -0.014356 0.014356 0.000000 0.000000 0.000000 -0.008373
#
#
# Mechanical properties :
#
#
# Convention : Reuss Voigt Hill
#
# Bulk Modulus (GPa) = 36.26043 36.76308 36.51176
# Shear Modulus (GPa) = 61.46085 23.47560 42.46822
#
# Velocity S-wave (km/s) = 5.01581 3.09991 4.16940
# Velocity P-wave (km/s) = 6.95609 5.27837 6.17448
#
# Compressibility (1/GPa) = 0.02757827
#
# Stress axis : x y z
#
# Youngs Moduli (GPa) = 466.75063 466.75063 74.20595
#
# Poissons Ratio (x) = -3.42232 0.08992
# Poissons Ratio (y) = -3.42232 0.08992
# Poissons Ratio (z) = 0.56560 0.56560
#
# Static dielectric constant tensor:
#      x y z
#    x 2.009260 0.000000 0.000000 
#    y 0.000000 2.009260 0.000000 
#    z 0.000000 0.000000 2.341970 
# 
# From -- ./inp_files/312.got.cif
#   From: 2010.05.17/outbox.cif.g08.bks.cpg/sg81_cif.got.tgz:312.got - 2010.06.03 18:51:07.
