data_PCOD9542411
_publ_section_title
;
Structure prediction by ZEFSAII (Michael W. Deem and Ramdas Pophale) SiO2 
 PCOD9542411
Probable space group: P -4
;
_chemical_formula_sum "Si O2"
_cell_formula_units_Z 18
_cell_length_a 8.453777
_cell_length_b 8.453777
_cell_length_c 11.673716
_cell_angle_alpha 90.000000
_cell_angle_beta 90.000000
_cell_angle_gamma 90.000000
_cell_volume 834.277822
_symmetry_space_group_name_H-M "P -4"
_symmetry_group_IT_number 81
_symmetry_cell_setting 'tetragonal'
loop_
_space_group_symop_operation_xyz
x,y,z
y,-x,-z
-x,-y,z
-y,x,-z
loop_
_atom_site_type_symbol
_atom_site_label
_atom_site_fract_x
_atom_site_fract_y
_atom_site_fract_z
Si Si1 0.293526 0.841368 0.111625
Si Si2 0.500000 0.500000 0.000000
Si Si3 0.468264 0.784753 0.885353
Si Si4 0.000000 0.500000 0.313237
Si Si5 0.500000 0.000000 0.304213
Si Si6 0.930428 0.258230 0.503177
Si Si7 0.000000 0.000000 0.000000
O O1 0.237169 0.658163 0.119775
O O2 0.393013 0.891204 0.221958
O O3 0.141821 0.947708 0.083352
O O4 0.400800 0.865361 0.998563
O O5 0.404635 0.608706 0.911849
O O6 0.418782 0.874728 0.772297
O O7 0.082837 0.629306 0.392694
O O8 0.374272 0.087145 0.387847
O O9 0.813192 0.109213 0.498433
#
# Coordination Sequence:
#
# PCOD9542411 Si02
#       7
#     4   1   4   2   2   4   1
#     4  11  23  39  62  95 132 166 203 249 307 372
#     4   8  20  36  56  88 122 152 188 232 292 358
#     4  10  21  39  60  89 124 162 198 240 298 367
#     4  11  21  38  62  84 115 155 200 248 300 361
#     4  11  23  40  64  92 123 159 210 262 310 371
#     4  10  24  43  62  85 115 157 209 264 315 361
#     4  12  24  36  60 100 134 164 200 248 312 374
#
# _framework density 21.575547
#
# number of rings (size 3 to 8) (size 9 to 14) (size 15 to 20)
#    0.000    1.556    0.000    4.667    0.000   10.667 
#    0.000    0.000    0.000    6.000    0.000    0.000 
#    0.000    0.000    0.000    0.000    0.000    0.000 
#
# Total GULP energy -100422.896550 kJ/mol
# GULP energy per Si atom -5579.049808 kJ/mol
# Density = 2.152644 g / cm^3
# Si number density = 21.575547 Si / 1000 Ang^3
#
#
#
# Elastic Constant Matrix: (Units=GPa)
#
#
# Indices 1 2 3 4 5 6 
#
# 1 87.5342 18.4575 38.9696 0.0000 0.0000 -6.6364
# 2 18.4575 87.5342 38.9696 0.0000 0.0000 6.6364
# 3 38.9696 38.9696 154.4976 0.0000 0.0000 0.0000
# 4 0.0000 0.0000 0.0000 7.8515 0.0000 0.0000
# 5 0.0000 0.0000 0.0000 0.0000 7.8515 0.0000
# 6 -6.6364 6.6364 0.0000 0.0000 0.0000 29.3516
#
#
#
# Elastic Compliance Matrix: (Units=1/GPa)
#
#
# Indices 1 2 3 4 5 6 
#
# 1 0.013359 -0.001776 -0.002922 0.000000 0.000000 0.003422
# 2 -0.001776 0.013359 -0.002922 0.000000 0.000000 -0.003422
# 3 -0.002922 -0.002922 0.007946 0.000000 0.000000 0.000000
# 4 0.000000 0.000000 0.000000 0.127365 0.000000 0.000000
# 5 0.000000 0.000000 0.000000 0.000000 0.127365 0.000000
# 6 0.003422 -0.003422 0.000000 0.000000 0.000000 0.035617
#
#
# Mechanical properties :
#
#
# Convention : Reuss Voigt Hill
#
# Bulk Modulus (GPa) = 51.47728 58.03994 54.75861
# Shear Modulus (GPa) = 14.42072 24.55552 19.48812
#
# Velocity S-wave (km/s) = 2.58811 3.37726 3.00867
# Velocity P-wave (km/s) = 5.73079 6.49362 6.12409
#
# Compressibility (1/GPa) = 0.01942605
#
# Stress axis : x y z
#
# Youngs Moduli (GPa) = 74.85796 74.85796 125.84185
#
# Poissons Ratio (x) = 0.13291 0.36767
# Poissons Ratio (y) = 0.13291 0.36767
# Poissons Ratio (z) = 0.21871 0.21871
#
# Static dielectric constant tensor:
#      x y z
#    x 1.851880 0.000000 0.000000 
#    y 0.000000 1.851880 0.000000 
#    z 0.000000 0.000000 1.758790 
# 
# From -- ./inp_files/1190.got.cif
#   From: 2010.05.17/outbox.cif.g08.bks.cpg/sg81_cif.got.tgz:1190.got - 2010.06.03 18:51:07.
