data_PCOD9542804
_publ_section_title
;
Structure prediction by ZEFSAII (Michael W. Deem and Ramdas Pophale) SiO2 
 PCOD9542804
Probable space group: I -4 
;
_chemical_formula_sum "Si O2"
_cell_formula_units_Z 54
_cell_length_a 10.892383
_cell_length_b 10.892383
_cell_length_c 18.262621
_cell_angle_alpha 90.000000
_cell_angle_beta 90.000000
_cell_angle_gamma 90.000000
_cell_volume 2166.750541
_symmetry_space_group_name_H-M "I -4 "
_symmetry_group_IT_number 82
_symmetry_cell_setting 'tetragonal'
loop_
_space_group_symop_operation_xyz
x,y,z
y,-x,-z
-x,-y,z
-y,x,-z
1/2+x,1/2+y,1/2+z
1/2+y,1/2-x,1/2-z
1/2-x,1/2-y,1/2+z
1/2-y,1/2+x,1/2-z
loop_
_atom_site_type_symbol
_atom_site_label
_atom_site_fract_x
_atom_site_fract_y
_atom_site_fract_z
Si Si1 0.176612 0.603660 0.941712
Si Si2 0.015770 0.870970 0.631361
Si Si3 0.750948 0.385527 0.468675
Si Si4 0.500000 0.500000 0.500000
Si Si5 0.823390 0.189177 0.249805
Si Si6 0.097078 0.163558 0.222817
Si Si7 0.000000 0.500000 0.440480
Si Si8 0.225856 0.523200 0.637371
O O1 0.263191 0.488410 0.925451
O O2 0.107330 0.564090 0.014008
O O3 0.076682 0.620109 0.876724
O O4 0.230786 0.740277 0.955159
O O5 0.895864 0.837360 0.679463
O O6 0.116583 0.891627 0.693057
O O7 0.000000 0.000000 0.592424
O O8 0.622033 0.459057 0.455209
O O9 0.761780 0.418440 0.556056
O O10 0.868185 0.432120 0.420907
O O11 0.785036 0.322280 0.275946
O O12 0.719683 0.131093 0.196734
O O13 0.954044 0.184103 0.209156
O O14 0.164832 0.060697 0.173445
#
# Coordination Sequence:
#
# PCOD9542804 Si02
#       8
#     8   8   8   2   8   8   4   8
#     4  11  22  43  68  94 139 176 227 296 353 415
#     4   9  20  40  62  89 127 176 218 271 342 428
#     4  11  24  41  70  97 139 181 233 297 355 412
#     4  12  20  40  68  96 124 192 224 284 352 410
#     4  10  21  38  61  98 132 174 218 279 344 409
#     4  10  21  38  65  95 137 169 225 276 348 417
#     4  10  24  44  60 103 138 169 234 304 340 420
#     4  10  21  39  66  98 128 174 228 283 335 414
#
# _framework density 24.92211
#
# number of rings (size 3 to 8) (size 9 to 14) (size 15 to 20)
#    0.000    1.778    4.444    1.333    6.222    0.296 
#    2.667    0.000    0.000    0.000    0.000    0.000 
#    0.000    0.000    0.000    0.000    0.000    0.000 
#
# Total GULP energy -150509.984932 kJ/mol
# GULP energy per Si atom -5574.443886 kJ/mol
# Density = 2.486539 g / cm^3
# Si number density = 24.922110 Si / 1000 Ang^3
#
#
#
# Elastic Constant Matrix: (Units=GPa)
#
#
# Indices 1 2 3 4 5 6 
#
# 1 106.5110 31.2822 15.4956 0.0000 0.0000 -12.2717
# 2 31.2822 106.5110 15.4956 0.0000 0.0000 12.2717
# 3 15.4956 15.4956 61.1449 0.0000 0.0000 0.0000
# 4 0.0000 0.0000 0.0000 -3.5584 0.0000 0.0000
# 5 0.0000 0.0000 0.0000 0.0000 -3.5584 0.0000
# 6 -12.2717 12.2717 0.0000 0.0000 0.0000 36.1609
#
#
#
# Elastic Compliance Matrix: (Units=1/GPa)
#
#
# Indices 1 2 3 4 5 6 
#
# 1 0.011322 -0.003626 -0.001950 0.000000 0.000000 0.005073
# 2 -0.003626 0.011322 -0.001950 0.000000 0.000000 -0.005073
# 3 -0.001950 -0.001950 0.017343 0.000000 0.000000 0.000000
# 4 0.000000 0.000000 0.000000 -0.281027 0.000000 0.000000
# 5 0.000000 0.000000 0.000000 0.000000 -0.281027 0.000000
# 6 0.005073 -0.005073 0.000000 0.000000 0.000000 0.031097
#
#
# Mechanical properties :
#
#
# Convention : Reuss Voigt Hill
#
# Bulk Modulus (GPa) = 40.10650 44.30152 42.20401
# Shear Modulus (GPa) = -10.69278 19.93507 4.62115
#
# Velocity S-wave (km/s) = -2.07359 2.83131 1.36318
# Velocity P-wave (km/s) = 3.22407 5.33882 4.41008
#
# Compressibility (1/GPa) = 0.02493362
#
# Stress axis : x y z
#
# Youngs Moduli (GPa) = 88.32490 88.32490 57.65975
#
# Poissons Ratio (x) = 0.32026 0.11246
# Poissons Ratio (y) = 0.32026 0.11246
# Poissons Ratio (z) = 0.17226 0.17226
#
# Static dielectric constant tensor:
#      x y z
#    x 2.042090 0.000000 0.000000 
#    y 0.000000 2.042090 0.000000 
#    z 0.000000 0.000000 2.031290 
# 
# From -- ./inp_files/3159.got.cif
#   From: 2010.05.17/outbox.cif.g08.bks.cpg/sg82_2_cif.got.tgz:3159.got - 2010.06.03 18:52:26.
