data_PCOD9542690
_publ_section_title
;
Structure prediction by ZEFSAII (Michael W. Deem and Ramdas Pophale) SiO2 
 PCOD9542690
Probable space group: I -4 
;
_chemical_formula_sum "Si O2"
_cell_formula_units_Z 28
_cell_length_a 14.319402
_cell_length_b 14.319402
_cell_length_c 5.435647
_cell_angle_alpha 90.000000
_cell_angle_beta 90.000000
_cell_angle_gamma 90.000000
_cell_volume 1114.553727
_symmetry_space_group_name_H-M "I -4 "
_symmetry_group_IT_number 82
_symmetry_cell_setting 'tetragonal'
loop_
_space_group_symop_operation_xyz
x,y,z
y,-x,-z
-x,-y,z
-y,x,-z
1/2+x,1/2+y,1/2+z
1/2+y,1/2-x,1/2-z
1/2-x,1/2-y,1/2+z
1/2-y,1/2+x,1/2-z
loop_
_atom_site_type_symbol
_atom_site_label
_atom_site_fract_x
_atom_site_fract_y
_atom_site_fract_z
Si Si1 0.000000 0.500000 0.750000
Si Si2 0.633415 0.689404 0.745946
Si Si3 0.500000 0.500000 0.000000
Si Si4 0.910295 0.607399 0.356831
Si Si5 0.349532 0.410688 0.239995
O O1 0.916189 0.557250 0.618327
O O2 0.643170 0.799442 0.796605
O O3 0.519606 0.677406 0.737401
O O4 0.667363 0.647255 0.487059
O O5 0.678459 0.638369 0.983160
O O6 0.421300 0.538668 0.817165
O O7 0.878852 0.521421 0.187965
#
# Coordination Sequence:
#
# PCOD9542690 Si02
#       5
#     2   8   2   8   8
#     4   8  18  40  64  86 100 152 210 248 290 316
#     4  11  21  37  57  88 119 151 193 230 284 348
#     4   8  16  34  52  78 120 162 208 214 256 354
#     4   9  21  39  62  84 103 152 198 245 284 338
#     4  10  20  32  56  85 119 155 185 232 281 334
#
# _framework density 25.122160999999998
#
# number of rings (size 3 to 8) (size 9 to 14) (size 15 to 20)
#    0.000    2.571    0.000    5.143    8.000    1.143 
#    0.000    2.857    0.000    0.000    0.000    0.000 
#    0.000    0.000    0.000    0.000    0.000    0.000 
#
# Total GULP energy -77993.989187 kJ/mol
# GULP energy per Si atom -5570.999228 kJ/mol
# Density = 2.506498 g / cm^3
# Si number density = 25.122161 Si / 1000 Ang^3
#
#
#
# Elastic Constant Matrix: (Units=GPa)
#
#
# Indices 1 2 3 4 5 6 
#
# 1 125.7299 -3.1851 42.7006 0.0000 0.0000 26.4058
# 2 -3.1851 125.7299 42.7006 0.0000 0.0000 -26.4058
# 3 42.7006 42.7006 189.3159 0.0000 0.0000 0.0000
# 4 0.0000 0.0000 0.0000 1.3784 0.0000 0.0000
# 5 0.0000 0.0000 0.0000 0.0000 1.3784 0.0000
# 6 26.4058 -26.4058 0.0000 0.0000 0.0000 2.6118
#
#
#
# Elastic Compliance Matrix: (Units=1/GPa)
#
#
# Indices 1 2 3 4 5 6 
#
# 1 0.003607 0.006076 -0.002184 0.000000 0.000000 0.024962
# 2 0.006076 0.003607 -0.002184 0.000000 0.000000 -0.024962
# 3 -0.002184 -0.002184 0.006267 0.000000 0.000000 0.000000
# 4 0.000000 0.000000 0.000000 0.725469 0.000000 0.000000
# 5 0.000000 0.000000 0.000000 0.000000 0.725469 0.000000
# 6 0.024962 -0.024962 0.000000 0.000000 0.000000 -0.121867
#
#
# Mechanical properties :
#
#
# Convention : Reuss Voigt Hill
#
# Bulk Modulus (GPa) = 59.18437 67.24531 63.21484
# Shear Modulus (GPa) = 3.71811 24.97769 14.34790
#
# Velocity S-wave (km/s) = 1.21788 3.15659 2.39242
# Velocity P-wave (km/s) = 5.05840 6.33331 5.73142
#
# Compressibility (1/GPa) = 0.01689635
#
# Stress axis : x y z
#
# Youngs Moduli (GPa) = 277.26915 277.26915 159.55795
#
# Poissons Ratio (x) = -1.68457 0.34845
# Poissons Ratio (y) = -1.68457 0.34845
# Poissons Ratio (z) = 0.60551 0.60551
#
# Static dielectric constant tensor:
#      x y z
#    x 2.187610 0.000000 0.000000 
#    y 0.000000 2.187610 0.000000 
#    z 0.000000 0.000000 2.059870 
# 
# From -- ./inp_files/152.got.cif
#   From: 2010.05.17/outbox.cif.g08.bks.cpg/sg82_1_cif.got.tgz:152.got - 2010.06.03 18:52:26.
