data_PCOD9542465
_publ_section_title
;
Structure prediction by ZEFSAII (Michael W. Deem and Ramdas Pophale) SiO2 
 PCOD9542465
Probable space group: P -4
;
_chemical_formula_sum "Si O2"
_cell_formula_units_Z 25
_cell_length_a 15.061760
_cell_length_b 15.061760
_cell_length_c 5.638311
_cell_angle_alpha 90.000000
_cell_angle_beta 90.000000
_cell_angle_gamma 90.000000
_cell_volume 1279.088144
_symmetry_space_group_name_H-M "P -4"
_symmetry_group_IT_number 81
_symmetry_cell_setting 'tetragonal'
loop_
_space_group_symop_operation_xyz
x,y,z
y,-x,-z
-x,-y,z
-y,x,-z
loop_
_atom_site_type_symbol
_atom_site_label
_atom_site_fract_x
_atom_site_fract_y
_atom_site_fract_z
Si Si1 0.405300 0.033557 0.410877
Si Si2 0.392215 0.781949 0.852097
Si Si3 0.500000 0.500000 0.500000
Si Si4 0.197938 0.695368 0.335158
Si Si5 0.687528 0.149862 0.356033
Si Si6 0.401123 0.334352 0.333589
Si Si7 0.432540 0.172049 0.035635
O O1 0.349177 0.111572 0.542252
O O2 0.500000 0.000000 0.522559
O O3 0.337254 0.953888 0.358397
O O4 0.437150 0.080070 0.168346
O O5 0.348653 0.821718 0.615377
O O6 0.377010 0.676962 0.824434
O O7 0.494058 0.812913 0.838050
O O8 0.356364 0.814539 0.108699
O O9 0.472691 0.410124 0.370690
O O10 0.216618 0.800211 0.354890
O O11 0.286753 0.647800 0.442844
O O12 0.187519 0.665413 0.064710
O O13 0.449800 0.251903 0.214668
#
# Coordination Sequence:
#
# PCOD9542465 Si02
#       7
#     4   4   1   4   4   4   4
#     4  11  23  39  66 102 128 170 226 283 335 410
#     4  11  23  40  64  87 130 171 215 275 330 389
#     4  12  24  36  62  84 126 196 250 272 314 400
#     4  10  23  42  63  88 132 175 215 284 350 401
#     4  11  24  44  64  95 130 171 215 270 342 408
#     4  10  24  39  56  85 125 178 230 276 323 389
#     4  11  22  37  61  90 127 168 219 281 335 385
#
# _framework density 19.545172999999998
#
# number of rings (size 3 to 8) (size 9 to 14) (size 15 to 20)
#    0.000    1.280    3.200    1.920    8.960    1.920 
#    0.000    0.800    0.000    0.480    0.000    0.000 
#    0.000    0.000    0.000    0.000    0.000    0.000 
#
# Total GULP energy -139238.028242 kJ/mol
# GULP energy per Si atom -5569.521130 kJ/mol
# Density = 1.950069 g / cm^3
# Si number density = 19.545173 Si / 1000 Ang^3
#
#
#
# Elastic Constant Matrix: (Units=GPa)
#
#
# Indices 1 2 3 4 5 6 
#
# 1 117.3289 44.6681 20.5240 0.0000 0.0000 -7.7764
# 2 44.6681 117.3289 20.5240 0.0000 0.0000 7.7764
# 3 20.5240 20.5240 65.9636 0.0000 0.0000 0.0000
# 4 0.0000 0.0000 0.0000 22.9710 0.0000 0.0000
# 5 0.0000 0.0000 0.0000 0.0000 22.9710 0.0000
# 6 -7.7764 7.7764 0.0000 0.0000 0.0000 31.0603
#
#
#
# Elastic Compliance Matrix: (Units=1/GPa)
#
#
# Indices 1 2 3 4 5 6 
#
# 1 0.010622 -0.003920 -0.002085 0.000000 0.000000 0.003641
# 2 -0.003920 0.010622 -0.002085 0.000000 0.000000 -0.003641
# 3 -0.002085 -0.002085 0.016457 0.000000 0.000000 0.000000
# 4 0.000000 0.000000 0.000000 0.043533 0.000000 0.000000
# 5 0.000000 0.000000 0.000000 0.000000 0.043533 0.000000
# 6 0.003641 -0.003641 0.000000 0.000000 0.000000 0.034019
#
#
# Mechanical properties :
#
#
# Convention : Reuss Voigt Hill
#
# Bulk Modulus (GPa) = 46.46897 52.45042 49.45969
# Shear Modulus (GPa) = 27.45150 29.72747 28.58948
#
# Velocity S-wave (km/s) = 3.75175 3.90418 3.82873
# Velocity P-wave (km/s) = 6.52643 6.87148 6.70118
#
# Compressibility (1/GPa) = 0.02151974
#
# Stress axis : x y z
#
# Youngs Moduli (GPa) = 94.14800 94.14800 60.76304
#
# Poissons Ratio (x) = 0.36909 0.12669
# Poissons Ratio (y) = 0.36909 0.12669
# Poissons Ratio (z) = 0.19630 0.19630
#
# Static dielectric constant tensor:
#      x y z
#    x 1.725540 0.000000 0.000000 
#    y 0.000000 1.725540 0.000000 
#    z 0.000000 0.000000 1.765130 
# 
# From -- ./inp_files/346.got.cif
#   From: 2010.05.17/outbox.cif.g08.bks.cpg/sg81_cif.got.tgz:346.got - 2010.06.03 18:51:07.
