data_PCOD9542596
_publ_section_title
;
Structure prediction by ZEFSAII (Michael W. Deem and Ramdas Pophale) SiO2 
 PCOD9542596
Probable space group: P -4
;
_chemical_formula_sum "Si O2"
_cell_formula_units_Z 17
_cell_length_a 13.269616
_cell_length_b 13.269616
_cell_length_c 5.080781
_cell_angle_alpha 90.000000
_cell_angle_beta 90.000000
_cell_angle_gamma 90.000000
_cell_volume 894.637681
_symmetry_space_group_name_H-M "P -4"
_symmetry_group_IT_number 81
_symmetry_cell_setting 'tetragonal'
loop_
_space_group_symop_operation_xyz
x,y,z
y,-x,-z
-x,-y,z
-y,x,-z
loop_
_atom_site_type_symbol
_atom_site_label
_atom_site_fract_x
_atom_site_fract_y
_atom_site_fract_z
Si Si1 0.617957 0.987027 0.268192
Si Si2 0.287654 0.450361 0.248490
Si Si3 0.353453 0.146066 0.776978
Si Si4 0.500000 0.500000 0.000000
Si Si5 0.217881 0.329864 0.749898
O O1 0.626808 0.934603 0.549783
O O2 0.500000 0.000000 0.201249
O O3 0.664478 0.097944 0.272604
O O4 0.662100 0.912870 0.048339
O O5 0.219140 0.549176 0.207475
O O6 0.268080 0.405658 0.537370
O O7 0.402810 0.475762 0.179333
O O8 0.250875 0.368024 0.037269
O O9 0.261556 0.219134 0.707330
#
# Coordination Sequence:
#
# PCOD9542596 Si02
#       5
#     4   4   4   1   4
#     4  12  23  43  68  94 125 172 226 269 314 384
#     4  12  24  39  61  93 133 179 209 246 311 404
#     4  12  24  41  65  95 128 169 218 270 323 374
#     4  12  28  38  60  98 152 182 200 246 332 422
#     4  12  26  41  65  94 130 169 218 269 321 381
#
# _framework density 19.002106999999999
#
# number of rings (size 3 to 8) (size 9 to 14) (size 15 to 20)
#    0.000    0.000    7.059    3.529    3.294    0.941 
#    0.000    0.000    0.000    4.235    0.000    0.000 
#    0.000    0.000    0.000    0.000    0.000    0.000 
#
# Total GULP energy -95211.544997 kJ/mol
# GULP energy per Si atom -5600.679117 kJ/mol
# Density = 1.895886 g / cm^3
# Si number density = 19.002107 Si / 1000 Ang^3
#
#
#
# Elastic Constant Matrix: (Units=GPa)
#
#
# Indices 1 2 3 4 5 6 
#
# 1 80.1285 5.9692 -22.9314 0.0000 0.0000 -14.5172
# 2 5.9692 80.1285 -22.9314 0.0000 0.0000 14.5172
# 3 -22.9314 -22.9314 39.5640 0.0000 0.0000 0.0000
# 4 0.0000 0.0000 0.0000 19.1857 0.0000 0.0000
# 5 0.0000 0.0000 0.0000 0.0000 19.1857 0.0000
# 6 -14.5172 14.5172 0.0000 0.0000 0.0000 16.8829
#
#
#
# Elastic Compliance Matrix: (Units=1/GPa)
#
#
# Indices 1 2 3 4 5 6 
#
# 1 0.018565 -0.001763 0.009739 0.000000 0.000000 0.017480
# 2 -0.001763 0.018565 0.009739 0.000000 0.000000 -0.017480
# 3 0.009739 0.009739 0.036565 0.000000 0.000000 0.000000
# 4 0.000000 0.000000 0.000000 0.052122 0.000000 0.000000
# 5 0.000000 0.000000 0.000000 0.000000 0.052122 0.000000
# 6 0.017480 -0.017480 0.000000 0.000000 0.000000 0.089292
#
#
# Mechanical properties :
#
#
# Convention : Reuss Voigt Hill
#
# Bulk Modulus (GPa) = 9.16389 13.33710 11.25049
# Shear Modulus (GPa) = 18.64441 27.03181 22.83811
#
# Velocity S-wave (km/s) = 3.13577 3.77579 3.47056
# Velocity P-wave (km/s) = 4.23601 5.10321 4.68970
#
# Compressibility (1/GPa) = 0.10912396
#
# Stress axis : x y z
#
# Youngs Moduli (GPa) = 53.86439 53.86439 27.34883
#
# Poissons Ratio (x) = 0.09495 -0.26634
# Poissons Ratio (y) = 0.09495 -0.26634
# Poissons Ratio (z) = -0.52457 -0.52457
#
# Static dielectric constant tensor:
#      x y z
#    x 1.650250 0.000000 0.000000 
#    y 0.000000 1.650250 0.000000 
#    z 0.000000 0.000000 1.654970 
# 
# From -- ./inp_files/182.got.cif
#   From: 2010.05.17/outbox.cif.g08.bks.cpg/sg81_cif.got.tgz:182.got - 2010.06.03 18:51:07.
