data_PCOD9542635
_publ_section_title
;
Structure prediction by ZEFSAII (Michael W. Deem and Ramdas Pophale) SiO2 
 PCOD9542635
Probable space group: I -4 
;
_chemical_formula_sum "Si O2"
_cell_formula_units_Z 44
_cell_length_a 15.497861
_cell_length_b 15.497861
_cell_length_c 7.846156
_cell_angle_alpha 90.000000
_cell_angle_beta 90.000000
_cell_angle_gamma 90.000000
_cell_volume 1884.518744
_symmetry_space_group_name_H-M "I -4 "
_symmetry_group_IT_number 82
_symmetry_cell_setting 'tetragonal'
loop_
_space_group_symop_operation_xyz
x,y,z
y,-x,-z
-x,-y,z
-y,x,-z
1/2+x,1/2+y,1/2+z
1/2+y,1/2-x,1/2-z
1/2-x,1/2-y,1/2+z
1/2-y,1/2+x,1/2-z
loop_
_atom_site_type_symbol
_atom_site_label
_atom_site_fract_x
_atom_site_fract_y
_atom_site_fract_z
Si Si1 0.383943 0.141304 0.110694
Si Si2 0.773883 0.955902 0.995820
Si Si3 0.482376 0.307061 0.115525
Si Si4 0.241130 0.345927 0.928259
Si Si5 0.360328 0.297769 0.623825
Si Si6 0.000000 0.500000 0.750000
Si Si7 0.500000 0.500000 0.000000
O O1 0.316658 0.094800 0.985429
O O2 0.406517 0.240076 0.074044
O O3 0.336226 0.142124 0.292878
O O4 0.465552 0.079145 0.136225
O O5 0.783451 0.995446 0.187393
O O6 0.844583 0.879825 0.997239
O O7 0.779607 0.038408 0.875931
O O8 0.562521 0.272321 0.001748
O O9 0.476764 0.410165 0.096917
O O10 0.320823 0.320883 0.805759
O O11 0.201586 0.278369 0.058034
#
# Coordination Sequence:
#
# PCOD9542635 Si02
#       7
#     8   8   8   8   8   2   2
#     4  10  18  33  58  91 117 155 212 264 307 365
#     4  10  22  37  63  87 125 166 212 258 319 387
#     4  10  22  38  54  92 121 168 216 258 312 379
#     4  10  21  38  62  85 129 160 207 265 319 374
#     4  10  21  39  61  94 121 168 212 256 323 379
#     4  12  12  28  64  84 116 146 208 280 292 366
#     4  12  28  36  60  86 144 176 212 266 336 372
#
# _framework density 23.348134999999999
#
# number of rings (size 3 to 8) (size 9 to 14) (size 15 to 20)
#    0.000    2.182    5.455    0.000    5.091    3.273 
#    0.000    0.000    0.000    0.000    0.000    0.000 
#    0.000    0.000    0.000    0.000    0.000    0.000 
#
# Total GULP energy -122785.569683 kJ/mol
# GULP energy per Si atom -5581.162258 kJ/mol
# Density = 2.329499 g / cm^3
# Si number density = 23.348135 Si / 1000 Ang^3
#
#
#
# Elastic Constant Matrix: (Units=GPa)
#
#
# Indices 1 2 3 4 5 6 
#
# 1 149.1668 52.5670 23.8783 0.0000 0.0000 -11.9266
# 2 52.5670 149.1668 23.8783 0.0000 0.0000 11.9266
# 3 23.8783 23.8783 21.5527 0.0000 0.0000 0.0000
# 4 0.0000 0.0000 0.0000 16.1234 0.0000 0.0000
# 5 0.0000 0.0000 0.0000 0.0000 16.1234 0.0000
# 6 -11.9266 11.9266 0.0000 0.0000 0.0000 52.4820
#
#
#
# Elastic Compliance Matrix: (Units=1/GPa)
#
#
# Indices 1 2 3 4 5 6 
#
# 1 0.008843 -0.002124 -0.007444 0.000000 0.000000 0.002492
# 2 -0.002124 0.008843 -0.007444 0.000000 0.000000 -0.002492
# 3 -0.007444 -0.007444 0.062893 0.000000 0.000000 0.000000
# 4 0.000000 0.000000 0.000000 0.062022 0.000000 0.000000
# 5 0.000000 0.000000 0.000000 0.000000 0.062022 0.000000
# 6 0.002492 -0.002492 0.000000 0.000000 0.000000 0.020187
#
#
# Mechanical properties :
#
#
# Convention : Reuss Voigt Hill
#
# Bulk Modulus (GPa) = 21.48024 57.83704 39.65864
# Shear Modulus (GPa) = 18.22464 31.58328 24.90396
#
# Velocity S-wave (km/s) = 2.79688 3.68191 3.26948
# Velocity P-wave (km/s) = 4.43283 6.54986 5.59244
#
# Compressibility (1/GPa) = 0.04655440
#
# Stress axis : x y z
#
# Youngs Moduli (GPa) = 113.07889 113.07889 15.89996
#
# Poissons Ratio (x) = 0.24018 0.11837
# Poissons Ratio (y) = 0.24018 0.11837
# Poissons Ratio (z) = 0.84180 0.84180
#
# Static dielectric constant tensor:
#      x y z
#    x 1.973940 0.000000 0.000000 
#    y 0.000000 1.973940 0.000000 
#    z 0.000000 0.000000 1.867350 
# 
# From -- ./inp_files/1738.got.cif
#   From: 2010.05.17/outbox.cif.g08.bks.cpg/sg82_1_cif.got.tgz:1738.got - 2010.06.03 18:52:26.
