data_PCOD9542527
_publ_section_title
;
Structure prediction by ZEFSAII (Michael W. Deem and Ramdas Pophale) SiO2 
 PCOD9542527
Probable space group: P -4
;
_chemical_formula_sum "Si O2"
_cell_formula_units_Z 17
_cell_length_a 8.237723
_cell_length_b 8.237723
_cell_length_c 9.717764
_cell_angle_alpha 90.000000
_cell_angle_beta 90.000000
_cell_angle_gamma 90.000000
_cell_volume 659.448245
_symmetry_space_group_name_H-M "P -4"
_symmetry_group_IT_number 81
_symmetry_cell_setting 'tetragonal'
loop_
_space_group_symop_operation_xyz
x,y,z
y,-x,-z
-x,-y,z
-y,x,-z
loop_
_atom_site_type_symbol
_atom_site_label
_atom_site_fract_x
_atom_site_fract_y
_atom_site_fract_z
Si Si1 0.070831 0.740378 0.509335
Si Si2 0.832388 0.440634 0.237871
Si Si3 0.234874 0.142883 0.997251
Si Si4 0.500000 0.500000 0.500000
Si Si5 0.594986 0.743890 0.265208
O O1 0.117790 0.628656 0.383817
O O2 0.099273 0.655639 0.652935
O O3 0.893044 0.808953 0.490195
O O4 0.715599 0.590882 0.249813
O O5 0.000000 0.500000 0.171236
O O6 0.769542 0.295675 0.142631
O O7 0.376669 0.188180 0.107863
O O8 0.051318 0.206569 0.026561
O O9 0.486484 0.653874 0.390961
#
# Coordination Sequence:
#
# PCOD9542527 Si02
#       5
#     4   4   4   1   4
#     4  11  22  40  72 105 135 180 238 298 356 415
#     4  12  23  43  66  98 143 183 231 294 357 433
#     4  11  24  45  75 108 141 181 241 305 363 423
#     4  12  28  48  70 108 152 200 246 288 372 444
#     4  12  25  45  69 101 143 190 238 292 350 432
#
# _framework density 25.779128
#
# number of rings (size 3 to 8) (size 9 to 14) (size 15 to 20)
#    0.000    0.471    7.059    1.412    0.000    5.647 
#    0.000    1.176    0.000    0.000    0.000    0.000 
#    0.000    0.000    0.000    0.000    0.000    0.000 
#
# Total GULP energy -94735.065641 kJ/mol
# GULP energy per Si atom -5572.650920 kJ/mol
# Density = 2.572045 g / cm^3
# Si number density = 25.779128 Si / 1000 Ang^3
#
#
#
# Elastic Constant Matrix: (Units=GPa)
#
#
# Indices 1 2 3 4 5 6 
#
# 1 51.3829 24.8087 1.4481 0.0000 0.0000 1.3590
# 2 24.8087 51.3829 1.4481 0.0000 0.0000 -1.3590
# 3 1.4481 1.4481 138.0183 0.0000 0.0000 0.0000
# 4 0.0000 0.0000 0.0000 -3.2721 0.0000 0.0000
# 5 0.0000 0.0000 0.0000 0.0000 -3.2721 0.0000
# 6 1.3590 -1.3590 0.0000 0.0000 0.0000 43.6473
#
#
#
# Elastic Compliance Matrix: (Units=1/GPa)
#
#
# Indices 1 2 3 4 5 6 
#
# 1 0.025440 -0.012310 -0.000138 0.000000 0.000000 -0.001175
# 2 -0.012310 0.025440 -0.000138 0.000000 0.000000 0.001175
# 3 -0.000138 -0.000138 0.007248 0.000000 0.000000 0.000000
# 4 0.000000 0.000000 0.000000 -0.305619 0.000000 0.000000
# 5 0.000000 0.000000 0.000000 0.000000 -0.305619 0.000000
# 6 -0.001175 0.001175 0.000000 0.000000 0.000000 0.022984
#
#
# Mechanical properties :
#
#
# Convention : Reuss Voigt Hill
#
# Bulk Modulus (GPa) = 30.34225 32.91043 31.62634
# Shear Modulus (GPa) = -10.12214 21.62591 5.75188
#
# Velocity S-wave (km/s) = -1.98369 2.89951 1.49535
# Velocity P-wave (km/s) = 2.55909 4.89934 3.90848
#
# Compressibility (1/GPa) = 0.03295735
#
# Stress axis : x y z
#
# Youngs Moduli (GPa) = 39.30761 39.30761 137.96320
#
# Poissons Ratio (x) = 0.48389 0.01901
# Poissons Ratio (y) = 0.48389 0.01901
# Poissons Ratio (z) = 0.00542 0.00542
#
# Static dielectric constant tensor:
#      x y z
#    x 2.110250 0.000000 0.000000 
#    y 0.000000 2.110250 0.000000 
#    z 0.000000 0.000000 2.006970 
# 
# From -- ./inp_files/621.got.cif
#   From: 2010.05.17/outbox.cif.g08.bks.cpg/sg81_cif.got.tgz:621.got - 2010.06.03 18:51:07.
