data_PCOD9542731
_publ_section_title
;
Structure prediction by ZEFSAII (Michael W. Deem and Ramdas Pophale) SiO2 
 PCOD9542731
Probable space group: I -4 
;
_chemical_formula_sum "Si O2"
_cell_formula_units_Z 50
_cell_length_a 14.872635
_cell_length_b 14.872635
_cell_length_c 11.979248
_cell_angle_alpha 90.000000
_cell_angle_beta 90.000000
_cell_angle_gamma 90.000000
_cell_volume 2649.753018
_symmetry_space_group_name_H-M "I -4 "
_symmetry_group_IT_number 82
_symmetry_cell_setting 'tetragonal'
loop_
_space_group_symop_operation_xyz
x,y,z
y,-x,-z
-x,-y,z
-y,x,-z
1/2+x,1/2+y,1/2+z
1/2+y,1/2-x,1/2-z
1/2-x,1/2-y,1/2+z
1/2-y,1/2+x,1/2-z
loop_
_atom_site_type_symbol
_atom_site_label
_atom_site_fract_x
_atom_site_fract_y
_atom_site_fract_z
Si Si1 0.383597 0.842889 0.789277
Si Si2 0.494574 0.698411 0.922698
Si Si3 0.694092 0.648402 0.889033
Si Si4 0.500000 0.000000 0.750000
Si Si5 0.168225 0.782441 0.095028
Si Si6 0.822213 0.151431 0.856009
Si Si7 0.099456 0.031872 0.793970
O O1 0.455737 0.781482 0.852427
O O2 0.371584 0.803112 0.663568
O O3 0.284115 0.831640 0.839903
O O4 0.418783 0.943920 0.804258
O O5 0.601628 0.696443 0.930273
O O6 0.471383 0.615458 0.839607
O O7 0.440724 0.700197 0.037548
O O8 0.770710 0.723840 0.901802
O O9 0.683997 0.630281 0.757746
O O10 0.127573 0.867749 0.161075
O O11 0.144150 0.799008 0.966269
O O12 0.838492 0.044219 0.852917
O O13 0.000000 0.000000 0.820641
#
# Coordination Sequence:
#
# PCOD9542731 Si02
#       7
#     8   8   8   2   8   8   8
#     4  10  20  38  58  90 112 156 193 253 296 351
#     4  10  21  37  58  86 120 146 205 242 302 355
#     4  10  21  36  58  84 116 160 192 249 297 355
#     4  12  20  36  68  88 118 140 208 252 288 338
#     4  10  20  38  58  77 123 152 191 243 299 356
#     4  10  21  36  55  84 119 151 202 238 302 358
#     4  10  23  36  55  85 115 153 194 245 299 362
#
# _framework density 18.869682999999998
#
# number of rings (size 3 to 8) (size 9 to 14) (size 15 to 20)
#    0.000    1.920    1.600    3.840    6.720    0.000 
#    0.000    0.000    0.000    0.000    0.000    1.120 
#    0.000    0.000    0.000    0.000    0.000    0.000 
#
# Total GULP energy -139266.598820 kJ/mol
# GULP energy per Si atom -5570.663953 kJ/mol
# Density = 1.882673 g / cm^3
# Si number density = 18.869683 Si / 1000 Ang^3
#
#
#
# Elastic Constant Matrix: (Units=GPa)
#
#
# Indices 1 2 3 4 5 6 
#
# 1 60.7488 15.9552 11.7203 0.0000 0.0000 0.1841
# 2 15.9552 60.7488 11.7203 0.0000 0.0000 -0.1841
# 3 11.7203 11.7203 73.4231 0.0000 0.0000 0.0000
# 4 0.0000 0.0000 0.0000 17.5576 0.0000 0.0000
# 5 0.0000 0.0000 0.0000 0.0000 17.5576 0.0000
# 6 0.1841 -0.1841 0.0000 0.0000 0.0000 24.5037
#
#
#
# Elastic Compliance Matrix: (Units=1/GPa)
#
#
# Indices 1 2 3 4 5 6 
#
# 1 0.018016 -0.004310 -0.002188 0.000000 0.000000 -0.000168
# 2 -0.004310 0.018016 -0.002188 0.000000 0.000000 0.000168
# 3 -0.002188 -0.002188 0.014318 0.000000 0.000000 0.000000
# 4 0.000000 0.000000 0.000000 0.056956 0.000000 0.000000
# 5 0.000000 0.000000 0.000000 0.000000 0.056956 0.000000
# 6 -0.000168 0.000168 0.000000 0.000000 0.000000 0.040813
#
#
# Mechanical properties :
#
#
# Convention : Reuss Voigt Hill
#
# Bulk Modulus (GPa) = 30.32291 30.41250 30.36771
# Shear Modulus (GPa) = 21.41897 22.29209 21.85553
#
# Velocity S-wave (km/s) = 3.37278 3.44084 3.40698
# Velocity P-wave (km/s) = 5.59214 5.65136 5.62183
#
# Compressibility (1/GPa) = 0.03297836
#
# Stress axis : x y z
#
# Youngs Moduli (GPa) = 55.50664 55.50664 69.84138
#
# Poissons Ratio (x) = 0.23924 0.15280
# Poissons Ratio (y) = 0.23924 0.15280
# Poissons Ratio (z) = 0.12144 0.12144
#
# Static dielectric constant tensor:
#      x y z
#    x 1.693260 0.000000 0.000000 
#    y 0.000000 1.693260 0.000000 
#    z 0.000000 0.000000 1.674000 
# 
# From -- ./inp_files/1812.got.cif
#   From: 2010.05.17/outbox.cif.g08.bks.cpg/sg82_1_cif.got.tgz:1812.got - 2010.06.03 18:52:26.
