data_PCOD9542585
_publ_section_title
;
Structure prediction by ZEFSAII (Michael W. Deem and Ramdas Pophale) SiO2 
 PCOD9542585
Probable space group: P -4
;
_chemical_formula_sum "Si O2"
_cell_formula_units_Z 12
_cell_length_a 8.554576
_cell_length_b 8.554576
_cell_length_c 6.653620
_cell_angle_alpha 90.000000
_cell_angle_beta 90.000000
_cell_angle_gamma 90.000000
_cell_volume 486.917038
_symmetry_space_group_name_H-M "P -4"
_symmetry_group_IT_number 81
_symmetry_cell_setting 'tetragonal'
loop_
_space_group_symop_operation_xyz
x,y,z
y,-x,-z
-x,-y,z
-y,x,-z
loop_
_atom_site_type_symbol
_atom_site_label
_atom_site_fract_x
_atom_site_fract_y
_atom_site_fract_z
Si Si1 0.398433 0.136236 0.059608
Si Si2 0.650252 0.614648 0.710559
Si Si3 0.192105 0.146996 0.422223
O O1 0.517416 0.198602 0.227914
O O2 0.243010 0.109441 0.192843
O O3 0.500000 0.000000 0.960052
O O4 0.375586 0.268153 0.895250
O O5 0.500000 0.500000 0.701948
O O6 0.698939 0.719423 0.520558
O O7 0.012724 0.202067 0.447861
#
# Coordination Sequence:
#
# PCOD9542585 Si02
#       3
#     4   4   4
#     4  12  26  47  72 108 145 191 244 299 370 432
#     4  12  27  47  72 109 147 191 246 301 362 436
#     4  11  28  49  75 108 146 195 245 304 372 436
#
# _framework density 24.644856000000001
#
# number of rings (size 3 to 8) (size 9 to 14) (size 15 to 20)
#    0.000    0.333    6.667    0.000    9.333    2.667 
#    0.000    3.333    0.000    0.000    0.000    0.000 
#    0.000    0.000    0.000    0.000    0.000    0.000 
#
# Total GULP energy -67120.972825 kJ/mol
# GULP energy per Si atom -5593.414402 kJ/mol
# Density = 2.458876 g / cm^3
# Si number density = 24.644856 Si / 1000 Ang^3
#
#
#
# Elastic Constant Matrix: (Units=GPa)
#
#
# Indices 1 2 3 4 5 6 
#
# 1 91.7665 23.1343 -1.2695 0.0000 0.0000 -1.2509
# 2 23.1343 91.7665 -1.2695 0.0000 0.0000 1.2509
# 3 -1.2695 -1.2695 44.8575 0.0000 0.0000 0.0000
# 4 0.0000 0.0000 0.0000 34.0189 0.0000 0.0000
# 5 0.0000 0.0000 0.0000 0.0000 34.0189 0.0000
# 6 -1.2509 1.2509 0.0000 0.0000 0.0000 43.7729
#
#
#
# Elastic Compliance Matrix: (Units=1/GPa)
#
#
# Indices 1 2 3 4 5 6 
#
# 1 0.011647 -0.002938 0.000246 0.000000 0.000000 0.000417
# 2 -0.002938 0.011647 0.000246 0.000000 0.000000 -0.000417
# 3 0.000246 0.000246 0.022307 0.000000 0.000000 0.000000
# 4 0.000000 0.000000 0.000000 0.029395 0.000000 0.000000
# 5 0.000000 0.000000 0.000000 0.000000 0.029395 0.000000
# 6 0.000417 -0.000417 0.000000 0.000000 0.000000 0.022869
#
#
# Mechanical properties :
#
#
# Convention : Reuss Voigt Hill
#
# Bulk Modulus (GPa) = 24.56410 29.95344 27.25877
# Shear Modulus (GPa) = 34.31192 36.21514 35.26353
#
# Velocity S-wave (km/s) = 3.73534 3.83754 3.78678
# Velocity P-wave (km/s) = 5.34720 5.64057 5.49584
#
# Compressibility (1/GPa) = 0.04070982
#
# Stress axis : x y z
#
# Youngs Moduli (GPa) = 85.85821 85.85821 44.82948
#
# Poissons Ratio (x) = 0.25229 -0.01105
# Poissons Ratio (y) = 0.25229 -0.01105
# Poissons Ratio (z) = -0.02116 -0.02116
#
# Static dielectric constant tensor:
#      x y z
#    x 2.052900 0.000000 0.000000 
#    y 0.000000 2.052900 0.000000 
#    z 0.000000 0.000000 1.918650 
# 
# From -- ./inp_files/444.got.cif
#   From: 2010.05.17/outbox.cif.g08.bks.cpg/sg81_cif.got.tgz:444.got - 2010.06.03 18:51:07.
