data_PCOD9542772
_publ_section_title
;
Structure prediction by ZEFSAII (Michael W. Deem and Ramdas Pophale) SiO2 
 PCOD9542772
Probable space group: I -4 
;
_chemical_formula_sum "Si O2"
_cell_formula_units_Z 52
_cell_length_a 17.241368
_cell_length_b 17.241368
_cell_length_c 8.602225
_cell_angle_alpha 90.000000
_cell_angle_beta 90.000000
_cell_angle_gamma 90.000000
_cell_volume 2557.138441
_symmetry_space_group_name_H-M "I -4 "
_symmetry_group_IT_number 82
_symmetry_cell_setting 'tetragonal'
loop_
_space_group_symop_operation_xyz
x,y,z
y,-x,-z
-x,-y,z
-y,x,-z
1/2+x,1/2+y,1/2+z
1/2+y,1/2-x,1/2-z
1/2-x,1/2-y,1/2+z
1/2-y,1/2+x,1/2-z
loop_
_atom_site_type_symbol
_atom_site_label
_atom_site_fract_x
_atom_site_fract_y
_atom_site_fract_z
Si Si1 0.297694 0.815555 0.010577
Si Si2 0.325113 0.681088 0.778585
Si Si3 0.109756 0.156735 0.171109
Si Si4 0.000000 0.500000 0.750000
Si Si5 0.500000 0.000000 0.750000
Si Si6 0.627070 0.025322 0.006255
Si Si7 0.542770 0.298650 0.520279
Si Si8 0.560619 0.616157 0.005386
O O1 0.252350 0.808657 0.174553
O O2 0.361949 0.882122 0.023843
O O3 0.325673 0.737031 0.928919
O O4 0.234212 0.849179 0.889190
O O5 0.394984 0.700005 0.660534
O O6 0.338926 0.594907 0.846027
O O7 0.085123 0.159994 0.348776
O O8 0.031169 0.150470 0.069987
O O9 0.165583 0.085909 0.127808
O O10 0.992660 0.424408 0.855121
O O11 0.492127 0.076802 0.646192
O O12 0.711596 0.987163 0.003175
O O13 0.600734 0.531112 0.997223
#
# Coordination Sequence:
#
# PCOD9542772 Si02
#       8
#     8   8   8   2   2   8   8   8
#     4  10  23  40  65  90 129 160 222 253 321 365
#     4  11  22  42  60  95 123 173 206 265 308 382
#     4  10  22  39  61  94 123 171 201 267 301 388
#     4  10  24  42  64  90 128 154 216 254 316 370
#     4  10  20  42  68  86 128 162 212 258 316 374
#     4  10  22  41  62  94 119 165 204 264 309 373
#     4  10  22  39  65  90 127 164 216 247 332 365
#     4  11  24  38  60  91 129 163 212 253 313 379
#
# _framework density 20.335229999999999
#
# number of rings (size 3 to 8) (size 9 to 14) (size 15 to 20)
#    0.000    1.692    1.538    1.846    6.462    4.000 
#    0.000    3.077    0.000    0.000    0.000    0.000 
#    0.000    0.000    0.000    0.000    0.000    0.000 
#
# Total GULP energy -145250.545885 kJ/mol
# GULP energy per Si atom -5586.559457 kJ/mol
# Density = 2.028895 g / cm^3
# Si number density = 20.335230 Si / 1000 Ang^3
#
#
#
# Elastic Constant Matrix: (Units=GPa)
#
#
# Indices 1 2 3 4 5 6 
#
# 1 52.4305 8.7610 10.3377 0.0000 0.0000 8.6649
# 2 8.7610 52.4305 10.3377 0.0000 0.0000 -8.6649
# 3 10.3377 10.3377 73.6915 0.0000 0.0000 0.0000
# 4 0.0000 0.0000 0.0000 15.2790 0.0000 0.0000
# 5 0.0000 0.0000 0.0000 0.0000 15.2790 0.0000
# 6 8.6649 -8.6649 0.0000 0.0000 0.0000 29.1518
#
#
#
# Elastic Compliance Matrix: (Units=1/GPa)
#
#
# Indices 1 2 3 4 5 6 
#
# 1 0.021558 -0.004403 -0.002407 0.000000 0.000000 -0.007717
# 2 -0.004403 0.021558 -0.002407 0.000000 0.000000 0.007717
# 3 -0.002407 -0.002407 0.014245 0.000000 0.000000 0.000000
# 4 0.000000 0.000000 0.000000 0.065449 0.000000 0.000000
# 5 0.000000 0.000000 0.000000 0.000000 0.065449 0.000000
# 6 -0.007717 0.007717 0.000000 0.000000 0.000000 0.038890
#
#
# Mechanical properties :
#
#
# Convention : Reuss Voigt Hill
#
# Bulk Modulus (GPa) = 25.68749 26.38059 26.03404
# Shear Modulus (GPa) = 19.33784 21.88303 20.61043
#
# Velocity S-wave (km/s) = 3.08710 3.28398 3.18706
# Velocity P-wave (km/s) = 5.03650 5.23262 5.13550
#
# Compressibility (1/GPa) = 0.03892946
#
# Stress axis : x y z
#
# Youngs Moduli (GPa) = 46.38567 46.38567 70.19855
#
# Poissons Ratio (x) = 0.20424 0.16894
# Poissons Ratio (y) = 0.20424 0.16894
# Poissons Ratio (z) = 0.11163 0.11163
#
# Static dielectric constant tensor:
#      x y z
#    x 1.719480 0.000000 0.000000 
#    y 0.000000 1.719480 0.000000 
#    z 0.000000 0.000000 1.711510 
# 
# From -- ./inp_files/1129.got.cif
#   From: 2010.05.17/outbox.cif.g08.bks.cpg/sg82_1_cif.got.tgz:1129.got - 2010.06.03 18:52:26.
