data_PCOD9542483
_publ_section_title
;
Structure prediction by ZEFSAII (Michael W. Deem and Ramdas Pophale) SiO2 
 PCOD9542483
Probable space group: P -4
;
_chemical_formula_sum "Si O2"
_cell_formula_units_Z 16
_cell_length_a 8.269583
_cell_length_b 8.269583
_cell_length_c 9.214072
_cell_angle_alpha 90.000000
_cell_angle_beta 90.000000
_cell_angle_gamma 90.000000
_cell_volume 630.113555
_symmetry_space_group_name_H-M "P -4"
_symmetry_group_IT_number 81
_symmetry_cell_setting 'tetragonal'
loop_
_space_group_symop_operation_xyz
x,y,z
y,-x,-z
-x,-y,z
-y,x,-z
loop_
_atom_site_type_symbol
_atom_site_label
_atom_site_fract_x
_atom_site_fract_y
_atom_site_fract_z
Si Si1 0.681269 0.424304 0.848630
Si Si2 0.708634 0.224988 0.347511
Si Si3 0.570924 0.162875 0.635443
Si Si4 0.209435 0.135420 0.938747
O O1 0.500000 0.500000 0.856322
O O2 0.783014 0.555648 0.760306
O O3 0.669960 0.267452 0.747702
O O4 0.766035 0.363015 0.996481
O O5 0.671714 0.124020 0.490590
O O6 0.732515 0.409990 0.402870
O O7 0.851908 0.190018 0.235012
O O8 0.500000 0.000000 0.701826
O O9 0.046888 0.212877 0.005424
#
# Coordination Sequence:
#
# PCOD9542483 Si02
#       4
#     4   4   4   4
#     4  10  24  43  67  99 139 183 237 287 350 415
#     4  11  24  42  68 100 141 179 237 293 345 426
#     4  11  23  42  68 105 137 182 230 298 357 416
#     4  11  27  48  70 104 146 189 233 292 361 433
#
# _framework density 25.392251999999999
#
# number of rings (size 3 to 8) (size 9 to 14) (size 15 to 20)
#    0.000    1.250    2.500    1.500   10.500    0.000 
#    0.000    0.000    0.000    3.000    0.000    0.000 
#    0.000    0.000    0.000    0.000    0.000    0.000 
#
# Total GULP energy -89555.368451 kJ/mol
# GULP energy per Si atom -5597.210528 kJ/mol
# Density = 2.533446 g / cm^3
# Si number density = 25.392252 Si / 1000 Ang^3
#
#
#
# Elastic Constant Matrix: (Units=GPa)
#
#
# Indices 1 2 3 4 5 6 
#
# 1 80.4253 -5.2178 12.6360 0.0000 0.0000 -12.7025
# 2 -5.2178 80.4253 12.6360 0.0000 0.0000 12.7025
# 3 12.6360 12.6360 127.1783 0.0000 0.0000 0.0000
# 4 0.0000 0.0000 0.0000 39.5472 0.0000 0.0000
# 5 0.0000 0.0000 0.0000 0.0000 39.5472 0.0000
# 6 -12.7025 12.7025 0.0000 0.0000 0.0000 39.3300
#
#
#
# Elastic Compliance Matrix: (Units=1/GPa)
#
#
# Indices 1 2 3 4 5 6 
#
# 1 0.013335 0.000421 -0.001367 0.000000 0.000000 0.004171
# 2 0.000421 0.013335 -0.001367 0.000000 0.000000 -0.004171
# 3 -0.001367 -0.001367 0.008135 0.000000 0.000000 0.000000
# 4 0.000000 0.000000 0.000000 0.025286 0.000000 0.000000
# 5 0.000000 0.000000 0.000000 0.000000 0.025286 0.000000
# 6 0.004171 -0.004171 0.000000 0.000000 0.000000 0.028120
#
#
# Mechanical properties :
#
#
# Convention : Reuss Voigt Hill
#
# Bulk Modulus (GPa) = 33.13535 36.45972 34.79753
# Shear Modulus (GPa) = 39.00740 41.54986 40.27863
#
# Velocity S-wave (km/s) = 3.92368 4.04953 3.98710
# Velocity P-wave (km/s) = 5.79696 6.02119 5.91014
#
# Compressibility (1/GPa) = 0.03017925
#
# Stress axis : x y z
#
# Youngs Moduli (GPa) = 74.99241 74.99241 122.93221
#
# Poissons Ratio (x) = -0.03158 0.16802
# Poissons Ratio (y) = -0.03158 0.16802
# Poissons Ratio (z) = 0.10249 0.10249
#
# Static dielectric constant tensor:
#      x y z
#    x 2.010600 0.000000 0.000000 
#    y 0.000000 2.010600 0.000000 
#    z 0.000000 0.000000 1.993570 
# 
# From -- ./inp_files/586.got.cif
#   From: 2010.05.17/outbox.cif.g08.bks.cpg/sg81_cif.got.tgz:586.got - 2010.06.03 18:51:07.
