data_PCOD9542976
_publ_section_title
;
Structure prediction by ZEFSAII (Michael W. Deem and Ramdas Pophale) SiO2 
 PCOD9542976
Probable space group: I -4 
;
_chemical_formula_sum "Si O2"
_cell_formula_units_Z 52
_cell_length_a 17.153370
_cell_length_b 17.153370
_cell_length_c 7.256605
_cell_angle_alpha 90.000000
_cell_angle_beta 90.000000
_cell_angle_gamma 90.000000
_cell_volume 2135.169685
_symmetry_space_group_name_H-M "I -4 "
_symmetry_group_IT_number 82
_symmetry_cell_setting 'tetragonal'
loop_
_space_group_symop_operation_xyz
x,y,z
y,-x,-z
-x,-y,z
-y,x,-z
1/2+x,1/2+y,1/2+z
1/2+y,1/2-x,1/2-z
1/2-x,1/2-y,1/2+z
1/2-y,1/2+x,1/2-z
loop_
_atom_site_type_symbol
_atom_site_label
_atom_site_fract_x
_atom_site_fract_y
_atom_site_fract_z
Si Si1 0.500000 0.000000 0.250000
Si Si2 0.528149 0.290927 0.079211
Si Si3 0.375450 0.104498 0.345602
Si Si4 0.879235 0.886507 0.139580
Si Si5 0.500000 0.500000 0.500000
Si Si6 0.573466 0.274892 0.691946
Si Si7 0.870855 0.782437 0.808708
Si Si8 0.990503 0.395543 0.155508
O O1 0.426022 0.055856 0.197879
O O2 0.557207 0.202126 0.107259
O O3 0.597926 0.343827 0.161748
O O4 0.447901 0.303750 0.190681
O O5 0.520374 0.304092 0.860934
O O6 0.354977 0.191569 0.285466
O O7 0.436647 0.111231 0.514646
O O8 0.957375 0.935948 0.121558
O O9 0.817346 0.931207 0.003852
O O10 0.885193 0.805626 0.025929
O O11 0.662076 0.298698 0.748157
O O12 0.553322 0.185580 0.665725
O O13 0.037060 0.424202 0.340546
#
# Coordination Sequence:
#
# PCOD9542976 Si02
#       8
#     2   8   8   8   2   8   8   8
#     4  12  24  36  74 104 148 200 238 328 360 466
#     4  12  23  49  73 108 154 198 264 311 399 473
#     4  12  25  44  76 114 150 201 262 323 398 474
#     4  10  24  46  71 106 152 199 257 325 382 475
#     4  12  20  44  82 104 144 214 252 320 406 424
#     4  10  25  47  71 108 156 199 254 318 395 470
#     4  10  25  47  68 111 151 196 257 320 393 460
#     4  11  23  45  75 112 154 197 265 328 393 465
#
# _framework density 24.354036000000001
#
# number of rings (size 3 to 8) (size 9 to 14) (size 15 to 20)
#    0.923    0.154    4.615    1.846    0.000    2.462 
#    0.000    0.769    0.000    0.000    0.000    0.000 
#    0.000    0.000    0.000    0.000    0.000    0.000 
#
# Total GULP energy -144878.579516 kJ/mol
# GULP energy per Si atom -5572.253058 kJ/mol
# Density = 2.429861 g / cm^3
# Si number density = 24.354036 Si / 1000 Ang^3
#
#
#
# Elastic Constant Matrix: (Units=GPa)
#
#
# Indices 1 2 3 4 5 6 
#
# 1 132.2699 46.3714 -0.8190 0.0000 0.0000 -0.5287
# 2 46.3714 132.2699 -0.8190 0.0000 0.0000 0.5287
# 3 -0.8190 -0.8190 47.4335 0.0000 0.0000 0.0000
# 4 0.0000 0.0000 0.0000 20.4184 0.0000 0.0000
# 5 0.0000 0.0000 0.0000 0.0000 20.4184 0.0000
# 6 -0.5287 0.5287 0.0000 0.0000 0.0000 49.8061
#
#
#
# Elastic Compliance Matrix: (Units=1/GPa)
#
#
# Indices 1 2 3 4 5 6 
#
# 1 0.008621 -0.003022 0.000097 0.000000 0.000000 0.000124
# 2 -0.003022 0.008621 0.000097 0.000000 0.000000 -0.000124
# 3 0.000097 0.000097 0.021086 0.000000 0.000000 0.000000
# 4 0.000000 0.000000 0.000000 0.048975 0.000000 0.000000
# 5 0.000000 0.000000 0.000000 0.000000 0.048975 0.000000
# 6 0.000124 -0.000124 0.000000 0.000000 0.000000 0.020080
#
#
# Mechanical properties :
#
#
# Convention : Reuss Voigt Hill
#
# Bulk Modulus (GPa) = 30.60951 44.60445 37.60698
# Shear Modulus (GPa) = 28.91742 35.94460 32.43101
#
# Velocity S-wave (km/s) = 3.44957 3.84594 3.65313
# Velocity P-wave (km/s) = 5.33497 6.17061 5.76794
#
# Compressibility (1/GPa) = 0.03266959
#
# Stress axis : x y z
#
# Youngs Moduli (GPa) = 115.99676 115.99676 47.42594
#
# Poissons Ratio (x) = 0.35057 -0.00458
# Poissons Ratio (y) = 0.35057 -0.00458
# Poissons Ratio (z) = -0.01121 -0.01121
#
# Static dielectric constant tensor:
#      x y z
#    x 1.952180 0.000000 0.000000 
#    y 0.000000 1.952180 0.000000 
#    z 0.000000 0.000000 2.071910 
# 
# From -- ./inp_files/1141.got.cif
#   From: 2010.05.17/outbox.cif.g08.bks.cpg/sg82_1_cif.got.tgz:1141.got - 2010.06.03 18:52:26.
