data_PCOD9542562
_publ_section_title
;
Structure prediction by ZEFSAII (Michael W. Deem and Ramdas Pophale) SiO2 
 PCOD9542562
Probable space group: P -4
;
_chemical_formula_sum "Si O2"
_cell_formula_units_Z 19
_cell_length_a 7.753612
_cell_length_b 7.753612
_cell_length_c 11.452472
_cell_angle_alpha 90.000000
_cell_angle_beta 90.000000
_cell_angle_gamma 90.000000
_cell_volume 688.505427
_symmetry_space_group_name_H-M "P -4"
_symmetry_group_IT_number 81
_symmetry_cell_setting 'tetragonal'
loop_
_space_group_symop_operation_xyz
x,y,z
y,-x,-z
-x,-y,z
-y,x,-z
loop_
_atom_site_type_symbol
_atom_site_label
_atom_site_fract_x
_atom_site_fract_y
_atom_site_fract_z
Si Si1 0.000000 0.000000 0.500000
Si Si2 0.684085 0.906821 0.716791
Si Si3 0.777980 0.100956 0.930792
Si Si4 0.346705 0.133810 0.438113
Si Si5 0.000000 0.500000 0.933105
Si Si6 0.694942 0.512130 0.764903
O O1 0.065611 0.846185 0.583671
O O2 0.674993 0.861927 0.578187
O O3 0.726665 0.716545 0.762521
O O4 0.500000 0.000000 0.733230
O O5 0.794047 0.035442 0.799761
O O6 0.587234 0.139816 0.974841
O O7 0.928178 0.210464 0.987199
O O8 0.407901 0.294687 0.360269
O O9 0.500000 0.000000 0.415151
O O10 0.853048 0.435484 0.837589
O O11 0.500000 0.500000 0.808096
#
# Coordination Sequence:
#
# PCOD9542562 Si02
#       6
#     1   4   4   4   2   4
#     4  12  28  48  84 116 166 212 272 336 412 506
#     4  11  26  48  78 118 160 216 274 338 420 500
#     4  11  25  47  78 112 157 211 266 341 418 490
#     4  11  27  50  78 120 166 213 278 341 420 501
#     4  12  26  50  78 114 162 202 286 338 410 504
#     4  12  29  50  78 116 161 217 272 346 414 498
#
# _framework density 27.596008000000001
#
# number of rings (size 3 to 8) (size 9 to 14) (size 15 to 20)
#    0.000    0.632    4.211    1.263   11.789    1.684 
#    0.000    0.000    0.000    0.000    0.000    0.000 
#    0.000    0.000    0.000    0.000    0.000    0.000 
#
# Total GULP energy -105840.342700 kJ/mol
# GULP energy per Si atom -5570.544353 kJ/mol
# Density = 2.753320 g / cm^3
# Si number density = 27.596008 Si / 1000 Ang^3
#
#
#
# Elastic Constant Matrix: (Units=GPa)
#
#
# Indices 1 2 3 4 5 6 
#
# 1 88.1003 -1.3530 28.5090 0.0000 0.0000 40.2581
# 2 -1.3530 88.1003 28.5090 0.0000 0.0000 -40.2581
# 3 28.5090 28.5090 174.1678 0.0000 0.0000 0.0000
# 4 0.0000 0.0000 0.0000 20.8449 0.0000 0.0000
# 5 0.0000 0.0000 0.0000 0.0000 20.8449 0.0000
# 6 40.2581 -40.2581 0.0000 0.0000 0.0000 -1.3236
#
#
#
# Elastic Compliance Matrix: (Units=1/GPa)
#
#
# Indices 1 2 3 4 5 6 
#
# 1 0.006656 0.006262 -0.002114 0.000000 0.000000 0.011982
# 2 0.006262 0.006656 -0.002114 0.000000 0.000000 -0.011982
# 3 -0.002114 -0.002114 0.006434 0.000000 0.000000 0.000000
# 4 0.000000 0.000000 0.000000 0.047973 0.000000 0.000000
# 5 0.000000 0.000000 0.000000 0.000000 0.047973 0.000000
# 6 0.011982 -0.011982 0.000000 0.000000 0.000000 -0.026624
#
#
# Mechanical properties :
#
#
# Convention : Reuss Voigt Hill
#
# Bulk Modulus (GPa) = 41.99715 51.29982 46.64849
# Shear Modulus (GPa) = 53.79877 27.72013 40.75945
#
# Velocity S-wave (km/s) = 4.42012 3.17282 3.84735
# Velocity P-wave (km/s) = 6.42663 5.66148 6.05615
#
# Compressibility (1/GPa) = 0.02381114
#
# Stress axis : x y z
#
# Youngs Moduli (GPa) = 150.24618 150.24618 155.42920
#
# Poissons Ratio (x) = -0.94081 0.32864
# Poissons Ratio (y) = -0.94081 0.32864
# Poissons Ratio (z) = 0.31769 0.31769
#
# Static dielectric constant tensor:
#      x y z
#    x 2.175220 0.000000 0.000000 
#    y 0.000000 2.175220 0.000000 
#    z 0.000000 0.000000 2.244450 
# 
# From -- ./inp_files/1283.got.cif
#   From: 2010.05.17/outbox.cif.g08.bks.cpg/sg81_cif.got.tgz:1283.got - 2010.06.03 18:51:07.
