data_PCOD9542558
_publ_section_title
;
Structure prediction by ZEFSAII (Michael W. Deem and Ramdas Pophale) SiO2 
 PCOD9542558
Probable space group: P -4
;
_chemical_formula_sum "Si O2"
_cell_formula_units_Z 14
_cell_length_a 8.757734
_cell_length_b 8.757734
_cell_length_c 8.131922
_cell_angle_alpha 90.000000
_cell_angle_beta 90.000000
_cell_angle_gamma 90.000000
_cell_volume 623.701380
_symmetry_space_group_name_H-M "P -4"
_symmetry_group_IT_number 81
_symmetry_cell_setting 'tetragonal'
loop_
_space_group_symop_operation_xyz
x,y,z
y,-x,-z
-x,-y,z
-y,x,-z
loop_
_atom_site_type_symbol
_atom_site_label
_atom_site_fract_x
_atom_site_fract_y
_atom_site_fract_z
Si Si1 0.835719 0.418496 0.500097
Si Si2 0.500000 0.500000 0.000000
Si Si3 0.500000 0.500000 0.500000
Si Si4 0.757594 0.288116 0.849699
Si Si5 0.052364 0.675123 0.181221
O O1 0.683408 0.516220 0.458102
O O2 0.823270 0.368116 0.688369
O O3 0.849226 0.301045 0.346776
O O4 0.000000 0.500000 0.490815
O O5 0.599989 0.379589 0.894398
O O6 0.754876 0.109926 0.807551
O O7 0.853822 0.293550 0.017337
O O8 0.000000 0.500000 0.164068
#
# Coordination Sequence:
#
# PCOD9542558 Si02
#       5
#     4   1   1   4   4
#     4  11  26  44  74 112 149 194 254 315 379 460
#     4  12  26  44  86 110 136 202 266 308 386 466
#     4  12  26  48  78 110 148 202 254 308 382 450
#     4  12  26  46  72 107 145 193 245 317 378 452
#     4  11  25  45  69 107 149 188 249 310 380 453
#
# _framework density 22.446639000000001
#
# number of rings (size 3 to 8) (size 9 to 14) (size 15 to 20)
#    0.000    0.571    2.857    5.143    4.000    2.857 
#    0.000    0.000    0.000    7.714    0.000    0.000 
#    0.000    0.000    0.000    0.000    0.000    0.000 
#
# Total GULP energy -77974.045769 kJ/mol
# GULP energy per Si atom -5569.574698 kJ/mol
# Density = 2.239555 g / cm^3
# Si number density = 22.446639 Si / 1000 Ang^3
#
#
#
# Elastic Constant Matrix: (Units=GPa)
#
#
# Indices 1 2 3 4 5 6 
#
# 1 98.1133 3.8689 23.0181 0.0000 0.0000 -2.9186
# 2 3.8689 98.1133 23.0181 0.0000 0.0000 2.9186
# 3 23.0181 23.0181 154.8124 0.0000 0.0000 0.0000
# 4 0.0000 0.0000 0.0000 -5.2998 0.0000 0.0000
# 5 0.0000 0.0000 0.0000 0.0000 -5.2998 0.0000
# 6 -2.9186 2.9186 0.0000 0.0000 0.0000 16.4005
#
#
#
# Elastic Compliance Matrix: (Units=1/GPa)
#
#
# Indices 1 2 3 4 5 6 
#
# 1 0.010620 -0.000109 -0.001563 0.000000 0.000000 0.001909
# 2 -0.000109 0.010620 -0.001563 0.000000 0.000000 -0.001909
# 3 -0.001563 -0.001563 0.006924 0.000000 0.000000 0.000000
# 4 0.000000 0.000000 0.000000 -0.188687 0.000000 0.000000
# 5 0.000000 0.000000 0.000000 0.000000 -0.188687 0.000000
# 6 0.001909 -0.001909 0.000000 0.000000 0.000000 0.061653
#
#
# Mechanical properties :
#
#
# Convention : Reuss Voigt Hill
#
# Bulk Modulus (GPa) = 46.09342 50.09434 48.09388
# Shear Modulus (GPa) = -18.25776 21.23580 1.48902
#
# Velocity S-wave (km/s) = -2.85508 3.07914 0.81535
# Velocity P-wave (km/s) = 3.11618 5.91667 4.72851
#
# Compressibility (1/GPa) = 0.02169507
#
# Stress axis : x y z
#
# Youngs Moduli (GPa) = 94.16163 94.16163 144.42173
#
# Poissons Ratio (x) = 0.01026 0.22571
# Poissons Ratio (y) = 0.01026 0.22571
# Poissons Ratio (z) = 0.14716 0.14716
#
# Static dielectric constant tensor:
#      x y z
#    x 1.783820 0.000000 0.000000 
#    y 0.000000 1.783820 0.000000 
#    z 0.000000 0.000000 1.898850 
# 
# From -- ./inp_files/523.got.cif
#   From: 2010.05.17/outbox.cif.g08.bks.cpg/sg81_cif.got.tgz:523.got - 2010.06.03 18:51:07.
