data_PCOD9542011
_publ_section_title
;
Structure prediction by ZEFSAII (Michael W. Deem and Ramdas Pophale) SiO2 
 PCOD9542011
Probable space group: I 4
;
_chemical_formula_sum "Si O2"
_cell_formula_units_Z 50
_cell_length_a 8.557340
_cell_length_b 8.557340
_cell_length_c 29.817655
_cell_angle_alpha 90.000000
_cell_angle_beta 90.000000
_cell_angle_gamma 90.000000
_cell_volume 2183.489264
_symmetry_space_group_name_H-M "I 4"
_symmetry_group_IT_number 79
_symmetry_cell_setting 'tetragonal'
loop_
_space_group_symop_operation_xyz
x,y,z
-y,x,z
-x,-y,z
y,-x,z
1/2+x,1/2+y,1/2+z
1/2-y,1/2+x,1/2+z
1/2-x,1/2-y,1/2+z
1/2+y,1/2-x,1/2+z
loop_
_atom_site_type_symbol
_atom_site_label
_atom_site_fract_x
_atom_site_fract_y
_atom_site_fract_z
Si Si1 0.247143 0.424240 0.892750
Si Si2 0.529734 0.239960 0.562095
Si Si3 0.596583 0.858412 0.152550
Si Si4 0.261991 0.963003 0.962153
Si Si5 0.868302 0.218740 0.235887
Si Si6 0.261175 0.602762 0.314325
Si Si7 0.500000 0.500000 0.151782
O O1 0.400694 0.313054 0.895833
O O2 0.118978 0.388631 0.930675
O O3 0.165478 0.374921 0.846311
O O4 0.665140 0.369395 0.565830
O O5 0.580022 0.133139 0.602901
O O6 0.501587 0.175179 0.512117
O O7 0.750071 0.846382 0.183309
O O8 0.509319 0.693631 0.151372
O O9 0.500000 0.000000 0.174998
O O10 0.123388 0.833711 0.955023
O O11 0.787490 0.357188 0.263615
O O12 0.051299 0.205647 0.247611
O O13 0.302630 0.422555 0.322770
#
# Coordination Sequence:
#
# PCOD9542011 Si02
#       7
#     8   8   8   8   8   8   2
#     4  11  24  43  66  99 146 189 235 296 370 449
#     4   9  18  39  68  99 136 186 243 302 369 447
#     4  12  26  45  72 105 149 203 245 320 388 436
#     4   9  19  38  68  98 130 176 233 293 352 436
#     4  11  25  43  67 101 143 192 247 304 375 454
#     4  11  26  43  68 103 139 184 240 305 371 451
#     4  12  28  44  76 116 148 196 272 316 372 504
#
# _framework density 22.899125999999999
#
# number of rings (size 3 to 8) (size 9 to 14) (size 15 to 20)
#    0.000    1.440    0.000    5.760    4.480    7.680 
#    5.760    0.000    3.520    0.000    0.000    0.000 
#    0.000    0.000    0.000    0.000    0.000    0.000 
#
# Total GULP energy -139303.849745 kJ/mol
# GULP energy per Si atom -5572.153990 kJ/mol
# Density = 2.284701 g / cm^3
# Si number density = 22.899126 Si / 1000 Ang^3
#
#
#
# Elastic Constant Matrix: (Units=GPa)
#
#
# Indices 1 2 3 4 5 6 
#
# 1 104.2685 55.7691 35.2207 0.0000 0.0000 5.1406
# 2 55.7691 104.2685 35.2207 0.0000 0.0000 -5.1406
# 3 35.2207 35.2207 64.7879 0.0000 0.0000 0.0000
# 4 0.0000 0.0000 0.0000 14.4972 0.0000 0.0000
# 5 0.0000 0.0000 0.0000 0.0000 14.4972 0.0000
# 6 5.1406 -5.1406 0.0000 0.0000 0.0000 34.4496
#
#
#
# Elastic Compliance Matrix: (Units=1/GPa)
#
#
# Indices 1 2 3 4 5 6 
#
# 1 0.014753 -0.006539 -0.004465 0.000000 0.000000 -0.003177
# 2 -0.006539 0.014753 -0.004465 0.000000 0.000000 0.003177
# 3 -0.004465 -0.004465 0.020290 0.000000 0.000000 0.000000
# 4 0.000000 0.000000 0.000000 0.068979 0.000000 0.000000
# 5 0.000000 0.000000 0.000000 0.000000 0.068979 0.000000
# 6 -0.003177 0.003177 0.000000 0.000000 0.000000 0.029976
#
#
# Mechanical properties :
#
#
# Convention : Reuss Voigt Hill
#
# Bulk Modulus (GPa) = 53.03217 58.41623 55.72420
# Shear Modulus (GPa) = 19.61129 22.49642 21.05385
#
# Velocity S-wave (km/s) = 2.92964 3.13775 3.03548
# Velocity P-wave (km/s) = 5.88668 6.22036 6.05582
#
# Compressibility (1/GPa) = 0.01885648
#
# Stress axis : x y z
#
# Youngs Moduli (GPa) = 67.78197 67.78197 49.28530
#
# Poissons Ratio (x) = 0.44324 0.22008
# Poissons Ratio (y) = 0.44324 0.22008
# Poissons Ratio (z) = 0.30267 0.30267
#
# Static dielectric constant tensor:
#      x y z
#    x 1.920320 0.000000 0.000000 
#    y 0.000000 1.920320 0.000000 
#    z 0.000000 0.000000 1.872600 
# 
# From -- ./inp_files/2168.got.cif
#   From: 2010.05.17/outbox.cif.g08.bks.cpg/sg79_cif.got.tgz:2168.got - 2010.06.03 18:47:27.
