data_PCOD9542288
_publ_section_title
;
Structure prediction by ZEFSAII (Michael W. Deem and Ramdas Pophale) SiO2 
 PCOD9542288
Probable space group: I 41
;
_chemical_formula_sum "Si O2"
_cell_formula_units_Z 36
_cell_length_a 10.687402
_cell_length_b 10.687402
_cell_length_c 11.781156
_cell_angle_alpha 90.000000
_cell_angle_beta 90.000000
_cell_angle_gamma 90.000000
_cell_volume 1345.650254
_symmetry_space_group_name_H-M "I 41"
_symmetry_group_IT_number 80
_symmetry_cell_setting 'tetragonal'
loop_
_space_group_symop_operation_xyz
x,y,z
-y,1/2+x,1/4+z
-x,-y,z
y,1/2-x,1/4+z
1/2+x,1/2+y,1/2+z
1/2-y,x,3/4+z
1/2-x,1/2-y,1/2+z
1/2+y,-x,3/4+z
loop_
_atom_site_type_symbol
_atom_site_label
_atom_site_fract_x
_atom_site_fract_y
_atom_site_fract_z
Si Si1 0.368335 0.881999 0.578450
Si Si2 0.894752 0.661523 0.465950
Si Si3 0.338477 0.894752 0.322232
Si Si4 0.000000 0.500000 0.644091
Si Si5 0.381999 0.131665 0.709732
O O1 0.382698 0.924613 0.448712
O O2 0.248391 0.790906 0.579344
O O3 0.496831 0.834170 0.632577
O O4 0.334170 0.003169 0.655605
O O5 0.894820 0.549110 0.557933
O O6 0.924613 0.617302 0.339469
O O7 0.751609 0.709094 0.458838
O O8 0.000000 0.750000 0.519091
O O9 0.450890 0.894820 0.230249
#
# Coordination Sequence:
#
# PCOD9542288 Si02
#       5
#     8   8   8   4   8
#     4  11  26  50  80 118 164 221 285 346 426 505
#     4  12  26  48  77 115 164 216 276 352 422 510
#     4  12  26  48  77 115 164 216 276 352 422 510
#     4  12  24  48  70 112 156 208 288 326 440 504
#     4  11  26  50  80 118 164 221 285 346 426 505
#
# _framework density 26.752866000000001
#
# number of rings (size 3 to 8) (size 9 to 14) (size 15 to 20)
#    0.000    0.444    4.444    4.000    0.000    7.111 
#    0.000    0.000    0.000    0.000    0.000    0.000 
#    0.000    0.000    0.000    0.000    0.000    0.000 
#
# Total GULP energy -100710.319197 kJ/mol
# GULP energy per Si atom -5595.017733 kJ/mol
# Density = 2.669197 g / cm^3
# Si number density = 26.752866 Si / 1000 Ang^3
#
#
#
# Elastic Constant Matrix: (Units=GPa)
#
#
# Indices 1 2 3 4 5 6 
#
# 1 121.9395 6.0593 31.7734 0.0000 0.0000 10.8424
# 2 6.0593 121.9395 31.7734 0.0000 0.0000 -10.8424
# 3 31.7734 31.7734 296.1664 0.0000 0.0000 0.0000
# 4 0.0000 0.0000 0.0000 38.8033 0.0000 0.0000
# 5 0.0000 0.0000 0.0000 0.0000 38.8033 0.0000
# 6 10.8424 -10.8424 0.0000 0.0000 0.0000 46.2822
#
#
#
# Elastic Compliance Matrix: (Units=1/GPa)
#
#
# Indices 1 2 3 4 5 6 
#
# 1 0.008639 -0.000387 -0.000885 0.000000 0.000000 -0.002114
# 2 -0.000387 0.008639 -0.000885 0.000000 0.000000 0.002114
# 3 -0.000885 -0.000885 0.003566 0.000000 0.000000 0.000000
# 4 0.000000 0.000000 0.000000 0.025771 0.000000 0.000000
# 5 0.000000 0.000000 0.000000 0.000000 0.025771 0.000000
# 6 -0.002114 0.002114 0.000000 0.000000 0.000000 0.022597
#
#
# Mechanical properties :
#
#
# Convention : Reuss Voigt Hill
#
# Bulk Modulus (GPa) = 60.49823 75.47307 67.98565
# Shear Modulus (GPa) = 47.70666 56.14039 51.92353
#
# Velocity S-wave (km/s) = 4.22742 4.58589 4.41030
# Velocity P-wave (km/s) = 6.81843 7.50420 7.16951
#
# Compressibility (1/GPa) = 0.01652941
#
# Stress axis : x y z
#
# Youngs Moduli (GPa) = 115.75848 115.75849 280.39204
#
# Poissons Ratio (x) = 0.04475 0.24823
# Poissons Ratio (y) = 0.04475 0.24823
# Poissons Ratio (z) = 0.10248 0.10248
#
# Static dielectric constant tensor:
#      x y z
#    x 2.298110 0.000000 0.000000 
#    y 0.000000 2.298110 0.000000 
#    z 0.000000 0.000000 2.058070 
# 
# From -- ./inp_files/953.got.cif
#   From: 2010.05.17/outbox.cif.g08.bks.cpg/sg80_cif.got.tgz:953.got - 2010.06.03 18:49:13.
