data_PCOD9542432
_publ_section_title
;
Structure prediction by ZEFSAII (Michael W. Deem and Ramdas Pophale) SiO2 
 PCOD9542432
Probable space group: P -4
;
_chemical_formula_sum "Si O2"
_cell_formula_units_Z 22
_cell_length_a 12.860313
_cell_length_b 12.860313
_cell_length_c 6.296259
_cell_angle_alpha 90.000000
_cell_angle_beta 90.000000
_cell_angle_gamma 90.000000
_cell_volume 1041.323483
_symmetry_space_group_name_H-M "P -4"
_symmetry_group_IT_number 81
_symmetry_cell_setting 'tetragonal'
loop_
_space_group_symop_operation_xyz
x,y,z
y,-x,-z
-x,-y,z
-y,x,-z
loop_
_atom_site_type_symbol
_atom_site_label
_atom_site_fract_x
_atom_site_fract_y
_atom_site_fract_z
Si Si1 0.378186 0.389526 0.066954
Si Si2 0.076645 0.646241 0.934938
Si Si3 0.268471 0.228628 0.782481
Si Si4 0.368880 0.887951 0.386620
Si Si5 0.000000 0.500000 0.260935
Si Si6 0.423306 0.240847 0.407024
O O1 0.289101 0.321140 0.954364
O O2 0.362610 0.511723 0.045565
O O3 0.399237 0.352684 0.306733
O O4 0.121117 0.738034 0.085353
O O5 0.080814 0.549514 0.096957
O O6 0.159708 0.632758 0.750192
O O7 0.966386 0.639043 0.814916
O O8 0.173546 0.260935 0.630329
O O9 0.368479 0.229758 0.630401
O O10 0.458307 0.798687 0.391546
O O11 0.408496 0.956460 0.587150
#
# Coordination Sequence:
#
# PCOD9542432 Si02
#       6
#     4   4   4   4   2   4
#     4  10  22  35  50  77 126 176 208 244 305 384
#     4  11  22  41  62  90 124 164 218 267 322 386
#     4  11  25  37  60  93 130 164 220 277 317 392
#     4  12  22  39  63  93 125 173 217 274 326 382
#     4  12  20  38  68  86 124 170 212 268 326 378
#     4  11  21  37  55  89 120 162 220 257 317 389
#
# _framework density 21.126961999999999
#
# number of rings (size 3 to 8) (size 9 to 14) (size 15 to 20)
#    0.000    0.909    7.273    0.000    2.545    2.909 
#    0.000    1.818    0.000    0.545    0.000    0.000 
#    0.000    0.000    0.000    0.000    0.000    0.000 
#
# Total GULP energy -122530.607560 kJ/mol
# GULP energy per Si atom -5569.573071 kJ/mol
# Density = 2.107888 g / cm^3
# Si number density = 21.126962 Si / 1000 Ang^3
#
#
#
# Elastic Constant Matrix: (Units=GPa)
#
#
# Indices 1 2 3 4 5 6 
#
# 1 50.4629 8.5131 22.2773 0.0000 0.0000 4.2312
# 2 8.5131 50.4629 22.2773 0.0000 0.0000 -4.2312
# 3 22.2773 22.2773 76.9403 0.0000 0.0000 0.0000
# 4 0.0000 0.0000 0.0000 21.4499 0.0000 0.0000
# 5 0.0000 0.0000 0.0000 0.0000 21.4499 0.0000
# 6 4.2312 -4.2312 0.0000 0.0000 0.0000 26.4259
#
#
#
# Elastic Compliance Matrix: (Units=1/GPa)
#
#
# Indices 1 2 3 4 5 6 
#
# 1 0.023169 -0.001465 -0.006284 0.000000 0.000000 -0.003944
# 2 -0.001465 0.023169 -0.006284 0.000000 0.000000 0.003944
# 3 -0.006284 -0.006284 0.016636 0.000000 0.000000 0.000000
# 4 0.000000 0.000000 0.000000 0.046620 0.000000 0.000000
# 5 0.000000 0.000000 0.000000 0.000000 0.046620 0.000000
# 6 -0.003944 0.003944 0.000000 0.000000 0.000000 0.039105
#
#
# Mechanical properties :
#
#
# Convention : Reuss Voigt Hill
#
# Bulk Modulus (GPa) = 28.64765 31.55572 30.10168
# Shear Modulus (GPa) = 21.27476 22.18505 21.72991
#
# Velocity S-wave (km/s) = 3.17676 3.24401 3.21056
# Velocity P-wave (km/s) = 5.20048 5.38518 5.29363
#
# Compressibility (1/GPa) = 0.03490688
#
# Stress axis : x y z
#
# Youngs Moduli (GPa) = 43.16191 43.16191 60.11049
#
# Poissons Ratio (x) = 0.06324 0.37774
# Poissons Ratio (y) = 0.06324 0.37774
# Poissons Ratio (z) = 0.27123 0.27123
#
# Static dielectric constant tensor:
#      x y z
#    x 1.806640 0.000000 0.000000 
#    y 0.000000 1.806640 0.000000 
#    z 0.000000 0.000000 1.798730 
# 
# From -- ./inp_files/272.got.cif
#   From: 2010.05.17/outbox.cif.g08.bks.cpg/sg81_cif.got.tgz:272.got - 2010.06.03 18:51:07.
