data_PCOD9542720
_publ_section_title
;
Structure prediction by ZEFSAII (Michael W. Deem and Ramdas Pophale) SiO2 
 PCOD9542720
Probable space group: I -4 
;
_chemical_formula_sum "Si O2"
_cell_formula_units_Z 36
_cell_length_a 14.225209
_cell_length_b 14.225209
_cell_length_c 7.129384
_cell_angle_alpha 90.000000
_cell_angle_beta 90.000000
_cell_angle_gamma 90.000000
_cell_volume 1442.677700
_symmetry_space_group_name_H-M "I -4 "
_symmetry_group_IT_number 82
_symmetry_cell_setting 'tetragonal'
loop_
_space_group_symop_operation_xyz
x,y,z
y,-x,-z
-x,-y,z
-y,x,-z
1/2+x,1/2+y,1/2+z
1/2+y,1/2-x,1/2-z
1/2-x,1/2-y,1/2+z
1/2-y,1/2+x,1/2-z
loop_
_atom_site_type_symbol
_atom_site_label
_atom_site_fract_x
_atom_site_fract_y
_atom_site_fract_z
Si Si1 0.203073 0.703073 0.421480
Si Si2 0.349365 0.849365 0.499511
Si Si3 0.712520 0.488248 0.476776
Si Si4 0.000000 0.000000 0.000000
Si Si5 0.488248 0.712520 0.976775
Si Si6 0.500000 0.500000 0.000000
O O1 0.280630 0.780630 0.390556
O O2 0.164790 0.664790 0.223849
O O3 0.256856 0.617560 0.518661
O O4 0.117560 0.756856 0.518661
O O5 0.450682 0.803758 0.465360
O O6 0.303757 0.950682 0.465360
O O7 0.610500 0.516075 0.559142
O O8 0.698802 0.500000 0.250000
O O9 0.516076 0.610500 0.059141
#
# Coordination Sequence:
#
# PCOD9542720 Si02
#       6
#     8   8   8   2   8   2
#     4  10  20  37  55  81 111 145 182 226 274 324
#     4  10  20  37  55  81 111 145 182 226 274 324
#     4  10  21  34  55  81 110 144 184 227 274 323
#     4  12  18  32  56  82 112 132 190 224 282 316
#     4  10  21  34  55  81 110 144 184 227 274 323
#     4  12  18  32  56  82 112 132 190 224 282 316
#
# _framework density 24.953599000000001
#
# number of rings (size 3 to 8) (size 9 to 14) (size 15 to 20)
#    0.000    1.778    4.444    0.667    0.000    0.889 
#    0.000    6.667    0.000    0.000    0.000    3.111 
#    0.000    0.000    0.000    0.000    0.000    0.000 
#
# Total GULP energy -100203.134046 kJ/mol
# GULP energy per Si atom -5566.840780 kJ/mol
# Density = 2.489680 g / cm^3
# Si number density = 24.953599 Si / 1000 Ang^3
#
#
#
# Elastic Constant Matrix: (Units=GPa)
#
#
# Indices 1 2 3 4 5 6 
#
# 1 107.3638 34.7222 22.0716 0.0000 0.0000 -0.0001
# 2 34.7222 107.3638 22.0716 0.0000 0.0000 0.0001
# 3 22.0716 22.0716 75.4044 0.0000 0.0000 0.0000
# 4 0.0000 0.0000 0.0000 14.0342 0.0000 0.0000
# 5 0.0000 0.0000 0.0000 0.0000 14.0342 0.0000
# 6 -0.0001 0.0001 0.0000 0.0000 0.0000 55.9160
#
#
#
# Elastic Compliance Matrix: (Units=1/GPa)
#
#
# Indices 1 2 3 4 5 6 
#
# 1 0.010754 -0.003012 -0.002266 0.000000 0.000000 0.000000
# 2 -0.003012 0.010754 -0.002266 0.000000 0.000000 0.000000
# 3 -0.002266 -0.002266 0.014588 0.000000 0.000000 0.000000
# 4 0.000000 0.000000 0.000000 0.071255 0.000000 0.000000
# 5 0.000000 0.000000 0.000000 0.000000 0.071255 0.000000
# 6 0.000000 0.000000 0.000000 0.000000 0.000000 0.017884
#
#
# Mechanical properties :
#
#
# Convention : Reuss Voigt Hill
#
# Bulk Modulus (GPa) = 47.60117 49.76254 48.68186
# Shear Modulus (GPa) = 22.87477 30.88131 26.87804
#
# Velocity S-wave (km/s) = 3.03098 3.52170 3.28551
# Velocity P-wave (km/s) = 5.60057 6.04333 5.82616
#
# Compressibility (1/GPa) = 0.02100789
#
# Stress axis : x y z
#
# Youngs Moduli (GPa) = 92.98755 92.98755 68.54720
#
# Poissons Ratio (x) = 0.28009 0.15534
# Poissons Ratio (y) = 0.28009 0.15534
# Poissons Ratio (z) = 0.21073 0.21073
#
# Static dielectric constant tensor:
#      x y z
#    x 1.918150 0.000000 0.000000 
#    y 0.000000 1.918150 0.000000 
#    z 0.000000 0.000000 2.116260 
# 
# From -- ./inp_files/909.got.cif
#   From: 2010.05.17/outbox.cif.g08.bks.cpg/sg82_1_cif.got.tgz:909.got - 2010.06.03 18:52:26.
