data_PCOD9542430
_publ_section_title
;
Structure prediction by ZEFSAII (Michael W. Deem and Ramdas Pophale) SiO2 
 PCOD9542430
Probable space group: P -4
;
_chemical_formula_sum "Si O2"
_cell_formula_units_Z 14
_cell_length_a 5.312106
_cell_length_b 5.312106
_cell_length_c 19.901191
_cell_angle_alpha 90.000000
_cell_angle_beta 90.000000
_cell_angle_gamma 90.000000
_cell_volume 561.581164
_symmetry_space_group_name_H-M "P -4"
_symmetry_group_IT_number 81
_symmetry_cell_setting 'tetragonal'
loop_
_space_group_symop_operation_xyz
x,y,z
y,-x,-z
-x,-y,z
-y,x,-z
loop_
_atom_site_type_symbol
_atom_site_label
_atom_site_fract_x
_atom_site_fract_y
_atom_site_fract_z
Si Si1 0.655471 0.733955 0.597380
Si Si2 0.260156 0.653624 0.125219
Si Si3 0.000000 0.000000 0.500000
Si Si4 0.763933 0.846503 0.736961
Si Si5 0.500000 0.500000 0.000000
O O1 0.500000 0.500000 0.571756
O O2 0.722334 0.662971 0.674759
O O3 0.500000 0.000000 0.599634
O O4 0.888525 0.790067 0.549325
O O5 0.500000 0.500000 0.153224
O O6 0.228456 0.842171 0.186885
O O7 0.638138 0.302210 0.049633
O O8 0.000000 0.500000 0.116164
O O9 0.500000 0.000000 0.745329
O O10 0.000000 0.000000 0.710836
#
# Coordination Sequence:
#
# PCOD9542430 Si02
#       5
#     4   4   1   4   1
#     4  11  27  48  77 109 157 200 264 323 401 472
#     4   9  19  41  64  99 139 186 243 301 375 445
#     4  12  28  48  76 116 156 212 270 336 408 488
#     4  10  21  46  72 108 141 197 250 318 379 466
#     4   8  20  40  64 100 144 192 242 308 380 452
#
# _framework density 24.92961
#
# number of rings (size 3 to 8) (size 9 to 14) (size 15 to 20)
#    0.857    1.143    1.429    0.857    4.000    0.000 
#   10.286   14.286    0.000    0.000    0.000    0.000 
#    0.000    0.000    0.000    0.000    0.000    0.000 
#
# Total GULP energy -77952.234487 kJ/mol
# GULP energy per Si atom -5568.016749 kJ/mol
# Density = 2.487287 g / cm^3
# Si number density = 24.929610 Si / 1000 Ang^3
#
#
#
# Elastic Constant Matrix: (Units=GPa)
#
#
# Indices 1 2 3 4 5 6 
#
# 1 100.0308 25.4546 14.7976 0.0000 0.0000 -0.6112
# 2 25.4546 100.0308 14.7976 0.0000 0.0000 0.6112
# 3 14.7976 14.7976 236.9599 0.0000 0.0000 0.0000
# 4 0.0000 0.0000 0.0000 273.6725 0.0000 0.0000
# 5 0.0000 0.0000 0.0000 0.0000 273.6725 0.0000
# 6 -0.6112 0.6112 0.0000 0.0000 0.0000 55.8056
#
#
#
# Elastic Compliance Matrix: (Units=1/GPa)
#
#
# Indices 1 2 3 4 5 6 
#
# 1 0.010750 -0.002662 -0.000505 0.000000 0.000000 0.000147
# 2 -0.002662 0.010750 -0.000505 0.000000 0.000000 -0.000147
# 3 -0.000505 -0.000505 0.004283 0.000000 0.000000 0.000000
# 4 0.000000 0.000000 0.000000 0.003654 0.000000 0.000000
# 5 0.000000 0.000000 0.000000 0.000000 0.003654 0.000000
# 6 0.000147 -0.000147 0.000000 0.000000 0.000000 0.017923
#
#
# Mechanical properties :
#
#
# Convention : Reuss Voigt Hill
#
# Bulk Modulus (GPa) = 54.23226 60.79124 57.51175
# Shear Modulus (GPa) = 77.51508 146.09490 111.80499
#
# Velocity S-wave (km/s) = 5.58221 7.66356 6.70415
# Velocity P-wave (km/s) = 7.95924 10.13632 9.11303
#
# Compressibility (1/GPa) = 0.01843921
#
# Stress axis : x y z
#
# Youngs Moduli (GPa) = 93.02455 93.02455 233.46995
#
# Poissons Ratio (x) = 0.24760 0.11792
# Poissons Ratio (y) = 0.24760 0.11792
# Poissons Ratio (z) = 0.04699 0.04699
#
# Static dielectric constant tensor:
#      x y z
#    x 1.318280 0.000000 0.000000 
#    y 0.000000 1.318280 0.000000 
#    z 0.000000 0.000000 2.001410 
# 
# From -- ./inp_files/1811.got.cif
#   From: 2010.05.17/outbox.cif.g08.bks.cpg/sg81_cif.got.tgz:1811.got - 2010.06.03 18:51:07.
