data_PCOD9542684
_publ_section_title
;
Structure prediction by ZEFSAII (Michael W. Deem and Ramdas Pophale) SiO2 
 PCOD9542684
Probable space group: I -4 
;
_chemical_formula_sum "Si O2"
_cell_formula_units_Z 64
_cell_length_a 23.272801
_cell_length_b 23.272801
_cell_length_c 5.604881
_cell_angle_alpha 90.000000
_cell_angle_beta 90.000000
_cell_angle_gamma 90.000000
_cell_volume 3035.733955
_symmetry_space_group_name_H-M "I -4 "
_symmetry_group_IT_number 82
_symmetry_cell_setting 'tetragonal'
loop_
_space_group_symop_operation_xyz
x,y,z
y,-x,-z
-x,-y,z
-y,x,-z
1/2+x,1/2+y,1/2+z
1/2+y,1/2-x,1/2-z
1/2-x,1/2-y,1/2+z
1/2-y,1/2+x,1/2-z
loop_
_atom_site_type_symbol
_atom_site_label
_atom_site_fract_x
_atom_site_fract_y
_atom_site_fract_z
Si Si1 0.231090 0.176831 0.700774
Si Si2 0.585731 0.102429 0.690155
Si Si3 0.045920 0.227654 0.158760
Si Si4 0.641024 0.018372 0.977573
Si Si5 0.885763 0.669717 0.670103
Si Si6 0.477852 0.267500 0.168981
Si Si7 0.910009 0.303358 0.556183
Si Si8 0.681928 0.715388 0.699842
O O1 0.260475 0.116394 0.640766
O O2 0.279213 0.227152 0.699271
O O3 0.192592 0.188538 0.463141
O O4 0.202301 0.180389 0.962513
O O5 0.594314 0.038909 0.781957
O O6 0.545520 0.121022 0.473879
O O7 0.649103 0.119382 0.599832
O O8 0.567951 0.142621 0.906527
O O9 0.025151 0.294489 0.125976
O O10 0.022062 0.204904 0.408713
O O11 0.114667 0.226552 0.166356
O O12 0.024064 0.198343 0.915514
O O13 0.637101 0.062192 0.194692
O O14 0.916184 0.732048 0.672730
O O15 0.827577 0.646215 0.795808
O O16 0.535074 0.226948 0.177089
#
# Coordination Sequence:
#
# PCOD9542684 Si02
#       8
#     8   8   8   8   8   8   8   8
#     4  10  22  35  54  79 106 132 176 223 280 323
#     4  11  19  35  48  65  97 126 177 221 278 316
#     4  11  20  38  55  74 103 136 178 222 257 329
#     4  10  21  32  47  70  89 132 171 225 272 319
#     4  10  20  32  50  69  96 133 176 221 277 318
#     4  11  22  35  54  80 101 139 186 217 274 328
#     4  11  23  34  55  79 105 139 176 242 274 314
#     4  10  21  37  53  78 103 139 176 218 276 334
#
# _framework density 21.082214
#
# number of rings (size 3 to 8) (size 9 to 14) (size 15 to 20)
#    0.000    1.500    2.500    4.500    1.750    2.250 
#    0.000    0.000    0.000    3.375    0.000    0.000 
#    0.000    0.000    0.000    0.000    0.000   43.750 
#
# Total GULP energy -178243.650001 kJ/mol
# GULP energy per Si atom -5570.114063 kJ/mol
# Density = 2.103423 g / cm^3
# Si number density = 21.082214 Si / 1000 Ang^3
#
#
#
# Elastic Constant Matrix: (Units=GPa)
#
#
# Indices 1 2 3 4 5 6 
#
# 1 38.1047 11.2604 9.2275 0.0000 0.0000 -11.0531
# 2 11.2604 38.1047 9.2275 0.0000 0.0000 11.0531
# 3 9.2275 9.2275 124.3129 0.0000 0.0000 0.0000
# 4 0.0000 0.0000 0.0000 29.1386 0.0000 0.0000
# 5 0.0000 0.0000 0.0000 0.0000 29.1386 0.0000
# 6 -11.0531 11.0531 0.0000 0.0000 0.0000 21.3498
#
#
#
# Elastic Compliance Matrix: (Units=1/GPa)
#
#
# Indices 1 2 3 4 5 6 
#
# 1 0.042886 -0.022051 -0.001547 0.000000 0.000000 0.033619
# 2 -0.022051 0.042886 -0.001547 0.000000 0.000000 -0.033619
# 3 -0.001547 -0.001547 0.008274 0.000000 0.000000 0.000000
# 4 0.000000 0.000000 0.000000 0.034319 0.000000 0.000000
# 5 0.000000 0.000000 0.000000 0.000000 0.034319 0.000000
# 6 0.033619 -0.033619 0.000000 0.000000 0.000000 0.081648
#
#
# Mechanical properties :
#
#
# Convention : Reuss Voigt Hill
#
# Bulk Modulus (GPa) = 22.85278 28.88369 25.86824
# Shear Modulus (GPa) = 16.17046 27.31253 21.74149
#
# Velocity S-wave (km/s) = 2.77252 3.60324 3.21483
# Velocity P-wave (km/s) = 4.59483 5.57148 5.10656
#
# Compressibility (1/GPa) = 0.04375834
#
# Stress axis : x y z
#
# Youngs Moduli (GPa) = 23.31757 23.31757 120.86324
#
# Poissons Ratio (x) = 0.51417 0.18692
# Poissons Ratio (y) = 0.51417 0.18692
# Poissons Ratio (z) = 0.03606 0.03606
#
# Static dielectric constant tensor:
#      x y z
#    x 1.803860 0.000000 0.000000 
#    y 0.000000 1.803860 0.000000 
#    z 0.000000 0.000000 1.931910 
# 
# From -- ./inp_files/477.got.cif
#   From: 2010.05.17/outbox.cif.g08.bks.cpg/sg82_1_cif.got.tgz:477.got - 2010.06.03 18:52:26.
