data_PCOD9542074
_publ_section_title
;
Structure prediction by ZEFSAII (Michael W. Deem and Ramdas Pophale) SiO2 
 PCOD9542074
Probable space group: I 41
;
_chemical_formula_sum "Si O2"
_cell_formula_units_Z 64
_cell_length_a 10.048777
_cell_length_b 10.048777
_cell_length_c 24.090560
_cell_angle_alpha 90.000000
_cell_angle_beta 90.000000
_cell_angle_gamma 90.000000
_cell_volume 2432.614621
_symmetry_space_group_name_H-M "I 41"
_symmetry_group_IT_number 80
_symmetry_cell_setting 'tetragonal'
loop_
_space_group_symop_operation_xyz
x,y,z
-y,1/2+x,1/4+z
-x,-y,z
y,1/2-x,1/4+z
1/2+x,1/2+y,1/2+z
1/2-y,x,3/4+z
1/2-x,1/2-y,1/2+z
1/2+y,-x,3/4+z
loop_
_atom_site_type_symbol
_atom_site_label
_atom_site_fract_x
_atom_site_fract_y
_atom_site_fract_z
Si Si1 0.843109 0.968969 0.502750
Si Si2 0.275402 0.972809 0.741338
Si Si3 0.183497 0.062164 0.381752
Si Si4 0.006717 0.300568 0.228659
Si Si5 0.157078 0.031309 0.623505
Si Si6 0.009387 0.702144 0.389090
Si Si7 0.007951 0.777223 0.107260
Si Si8 0.937699 0.678626 0.510462
O O1 0.796070 0.010963 0.441042
O O2 0.787742 0.012932 0.562902
O O3 0.841713 0.808112 0.503449
O O4 0.000000 0.000000 0.503624
O O5 0.359498 0.838534 0.745986
O O6 0.200175 0.996514 0.799190
O O7 0.386456 0.088443 0.744824
O O8 0.209793 0.976653 0.681421
O O9 0.308412 0.163851 0.378395
O O10 0.048232 0.149389 0.383224
O O11 0.187309 0.996009 0.320873
O O12 0.055079 0.161824 0.253989
O O13 0.008318 0.307073 0.162157
O O14 0.000000 0.000000 0.621717
O O15 0.893253 0.604263 0.365816
O O16 0.024269 0.680609 0.455183
O O17 0.144031 0.648219 0.363043
#
# Coordination Sequence:
#
# PCOD9542074 Si02
#       8
#     8   8   8   8   8   8   8   8
#     4   9  19  36  56  83 117 154 199 257 305 353
#     4  11  21  37  60  86 119 161 209 241 295 370
#     4  10  18  34  61  86 109 154 210 245 299 370
#     4  10  21  36  59  92 122 155 194 252 303 365
#     4  10  22  40  58  82 124 164 202 257 306 353
#     4   9  17  31  56  84 117 153 182 250 312 358
#     4  10  19  34  55  83 124 152 188 245 313 357
#     4   9  17  32  58  85 118 149 195 243 311 368
#
# _framework density 26.309139999999999
#
# number of rings (size 3 to 8) (size 9 to 14) (size 15 to 20)
#    0.000    2.250    0.000    5.250    0.000    3.000 
#    9.000    2.500    8.250    0.000    0.000    0.000 
#    0.000    0.000    0.000    0.000    0.000    0.000 
#
# Total GULP energy -178804.003639 kJ/mol
# GULP energy per Si atom -5587.625114 kJ/mol
# Density = 2.624926 g / cm^3
# Si number density = 26.309140 Si / 1000 Ang^3
#
#
#
# Elastic Constant Matrix: (Units=GPa)
#
#
# Indices 1 2 3 4 5 6 
#
# 1 39.4312 16.7026 20.3547 0.0000 0.0000 -5.5993
# 2 16.7026 39.4312 20.3547 0.0000 0.0000 5.5993
# 3 20.3547 20.3547 337.9838 0.0000 0.0000 0.0000
# 4 0.0000 0.0000 0.0000 -15.4032 0.0000 0.0000
# 5 0.0000 0.0000 0.0000 0.0000 -15.4032 0.0000
# 6 -5.5993 5.5993 0.0000 0.0000 0.0000 24.0559
#
#
#
# Elastic Compliance Matrix: (Units=1/GPa)
#
#
# Indices 1 2 3 4 5 6 
#
# 1 0.034162 -0.015534 -0.001122 0.000000 0.000000 0.011568
# 2 -0.015534 0.034162 -0.001122 0.000000 0.000000 -0.011568
# 3 -0.001122 -0.001122 0.003094 0.000000 0.000000 0.000000
# 4 0.000000 0.000000 0.000000 -0.064921 0.000000 0.000000
# 5 0.000000 0.000000 0.000000 0.000000 -0.064921 0.000000
# 6 0.011568 -0.011568 0.000000 0.000000 0.000000 0.046955
#
#
# Mechanical properties :
#
#
# Convention : Reuss Voigt Hill
#
# Bulk Modulus (GPa) = 27.88411 59.07449 43.47930
# Shear Modulus (GPa) = 138.73009 22.61216 80.67112
#
# Velocity S-wave (km/s) = 7.26947 2.93487 5.54341
# Velocity P-wave (km/s) = 9.00455 5.82986 7.58516
#
# Compressibility (1/GPa) = 0.03586272
#
# Stress axis : x y z
#
# Youngs Moduli (GPa) = 29.27188 29.27188 323.22208
#
# Poissons Ratio (x) = 0.45472 0.36261
# Poissons Ratio (y) = 0.45472 0.36261
# Poissons Ratio (z) = 0.03284 0.03284
#
# Static dielectric constant tensor:
#      x y z
#    x 2.151810 0.000000 0.000000 
#    y 0.000000 2.151810 0.000000 
#    z 0.000000 0.000000 2.076300 
# 
# From -- ./inp_files/2127.got.cif
#   From: 2010.05.17/outbox.cif.g08.bks.cpg/sg80_cif.got.tgz:2127.got - 2010.06.03 18:49:13.
