data_PCOD9542435
_publ_section_title
;
Structure prediction by ZEFSAII (Michael W. Deem and Ramdas Pophale) SiO2 
 PCOD9542435
Probable space group: P -4
;
_chemical_formula_sum "Si O2"
_cell_formula_units_Z 18
_cell_length_a 9.977075
_cell_length_b 9.977075
_cell_length_c 10.601039
_cell_angle_alpha 90.000000
_cell_angle_beta 90.000000
_cell_angle_gamma 90.000000
_cell_volume 1055.248895
_symmetry_space_group_name_H-M "P -4"
_symmetry_group_IT_number 81
_symmetry_cell_setting 'tetragonal'
loop_
_space_group_symop_operation_xyz
x,y,z
y,-x,-z
-x,-y,z
-y,x,-z
loop_
_atom_site_type_symbol
_atom_site_label
_atom_site_fract_x
_atom_site_fract_y
_atom_site_fract_z
Si Si1 0.338654 0.522534 0.188370
Si Si2 0.000000 0.500000 0.627134
Si Si3 0.751287 0.715604 0.009167
Si Si4 0.348351 0.011816 0.123462
Si Si5 0.721980 0.489212 0.470850
O O1 0.500000 0.500000 0.206252
O O2 0.318498 0.656355 0.108931
O O3 0.264811 0.528716 0.321411
O O4 0.273998 0.406000 0.104808
O O5 0.004757 0.374342 0.726212
O O6 0.862710 0.494409 0.545961
O O7 0.896464 0.730705 0.947992
O O8 0.708015 0.845971 0.085241
O O9 0.500000 0.000000 0.071415
O O10 0.625126 0.366236 0.512593
#
# Coordination Sequence:
#
# PCOD9542435 Si02
#       5
#     4   2   4   4   4
#     4  12  19  34  60  87 122 160 204 274 301 362
#     4  10  22  44  56  90 132 170 192 272 316 350
#     4  12  21  37  62  92 124 162 202 252 330 368
#     4  10  22  38  61  88 125 167 195 254 321 367
#     4  11  22  35  60  91 115 165 223 250 300 375
#
# _framework density 17.057589
#
# number of rings (size 3 to 8) (size 9 to 14) (size 15 to 20)
#    0.667    0.222    6.667    2.667    0.000    2.222 
#    0.000    0.000    0.000    3.333    0.000    0.000 
#    0.000    0.000    0.000    0.000    0.000    0.000 
#
# Total GULP energy -100321.798482 kJ/mol
# GULP energy per Si atom -5573.433249 kJ/mol
# Density = 1.701876 g / cm^3
# Si number density = 17.057589 Si / 1000 Ang^3
#
#
#
# Elastic Constant Matrix: (Units=GPa)
#
#
# Indices 1 2 3 4 5 6 
#
# 1 60.5752 -1.0066 16.7049 0.0000 0.0000 -6.0713
# 2 -1.0066 60.5752 16.7049 0.0000 0.0000 6.0713
# 3 16.7049 16.7049 124.0590 0.0000 0.0000 0.0000
# 4 0.0000 0.0000 0.0000 20.5102 0.0000 0.0000
# 5 0.0000 0.0000 0.0000 0.0000 20.5102 0.0000
# 6 -6.0713 6.0713 0.0000 0.0000 0.0000 16.8080
#
#
#
# Elastic Compliance Matrix: (Units=1/GPa)
#
#
# Indices 1 2 3 4 5 6 
#
# 1 0.017821 0.000337 -0.002445 0.000000 0.000000 0.006315
# 2 0.000337 0.017821 -0.002445 0.000000 0.000000 -0.006315
# 3 -0.002445 -0.002445 0.008719 0.000000 0.000000 0.000000
# 4 0.000000 0.000000 0.000000 0.048756 0.000000 0.000000
# 5 0.000000 0.000000 0.000000 0.000000 0.048756 0.000000
# 6 0.006315 -0.006315 0.000000 0.000000 0.000000 0.064058
#
#
# Mechanical properties :
#
#
# Convention : Reuss Voigt Hill
#
# Bulk Modulus (GPa) = 28.36383 34.44618 31.40501
# Shear Modulus (GPa) = 22.04683 25.75275 23.89979
#
# Velocity S-wave (km/s) = 3.59903 3.88977 3.74722
# Velocity P-wave (km/s) = 5.82538 6.35701 6.09699
#
# Compressibility (1/GPa) = 0.03525616
#
# Stress axis : x y z
#
# Youngs Moduli (GPa) = 56.11269 56.11269 114.68991
#
# Poissons Ratio (x) = -0.01894 0.28043
# Poissons Ratio (y) = -0.01894 0.28043
# Poissons Ratio (z) = 0.13720 0.13720
#
# Static dielectric constant tensor:
#      x y z
#    x 1.572820 0.000000 0.000000 
#    y 0.000000 1.572820 0.000000 
#    z 0.000000 0.000000 1.582170 
# 
# From -- ./inp_files/1246.got.cif
#   From: 2010.05.17/outbox.cif.g08.bks.cpg/sg81_cif.got.tgz:1246.got - 2010.06.03 18:51:07.
