data_PCOD9542190
_publ_section_title
;
Structure prediction by ZEFSAII (Michael W. Deem and Ramdas Pophale) SiO2 
 PCOD9542190
Probable space group: I 41
;
_chemical_formula_sum "Si O2"
_cell_formula_units_Z 56
_cell_length_a 14.677710
_cell_length_b 14.677710
_cell_length_c 11.508127
_cell_angle_alpha 90.000000
_cell_angle_beta 90.000000
_cell_angle_gamma 90.000000
_cell_volume 2479.255306
_symmetry_space_group_name_H-M "I 41"
_symmetry_group_IT_number 80
_symmetry_cell_setting 'tetragonal'
loop_
_space_group_symop_operation_xyz
x,y,z
-y,1/2+x,1/4+z
-x,-y,z
y,1/2-x,1/4+z
1/2+x,1/2+y,1/2+z
1/2-y,x,3/4+z
1/2-x,1/2-y,1/2+z
1/2+y,-x,3/4+z
loop_
_atom_site_type_symbol
_atom_site_label
_atom_site_fract_x
_atom_site_fract_y
_atom_site_fract_z
Si Si1 0.275646 0.200941 0.405540
Si Si2 0.992601 0.606251 0.421777
Si Si3 0.481191 0.820330 0.536400
Si Si4 0.912153 0.055125 0.561149
Si Si5 0.010205 0.747256 0.632323
Si Si6 0.874480 0.874568 0.959743
Si Si7 0.425026 0.624215 0.461631
O O1 0.214709 0.238688 0.515490
O O2 0.276334 0.092463 0.419559
O O3 0.359590 0.269881 0.428376
O O4 0.071941 0.610491 0.325043
O O5 0.000000 0.500000 0.461911
O O6 0.002905 0.680167 0.521039
O O7 0.902047 0.628512 0.345216
O O8 0.499215 0.886153 0.428610
O O9 0.562570 0.810840 0.629921
O O10 0.444104 0.726737 0.489835
O O11 0.396812 0.860288 0.607593
O O12 0.938309 0.159278 0.595978
O O13 0.822031 0.050817 0.479585
O O14 0.000000 0.000000 0.510370
O O15 0.974396 0.908281 0.925987
#
# Coordination Sequence:
#
# PCOD9542190 Si02
#       7
#     8   8   8   8   8   8   8
#     4  12  27  43  74 116 152 194 253 317 393 467
#     4   9  21  47  72 104 144 189 246 306 376 450
#     4  11  23  42  67  99 142 179 244 297 369 435
#     4  12  28  48  71 106 151 199 249 314 378 459
#     4  12  28  48  71 105 157 203 251 304 387 462
#     4  10  22  41  73 105 138 179 239 313 376 443
#     4  10  22  41  68 102 132 187 235 308 361 435
#
# _framework density 22.587427999999999
#
# number of rings (size 3 to 8) (size 9 to 14) (size 15 to 20)
#    0.000    1.143    0.000    6.000   10.000    3.429 
#    7.714    0.000    0.000    0.000    0.000    0.000 
#    0.000    0.000    0.000    0.000    0.000    0.000 
#
# Total GULP energy -156219.546409 kJ/mol
# GULP energy per Si atom -5579.269515 kJ/mol
# Density = 2.253602 g / cm^3
# Si number density = 22.587428 Si / 1000 Ang^3
#
#
#
# Elastic Constant Matrix: (Units=GPa)
#
#
# Indices 1 2 3 4 5 6 
#
# 1 117.7401 66.8059 62.8522 0.0000 0.0000 -6.5210
# 2 66.8059 117.7401 62.8522 0.0000 0.0000 6.5210
# 3 62.8522 62.8522 117.6883 0.0000 0.0000 0.0000
# 4 0.0000 0.0000 0.0000 26.3028 0.0000 0.0000
# 5 0.0000 0.0000 0.0000 0.0000 26.3028 0.0000
# 6 -6.5210 6.5210 0.0000 0.0000 0.0000 24.7796
#
#
#
# Elastic Compliance Matrix: (Units=1/GPa)
#
#
# Indices 1 2 3 4 5 6 
#
# 1 0.014784 -0.006267 -0.004549 0.000000 0.000000 0.005540
# 2 -0.006267 0.014784 -0.004549 0.000000 0.000000 -0.005540
# 3 -0.004549 -0.004549 0.013355 0.000000 0.000000 0.000000
# 4 0.000000 0.000000 0.000000 0.038019 0.000000 0.000000
# 5 0.000000 0.000000 0.000000 0.000000 0.038019 0.000000
# 6 0.005540 -0.005540 0.000000 0.000000 0.000000 0.043272
#
#
# Mechanical properties :
#
#
# Convention : Reuss Voigt Hill
#
# Bulk Modulus (GPa) = 81.99983 82.02099 82.01041
# Shear Modulus (GPa) = 25.37720 26.18758 25.78239
#
# Velocity S-wave (km/s) = 3.35552 3.40867 3.38220
# Velocity P-wave (km/s) = 7.16901 7.20302 7.18604
#
# Compressibility (1/GPa) = 0.01219515
#
# Stress axis : x y z
#
# Youngs Moduli (GPa) = 67.63916 67.63916 74.87623
#
# Poissons Ratio (x) = 0.42392 0.34058
# Poissons Ratio (y) = 0.42392 0.34058
# Poissons Ratio (z) = 0.30766 0.30766
#
# Static dielectric constant tensor:
#      x y z
#    x 1.874110 0.000000 0.000000 
#    y 0.000000 1.874110 0.000000 
#    z 0.000000 0.000000 1.864890 
# 
# From -- ./inp_files/1061.got.cif
#   From: 2010.05.17/outbox.cif.g08.bks.cpg/sg80_cif.got.tgz:1061.got - 2010.06.03 18:49:13.
