data_PCOD9542693
_publ_section_title
;
Structure prediction by ZEFSAII (Michael W. Deem and Ramdas Pophale) SiO2 
 PCOD9542693
Probable space group: I -4 
;
_chemical_formula_sum "Si O2"
_cell_formula_units_Z 48
_cell_length_a 16.029264
_cell_length_b 16.029264
_cell_length_c 9.645064
_cell_angle_alpha 90.000000
_cell_angle_beta 90.000000
_cell_angle_gamma 90.000000
_cell_volume 2478.176745
_symmetry_space_group_name_H-M "I -4 "
_symmetry_group_IT_number 82
_symmetry_cell_setting 'tetragonal'
loop_
_space_group_symop_operation_xyz
x,y,z
y,-x,-z
-x,-y,z
-y,x,-z
1/2+x,1/2+y,1/2+z
1/2+y,1/2-x,1/2-z
1/2-x,1/2-y,1/2+z
1/2-y,1/2+x,1/2-z
loop_
_atom_site_type_symbol
_atom_site_label
_atom_site_fract_x
_atom_site_fract_y
_atom_site_fract_z
Si Si1 0.203273 0.705994 0.633630
Si Si2 0.138003 0.886909 0.054817
Si Si3 0.895969 0.944625 0.227141
Si Si4 0.343497 0.446180 0.197865
Si Si5 0.526529 0.242470 0.062114
Si Si6 0.344341 0.260907 0.084973
O O1 0.219726 0.712483 0.796852
O O2 0.087044 0.981002 0.699034
O O3 0.107818 0.687822 0.593863
O O4 0.231166 0.790154 0.553548
O O5 0.233260 0.866553 0.087540
O O6 0.080227 0.822942 0.144118
O O7 0.123758 0.882999 0.892624
O O8 0.107080 0.972861 0.127984
O O9 0.823422 0.954587 0.339713
O O10 0.269992 0.474815 0.098315
O O11 0.213606 0.567568 0.912086
O O12 0.643355 0.366827 0.871148
#
# Coordination Sequence:
#
# PCOD9542693 Si02
#       6
#     8   8   8   8   8   8
#     4  10  21  39  54  82 119 152 204 243 295 370
#     4  11  22  34  54  82 121 162 192 237 302 371
#     4  12  21  34  52  85 120 155 191 238 302 371
#     4  10  20  33  52  85 124 147 189 234 301 378
#     4  11  22  36  57  81 115 159 198 246 300 357
#     4  10  21  38  56  85 115 164 196 245 306 356
#
# _framework density 19.369077000000001
#
# number of rings (size 3 to 8) (size 9 to 14) (size 15 to 20)
#    0.000    1.333    5.000    3.500    0.000    0.000 
#    3.000    0.000    0.000    0.500    0.000    0.000 
#    0.000    0.667    0.000    0.000    0.000    0.000 
#
# Total GULP energy -133621.698456 kJ/mol
# GULP energy per Si atom -5567.570769 kJ/mol
# Density = 1.932499 g / cm^3
# Si number density = 19.369077 Si / 1000 Ang^3
#
#
#
# Elastic Constant Matrix: (Units=GPa)
#
#
# Indices 1 2 3 4 5 6 
#
# 1 77.5930 25.4940 25.8243 0.0000 0.0000 -7.5449
# 2 25.4940 77.5930 25.8243 0.0000 0.0000 7.5449
# 3 25.8243 25.8243 88.3092 0.0000 0.0000 0.0000
# 4 0.0000 0.0000 0.0000 24.0686 0.0000 0.0000
# 5 0.0000 0.0000 0.0000 0.0000 24.0686 0.0000
# 6 -7.5449 7.5449 0.0000 0.0000 0.0000 26.9550
#
#
#
# Elastic Compliance Matrix: (Units=1/GPa)
#
#
# Indices 1 2 3 4 5 6 
#
# 1 0.016127 -0.004761 -0.003324 0.000000 0.000000 0.005847
# 2 -0.004761 0.016127 -0.003324 0.000000 0.000000 -0.005847
# 3 -0.003324 -0.003324 0.013268 0.000000 0.000000 0.000000
# 4 0.000000 0.000000 0.000000 0.041548 0.000000 0.000000
# 5 0.000000 0.000000 0.000000 0.000000 0.041548 0.000000
# 6 0.005847 -0.005847 0.000000 0.000000 0.000000 0.040372
#
#
# Mechanical properties :
#
#
# Convention : Reuss Voigt Hill
#
# Bulk Modulus (GPa) = 44.04411 44.19783 44.12097
# Shear Modulus (GPa) = 25.07856 26.10863 25.59360
#
# Velocity S-wave (km/s) = 3.60220 3.67543 3.63900
# Velocity P-wave (km/s) = 6.33166 6.39375 6.36278
#
# Compressibility (1/GPa) = 0.02270451
#
# Stress axis : x y z
#
# Youngs Moduli (GPa) = 62.00898 62.00898 75.37071
#
# Poissons Ratio (x) = 0.29522 0.25051
# Poissons Ratio (y) = 0.29522 0.25051
# Poissons Ratio (z) = 0.20610 0.20610
#
# Static dielectric constant tensor:
#      x y z
#    x 1.736680 0.000000 0.000000 
#    y 0.000000 1.736680 0.000000 
#    z 0.000000 0.000000 1.740480 
# 
# From -- ./inp_files/1206.got.cif
#   From: 2010.05.17/outbox.cif.g08.bks.cpg/sg82_1_cif.got.tgz:1206.got - 2010.06.03 18:52:26.
