data_PCOD9542661
_publ_section_title
;
Structure prediction by ZEFSAII (Michael W. Deem and Ramdas Pophale) SiO2 
 PCOD9542661
Probable space group: I -4 
;
_chemical_formula_sum "Si O2"
_cell_formula_units_Z 52
_cell_length_a 17.080731
_cell_length_b 17.080731
_cell_length_c 8.518631
_cell_angle_alpha 90.000000
_cell_angle_beta 90.000000
_cell_angle_gamma 90.000000
_cell_volume 2485.322278
_symmetry_space_group_name_H-M "I -4 "
_symmetry_group_IT_number 82
_symmetry_cell_setting 'tetragonal'
loop_
_space_group_symop_operation_xyz
x,y,z
y,-x,-z
-x,-y,z
-y,x,-z
1/2+x,1/2+y,1/2+z
1/2+y,1/2-x,1/2-z
1/2-x,1/2-y,1/2+z
1/2-y,1/2+x,1/2-z
loop_
_atom_site_type_symbol
_atom_site_label
_atom_site_fract_x
_atom_site_fract_y
_atom_site_fract_z
Si Si1 0.905120 0.635884 0.354359
Si Si2 0.000000 0.500000 0.750000
Si Si3 0.751510 0.162848 0.233351
Si Si4 0.000000 0.500000 0.250000
Si Si5 0.811217 0.700366 0.085043
Si Si6 0.087174 0.798704 0.620000
Si Si7 0.421327 0.840381 0.349915
Si Si8 0.926867 0.808900 0.481369
O O1 0.876504 0.654808 0.180398
O O2 0.837778 0.597721 0.464052
O O3 0.927812 0.718961 0.425936
O O4 0.975984 0.575248 0.349935
O O5 0.915002 0.521804 0.672986
O O6 0.759555 0.252975 0.290281
O O7 0.662979 0.137444 0.274035
O O8 0.808087 0.116053 0.348636
O O9 0.760074 0.158076 0.046959
O O10 0.759858 0.638515 0.987049
O O11 0.059068 0.742285 0.764285
O O12 0.141952 0.874889 0.640937
O O13 0.014936 0.830659 0.518707
#
# Coordination Sequence:
#
# PCOD9542661 Si02
#       8
#     8   2   8   2   8   8   8   8
#     4  11  22  36  55  85 123 163 201 242 306 378
#     4  12  22  32  56  82 122 164 200 238 290 376
#     4   9  18  33  56  82 113 155 201 249 298 365
#     4  12  26  36  52  90 138 168 192 254 318 372
#     4  10  19  35  58  85 116 154 201 249 301 369
#     4  10  21  38  59  83 113 152 204 261 308 370
#     4  10  20  35  54  81 115 157 198 237 293 363
#     4  10  21  38  59  84 114 154 209 258 311 374
#
# _framework density 20.922840000000001
#
# number of rings (size 3 to 8) (size 9 to 14) (size 15 to 20)
#    0.000    1.846    0.000    6.923    0.000    5.231 
#    0.000    0.000    0.000    0.000    0.000    0.000 
#    0.000   12.308    0.000    0.000    0.000    0.000 
#
# Total GULP energy -144875.716870 kJ/mol
# GULP energy per Si atom -5572.142957 kJ/mol
# Density = 2.087522 g / cm^3
# Si number density = 20.922840 Si / 1000 Ang^3
#
#
#
# Elastic Constant Matrix: (Units=GPa)
#
#
# Indices 1 2 3 4 5 6 
#
# 1 72.5093 30.5875 14.5473 0.0000 0.0000 -0.4719
# 2 30.5875 72.5093 14.5473 0.0000 0.0000 0.4719
# 3 14.5473 14.5473 90.7141 0.0000 0.0000 0.0000
# 4 0.0000 0.0000 0.0000 16.5648 0.0000 0.0000
# 5 0.0000 0.0000 0.0000 0.0000 16.5648 0.0000
# 6 -0.4719 0.4719 0.0000 0.0000 0.0000 39.7671
#
#
#
# Elastic Compliance Matrix: (Units=1/GPa)
#
#
# Indices 1 2 3 4 5 6 
#
# 1 0.017010 -0.006850 -0.001629 0.000000 0.000000 0.000283
# 2 -0.006850 0.017010 -0.001629 0.000000 0.000000 -0.000283
# 3 -0.001629 -0.001629 0.011546 0.000000 0.000000 0.000000
# 4 0.000000 0.000000 0.000000 0.060369 0.000000 0.000000
# 5 0.000000 0.000000 0.000000 0.000000 0.060369 0.000000
# 6 0.000283 -0.000283 0.000000 0.000000 0.000000 0.025153
#
#
# Mechanical properties :
#
#
# Convention : Reuss Voigt Hill
#
# Bulk Modulus (GPa) = 39.45058 39.45518 39.45288
# Shear Modulus (GPa) = 22.71448 26.31606 24.51527
#
# Velocity S-wave (km/s) = 3.29847 3.55035 3.42672
# Velocity P-wave (km/s) = 5.77951 5.97537 5.87825
#
# Compressibility (1/GPa) = 0.02534817
#
# Stress axis : x y z
#
# Youngs Moduli (GPa) = 58.78947 58.78947 86.60878
#
# Poissons Ratio (x) = 0.40273 0.14110
# Poissons Ratio (y) = 0.40273 0.14110
# Poissons Ratio (z) = 0.09578 0.09578
#
# Static dielectric constant tensor:
#      x y z
#    x 1.801630 0.000000 0.000000 
#    y 0.000000 1.801630 0.000000 
#    z 0.000000 0.000000 1.829410 
# 
# From -- ./inp_files/1125.got.cif
#   From: 2010.05.17/outbox.cif.g08.bks.cpg/sg82_1_cif.got.tgz:1125.got - 2010.06.03 18:52:26.
