data_PCOD9542517
_publ_section_title
;
Structure prediction by ZEFSAII (Michael W. Deem and Ramdas Pophale) SiO2 
 PCOD9542517
Probable space group: P -4
;
_chemical_formula_sum "Si O2"
_cell_formula_units_Z 17
_cell_length_a 8.975695
_cell_length_b 8.975695
_cell_length_c 10.597118
_cell_angle_alpha 90.000000
_cell_angle_beta 90.000000
_cell_angle_gamma 90.000000
_cell_volume 853.736685
_symmetry_space_group_name_H-M "P -4"
_symmetry_group_IT_number 81
_symmetry_cell_setting 'tetragonal'
loop_
_space_group_symop_operation_xyz
x,y,z
y,-x,-z
-x,-y,z
-y,x,-z
loop_
_atom_site_type_symbol
_atom_site_label
_atom_site_fract_x
_atom_site_fract_y
_atom_site_fract_z
Si Si1 0.723527 0.636912 0.123211
Si Si2 0.634863 0.305407 0.149770
Si Si3 0.000000 0.000000 0.500000
Si Si4 0.794203 0.755638 0.382983
Si Si5 0.457379 0.839445 0.393823
O O1 0.723878 0.460151 0.148169
O O2 0.544698 0.670128 0.132454
O O3 0.806562 0.719264 0.235614
O O4 0.775253 0.675452 0.981596
O O5 0.646214 0.234740 0.287518
O O6 0.119784 0.093944 0.419292
O O7 0.616189 0.759193 0.410471
O O8 0.854595 0.627072 0.474569
O O9 0.500000 0.000000 0.340962
#
# Coordination Sequence:
#
# PCOD9542517 Si02
#       5
#     4   4   1   4   4
#     4   8  15  31  57  86 111 140 184 241 298 333
#     4   8  15  30  56  88 115 134 179 253 296 326
#     4  12  24  40  56  78 132 164 180 234 296 348
#     4  11  22  38  60  83 114 154 194 237 286 342
#     4  11  21  35  58  84 113 151 196 235 286 342
#
# _framework density 19.912461
#
# number of rings (size 3 to 8) (size 9 to 14) (size 15 to 20)
#    0.000    2.353    2.353    2.824    0.000    2.353 
#    0.000    1.176   10.353    1.412    0.000    0.000 
#    0.000    0.000    0.000    0.000    0.000    0.000 
#
# Total GULP energy -94719.694350 kJ/mol
# GULP energy per Si atom -5571.746726 kJ/mol
# Density = 1.986714 g / cm^3
# Si number density = 19.912461 Si / 1000 Ang^3
#
#
#
# Elastic Constant Matrix: (Units=GPa)
#
#
# Indices 1 2 3 4 5 6 
#
# 1 37.1931 4.3599 30.3577 0.0000 0.0000 -1.1156
# 2 4.3599 37.1931 30.3577 0.0000 0.0000 1.1156
# 3 30.3577 30.3577 139.9066 0.0000 0.0000 0.0000
# 4 0.0000 0.0000 0.0000 8.1732 0.0000 0.0000
# 5 0.0000 0.0000 0.0000 0.0000 8.1732 0.0000
# 6 -1.1156 1.1156 0.0000 0.0000 0.0000 16.6041
#
#
#
# Elastic Compliance Matrix: (Units=1/GPa)
#
#
# Indices 1 2 3 4 5 6 
#
# 1 0.032917 0.002321 -0.007646 0.000000 0.000000 0.002056
# 2 0.002321 0.032917 -0.007646 0.000000 0.000000 -0.002056
# 3 -0.007646 -0.007646 0.010466 0.000000 0.000000 0.000000
# 4 0.000000 0.000000 0.000000 0.122351 0.000000 0.000000
# 5 0.000000 0.000000 0.000000 0.000000 0.122351 0.000000
# 6 0.002056 -0.002056 0.000000 0.000000 0.000000 0.060502
#
#
# Mechanical properties :
#
#
# Convention : Reuss Voigt Hill
#
# Bulk Modulus (GPa) = 19.85822 38.27150 29.06486
# Shear Modulus (GPa) = 11.78595 16.53793 14.16194
#
# Velocity S-wave (km/s) = 2.43551 2.88502 2.66975
# Velocity P-wave (km/s) = 4.23124 5.50994 4.91237
#
# Compressibility (1/GPa) = 0.05035698
#
# Stress axis : x y z
#
# Youngs Moduli (GPa) = 30.37924 30.37924 95.54925
#
# Poissons Ratio (x) = -0.07050 0.73058
# Poissons Ratio (y) = -0.07050 0.73058
# Poissons Ratio (z) = 0.23228 0.23228
#
# Static dielectric constant tensor:
#      x y z
#    x 1.782790 0.000000 0.000000 
#    y 0.000000 1.782790 0.000000 
#    z 0.000000 0.000000 1.716690 
# 
# From -- ./inp_files/708.got.cif
#   From: 2010.05.17/outbox.cif.g08.bks.cpg/sg81_cif.got.tgz:708.got - 2010.06.03 18:51:07.
