data_PCOD9542673
_publ_section_title
;
Structure prediction by ZEFSAII (Michael W. Deem and Ramdas Pophale) SiO2 
 PCOD9542673
Probable space group: I -4 
;
_chemical_formula_sum "Si O2"
_cell_formula_units_Z 64
_cell_length_a 22.427919
_cell_length_b 22.427919
_cell_length_c 6.403539
_cell_angle_alpha 90.000000
_cell_angle_beta 90.000000
_cell_angle_gamma 90.000000
_cell_volume 3221.054082
_symmetry_space_group_name_H-M "I -4 "
_symmetry_group_IT_number 82
_symmetry_cell_setting 'tetragonal'
loop_
_space_group_symop_operation_xyz
x,y,z
y,-x,-z
-x,-y,z
-y,x,-z
1/2+x,1/2+y,1/2+z
1/2+y,1/2-x,1/2-z
1/2-x,1/2-y,1/2+z
1/2-y,1/2+x,1/2-z
loop_
_atom_site_type_symbol
_atom_site_label
_atom_site_fract_x
_atom_site_fract_y
_atom_site_fract_z
Si Si1 0.348792 0.087619 0.163884
Si Si2 0.968268 0.660620 0.605254
Si Si3 0.611068 0.259851 0.053973
Si Si4 0.352171 0.645407 0.776123
Si Si5 0.558492 0.575679 0.939724
Si Si6 0.478905 0.791480 0.721576
Si Si7 0.353031 0.438408 0.607088
Si Si8 0.775560 0.051031 0.115353
O O1 0.406669 0.127081 0.134929
O O2 0.301431 0.119716 0.319492
O O3 0.365498 0.024271 0.268367
O O4 0.316794 0.067871 0.947988
O O5 0.987607 0.660707 0.364470
O O6 0.961669 0.727695 0.700943
O O7 0.658547 0.294643 0.909278
O O8 0.557759 0.246581 0.890887
O O9 0.591424 0.306911 0.229808
O O10 0.372707 0.594032 0.939761
O O11 0.406276 0.653846 0.613178
O O12 0.298198 0.617912 0.644160
O O13 0.578768 0.512272 0.039444
O O14 0.581833 0.571924 0.703170
O O15 0.529973 0.756921 0.595095
O O16 0.332464 0.506789 0.613902
#
# Coordination Sequence:
#
# PCOD9542673 Si02
#       8
#     8   8   8   8   8   8   8   8
#     4  10  21  40  66  97 126 161 199 243 314 378
#     4  10  23  41  68  94 127 162 197 255 306 388
#     4  10  19  38  61  81 119 163 206 246 305 355
#     4  11  23  33  60  85 117 163 215 264 305 363
#     4  10  22  33  46  75 117 158 197 255 320 367
#     4  10  19  37  64  89 124 159 203 247 312 377
#     4  11  20  35  54  83 112 160 204 256 303 362
#     4  11  21  39  58  90 119 163 217 251 311 371
#
# _framework density 19.869271000000001
#
# number of rings (size 3 to 8) (size 9 to 14) (size 15 to 20)
#    0.000    1.625    6.250    0.000    1.750    6.250 
#    0.000    1.250    5.500    0.000    0.000    0.000 
#    0.000    0.000    0.000    0.000    0.000    0.000 
#
# Total GULP energy -178385.434681 kJ/mol
# GULP energy per Si atom -5574.544834 kJ/mol
# Density = 1.982405 g / cm^3
# Si number density = 19.869271 Si / 1000 Ang^3
#
#
#
# Elastic Constant Matrix: (Units=GPa)
#
#
# Indices 1 2 3 4 5 6 
#
# 1 39.9481 19.7114 18.7530 0.0000 0.0000 -0.3363
# 2 19.7114 39.9481 18.7530 0.0000 0.0000 0.3363
# 3 18.7530 18.7530 87.6142 0.0000 0.0000 0.0000
# 4 0.0000 0.0000 0.0000 14.9890 0.0000 0.0000
# 5 0.0000 0.0000 0.0000 0.0000 14.9890 0.0000
# 6 -0.3363 0.3363 0.0000 0.0000 0.0000 29.2457
#
#
#
# Elastic Compliance Matrix: (Units=1/GPa)
#
#
# Indices 1 2 3 4 5 6 
#
# 1 0.034401 -0.015033 -0.004146 0.000000 0.000000 0.000568
# 2 -0.015033 0.034401 -0.004146 0.000000 0.000000 -0.000568
# 3 -0.004146 -0.004146 0.013188 0.000000 0.000000 0.000000
# 4 0.000000 0.000000 0.000000 0.066716 0.000000 0.000000
# 5 0.000000 0.000000 0.000000 0.000000 0.066716 0.000000
# 6 0.000568 -0.000568 0.000000 0.000000 0.000000 0.034206
#
#
# Mechanical properties :
#
#
# Convention : Reuss Voigt Hill
#
# Bulk Modulus (GPa) = 28.29486 31.32724 29.81105
# Shear Modulus (GPa) = 16.23078 19.19761 17.71420
#
# Velocity S-wave (km/s) = 2.86121 3.11174 2.98910
# Velocity P-wave (km/s) = 5.01864 5.35831 5.19126
#
# Compressibility (1/GPa) = 0.03534211
#
# Stress axis : x y z
#
# Youngs Moduli (GPa) = 29.06888 29.06888 75.82479
#
# Poissons Ratio (x) = 0.43699 0.31433
# Poissons Ratio (y) = 0.43699 0.31433
# Poissons Ratio (z) = 0.12051 0.12051
#
# Static dielectric constant tensor:
#      x y z
#    x 1.723390 0.000000 0.000000 
#    y 0.000000 1.723390 0.000000 
#    z 0.000000 0.000000 1.736350 
# 
# From -- ./inp_files/484.got.cif
#   From: 2010.05.17/outbox.cif.g08.bks.cpg/sg82_1_cif.got.tgz:484.got - 2010.06.03 18:52:26.
