data_PCOD9542523
_publ_section_title
;
Structure prediction by ZEFSAII (Michael W. Deem and Ramdas Pophale) SiO2 
 PCOD9542523
Probable space group: P -4
;
_chemical_formula_sum "Si O2"
_cell_formula_units_Z 17
_cell_length_a 10.997758
_cell_length_b 10.997758
_cell_length_c 6.686183
_cell_angle_alpha 90.000000
_cell_angle_beta 90.000000
_cell_angle_gamma 90.000000
_cell_volume 808.698387
_symmetry_space_group_name_H-M "P -4"
_symmetry_group_IT_number 81
_symmetry_cell_setting 'tetragonal'
loop_
_space_group_symop_operation_xyz
x,y,z
y,-x,-z
-x,-y,z
-y,x,-z
loop_
_atom_site_type_symbol
_atom_site_label
_atom_site_fract_x
_atom_site_fract_y
_atom_site_fract_z
Si Si1 0.971291 0.356779 0.354608
Si Si2 0.500000 0.500000 0.500000
Si Si3 0.791809 0.392458 0.997484
Si Si4 0.700929 0.584921 0.736497
Si Si5 0.773371 0.762246 0.384010
O O1 0.753912 0.657009 0.550553
O O2 0.000000 0.500000 0.411993
O O3 0.085406 0.265696 0.340446
O O4 0.905106 0.368022 0.139766
O O5 0.616096 0.482416 0.638495
O O6 0.795055 0.520731 0.883021
O O7 0.767056 0.291116 0.830794
O O8 0.674840 0.387146 0.142797
O O9 0.711588 0.878291 0.494887
#
# Coordination Sequence:
#
# PCOD9542523 Si02
#       5
#     4   1   4   4   4
#     4  11  26  45  72 103 140 190 241 300 360 424
#     4  12  20  34  64  96 146 176 216 290 360 440
#     4  11  23  40  66  98 139 180 238 290 360 430
#     4  11  22  37  63 101 138 182 225 291 362 436
#     4  11  25  46  68  98 140 187 242 293 357 420
#
# _framework density 21.021436000000001
#
# number of rings (size 3 to 8) (size 9 to 14) (size 15 to 20)
#    0.000    0.941    2.353    4.235    3.294    7.059 
#    0.000    0.000    0.000    0.000    0.000    0.000 
#    0.000    0.000    0.000    0.000    0.000    0.000 
#
# Total GULP energy -94779.487560 kJ/mol
# GULP energy per Si atom -5575.263974 kJ/mol
# Density = 2.097359 g / cm^3
# Si number density = 21.021436 Si / 1000 Ang^3
#
#
#
# Elastic Constant Matrix: (Units=GPa)
#
#
# Indices 1 2 3 4 5 6 
#
# 1 112.3100 44.5166 47.4194 0.0000 0.0000 -11.1933
# 2 44.5166 112.3100 47.4194 0.0000 0.0000 11.1933
# 3 47.4194 47.4194 115.5595 0.0000 0.0000 0.0000
# 4 0.0000 0.0000 0.0000 25.7643 0.0000 0.0000
# 5 0.0000 0.0000 0.0000 0.0000 25.7643 0.0000
# 6 -11.1933 11.1933 0.0000 0.0000 0.0000 26.9060
#
#
#
# Elastic Compliance Matrix: (Units=1/GPa)
#
#
# Indices 1 2 3 4 5 6 
#
# 1 0.012790 -0.004309 -0.003480 0.000000 0.000000 0.007114
# 2 -0.004309 0.012790 -0.003480 0.000000 0.000000 -0.007114
# 3 -0.003480 -0.003480 0.011510 0.000000 0.000000 0.000000
# 4 0.000000 0.000000 0.000000 0.038813 0.000000 0.000000
# 5 0.000000 0.000000 0.000000 0.000000 0.038813 0.000000
# 6 0.007114 -0.007114 0.000000 0.000000 0.000000 0.043085
#
#
# Mechanical properties :
#
#
# Convention : Reuss Voigt Hill
#
# Bulk Modulus (GPa) = 68.72313 68.76555 68.74434
# Shear Modulus (GPa) = 26.99895 29.07521 28.03708
#
# Velocity S-wave (km/s) = 3.58768 3.72307 3.65600
# Velocity P-wave (km/s) = 7.06575 7.15994 7.11300
#
# Compressibility (1/GPa) = 0.01455114
#
# Stress axis : x y z
#
# Youngs Moduli (GPa) = 78.18344 78.18344 86.88325
#
# Poissons Ratio (x) = 0.33692 0.30237
# Poissons Ratio (y) = 0.33692 0.30237
# Poissons Ratio (z) = 0.27209 0.27209
#
# Static dielectric constant tensor:
#      x y z
#    x 1.803930 0.000000 0.000000 
#    y 0.000000 1.803930 0.000000 
#    z 0.000000 0.000000 1.755460 
# 
# From -- ./inp_files/220.got.cif
#   From: 2010.05.17/outbox.cif.g08.bks.cpg/sg81_cif.got.tgz:220.got - 2010.06.03 18:51:07.
