data_PCOD9542462
_publ_section_title
;
Structure prediction by ZEFSAII (Michael W. Deem and Ramdas Pophale) SiO2 
 PCOD9542462
Probable space group: P -4
;
_chemical_formula_sum "Si O2"
_cell_formula_units_Z 21
_cell_length_a 8.326123
_cell_length_b 8.326123
_cell_length_c 13.732930
_cell_angle_alpha 90.000000
_cell_angle_beta 90.000000
_cell_angle_gamma 90.000000
_cell_volume 952.026092
_symmetry_space_group_name_H-M "P -4"
_symmetry_group_IT_number 81
_symmetry_cell_setting 'tetragonal'
loop_
_space_group_symop_operation_xyz
x,y,z
y,-x,-z
-x,-y,z
-y,x,-z
loop_
_atom_site_type_symbol
_atom_site_label
_atom_site_fract_x
_atom_site_fract_y
_atom_site_fract_z
Si Si1 0.323838 0.946961 0.122676
Si Si2 0.000000 0.000000 0.000000
Si Si3 0.167089 0.404989 0.588230
Si Si4 0.622151 0.623814 0.770596
Si Si5 0.585785 0.171000 0.626524
Si Si6 0.825271 0.954031 0.314805
O O1 0.321377 0.759718 0.155516
O O2 0.500000 0.000000 0.084238
O O3 0.296692 0.039643 0.224726
O O4 0.168562 0.985508 0.058250
O O5 0.284240 0.449307 0.676304
O O6 0.241950 0.429864 0.482522
O O7 0.000000 0.500000 0.593667
O O8 0.096731 0.226428 0.610731
O O9 0.500000 0.500000 0.818332
O O10 0.508472 0.751340 0.716544
O O11 0.775970 0.166648 0.643764
O O12 0.500000 0.000000 0.617206
O O13 0.000000 0.000000 0.276144
#
# Coordination Sequence:
#
# PCOD9542462 Si02
#       6
#     4   1   4   4   4   4
#     4  11  25  53  79 110 146 190 238 312 406 466
#     4  12  28  56  88 120 150 184 252 336 392 508
#     4  10  23  36  55  90 140 194 248 295 349 412
#     4  11  23  42  67 101 145 193 239 299 366 446
#     4  11  24  34  58 100 136 193 253 300 349 427
#     4  11  22  41  67  92 140 195 245 307 372 444
#
# _framework density 22.058221
#
# number of rings (size 3 to 8) (size 9 to 14) (size 15 to 20)
#    0.000    1.143    0.952    6.857   10.667    0.000 
#    6.857    0.000    0.000    0.000    0.000    0.000 
#    0.000    0.000    0.000    0.000    0.000    0.000 
#
# Total GULP energy -117245.631300 kJ/mol
# GULP energy per Si atom -5583.125300 kJ/mol
# Density = 2.200802 g / cm^3
# Si number density = 22.058221 Si / 1000 Ang^3
#
#
#
# Elastic Constant Matrix: (Units=GPa)
#
#
# Indices 1 2 3 4 5 6 
#
# 1 117.7021 22.1589 31.7403 0.0000 0.0000 7.2799
# 2 22.1589 117.7021 31.7403 0.0000 0.0000 -7.2799
# 3 31.7403 31.7403 61.1672 0.0000 0.0000 0.0000
# 4 0.0000 0.0000 0.0000 -96.4943 0.0000 0.0000
# 5 0.0000 0.0000 0.0000 0.0000 -96.4943 0.0000
# 6 7.2799 -7.2799 0.0000 0.0000 0.0000 39.8331
#
#
#
# Elastic Compliance Matrix: (Units=1/GPa)
#
#
# Indices 1 2 3 4 5 6 
#
# 1 0.010060 -0.000707 -0.004853 0.000000 0.000000 -0.001968
# 2 -0.000707 0.010060 -0.004853 0.000000 0.000000 0.001968
# 3 -0.004853 -0.004853 0.021385 0.000000 0.000000 0.000000
# 4 0.000000 0.000000 0.000000 -0.010363 0.000000 0.000000
# 5 0.000000 0.000000 0.000000 0.000000 -0.010363 0.000000
# 6 -0.001968 0.001968 0.000000 0.000000 0.000000 0.025824
#
#
# Mechanical properties :
#
#
# Convention : Reuss Voigt Hill
#
# Bulk Modulus (GPa) = 48.36066 51.98339 50.17203
# Shear Modulus (GPa) = 67.27561 -16.56898 25.35331
#
# Velocity S-wave (km/s) = 5.52859 -2.74368 3.39393
# Velocity P-wave (km/s) = 7.91994 3.68518 6.17681
#
# Compressibility (1/GPa) = 0.02067796
#
# Stress axis : x y z
#
# Youngs Moduli (GPa) = 99.40802 99.40802 46.76075
#
# Poissons Ratio (x) = 0.07026 0.22694
# Poissons Ratio (y) = 0.07026 0.22694
# Poissons Ratio (z) = 0.48245 0.48245
#
# Static dielectric constant tensor:
#      x y z
#    x 2.154320 0.000000 0.000000 
#    y 0.000000 2.154320 0.000000 
#    z 0.000000 0.000000 1.774820 
# 
# From -- ./inp_files/1505.got.cif
#   From: 2010.05.17/outbox.cif.g08.bks.cpg/sg81_cif.got.tgz:1505.got - 2010.06.03 18:51:07.
