data_PCOD9542920
_publ_section_title
;
Structure prediction by ZEFSAII (Michael W. Deem and Ramdas Pophale) SiO2 
 PCOD9542920
Probable space group: I -4 
;
_chemical_formula_sum "Si O2"
_cell_formula_units_Z 28
_cell_length_a 8.941547
_cell_length_b 8.941547
_cell_length_c 17.474025
_cell_angle_alpha 90.000000
_cell_angle_beta 90.000000
_cell_angle_gamma 90.000000
_cell_volume 1397.070364
_symmetry_space_group_name_H-M "I -4 "
_symmetry_group_IT_number 82
_symmetry_cell_setting 'tetragonal'
loop_
_space_group_symop_operation_xyz
x,y,z
y,-x,-z
-x,-y,z
-y,x,-z
1/2+x,1/2+y,1/2+z
1/2+y,1/2-x,1/2-z
1/2-x,1/2-y,1/2+z
1/2-y,1/2+x,1/2-z
loop_
_atom_site_type_symbol
_atom_site_label
_atom_site_fract_x
_atom_site_fract_y
_atom_site_fract_z
Si Si1 0.857297 0.595334 0.551716
Si Si2 0.679254 0.310304 0.601549
Si Si3 0.165356 0.026992 0.344845
Si Si4 0.000000 0.000000 0.195253
O O1 0.750750 0.474070 0.590677
O O2 0.768185 0.660370 0.480038
O O3 0.077334 0.283434 0.611133
O O4 0.000000 0.500000 0.522810
O O5 0.801468 0.213793 0.646068
O O6 0.525662 0.351228 0.644738
O O7 0.000000 0.000000 0.379570
O O8 0.139079 0.997967 0.254891
#
# Coordination Sequence:
#
# PCOD9542920 Si02
#       4
#     8   8   8   4
#     4  10  23  40  68  98 130 179 228 280 342 417
#     4  11  22  42  66  95 134 176 225 284 340 415
#     4   9  24  39  64  96 134 178 222 279 344 415
#     4  10  24  39  63  98 132 176 218 286 336 407
#
# _framework density 20.04194
#
# number of rings (size 3 to 8) (size 9 to 14) (size 15 to 20)
#    0.857    1.143    0.000    1.714   12.000    0.000 
#    5.143    0.000    0.000    0.000    0.000    0.000 
#    0.000    0.000    0.000    0.000    0.000    0.000 
#
# Total GULP energy -78003.825878 kJ/mol
# GULP energy per Si atom -5571.701848 kJ/mol
# Density = 1.999632 g / cm^3
# Si number density = 20.041940 Si / 1000 Ang^3
#
#
#
# Elastic Constant Matrix: (Units=GPa)
#
#
# Indices 1 2 3 4 5 6 
#
# 1 93.1242 34.0573 32.1526 0.0000 0.0000 -3.5569
# 2 34.0573 93.1242 32.1526 0.0000 0.0000 3.5569
# 3 32.1526 32.1526 92.4438 0.0000 0.0000 0.0000
# 4 0.0000 0.0000 0.0000 90.8386 0.0000 0.0000
# 5 0.0000 0.0000 0.0000 0.0000 90.8386 0.0000
# 6 -3.5569 3.5569 0.0000 0.0000 0.0000 34.0871
#
#
#
# Elastic Compliance Matrix: (Units=1/GPa)
#
#
# Indices 1 2 3 4 5 6 
#
# 1 0.013343 -0.003802 -0.003318 0.000000 0.000000 0.001789
# 2 -0.003802 0.013343 -0.003318 0.000000 0.000000 -0.001789
# 3 -0.003318 -0.003318 0.013126 0.000000 0.000000 0.000000
# 4 0.000000 0.000000 0.000000 0.011009 0.000000 0.000000
# 5 0.000000 0.000000 0.000000 0.000000 0.011009 0.000000
# 6 0.001789 -0.001789 0.000000 0.000000 0.000000 0.029710
#
#
# Mechanical properties :
#
#
# Convention : Reuss Voigt Hill
#
# Bulk Modulus (GPa) = 52.81601 52.82411 52.82006
# Shear Modulus (GPa) = 42.11313 55.17484 48.64398
#
# Velocity S-wave (km/s) = 4.58891 5.25257 4.93192
# Velocity P-wave (km/s) = 7.38156 7.94984 7.67096
#
# Compressibility (1/GPa) = 0.01893365
#
# Stress axis : x y z
#
# Youngs Moduli (GPa) = 74.94569 74.94569 76.18691
#
# Poissons Ratio (x) = 0.28498 0.25281
# Poissons Ratio (y) = 0.28498 0.25281
# Poissons Ratio (z) = 0.24869 0.24869
#
# Static dielectric constant tensor:
#      x y z
#    x 1.530680 0.000000 0.000000 
#    y 0.000000 1.530680 0.000000 
#    z 0.000000 0.000000 1.726980 
# 
# From -- ./inp_files/2468.got.cif
#   From: 2010.05.17/outbox.cif.g08.bks.cpg/sg82_2_cif.got.tgz:2468.got - 2010.06.03 18:52:26.
