data_PCOD9542233
_publ_section_title
;
Structure prediction by ZEFSAII (Michael W. Deem and Ramdas Pophale) SiO2 
 PCOD9542233
Probable space group: I 41
;
_chemical_formula_sum "Si O2"
_cell_formula_units_Z 24
_cell_length_a 7.953213
_cell_length_b 7.953213
_cell_length_c 17.298813
_cell_angle_alpha 90.000000
_cell_angle_beta 90.000000
_cell_angle_gamma 90.000000
_cell_volume 1094.212146
_symmetry_space_group_name_H-M "I 41"
_symmetry_group_IT_number 80
_symmetry_cell_setting 'tetragonal'
loop_
_space_group_symop_operation_xyz
x,y,z
-y,1/2+x,1/4+z
-x,-y,z
y,1/2-x,1/4+z
1/2+x,1/2+y,1/2+z
1/2-y,x,3/4+z
1/2-x,1/2-y,1/2+z
1/2+y,-x,3/4+z
loop_
_atom_site_type_symbol
_atom_site_label
_atom_site_fract_x
_atom_site_fract_y
_atom_site_fract_z
Si Si1 0.500000 0.500000 0.190861
Si Si2 0.821862 0.053157 0.335967
Si Si3 0.500000 0.500000 0.690860
Si Si4 0.053134 0.821859 0.045758
O O1 0.496883 0.663906 0.136341
O O2 0.336095 0.503108 0.245381
O O3 0.818323 0.250015 0.315870
O O4 0.000000 0.000000 0.374005
O O5 0.844014 0.980793 0.249351
O O6 0.480741 0.344019 0.632368
O O7 0.000000 0.000000 0.007715
#
# Coordination Sequence:
#
# PCOD9542233 Si02
#       4
#     4   8   4   8
#     4  12  26  50  84 122 144 204 278 318 378 472
#     4  10  24  50  79 111 157 201 261 317 396 457
#     4   8  22  50  70 102 158 204 238 320 390 450
#     4  10  24  50  79 111 157 201 261 317 396 457
#
# _framework density 21.933586999999999
#
# number of rings (size 3 to 8) (size 9 to 14) (size 15 to 20)
#    2.000    0.000    0.000    2.000    0.000    5.333 
#   24.000    0.000    0.000    0.000    0.000    0.000 
#    0.000    0.000    0.000    0.000    0.000    0.000 
#
# Total GULP energy -66828.270430 kJ/mol
# GULP energy per Si atom -5569.022536 kJ/mol
# Density = 2.188367 g / cm^3
# Si number density = 21.933587 Si / 1000 Ang^3
#
#
#
# Elastic Constant Matrix: (Units=GPa)
#
#
# Indices 1 2 3 4 5 6 
#
# 1 144.1832 125.2292 100.8712 0.0000 0.0000 -0.0051
# 2 125.2292 144.1832 100.8712 0.0000 0.0000 0.0051
# 3 100.8712 100.8712 185.1407 0.0000 0.0000 0.0000
# 4 0.0000 0.0000 0.0000 93.3896 0.0000 0.0000
# 5 0.0000 0.0000 0.0000 0.0000 93.3896 0.0000
# 6 -0.0051 0.0051 0.0000 0.0000 0.0000 24.3856
#
#
#
# Elastic Compliance Matrix: (Units=1/GPa)
#
#
# Indices 1 2 3 4 5 6 
#
# 1 0.029514 -0.023245 -0.003416 0.000000 0.000000 0.000011
# 2 -0.023245 0.029514 -0.003416 0.000000 0.000000 -0.000011
# 3 -0.003416 -0.003416 0.009124 0.000000 0.000000 0.000000
# 4 0.000000 0.000000 0.000000 0.010708 0.000000 0.000000
# 5 0.000000 0.000000 0.000000 0.000000 0.010708 0.000000
# 6 0.000011 -0.000011 0.000000 0.000000 0.000000 0.041008
#
#
# Mechanical properties :
#
#
# Convention : Reuss Voigt Hill
#
# Bulk Modulus (GPa) = 125.01305 125.27227 125.14266
# Shear Modulus (GPa) = 25.85372 52.00200 38.92786
#
# Velocity S-wave (km/s) = 3.43698 4.87446 4.21741
# Velocity P-wave (km/s) = 8.53642 9.42967 8.99414
#
# Compressibility (1/GPa) = 0.00799917
#
# Stress axis : x y z
#
# Youngs Moduli (GPa) = 33.88168 33.88168 109.60597
#
# Poissons Ratio (x) = 0.78757 0.37441
# Poissons Ratio (y) = 0.78757 0.37441
# Poissons Ratio (z) = 0.11574 0.11574
#
# Static dielectric constant tensor:
#      x y z
#    x 1.824630 0.000000 0.000000 
#    y 0.000000 1.824630 0.000000 
#    z 0.000000 0.000000 1.860460 
# 
# From -- ./inp_files/1431.got.cif
#   From: 2010.05.17/outbox.cif.g08.bks.cpg/sg80_cif.got.tgz:1431.got - 2010.06.03 18:49:13.
