data_PCOD9542639
_publ_section_title
;
Structure prediction by ZEFSAII (Michael W. Deem and Ramdas Pophale) SiO2 
 PCOD9542639
Probable space group: I -4 
;
_chemical_formula_sum "Si O2"
_cell_formula_units_Z 34
_cell_length_a 8.538195
_cell_length_b 8.538195
_cell_length_c 18.550802
_cell_angle_alpha 90.000000
_cell_angle_beta 90.000000
_cell_angle_gamma 90.000000
_cell_volume 1352.367821
_symmetry_space_group_name_H-M "I -4 "
_symmetry_group_IT_number 82
_symmetry_cell_setting 'tetragonal'
loop_
_space_group_symop_operation_xyz
x,y,z
y,-x,-z
-x,-y,z
-y,x,-z
1/2+x,1/2+y,1/2+z
1/2+y,1/2-x,1/2-z
1/2-x,1/2-y,1/2+z
1/2-y,1/2+x,1/2-z
loop_
_atom_site_type_symbol
_atom_site_label
_atom_site_fract_x
_atom_site_fract_y
_atom_site_fract_z
Si Si1 0.000000 0.000000 0.500000
Si Si2 0.921280 0.169893 0.833060
Si Si3 0.945754 0.754598 0.973169
Si Si4 0.608785 0.782844 0.781315
Si Si5 0.096804 0.727859 0.414610
O O1 0.900142 0.892574 0.552832
O O2 0.874328 0.190608 0.749107
O O3 0.748264 0.183305 0.867861
O O4 0.026525 0.269963 0.888100
O O5 0.000000 0.000000 0.840553
O O6 0.880513 0.608458 0.016009
O O7 0.104867 0.821592 0.009921
O O8 0.441076 0.798749 0.738673
O O9 0.555160 0.783513 0.864022
#
# Coordination Sequence:
#
# PCOD9542639 Si02
#       5
#     2   8   8   8   8
#     4  12  28  44  56  88 152 192 202 272 364 432
#     4  10  18  36  67  96 119 162 236 293 317 392
#     4   9  15  34  61  94 118 151 225 294 326 368
#     4   9  20  38  60  96 133 178 221 277 343 417
#     4  10  22  41  58  92 135 178 216 273 357 401
#
# _framework density 25.141089000000001
#
# number of rings (size 3 to 8) (size 9 to 14) (size 15 to 20)
#    0.000    2.353    4.706    0.000    1.647    1.882 
#   21.176    0.000    0.000    0.000    0.000    0.000 
#    0.000    0.000    0.000    0.000    0.000    0.000 
#
# Total GULP energy -94862.045693 kJ/mol
# GULP energy per Si atom -5580.120335 kJ/mol
# Density = 2.508387 g / cm^3
# Si number density = 25.141089 Si / 1000 Ang^3
#
#
#
# Elastic Constant Matrix: (Units=GPa)
#
#
# Indices 1 2 3 4 5 6 
#
# 1 56.3828 35.2387 42.6252 0.0000 0.0000 4.8231
# 2 35.2387 56.3828 42.6252 0.0000 0.0000 -4.8231
# 3 42.6252 42.6252 152.9596 0.0000 0.0000 0.0000
# 4 0.0000 0.0000 0.0000 36.4501 0.0000 0.0000
# 5 0.0000 0.0000 0.0000 0.0000 36.4501 0.0000
# 6 4.8231 -4.8231 0.0000 0.0000 0.0000 25.7109
#
#
#
# Elastic Compliance Matrix: (Units=1/GPa)
#
#
# Indices 1 2 3 4 5 6 
#
# 1 0.033228 -0.018493 -0.004106 0.000000 0.000000 -0.009702
# 2 -0.018493 0.033228 -0.004106 0.000000 0.000000 0.009702
# 3 -0.004106 -0.004106 0.008826 0.000000 0.000000 0.000000
# 4 0.000000 0.000000 0.000000 0.027435 0.000000 0.000000
# 5 0.000000 0.000000 0.000000 0.000000 0.027435 0.000000
# 6 -0.009702 0.009702 0.000000 0.000000 0.000000 0.042534
#
#
# Mechanical properties :
#
#
# Convention : Reuss Voigt Hill
#
# Bulk Modulus (GPa) = 45.72139 56.30042 51.01090
# Shear Modulus (GPa) = 21.42362 29.40462 25.41412
#
# Velocity S-wave (km/s) = 2.92230 3.42363 3.18285
# Velocity P-wave (km/s) = 5.44168 6.17015 5.81733
#
# Compressibility (1/GPa) = 0.02187160
#
# Stress axis : x y z
#
# Youngs Moduli (GPa) = 30.09505 30.09505 113.29840
#
# Poissons Ratio (x) = 0.55654 0.46523
# Poissons Ratio (y) = 0.55654 0.46523
# Poissons Ratio (z) = 0.12358 0.12358
#
# Static dielectric constant tensor:
#      x y z
#    x 2.023840 0.000000 0.000000 
#    y 0.000000 2.023840 0.000000 
#    z 0.000000 0.000000 2.086810 
# 
# From -- ./inp_files/2974.got.cif
#   From: 2010.05.17/outbox.cif.g08.bks.cpg/sg82_2_cif.got.tgz:2974.got - 2010.06.03 18:52:26.
