data_PCOD9542055
_publ_section_title
;
Structure prediction by ZEFSAII (Michael W. Deem and Ramdas Pophale) SiO2 
 PCOD9542055
Probable space group: I 41
;
_chemical_formula_sum "Si O2"
_cell_formula_units_Z 60
_cell_length_a 11.531007
_cell_length_b 11.531007
_cell_length_c 27.889762
_cell_angle_alpha 90.000000
_cell_angle_beta 90.000000
_cell_angle_gamma 90.000000
_cell_volume 3708.337729
_symmetry_space_group_name_H-M "I 41"
_symmetry_group_IT_number 80
_symmetry_cell_setting 'tetragonal'
loop_
_space_group_symop_operation_xyz
x,y,z
-y,1/2+x,1/4+z
-x,-y,z
y,1/2-x,1/4+z
1/2+x,1/2+y,1/2+z
1/2-y,x,3/4+z
1/2-x,1/2-y,1/2+z
1/2+y,-x,3/4+z
loop_
_atom_site_type_symbol
_atom_site_label
_atom_site_fract_x
_atom_site_fract_y
_atom_site_fract_z
Si Si1 0.000000 0.500000 0.744200
Si Si2 0.041812 0.868848 0.650286
Si Si3 0.797884 0.658199 0.708369
Si Si4 0.378960 0.878153 0.510618
Si Si5 0.128490 0.035187 0.279976
Si Si6 0.185936 0.265969 0.607824
Si Si7 0.644337 0.858708 0.532467
Si Si8 0.150624 0.815142 0.555181
O O1 0.914910 0.581179 0.713378
O O2 0.919272 0.418471 0.777561
O O3 0.089962 0.854996 0.704503
O O4 0.141633 0.843909 0.611392
O O5 0.927090 0.800675 0.630647
O O6 0.000000 0.000000 0.647956
O O7 0.699215 0.590537 0.736620
O O8 0.759313 0.678683 0.654558
O O9 0.824019 0.778065 0.736365
O O10 0.508526 0.830233 0.521474
O O11 0.276721 0.802165 0.532602
O O12 0.361631 0.002445 0.536577
O O13 0.140301 0.129468 0.322328
O O14 0.200372 0.923428 0.296477
O O15 0.000000 0.000000 0.268341
O O16 0.279794 0.192899 0.576793
#
# Coordination Sequence:
#
# PCOD9542055 Si02
#       8
#     4   8   8   8   8   8   8   8
#     4  10  16  28  52  84 104 124 174 228 284 298
#     4  11  17  29  53  79 109 140 165 217 280 312
#     4  10  18  33  55  79 106 139 172 223 263 325
#     4  11  19  32  50  80 116 140 174 217 268 316
#     4   9  21  36  53  77 105 138 174 224 268 308
#     4  10  19  32  54  77 103 143 179 209 264 323
#     4  10  19  31  49  77 113 144 168 211 257 322
#     4  10  19  31  52  78 111 136 170 225 265 323
#
# _framework density 16.179756000000001
#
# number of rings (size 3 to 8) (size 9 to 14) (size 15 to 20)
#    0.000    1.867    4.667    1.600    0.933    0.000 
#    2.400    1.333    0.000    2.400    0.000    0.000 
#    0.000    0.000    0.000    0.000    0.000    0.000 
#
# Total GULP energy -167011.498574 kJ/mol
# GULP energy per Si atom -5567.049952 kJ/mol
# Density = 1.614293 g / cm^3
# Si number density = 16.179756 Si / 1000 Ang^3
#
#
#
# Elastic Constant Matrix: (Units=GPa)
#
#
# Indices 1 2 3 4 5 6 
#
# 1 85.2192 32.3527 38.5187 0.0000 0.0000 0.5893
# 2 32.3527 85.2192 38.5187 0.0000 0.0000 -0.5893
# 3 38.5187 38.5187 116.3256 0.0000 0.0000 0.0000
# 4 0.0000 0.0000 0.0000 11.7865 0.0000 0.0000
# 5 0.0000 0.0000 0.0000 0.0000 11.7865 0.0000
# 6 0.5893 -0.5893 0.0000 0.0000 0.0000 13.1185
#
#
#
# Elastic Compliance Matrix: (Units=1/GPa)
#
#
# Indices 1 2 3 4 5 6 
#
# 1 0.014898 -0.004036 -0.003597 0.000000 0.000000 -0.000851
# 2 -0.004036 0.014898 -0.003597 0.000000 0.000000 0.000851
# 3 -0.003597 -0.003597 0.010979 0.000000 0.000000 0.000000
# 4 0.000000 0.000000 0.000000 0.084843 0.000000 0.000000
# 5 0.000000 0.000000 0.000000 0.000000 0.084843 0.000000
# 6 -0.000851 0.000851 0.000000 0.000000 0.000000 0.076305
#
#
# Mechanical properties :
#
#
# Convention : Reuss Voigt Hill
#
# Bulk Modulus (GPa) = 54.59768 56.17159 55.38464
# Shear Modulus (GPa) = 15.85635 19.16319 17.50977
#
# Velocity S-wave (km/s) = 3.13391 3.44523 3.29325
# Velocity P-wave (km/s) = 6.84930 7.11469 6.98325
#
# Compressibility (1/GPa) = 0.01831580
#
# Stress axis : x y z
#
# Youngs Moduli (GPa) = 67.12144 67.12144 91.08666
#
# Poissons Ratio (x) = 0.27091 0.32762
# Poissons Ratio (y) = 0.27091 0.32762
# Poissons Ratio (z) = 0.24142 0.24142
#
# Static dielectric constant tensor:
#      x y z
#    x 1.554660 0.000000 0.000000 
#    y 0.000000 1.554660 0.000000 
#    z 0.000000 0.000000 1.576750 
# 
# From -- ./inp_files/2374.got.cif
#   From: 2010.05.17/outbox.cif.g08.bks.cpg/sg80_cif.got.tgz:2374.got - 2010.06.03 18:49:13.
