data_PCOD9542431
_publ_section_title
;
Structure prediction by ZEFSAII (Michael W. Deem and Ramdas Pophale) SiO2 
 PCOD9542431
Probable space group: P -4
;
_chemical_formula_sum "Si O2"
_cell_formula_units_Z 17
_cell_length_a 11.271058
_cell_length_b 11.271058
_cell_length_c 4.773191
_cell_angle_alpha 90.000000
_cell_angle_beta 90.000000
_cell_angle_gamma 90.000000
_cell_volume 606.370664
_symmetry_space_group_name_H-M "P -4"
_symmetry_group_IT_number 81
_symmetry_cell_setting 'tetragonal'
loop_
_space_group_symop_operation_xyz
x,y,z
y,-x,-z
-x,-y,z
-y,x,-z
loop_
_atom_site_type_symbol
_atom_site_label
_atom_site_fract_x
_atom_site_fract_y
_atom_site_fract_z
Si Si1 0.000000 0.000000 0.500000
Si Si2 0.918545 0.604119 0.289987
Si Si3 0.328561 0.123406 0.166257
Si Si4 0.308777 0.499948 0.992313
Si Si5 0.816708 0.172181 0.330472
O O1 0.093616 0.935784 0.304777
O O2 0.876369 0.703080 0.508453
O O3 0.000000 0.500000 0.424343
O O4 0.004526 0.642157 0.020885
O O5 0.792139 0.551792 0.192985
O O6 0.235307 0.192823 0.964592
O O7 0.433163 0.218962 0.215062
O O8 0.265180 0.118463 0.463423
O O9 0.397694 0.601733 0.112831
#
# Coordination Sequence:
#
# PCOD9542431 Si02
#       5
#     1   4   4   4   4
#     4  12  28  42  76 110 152 186 248 294 372 434
#     4  10  23  46  73 109 146 195 240 302 364 438
#     4  11  26  47  74 105 148 191 239 300 366 436
#     4  10  21  46  74 107 142 188 245 302 357 425
#     4  12  26  47  72 108 149 191 241 301 363 438
#
# _framework density 28.035657
#
# number of rings (size 3 to 8) (size 9 to 14) (size 15 to 20)
#    0.000    1.176    4.706    0.000    3.294    0.941 
#    8.471    7.059    0.000    0.000    0.000    0.000 
#    0.000    0.000    0.000    0.000    0.000    0.000 
#
# Total GULP energy -95193.902901 kJ/mol
# GULP energy per Si atom -5599.641347 kJ/mol
# Density = 2.797185 g / cm^3
# Si number density = 28.035657 Si / 1000 Ang^3
#
#
#
# Elastic Constant Matrix: (Units=GPa)
#
#
# Indices 1 2 3 4 5 6 
#
# 1 169.2581 63.3988 20.2418 0.0000 0.0000 6.1727
# 2 63.3988 169.2581 20.2418 0.0000 0.0000 -6.1727
# 3 20.2418 20.2418 108.3915 0.0000 0.0000 0.0000
# 4 0.0000 0.0000 0.0000 33.4422 0.0000 0.0000
# 5 0.0000 0.0000 0.0000 0.0000 33.4422 0.0000
# 6 6.1727 -6.1727 0.0000 0.0000 0.0000 68.9744
#
#
#
# Elastic Compliance Matrix: (Units=1/GPa)
#
#
# Indices 1 2 3 4 5 6 
#
# 1 0.006994 -0.002552 -0.000830 0.000000 0.000000 -0.000854
# 2 -0.002552 0.006994 -0.000830 0.000000 0.000000 0.000854
# 3 -0.000830 -0.000830 0.009536 0.000000 0.000000 0.000000
# 4 0.000000 0.000000 0.000000 0.029902 0.000000 0.000000
# 5 0.000000 0.000000 0.000000 0.000000 0.029902 0.000000
# 6 -0.000854 0.000854 0.000000 0.000000 0.000000 0.014651
#
#
# Mechanical properties :
#
#
# Convention : Reuss Voigt Hill
#
# Bulk Modulus (GPa) = 66.21538 72.74138 69.47838
# Shear Modulus (GPa) = 44.86868 50.04010 47.45439
#
# Velocity S-wave (km/s) = 4.00486 4.22936 4.11864
# Velocity P-wave (km/s) = 6.71228 7.06062 6.88865
#
# Compressibility (1/GPa) = 0.01510223
#
# Stress axis : x y z
#
# Youngs Moduli (GPa) = 142.97291 142.97291 104.86930
#
# Poissons Ratio (x) = 0.36484 0.08700
# Poissons Ratio (y) = 0.36484 0.08700
# Poissons Ratio (z) = 0.11861 0.11861
#
# Static dielectric constant tensor:
#      x y z
#    x 2.259380 0.000000 0.000000 
#    y 0.000000 2.259380 0.000000 
#    z 0.000000 0.000000 2.155630 
# 
# From -- ./inp_files/175.got.cif
#   From: 2010.05.17/outbox.cif.g08.bks.cpg/sg81_cif.got.tgz:175.got - 2010.06.03 18:51:07.
