data_PCOD9542341
_publ_section_title
;
Structure prediction by ZEFSAII (Michael W. Deem and Ramdas Pophale) SiO2 
 PCOD9542341
Probable space group: P -4
;
_chemical_formula_sum "Si O2"
_cell_formula_units_Z 16
_cell_length_a 8.108940
_cell_length_b 8.108940
_cell_length_c 8.927339
_cell_angle_alpha 90.000000
_cell_angle_beta 90.000000
_cell_angle_gamma 90.000000
_cell_volume 587.016354
_symmetry_space_group_name_H-M "P -4"
_symmetry_group_IT_number 81
_symmetry_cell_setting 'tetragonal'
loop_
_space_group_symop_operation_xyz
x,y,z
y,-x,-z
-x,-y,z
-y,x,-z
loop_
_atom_site_type_symbol
_atom_site_label
_atom_site_fract_x
_atom_site_fract_y
_atom_site_fract_z
Si Si1 0.585441 0.674418 0.322209
Si Si2 0.261360 0.358056 0.030664
Si Si3 0.112707 0.265849 0.746748
Si Si4 0.669682 0.908726 0.546182
O O1 0.500000 0.500000 0.300342
O O2 0.448376 0.809168 0.278579
O O3 0.640593 0.721653 0.487732
O O4 0.736831 0.681522 0.206351
O O5 0.116901 0.279228 0.928099
O O6 0.283162 0.557784 0.018128
O O7 0.229269 0.115537 0.696440
O O8 0.984399 0.254046 0.607121
O O9 0.500000 0.000000 0.574790
#
# Coordination Sequence:
#
# PCOD9542341 Si02
#       4
#     4   4   4   4
#     4  10  19  34  63  96 123 161 226 290 330 391
#     4   9  15  32  59  91 117 162 213 279 337 380
#     4  10  21  38  58  86 137 169 217 276 333 409
#     4  10  24  38  58  97 129 178 225 276 346 399
#
# _framework density 27.256484
#
# number of rings (size 3 to 8) (size 9 to 14) (size 15 to 20)
#    0.000    2.250    5.000    0.000    7.000    0.500 
#    0.000    8.750    0.000    0.000    0.000    0.000 
#    0.000    0.000    0.000    0.000    0.000    0.000 
#
# Total GULP energy -89256.122498 kJ/mol
# GULP energy per Si atom -5578.507656 kJ/mol
# Density = 2.719445 g / cm^3
# Si number density = 27.256484 Si / 1000 Ang^3
#
#
#
# Elastic Constant Matrix: (Units=GPa)
#
#
# Indices 1 2 3 4 5 6 
#
# 1 66.6648 7.0554 27.2781 0.0000 0.0000 -0.1754
# 2 7.0554 66.6648 27.2781 0.0000 0.0000 0.1754
# 3 27.2781 27.2781 103.6006 0.0000 0.0000 0.0000
# 4 0.0000 0.0000 0.0000 39.3863 0.0000 0.0000
# 5 0.0000 0.0000 0.0000 0.0000 39.3863 0.0000
# 6 -0.1754 0.1754 0.0000 0.0000 0.0000 23.4849
#
#
#
# Elastic Compliance Matrix: (Units=1/GPa)
#
#
# Indices 1 2 3 4 5 6 
#
# 1 0.016812 0.000036 -0.004436 0.000000 0.000000 0.000125
# 2 0.000036 0.016812 -0.004436 0.000000 0.000000 -0.000125
# 3 -0.004436 -0.004436 0.011988 0.000000 0.000000 0.000000
# 4 0.000000 0.000000 0.000000 0.025390 0.000000 0.000000
# 5 0.000000 0.000000 0.000000 0.000000 0.025390 0.000000
# 6 0.000125 -0.000125 0.000000 0.000000 0.000000 0.042582
#
#
# Mechanical properties :
#
#
# Convention : Reuss Voigt Hill
#
# Bulk Modulus (GPa) = 35.79127 40.01703 37.90415
# Shear Modulus (GPa) = 30.12765 32.13940 31.13353
#
# Velocity S-wave (km/s) = 3.32827 3.43760 3.38338
# Velocity P-wave (km/s) = 5.28485 5.51993 5.40367
#
# Compressibility (1/GPa) = 0.02793977
#
# Stress axis : x y z
#
# Youngs Moduli (GPa) = 59.48084 59.48084 83.41363
#
# Poissons Ratio (x) = -0.00211 0.37002
# Poissons Ratio (y) = -0.00211 0.37002
# Poissons Ratio (z) = 0.26386 0.26386
#
# Static dielectric constant tensor:
#      x y z
#    x 2.263260 0.000000 0.000000 
#    y 0.000000 2.263260 0.000000 
#    z 0.000000 0.000000 2.199350 
# 
# From -- ./inp_files/1032.got.cif
#   From: 2010.05.17/outbox.cif.g08.bks.cpg/sg81_cif.got.tgz:1032.got - 2010.06.03 18:51:07.
