data_PCOD9542968
_publ_section_title
;
Structure prediction by ZEFSAII (Michael W. Deem and Ramdas Pophale) SiO2 
 PCOD9542968
Probable space group: I -4 
;
_chemical_formula_sum "Si O2"
_cell_formula_units_Z 48
_cell_length_a 8.667102
_cell_length_b 8.667102
_cell_length_c 29.196003
_cell_angle_alpha 90.000000
_cell_angle_beta 90.000000
_cell_angle_gamma 90.000000
_cell_volume 2193.164537
_symmetry_space_group_name_H-M "I -4 "
_symmetry_group_IT_number 82
_symmetry_cell_setting 'tetragonal'
loop_
_space_group_symop_operation_xyz
x,y,z
y,-x,-z
-x,-y,z
-y,x,-z
1/2+x,1/2+y,1/2+z
1/2+y,1/2-x,1/2-z
1/2-x,1/2-y,1/2+z
1/2-y,1/2+x,1/2-z
loop_
_atom_site_type_symbol
_atom_site_label
_atom_site_fract_x
_atom_site_fract_y
_atom_site_fract_z
Si Si1 0.623628 0.125758 0.182245
Si Si2 0.312248 0.824707 0.756127
Si Si3 0.183441 0.009658 0.402184
Si Si4 0.393724 0.631385 0.340847
Si Si5 0.687104 0.319849 0.433951
Si Si6 0.658643 0.096999 0.027727
O O1 0.720878 0.211779 0.221628
O O2 0.553973 0.251068 0.147673
O O3 0.500000 0.000000 0.199627
O O4 0.733000 0.016171 0.151581
O O5 0.495047 0.792856 0.757883
O O6 0.235536 0.813843 0.805895
O O7 0.254955 0.126617 0.440210
O O8 0.249246 0.842239 0.414936
O O9 0.000000 0.000000 0.403184
O O10 0.500000 0.500000 0.318795
O O11 0.322836 0.575443 0.388704
O O12 0.793608 0.366313 0.476039
O O13 0.515537 0.289977 0.452766
O O14 0.500000 0.000000 0.028114
#
# Coordination Sequence:
#
# PCOD9542968 Si02
#       6
#     8   8   8   8   8   8
#     4  12  25  48  75 107 144 188 240 300 365 441
#     4  11  28  51  74 107 149 190 245 309 376 449
#     4  11  25  44  72 106 148 187 242 299 361 438
#     4  12  26  47  72 106 144 188 243 301 366 442
#     4  11  25  45  70 104 144 188 242 297 363 429
#     4  10  24  45  68 103 145 186 241 295 357 434
#
# _framework density 21.886185999999999
#
# number of rings (size 3 to 8) (size 9 to 14) (size 15 to 20)
#    0.000    0.833    5.000    0.500   11.667    0.667 
#    3.000    0.000    0.000    0.000    0.000    0.000 
#    0.000    0.000    0.000    0.000    0.000    0.000 
#
# Total GULP energy -134186.023531 kJ/mol
# GULP energy per Si atom -5591.084314 kJ/mol
# Density = 2.183637 g / cm^3
# Si number density = 21.886186 Si / 1000 Ang^3
#
#
#
# Elastic Constant Matrix: (Units=GPa)
#
#
# Indices 1 2 3 4 5 6 
#
# 1 102.0022 38.3969 43.2924 0.0000 0.0000 -0.5244
# 2 38.3969 102.0022 43.2924 0.0000 0.0000 0.5244
# 3 43.2924 43.2924 145.7321 0.0000 0.0000 0.0000
# 4 0.0000 0.0000 0.0000 39.2356 0.0000 0.0000
# 5 0.0000 0.0000 0.0000 0.0000 39.2356 0.0000
# 6 -0.5244 0.5244 0.0000 0.0000 0.0000 27.3240
#
#
#
# Elastic Compliance Matrix: (Units=1/GPa)
#
#
# Indices 1 2 3 4 5 6 
#
# 1 0.012224 -0.003503 -0.002590 0.000000 0.000000 0.000302
# 2 -0.003503 0.012224 -0.002590 0.000000 0.000000 -0.000302
# 3 -0.002590 -0.002590 0.008401 0.000000 0.000000 0.000000
# 4 0.000000 0.000000 0.000000 0.025487 0.000000 0.000000
# 5 0.000000 0.000000 0.000000 0.000000 0.025487 0.000000
# 6 0.000302 -0.000302 0.000000 0.000000 0.000000 0.036609
#
#
# Mechanical properties :
#
#
# Convention : Reuss Voigt Hill
#
# Bulk Modulus (GPa) = 64.60222 66.63331 65.61776
# Shear Modulus (GPa) = 34.97478 36.14269 35.55874
#
# Velocity S-wave (km/s) = 4.00187 4.06814 4.03514
# Velocity P-wave (km/s) = 7.13686 7.25106 7.19418
#
# Compressibility (1/GPa) = 0.01547934
#
# Stress axis : x y z
#
# Youngs Moduli (GPa) = 81.80945 81.80944 119.03346
#
# Poissons Ratio (x) = 0.28661 0.30835
# Poissons Ratio (y) = 0.28661 0.30835
# Poissons Ratio (z) = 0.21192 0.21192
#
# Static dielectric constant tensor:
#      x y z
#    x 1.812360 0.000000 0.000000 
#    y 0.000000 1.812360 0.000000 
#    z 0.000000 0.000000 1.793670 
# 
# From -- ./inp_files/4009.got.cif
#   From: 2010.05.17/outbox.cif.g08.bks.cpg/sg82_3_cif.got.tgz:4009.got - 2010.06.03 18:52:26.
