data_PCOD9542253
_publ_section_title
;
Structure prediction by ZEFSAII (Michael W. Deem and Ramdas Pophale) SiO2 
 PCOD9542253
Probable space group: I 41
;
_chemical_formula_sum "Si O2"
_cell_formula_units_Z 44
_cell_length_a 18.736193
_cell_length_b 18.736193
_cell_length_c 6.161093
_cell_angle_alpha 90.000000
_cell_angle_beta 90.000000
_cell_angle_gamma 90.000000
_cell_volume 2162.820449
_symmetry_space_group_name_H-M "I 41"
_symmetry_group_IT_number 80
_symmetry_cell_setting 'tetragonal'
loop_
_space_group_symop_operation_xyz
x,y,z
-y,1/2+x,1/4+z
-x,-y,z
y,1/2-x,1/4+z
1/2+x,1/2+y,1/2+z
1/2-y,x,3/4+z
1/2-x,1/2-y,1/2+z
1/2+y,-x,3/4+z
loop_
_atom_site_type_symbol
_atom_site_label
_atom_site_fract_x
_atom_site_fract_y
_atom_site_fract_z
Si Si1 0.651876 0.080429 0.723070
Si Si2 0.492355 0.732417 0.868820
Si Si3 0.883165 0.985113 0.966888
Si Si4 0.744742 0.148513 0.375327
Si Si5 0.464629 0.387640 0.137559
Si Si6 0.000000 0.000000 0.322442
O O1 0.571212 0.109593 0.711634
O O2 0.700361 0.136646 0.596399
O O3 0.645856 0.009139 0.581200
O O4 0.687455 0.053022 0.942854
O O5 0.529550 0.801243 0.767177
O O6 0.430890 0.760527 0.035721
O O7 0.549447 0.679979 0.983712
O O8 0.937680 0.970645 0.166847
O O9 0.909435 0.941538 0.754381
O O10 0.811043 0.196630 0.447248
O O11 0.516686 0.436012 0.987114
#
# Coordination Sequence:
#
# PCOD9542253 Si02
#       6
#     8   8   8   8   8   4
#     4  11  21  40  59  91 126 174 230 268 327 401
#     4  11  25  39  62  91 134 171 224 282 340 400
#     4  12  22  38  67  92 133 176 220 288 329 407
#     4  11  26  37  53  82 130 189 230 262 316 397
#     4  11  22  40  63  95 128 168 225 280 338 398
#     4  12  20  40  66  92 128 174 214 270 346 378
#
# _framework density 20.343806000000001
#
# number of rings (size 3 to 8) (size 9 to 14) (size 15 to 20)
#    0.000    0.727    5.455    2.182    7.636    2.909 
#    0.000    0.000    0.000    0.000    0.000    0.000 
#   76.364    0.000    0.000    0.000    0.000    0.000 
#
# Total GULP energy -122629.068454 kJ/mol
# GULP energy per Si atom -5574.048566 kJ/mol
# Density = 2.029750 g / cm^3
# Si number density = 20.343806 Si / 1000 Ang^3
#
#
#
# Elastic Constant Matrix: (Units=GPa)
#
#
# Indices 1 2 3 4 5 6 
#
# 1 82.6101 37.5367 42.6765 0.0000 0.0000 1.7749
# 2 37.5367 82.6101 42.6765 0.0000 0.0000 -1.7749
# 3 42.6765 42.6765 96.8726 0.0000 0.0000 0.0000
# 4 0.0000 0.0000 0.0000 31.2067 0.0000 0.0000
# 5 0.0000 0.0000 0.0000 0.0000 31.2067 0.0000
# 6 1.7749 -1.7749 0.0000 0.0000 0.0000 15.3750
#
#
#
# Elastic Compliance Matrix: (Units=1/GPa)
#
#
# Indices 1 2 3 4 5 6 
#
# 1 0.017252 -0.005138 -0.005337 0.000000 0.000000 -0.002585
# 2 -0.005138 0.017252 -0.005337 0.000000 0.000000 0.002585
# 3 -0.005337 -0.005337 0.015025 0.000000 0.000000 0.000000
# 4 0.000000 0.000000 0.000000 0.032044 0.000000 0.000000
# 5 0.000000 0.000000 0.000000 0.000000 0.032044 0.000000
# 6 -0.002585 0.002585 0.000000 0.000000 0.000000 0.065637
#
#
# Mechanical properties :
#
#
# Convention : Reuss Voigt Hill
#
# Bulk Modulus (GPa) = 55.84599 56.43023 56.13811
# Shear Modulus (GPa) = 23.05770 24.83789 23.94780
#
# Velocity S-wave (km/s) = 3.37026 3.49794 3.43469
# Velocity P-wave (km/s) = 6.53112 6.64173 6.58666
#
# Compressibility (1/GPa) = 0.01790639
#
# Stress axis : x y z
#
# Youngs Moduli (GPa) = 57.96402 57.96402 66.55493
#
# Poissons Ratio (x) = 0.29779 0.35520
# Poissons Ratio (y) = 0.29779 0.35520
# Poissons Ratio (z) = 0.30935 0.30935
#
# Static dielectric constant tensor:
#      x y z
#    x 1.771930 0.000000 0.000000 
#    y 0.000000 1.771930 0.000000 
#    z 0.000000 0.000000 1.782000 
# 
# From -- ./inp_files/265.got.cif
#   From: 2010.05.17/outbox.cif.g08.bks.cpg/sg80_cif.got.tgz:265.got - 2010.06.03 18:49:13.
