data_PCOD9542436
_publ_section_title
;
Structure prediction by ZEFSAII (Michael W. Deem and Ramdas Pophale) SiO2 
 PCOD9542436
Probable space group: P -4
;
_chemical_formula_sum "Si O2"
_cell_formula_units_Z 27
_cell_length_a 9.053095
_cell_length_b 9.053095
_cell_length_c 17.343112
_cell_angle_alpha 90.000000
_cell_angle_beta 90.000000
_cell_angle_gamma 90.000000
_cell_volume 1421.415949
_symmetry_space_group_name_H-M "P -4"
_symmetry_group_IT_number 81
_symmetry_cell_setting 'tetragonal'
loop_
_space_group_symop_operation_xyz
x,y,z
y,-x,-z
-x,-y,z
-y,x,-z
loop_
_atom_site_type_symbol
_atom_site_label
_atom_site_fract_x
_atom_site_fract_y
_atom_site_fract_z
Si Si1 0.646516 0.080119 0.271906
Si Si2 0.776235 0.685390 0.564482
Si Si3 0.668035 0.021893 0.586723
Si Si4 0.500000 0.000000 0.916111
Si Si5 0.836340 0.258999 0.169420
Si Si6 0.074109 0.218169 0.982757
Si Si7 0.500000 0.500000 0.500000
Si Si8 0.089255 0.133984 0.278307
O O1 0.635543 0.129688 0.360963
O O2 0.707368 0.227842 0.230435
O O3 0.500000 0.000000 0.244748
O O4 0.765325 0.951354 0.254948
O O5 0.882243 0.675730 0.490460
O O6 0.629442 0.585665 0.548264
O O7 0.733732 0.857523 0.576042
O O8 0.745966 0.107807 0.656263
O O9 0.500000 0.000000 0.609213
O O10 0.419991 0.121582 0.862261
O O11 0.629658 0.064148 0.970681
O O12 0.785191 0.162904 0.096359
O O13 0.986040 0.195779 0.209806
O O14 0.908981 0.157209 0.968237
O O15 0.000000 0.000000 0.318024
#
# Coordination Sequence:
#
# PCOD9542436 Si02
#       8
#     4   4   4   2   4   4   1   4
#     4  11  25  41  66  98 134 173 221 279 345 395
#     4  12  25  43  63  92 127 177 227 282 340 402
#     4  12  24  39  63  91 123 171 225 280 330 393
#     4  10  22  38  68 100 134 164 216 274 330 400
#     4  10  22  41  65  99 132 169 217 274 325 403
#     4   9  20  37  66  96 122 170 214 262 319 391
#     4  12  28  44  64  88 132 172 230 272 360 428
#     4  10  22  40  62  94 123 166 223 275 318 391
#
# _framework density 18.995144
#
# number of rings (size 3 to 8) (size 9 to 14) (size 15 to 20)
#    0.000    1.333    4.444    1.333   16.593    0.000 
#    0.000    0.000    0.000   14.222    0.000    0.000 
#    0.000    0.000    0.000    0.000    0.000    0.000 
#
# Total GULP energy -150520.631214 kJ/mol
# GULP energy per Si atom -5574.838193 kJ/mol
# Density = 1.895191 g / cm^3
# Si number density = 18.995144 Si / 1000 Ang^3
#
#
#
# Elastic Constant Matrix: (Units=GPa)
#
#
# Indices 1 2 3 4 5 6 
#
# 1 96.2462 39.5711 29.4770 0.0000 0.0000 16.5829
# 2 39.5711 96.2462 29.4770 0.0000 0.0000 -16.5829
# 3 29.4770 29.4770 77.1754 0.0000 0.0000 0.0000
# 4 0.0000 0.0000 0.0000 11.7593 0.0000 0.0000
# 5 0.0000 0.0000 0.0000 0.0000 11.7593 0.0000
# 6 16.5829 -16.5829 0.0000 0.0000 0.0000 -7.8461
#
#
#
# Elastic Compliance Matrix: (Units=1/GPa)
#
#
# Indices 1 2 3 4 5 6 
#
# 1 0.008357 0.000469 -0.003371 0.000000 0.000000 0.016672
# 2 0.000469 0.008357 -0.003371 0.000000 0.000000 -0.016672
# 3 -0.003371 -0.003371 0.015533 0.000000 0.000000 0.000000
# 4 0.000000 0.000000 0.000000 0.085039 0.000000 0.000000
# 5 0.000000 0.000000 0.000000 0.000000 0.085039 0.000000
# 6 0.016672 -0.016672 0.000000 0.000000 0.000000 -0.056979
#
#
# Mechanical properties :
#
#
# Convention : Reuss Voigt Hill
#
# Bulk Modulus (GPa) = 50.76023 51.85753 51.30888
# Shear Modulus (GPa) = 30.40254 14.54400 22.47327
#
# Velocity S-wave (km/s) = 4.00502 2.77007 3.44336
# Velocity P-wave (km/s) = 6.94029 6.13113 6.54822
#
# Compressibility (1/GPa) = 0.01970046
#
# Stress axis : x y z
#
# Youngs Moduli (GPa) = 119.65789 119.65789 64.38034
#
# Poissons Ratio (x) = -0.05612 0.21703
# Poissons Ratio (y) = -0.05612 0.21703
# Poissons Ratio (z) = 0.40338 0.40338
#
# Static dielectric constant tensor:
#      x y z
#    x 1.690650 0.000000 0.000000 
#    y 0.000000 1.690650 0.000000 
#    z 0.000000 0.000000 1.698800 
# 
# From -- ./inp_files/1792.got.cif
#   From: 2010.05.17/outbox.cif.g08.bks.cpg/sg81_cif.got.tgz:1792.got - 2010.06.03 18:51:07.
