data_PCOD9542072
_publ_section_title
;
Structure prediction by ZEFSAII (Michael W. Deem and Ramdas Pophale) SiO2 
 PCOD9542072
Probable space group: I 41
;
_chemical_formula_sum "Si O2"
_cell_formula_units_Z 56
_cell_length_a 21.850558
_cell_length_b 21.850558
_cell_length_c 7.390292
_cell_angle_alpha 90.000000
_cell_angle_beta 90.000000
_cell_angle_gamma 90.000000
_cell_volume 3528.471894
_symmetry_space_group_name_H-M "I 41"
_symmetry_group_IT_number 80
_symmetry_cell_setting 'tetragonal'
loop_
_space_group_symop_operation_xyz
x,y,z
-y,1/2+x,1/4+z
-x,-y,z
y,1/2-x,1/4+z
1/2+x,1/2+y,1/2+z
1/2-y,x,3/4+z
1/2-x,1/2-y,1/2+z
1/2+y,-x,3/4+z
loop_
_atom_site_type_symbol
_atom_site_label
_atom_site_fract_x
_atom_site_fract_y
_atom_site_fract_z
Si Si1 0.871251 0.110512 0.888560
Si Si2 0.288757 0.819927 0.397250
Si Si3 0.930041 0.992280 0.711228
Si Si4 0.262697 0.577404 0.651854
Si Si5 0.518908 0.129093 0.097575
Si Si6 0.050713 0.054491 0.074728
Si Si7 0.449601 0.635858 0.727570
O O1 0.856894 0.153503 0.720635
O O2 0.909573 0.052573 0.821378
O O3 0.808657 0.088406 0.984224
O O4 0.909870 0.144341 0.044441
O O5 0.243835 0.809392 0.564095
O O6 0.253770 0.858003 0.243748
O O7 0.885034 0.989467 0.541354
O O8 0.930455 0.939602 0.864559
O O9 0.000000 0.000000 0.643887
O O10 0.302349 0.539207 0.797822
O O11 0.198554 0.549174 0.588111
O O12 0.471891 0.105254 0.945580
O O13 0.580743 0.087104 0.079444
O O14 0.015634 0.110707 0.166620
O O15 0.000000 0.000000 0.074855
#
# Coordination Sequence:
#
# PCOD9542072 Si02
#       7
#     8   8   8   8   8   8   8
#     4  11  20  33  49  68  95 133 175 224 268 310
#     4  12  23  34  44  62  91 138 193 228 260 303
#     4  11  17  31  55  75  93 124 175 219 274 321
#     4  11  21  34  47  68 100 136 169 225 273 310
#     4  10  20  32  51  71 101 133 170 221 269 310
#     4   9  16  33  49  74  93 122 168 217 268 316
#     4  10  18  33  50  70 100 128 172 218 264 328
#
# _framework density 15.870894
#
# number of rings (size 3 to 8) (size 9 to 14) (size 15 to 20)
#    0.000    1.429    5.714    6.429    0.000    0.000 
#    0.000    0.000    0.000    0.000    0.000    0.000 
#    0.000    0.000    0.000   10.286    0.000    0.000 
#
# Total GULP energy -156187.009533 kJ/mol
# GULP energy per Si atom -5578.107483 kJ/mol
# Density = 1.583477 g / cm^3
# Si number density = 15.870894 Si / 1000 Ang^3
#
#
#
# Elastic Constant Matrix: (Units=GPa)
#
#
# Indices 1 2 3 4 5 6 
#
# 1 48.3467 34.5790 13.6397 0.0000 0.0000 -0.7045
# 2 34.5790 48.3467 13.6397 0.0000 0.0000 0.7045
# 3 13.6397 13.6397 60.3575 0.0000 0.0000 0.0000
# 4 0.0000 0.0000 0.0000 27.5441 0.0000 0.0000
# 5 0.0000 0.0000 0.0000 0.0000 27.5441 0.0000
# 6 -0.7045 0.7045 0.0000 0.0000 0.0000 20.1958
#
#
#
# Elastic Compliance Matrix: (Units=1/GPa)
#
#
# Indices 1 2 3 4 5 6 
#
# 1 0.042961 -0.029933 -0.002944 0.000000 0.000000 0.002543
# 2 -0.029933 0.042961 -0.002944 0.000000 0.000000 -0.002543
# 3 -0.002944 -0.002944 0.017899 0.000000 0.000000 0.000000
# 4 0.000000 0.000000 0.000000 0.036305 0.000000 0.000000
# 5 0.000000 0.000000 0.000000 0.000000 0.036305 0.000000
# 6 0.002543 -0.002543 0.000000 0.000000 0.000000 0.049693
#
#
# Mechanical properties :
#
#
# Convention : Reuss Voigt Hill
#
# Bulk Modulus (GPa) = 31.07756 31.19639 31.13697
# Shear Modulus (GPa) = 16.20789 21.40297 18.80543
#
# Velocity S-wave (km/s) = 3.19914 3.67627 3.44597
# Velocity P-wave (km/s) = 5.76802 6.14158 5.95772
#
# Compressibility (1/GPa) = 0.03217756
#
# Stress axis : x y z
#
# Youngs Moduli (GPa) = 23.27708 23.27708 55.87055
#
# Poissons Ratio (x) = 0.69676 0.16448
# Poissons Ratio (y) = 0.69676 0.16448
# Poissons Ratio (z) = 0.06853 0.06853
#
# Static dielectric constant tensor:
#      x y z
#    x 1.522470 0.000000 0.000000 
#    y 0.000000 1.522470 0.000000 
#    z 0.000000 0.000000 1.589220 
# 
# From -- ./inp_files/790.got.cif
#   From: 2010.05.17/outbox.cif.g08.bks.cpg/sg80_cif.got.tgz:790.got - 2010.06.03 18:49:13.
