data_PCOD9542235
_publ_section_title
;
Structure prediction by ZEFSAII (Michael W. Deem and Ramdas Pophale) SiO2 
 PCOD9542235
Probable space group: I 41
;
_chemical_formula_sum "Si O2"
_cell_formula_units_Z 32
_cell_length_a 14.244306
_cell_length_b 14.244306
_cell_length_c 6.844021
_cell_angle_alpha 90.000000
_cell_angle_beta 90.000000
_cell_angle_gamma 90.000000
_cell_volume 1388.653595
_symmetry_space_group_name_H-M "I 41"
_symmetry_group_IT_number 80
_symmetry_cell_setting 'tetragonal'
loop_
_space_group_symop_operation_xyz
x,y,z
-y,1/2+x,1/4+z
-x,-y,z
y,1/2-x,1/4+z
1/2+x,1/2+y,1/2+z
1/2-y,x,3/4+z
1/2-x,1/2-y,1/2+z
1/2+y,-x,3/4+z
loop_
_atom_site_type_symbol
_atom_site_label
_atom_site_fract_x
_atom_site_fract_y
_atom_site_fract_z
Si Si1 0.125230 0.763546 0.740460
Si Si2 0.551448 0.360206 0.603775
Si Si3 0.005792 0.290634 0.439926
Si Si4 0.823055 0.651257 0.227093
O O1 0.184419 0.674727 0.811133
O O2 0.120805 0.820853 0.938714
O O3 0.023098 0.740703 0.656014
O O4 0.608509 0.451792 0.672401
O O5 0.453142 0.365935 0.487175
O O6 0.529801 0.284629 0.775578
O O7 0.115456 0.300474 0.400192
O O8 0.714282 0.654533 0.288556
#
# Coordination Sequence:
#
# PCOD9542235 Si02
#       4
#     8   8   8   8
#     4  12  22  36  66 100 132 160 200 256 330 386
#     4  11  22  41  64  96 130 162 205 259 317 377
#     4  11  22  41  64  96 130 162 205 259 317 377
#     4  10  25  44  66  86 125 172 218 266 300 362
#
# _framework density 23.043903
#
# number of rings (size 3 to 8) (size 9 to 14) (size 15 to 20)
#    0.000    1.000    5.000    2.250    3.500    0.000 
#    0.000    0.000    0.000    0.000    0.000    0.000 
#    0.000    0.000    0.000    0.000    0.000    0.000 
#
# Total GULP energy -89205.486361 kJ/mol
# GULP energy per Si atom -5575.342898 kJ/mol
# Density = 2.299145 g / cm^3
# Si number density = 23.043903 Si / 1000 Ang^3
#
#
#
# Elastic Constant Matrix: (Units=GPa)
#
#
# Indices 1 2 3 4 5 6 
#
# 1 43.0001 13.5341 2.5688 0.0000 0.0000 11.4837
# 2 13.5341 43.0001 2.5688 0.0000 0.0000 -11.4837
# 3 2.5688 2.5688 46.7033 0.0000 0.0000 0.0000
# 4 0.0000 0.0000 0.0000 32.9825 0.0000 0.0000
# 5 0.0000 0.0000 0.0000 0.0000 32.9825 0.0000
# 6 11.4837 -11.4837 0.0000 0.0000 0.0000 20.1498
#
#
#
# Elastic Compliance Matrix: (Units=1/GPa)
#
#
# Indices 1 2 3 4 5 6 
#
# 1 0.039420 -0.021643 -0.000978 0.000000 0.000000 -0.034801
# 2 -0.021643 0.039420 -0.000978 0.000000 0.000000 0.034801
# 3 -0.000978 -0.000978 0.021519 0.000000 0.000000 0.000000
# 4 0.000000 0.000000 0.000000 0.030319 0.000000 0.000000
# 5 0.000000 0.000000 0.000000 0.000000 0.030319 0.000000
# 6 -0.034801 0.034801 0.000000 0.000000 0.000000 0.089296
#
#
# Mechanical properties :
#
#
# Convention : Reuss Voigt Hill
#
# Bulk Modulus (GPa) = 18.81019 18.89410 18.85214
# Shear Modulus (GPa) = 15.86238 24.82507 20.34373
#
# Velocity S-wave (km/s) = 2.62650 3.28578 2.97446
# Velocity P-wave (km/s) = 4.16875 4.75522 4.47161
#
# Compressibility (1/GPa) = 0.05316268
#
# Stress axis : x y z
#
# Youngs Moduli (GPa) = 25.36775 25.36775 46.46989
#
# Poissons Ratio (x) = 0.54903 0.04544
# Poissons Ratio (y) = 0.54903 0.04544
# Poissons Ratio (z) = 0.02480 0.02480
#
# Static dielectric constant tensor:
#      x y z
#    x 1.942290 0.000000 0.000000 
#    y 0.000000 1.942290 0.000000 
#    z 0.000000 0.000000 1.819850 
# 
# From -- ./inp_files/545.got.cif
#   From: 2010.05.17/outbox.cif.g08.bks.cpg/sg80_cif.got.tgz:545.got - 2010.06.03 18:49:13.
