data_PCOD9542688
_publ_section_title
;
Structure prediction by ZEFSAII (Michael W. Deem and Ramdas Pophale) SiO2 
 PCOD9542688
Probable space group: I -4 
;
_chemical_formula_sum "Si O2"
_cell_formula_units_Z 42
_cell_length_a 7.950593
_cell_length_b 7.950593
_cell_length_c 27.850702
_cell_angle_alpha 90.000000
_cell_angle_beta 90.000000
_cell_angle_gamma 90.000000
_cell_volume 1760.496599
_symmetry_space_group_name_H-M "I -4 "
_symmetry_group_IT_number 82
_symmetry_cell_setting 'tetragonal'
loop_
_space_group_symop_operation_xyz
x,y,z
y,-x,-z
-x,-y,z
-y,x,-z
1/2+x,1/2+y,1/2+z
1/2+y,1/2-x,1/2-z
1/2-x,1/2-y,1/2+z
1/2-y,1/2+x,1/2-z
loop_
_atom_site_type_symbol
_atom_site_label
_atom_site_fract_x
_atom_site_fract_y
_atom_site_fract_z
Si Si1 0.970809 0.687508 0.388879
Si Si2 0.000000 0.500000 0.250000
Si Si3 0.280461 0.336289 0.576751
Si Si4 0.760659 0.746962 0.303263
Si Si5 0.579174 0.769942 0.995868
Si Si6 0.000000 0.000000 0.844437
Si Si7 0.000000 0.500000 0.750000
Si Si8 0.000000 0.000000 0.000000
O O1 0.155893 0.756922 0.399286
O O2 0.000000 0.500000 0.368058
O O3 0.847906 0.790986 0.354642
O O4 0.898446 0.662473 0.442300
O O5 0.917260 0.667296 0.274317
O O6 0.126869 0.378436 0.542034
O O7 0.347972 0.444015 0.620787
O O8 0.426455 0.361137 0.536185
O O9 0.643816 0.584454 0.313363
O O10 0.642623 0.892589 0.280009
O O11 0.699771 0.607746 0.999118
#
# Coordination Sequence:
#
# PCOD9542688 Si02
#       8
#     8   2   8   8   8   4   2   2
#     4  11  20  40  66  99 135 193 260 296 361 456
#     4  12  24  52  88 104 138 196 256 308 404 492
#     4  10  20  34  61  99 145 201 247 300 351 443
#     4  12  26  49  76 110 140 191 246 326 392 480
#     4   9  20  36  56  92 144 197 241 293 354 424
#     4  11  22  41  68 102 148 182 256 300 379 456
#     4  12  32  52  76 116 158 180 248 336 432 452
#     4  10  20  32  56 100 152 204 248 308 360 396
#
# _framework density 23.856907
#
# number of rings (size 3 to 8) (size 9 to 14) (size 15 to 20)
#    0.000    1.333    2.857    2.286    2.667    1.524 
#    0.000    5.714    0.000    0.000    0.000    0.000 
#    0.000    0.000    0.000    0.000    0.000    0.000 
#
# Total GULP energy -117013.427202 kJ/mol
# GULP energy per Si atom -5572.067962 kJ/mol
# Density = 2.380261 g / cm^3
# Si number density = 23.856907 Si / 1000 Ang^3
#
#
#
# Elastic Constant Matrix: (Units=GPa)
#
#
# Indices 1 2 3 4 5 6 
#
# 1 94.3331 54.2237 58.2997 0.0000 0.0000 3.2121
# 2 54.2237 94.3331 58.2997 0.0000 0.0000 -3.2121
# 3 58.2997 58.2997 109.3578 0.0000 0.0000 0.0000
# 4 0.0000 0.0000 0.0000 20.8105 0.0000 0.0000
# 5 0.0000 0.0000 0.0000 0.0000 20.8105 0.0000
# 6 3.2121 -3.2121 0.0000 0.0000 0.0000 41.2286
#
#
#
# Elastic Compliance Matrix: (Units=1/GPa)
#
#
# Indices 1 2 3 4 5 6 
#
# 1 0.018411 -0.006836 -0.006170 0.000000 0.000000 -0.001967
# 2 -0.006836 0.018411 -0.006170 0.000000 0.000000 0.001967
# 3 -0.006170 -0.006170 0.015723 0.000000 0.000000 0.000000
# 4 0.000000 0.000000 0.000000 0.048053 0.000000 0.000000
# 5 0.000000 0.000000 0.000000 0.000000 0.048053 0.000000
# 6 -0.001967 0.001967 0.000000 0.000000 0.000000 0.024562
#
#
# Mechanical properties :
#
#
# Convention : Reuss Voigt Hill
#
# Bulk Modulus (GPa) = 70.46973 71.07444 70.77209
# Shear Modulus (GPa) = 23.11649 25.05000 24.08324
#
# Velocity S-wave (km/s) = 3.11620 3.24390 3.18069
# Velocity P-wave (km/s) = 6.52305 6.62474 6.57409
#
# Compressibility (1/GPa) = 0.01419049
#
# Stress axis : x y z
#
# Youngs Moduli (GPa) = 54.31628 54.31628 63.59953
#
# Poissons Ratio (x) = 0.37131 0.39244
# Poissons Ratio (y) = 0.37131 0.39244
# Poissons Ratio (z) = 0.33516 0.33516
#
# Static dielectric constant tensor:
#      x y z
#    x 1.969020 0.000000 0.000000 
#    y 0.000000 1.969020 0.000000 
#    z 0.000000 0.000000 1.960210 
# 
# From -- ./inp_files/3773.got.cif
#   From: 2010.05.17/outbox.cif.g08.bks.cpg/sg82_2_cif.got.tgz:3773.got - 2010.06.03 18:52:26.
