data_PCOD9542222
_publ_section_title
;
Structure prediction by ZEFSAII (Michael W. Deem and Ramdas Pophale) SiO2 
 PCOD9542222
Probable space group: I 41
;
_chemical_formula_sum "Si O2"
_cell_formula_units_Z 48
_cell_length_a 15.341479
_cell_length_b 15.341479
_cell_length_c 10.532830
_cell_angle_alpha 90.000000
_cell_angle_beta 90.000000
_cell_angle_gamma 90.000000
_cell_volume 2479.017169
_symmetry_space_group_name_H-M "I 41"
_symmetry_group_IT_number 80
_symmetry_cell_setting 'tetragonal'
loop_
_space_group_symop_operation_xyz
x,y,z
-y,1/2+x,1/4+z
-x,-y,z
y,1/2-x,1/4+z
1/2+x,1/2+y,1/2+z
1/2-y,x,3/4+z
1/2-x,1/2-y,1/2+z
1/2+y,-x,3/4+z
loop_
_atom_site_type_symbol
_atom_site_label
_atom_site_fract_x
_atom_site_fract_y
_atom_site_fract_z
Si Si1 0.430396 0.626682 0.080940
Si Si2 0.599541 0.910680 0.141825
Si Si3 0.000000 0.500000 0.029086
Si Si4 0.975962 0.275191 0.774877
Si Si5 0.500000 0.000000 0.926227
Si Si6 0.772110 0.814597 0.062880
Si Si7 0.536862 0.636805 0.479224
O O1 0.436865 0.552043 0.188023
O O2 0.332683 0.611914 0.034979
O O3 0.460039 0.711332 0.156306
O O4 0.499706 0.607787 0.970317
O O5 0.555644 0.838579 0.233438
O O6 0.695330 0.883432 0.093025
O O7 0.535447 0.925984 0.022021
O O8 0.932790 0.551094 0.116719
O O9 0.997198 0.219628 0.903101
O O10 0.582557 0.020018 0.833371
O O11 0.769054 0.750710 0.181476
O O12 0.870926 0.845806 0.045262
#
# Coordination Sequence:
#
# PCOD9542222 Si02
#       7
#     8   8   4   8   4   8   8
#     4  11  22  40  70  94 123 173 218 267 321 391
#     4  12  22  41  68  93 132 172 219 262 333 397
#     4   9  19  40  64  90 117 169 216 252 330 393
#     4  11  23  42  67  93 127 173 220 264 319 400
#     4  11  21  44  60  96 125 183 210 256 326 399
#     4  12  25  39  60 102 136 166 209 278 342 385
#     4  10  24  39  65  91 131 166 216 269 328 388
#
# _framework density 19.362511999999999
#
# number of rings (size 3 to 8) (size 9 to 14) (size 15 to 20)
#    0.000    1.000    5.000    2.000    2.333    1.333 
#    0.000    1.667    3.667    0.000    0.000    0.000 
#    0.000    0.000    0.000    0.000    0.000    0.000 
#
# Total GULP energy -133739.613628 kJ/mol
# GULP energy per Si atom -5572.483901 kJ/mol
# Density = 1.931844 g / cm^3
# Si number density = 19.362512 Si / 1000 Ang^3
#
#
#
# Elastic Constant Matrix: (Units=GPa)
#
#
# Indices 1 2 3 4 5 6 
#
# 1 83.4391 33.9198 37.4807 0.0000 0.0000 4.7718
# 2 33.9198 83.4391 37.4807 0.0000 0.0000 -4.7718
# 3 37.4807 37.4807 123.3743 0.0000 0.0000 0.0000
# 4 0.0000 0.0000 0.0000 28.4442 0.0000 0.0000
# 5 0.0000 0.0000 0.0000 0.0000 28.4442 0.0000
# 6 4.7718 -4.7718 0.0000 0.0000 0.0000 13.7903
#
#
#
# Elastic Compliance Matrix: (Units=1/GPa)
#
#
# Indices 1 2 3 4 5 6 
#
# 1 0.016105 -0.005532 -0.003212 0.000000 0.000000 -0.007487
# 2 -0.005532 0.016105 -0.003212 0.000000 0.000000 0.007487
# 3 -0.003212 -0.003212 0.010057 0.000000 0.000000 0.000000
# 4 0.000000 0.000000 0.000000 0.035156 0.000000 0.000000
# 5 0.000000 0.000000 0.000000 0.000000 0.035156 0.000000
# 6 -0.007487 0.007487 0.000000 0.000000 0.000000 0.077696
#
#
# Mechanical properties :
#
#
# Convention : Reuss Voigt Hill
#
# Bulk Modulus (GPa) = 54.48319 56.44610 55.46464
# Shear Modulus (GPa) = 22.69573 26.22718 24.46146
#
# Velocity S-wave (km/s) = 3.42738 3.68439 3.55821
# Velocity P-wave (km/s) = 6.62285 6.87861 6.75194
#
# Compressibility (1/GPa) = 0.01835429
#
# Stress axis : x y z
#
# Youngs Moduli (GPa) = 62.09349 62.09349 99.43405
#
# Poissons Ratio (x) = 0.34352 0.31937
# Poissons Ratio (y) = 0.34352 0.31937
# Poissons Ratio (z) = 0.19944 0.19944
#
# Static dielectric constant tensor:
#      x y z
#    x 1.778660 0.000000 0.000000 
#    y 0.000000 1.778660 0.000000 
#    z 0.000000 0.000000 1.711990 
# 
# From -- ./inp_files/1029.got.cif
#   From: 2010.05.17/outbox.cif.g08.bks.cpg/sg80_cif.got.tgz:1029.got - 2010.06.03 18:49:13.
