data_PCOD9542719
_publ_section_title
;
Structure prediction by ZEFSAII (Michael W. Deem and Ramdas Pophale) SiO2 
 PCOD9542719
Probable space group: I -4 
;
_chemical_formula_sum "Si O2"
_cell_formula_units_Z 44
_cell_length_a 7.975894
_cell_length_b 7.975894
_cell_length_c 33.073108
_cell_angle_alpha 90.000000
_cell_angle_beta 90.000000
_cell_angle_gamma 90.000000
_cell_volume 2103.941965
_symmetry_space_group_name_H-M "I -4 "
_symmetry_group_IT_number 82
_symmetry_cell_setting 'tetragonal'
loop_
_space_group_symop_operation_xyz
x,y,z
y,-x,-z
-x,-y,z
-y,x,-z
1/2+x,1/2+y,1/2+z
1/2+y,1/2-x,1/2-z
1/2-x,1/2-y,1/2+z
1/2-y,1/2+x,1/2-z
loop_
_atom_site_type_symbol
_atom_site_label
_atom_site_fract_x
_atom_site_fract_y
_atom_site_fract_z
Si Si1 0.734886 0.400508 0.295140
Si Si2 0.500000 0.500000 0.639169
Si Si3 0.232408 0.087936 0.568963
Si Si4 0.265114 0.599492 0.204860
Si Si5 0.000000 0.000000 0.500000
Si Si6 0.087936 0.767591 0.068963
Si Si7 0.000000 0.000000 0.000000
Si Si8 0.000000 0.000000 0.360831
O O1 0.605390 0.379851 0.331203
O O2 0.664819 0.373069 0.250000
O O3 0.794170 0.595003 0.298342
O O4 0.904997 0.294170 0.298342
O O5 0.601333 0.377095 0.609398
O O6 0.116171 0.108546 0.529793
O O7 0.395135 0.203233 0.568594
O O8 0.122905 0.101333 0.609398
O O9 0.296766 0.895135 0.568594
O O10 0.394610 0.620149 0.168797
O O11 0.108546 0.883829 0.029793
#
# Coordination Sequence:
#
# PCOD9542719 Si02
#       8
#     8   4   8   8   2   8   2   4
#     4   9  18  33  53  76 102 135 176 218 258 302
#     4  11  19  29  51  78 102 136 175 207 247 299
#     4  10  21  36  54  78 107 135 166 207 254 307
#     4   9  18  33  53  76 102 135 176 218 258 302
#     4  10  20  36  62  84  98 128 170 212 256 302
#     4  10  21  36  54  78 107 135 166 207 254 307
#     4  10  20  36  62  84  98 128 170 212 256 302
#     4  11  19  29  51  78 102 136 175 207 247 299
#
# _framework density 20.913125000000001
#
# number of rings (size 3 to 8) (size 9 to 14) (size 15 to 20)
#    0.000    2.182    0.000    4.909    0.000    2.909 
#    0.000    0.000    0.000   48.000    0.000   20.364 
#    0.000    0.000    0.000    0.000    0.000    0.000 
#
# Total GULP energy -122891.237702 kJ/mol
# GULP energy per Si atom -5585.965350 kJ/mol
# Density = 2.086553 g / cm^3
# Si number density = 20.913125 Si / 1000 Ang^3
#
#
#
# Elastic Constant Matrix: (Units=GPa)
#
#
# Indices 1 2 3 4 5 6 
#
# 1 50.9078 -12.6358 29.2826 0.0000 0.0000 0.4412
# 2 -12.6358 50.9078 29.2826 0.0000 0.0000 -0.4412
# 3 29.2826 29.2826 169.8647 0.0000 0.0000 0.0000
# 4 0.0000 0.0000 0.0000 18.4442 0.0000 0.0000
# 5 0.0000 0.0000 0.0000 0.0000 18.4442 0.0000
# 6 0.4412 -0.4412 0.0000 0.0000 0.0000 9.3753
#
#
#
# Elastic Compliance Matrix: (Units=1/GPa)
#
#
# Indices 1 2 3 4 5 6 
#
# 1 0.025619 0.009872 -0.006118 0.000000 0.000000 -0.000741
# 2 0.009872 0.025619 -0.006118 0.000000 0.000000 0.000741
# 3 -0.006118 -0.006118 0.007996 0.000000 0.000000 0.000000
# 4 0.000000 0.000000 0.000000 0.054218 0.000000 0.000000
# 5 0.000000 0.000000 0.000000 0.000000 0.054218 0.000000
# 6 -0.000741 0.000741 0.000000 0.000000 0.000000 0.106733
#
#
# Mechanical properties :
#
#
# Convention : Reuss Voigt Hill
#
# Bulk Modulus (GPa) = 18.34672 40.39324 29.36998
# Shear Modulus (GPa) = 16.81794 24.30279 20.56037
#
# Velocity S-wave (km/s) = 2.83889 3.41263 3.13890
# Velocity P-wave (km/s) = 4.42013 5.90633 5.21643
#
# Compressibility (1/GPa) = 0.05450567
#
# Stress axis : x y z
#
# Youngs Moduli (GPa) = 39.03310 39.03309 125.05548
#
# Poissons Ratio (x) = -0.38533 0.76512
# Poissons Ratio (y) = -0.38533 0.76512
# Poissons Ratio (z) = 0.23881 0.23881
#
# Static dielectric constant tensor:
#      x y z
#    x 1.748260 0.000000 0.000000 
#    y 0.000000 1.748260 0.000000 
#    z 0.000000 0.000000 1.764200 
# 
# From -- ./inp_files/3996.got.cif
#   From: 2010.05.17/outbox.cif.g08.bks.cpg/sg82_2_cif.got.tgz:3996.got - 2010.06.03 18:52:26.
