data_PCOD9542459
_publ_section_title
;
Structure prediction by ZEFSAII (Michael W. Deem and Ramdas Pophale) SiO2 
 PCOD9542459
Probable space group: P -4
;
_chemical_formula_sum "Si O2"
_cell_formula_units_Z 17
_cell_length_a 8.054793
_cell_length_b 8.054793
_cell_length_c 10.396112
_cell_angle_alpha 90.000000
_cell_angle_beta 90.000000
_cell_angle_gamma 90.000000
_cell_volume 674.496527
_symmetry_space_group_name_H-M "P -4"
_symmetry_group_IT_number 81
_symmetry_cell_setting 'tetragonal'
loop_
_space_group_symop_operation_xyz
x,y,z
y,-x,-z
-x,-y,z
-y,x,-z
loop_
_atom_site_type_symbol
_atom_site_label
_atom_site_fract_x
_atom_site_fract_y
_atom_site_fract_z
Si Si1 0.500000 0.500000 0.223699
Si Si2 0.500000 0.000000 0.845195
Si Si3 0.688145 0.797091 0.639506
Si Si4 0.326570 0.055648 0.364083
Si Si5 0.749361 0.250515 0.871396
Si Si6 0.000000 0.000000 0.000000
O O1 0.634061 0.412500 0.317350
O O2 0.425958 0.348964 0.138252
O O3 0.361666 0.080909 0.754381
O O4 0.596267 0.138748 0.920021
O O5 0.632724 0.868101 0.502599
O O6 0.885420 0.774737 0.628072
O O7 0.239671 0.194656 0.278697
O O8 0.500000 0.000000 0.299505
O O9 0.909885 0.162478 0.935461
#
# Coordination Sequence:
#
# PCOD9542459 Si02
#       6
#     2   2   4   4   4   1
#     4  10  24  45  80 113 162 194 263 305 390 482
#     4  10  22  44  70 106 148 190 250 306 386 466
#     4  11  23  40  66 112 155 201 232 295 378 483
#     4  12  24  39  69 110 156 198 243 299 377 470
#     4  11  25  48  77 109 148 203 259 340 384 462
#     4  12  28  56  84 106 152 204 284 348 416 430
#
# _framework density 25.203987999999999
#
# number of rings (size 3 to 8) (size 9 to 14) (size 15 to 20)
#    0.000    0.941    3.529    2.824    3.294    3.294 
#    2.118    0.000    0.000    0.000    0.000    0.000 
#    0.000    0.000    0.000    0.000    0.000    0.000 
#
# Total GULP energy -94806.690779 kJ/mol
# GULP energy per Si atom -5576.864163 kJ/mol
# Density = 2.514662 g / cm^3
# Si number density = 25.203988 Si / 1000 Ang^3
#
#
#
# Elastic Constant Matrix: (Units=GPa)
#
#
# Indices 1 2 3 4 5 6 
#
# 1 136.9026 47.9485 39.3632 0.0000 0.0000 -19.8347
# 2 47.9485 136.9026 39.3632 0.0000 0.0000 19.8347
# 3 39.3632 39.3632 66.8644 0.0000 0.0000 0.0000
# 4 0.0000 0.0000 0.0000 -76.0046 0.0000 0.0000
# 5 0.0000 0.0000 0.0000 0.0000 -76.0046 0.0000
# 6 -19.8347 19.8347 0.0000 0.0000 0.0000 70.5421
#
#
#
# Elastic Compliance Matrix: (Units=1/GPa)
#
#
# Indices 1 2 3 4 5 6 
#
# 1 0.010037 -0.002817 -0.004250 0.000000 0.000000 0.003614
# 2 -0.002817 0.010037 -0.004250 0.000000 0.000000 -0.003614
# 3 -0.004250 -0.004250 0.019960 0.000000 0.000000 0.000000
# 4 0.000000 0.000000 0.000000 -0.013157 0.000000 0.000000
# 5 0.000000 0.000000 0.000000 0.000000 -0.013157 0.000000
# 6 0.003614 -0.003614 0.000000 0.000000 0.000000 0.016208
#
#
# Mechanical properties :
#
#
# Convention : Reuss Voigt Hill
#
# Bulk Modulus (GPa) = 57.47658 66.00214 61.73936
# Shear Modulus (GPa) = 85.67194 -2.02709 41.82242
#
# Velocity S-wave (km/s) = 5.83654 -0.89779 4.07794
# Velocity P-wave (km/s) = 8.26283 5.01691 6.83534
#
# Compressibility (1/GPa) = 0.01739839
#
# Stress axis : x y z
#
# Youngs Moduli (GPa) = 99.63418 99.63418 50.10005
#
# Poissons Ratio (x) = 0.28064 0.21295
# Poissons Ratio (y) = 0.28064 0.21295
# Poissons Ratio (z) = 0.42349 0.42349
#
# Static dielectric constant tensor:
#      x y z
#    x 2.096920 0.000000 0.000000 
#    y 0.000000 2.096920 0.000000 
#    z 0.000000 0.000000 1.944860 
# 
# From -- ./inp_files/1172.got.cif
#   From: 2010.05.17/outbox.cif.g08.bks.cpg/sg81_cif.got.tgz:1172.got - 2010.06.03 18:51:07.
