data_PCOD9542171
_publ_section_title
;
Structure prediction by ZEFSAII (Michael W. Deem and Ramdas Pophale) SiO2 
 PCOD9542171
Probable space group: I 41
;
_chemical_formula_sum "Si O2"
_cell_formula_units_Z 40
_cell_length_a 11.300462
_cell_length_b 11.300462
_cell_length_c 15.165640
_cell_angle_alpha 90.000000
_cell_angle_beta 90.000000
_cell_angle_gamma 90.000000
_cell_volume 1936.658922
_symmetry_space_group_name_H-M "I 41"
_symmetry_group_IT_number 80
_symmetry_cell_setting 'tetragonal'
loop_
_space_group_symop_operation_xyz
x,y,z
-y,1/2+x,1/4+z
-x,-y,z
y,1/2-x,1/4+z
1/2+x,1/2+y,1/2+z
1/2-y,x,3/4+z
1/2-x,1/2-y,1/2+z
1/2+y,-x,3/4+z
loop_
_atom_site_type_symbol
_atom_site_label
_atom_site_fract_x
_atom_site_fract_y
_atom_site_fract_z
Si Si1 0.392791 0.310360 0.622810
Si Si2 0.460246 0.363437 0.430112
Si Si3 0.157057 0.921966 0.410895
Si Si4 0.574203 0.117061 0.366719
Si Si5 0.944161 0.843378 0.319926
O O1 0.467307 0.336436 0.535110
O O2 0.365235 0.172938 0.641645
O O3 0.270490 0.373371 0.600026
O O4 0.443968 0.357172 0.714846
O O5 0.500000 0.500000 0.414858
O O6 0.523279 0.247434 0.389270
O O7 0.294775 0.896690 0.405001
O O8 0.114063 0.919294 0.510926
O O9 0.077137 0.831928 0.355246
O O10 0.121628 0.046656 0.366209
O O11 0.500000 0.000000 0.395967
#
# Coordination Sequence:
#
# PCOD9542171 Si02
#       5
#     8   8   8   8   8
#     4  10  24  45  73  97 142 189 237 291 366 438
#     4  11  28  46  72 107 144 196 237 299 372 437
#     4  11  25  42  71 108 136 186 237 304 356 429
#     4  12  27  47  74 105 148 185 247 298 371 441
#     4  10  21  44  71 103 137 180 243 290 363 430
#
# _framework density 20.654126999999999
#
# number of rings (size 3 to 8) (size 9 to 14) (size 15 to 20)
#    0.000    1.200    2.000    2.400   14.000    3.200 
#    0.000    0.000    0.000    0.000    0.000    0.000 
#    0.000    0.000    0.000    0.000    0.000    0.000 
#
# Total GULP energy -111668.982694 kJ/mol
# GULP energy per Si atom -5583.449135 kJ/mol
# Density = 2.060712 g / cm^3
# Si number density = 20.654127 Si / 1000 Ang^3
#
#
#
# Elastic Constant Matrix: (Units=GPa)
#
#
# Indices 1 2 3 4 5 6 
#
# 1 102.9068 30.2445 3.9151 0.0000 0.0000 -2.5846
# 2 30.2445 102.9068 3.9151 0.0000 0.0000 2.5846
# 3 3.9151 3.9151 74.9812 0.0000 0.0000 0.0000
# 4 0.0000 0.0000 0.0000 9.0072 0.0000 0.0000
# 5 0.0000 0.0000 0.0000 0.0000 9.0072 0.0000
# 6 -2.5846 2.5846 0.0000 0.0000 0.0000 33.6024
#
#
#
# Elastic Compliance Matrix: (Units=1/GPa)
#
#
# Indices 1 2 3 4 5 6 
#
# 1 0.010686 -0.003152 -0.000393 0.000000 0.000000 0.001064
# 2 -0.003152 0.010686 -0.000393 0.000000 0.000000 -0.001064
# 3 -0.000393 -0.000393 0.013378 0.000000 0.000000 0.000000
# 4 0.000000 0.000000 0.000000 0.111023 0.000000 0.000000
# 5 0.000000 0.000000 0.000000 0.000000 0.111023 0.000000
# 6 0.001064 -0.001064 0.000000 0.000000 0.000000 0.029924
#
#
# Mechanical properties :
#
#
# Convention : Reuss Voigt Hill
#
# Bulk Modulus (GPa) = 37.21471 39.66049 38.43760
# Shear Modulus (GPa) = 16.47158 26.50468 21.48813
#
# Velocity S-wave (km/s) = 2.82706 3.58615 3.22899
# Velocity P-wave (km/s) = 5.35850 6.03251 5.70547
#
# Compressibility (1/GPa) = 0.02687110
#
# Stress axis : x y z
#
# Youngs Moduli (GPa) = 93.58305 93.58305 74.75101
#
# Poissons Ratio (x) = 0.29500 0.02940
# Poissons Ratio (y) = 0.29500 0.02940
# Poissons Ratio (z) = 0.03681 0.03681
#
# Static dielectric constant tensor:
#      x y z
#    x 1.773360 0.000000 0.000000 
#    y 0.000000 1.773360 0.000000 
#    z 0.000000 0.000000 1.731290 
# 
# From -- ./inp_files/1258.got.cif
#   From: 2010.05.17/outbox.cif.g08.bks.cpg/sg80_cif.got.tgz:1258.got - 2010.06.03 18:49:13.
