data_PCOD9542884
_publ_section_title
;
Structure prediction by ZEFSAII (Michael W. Deem and Ramdas Pophale) SiO2 
 PCOD9542884
Probable space group: I -4 
;
_chemical_formula_sum "Si O2"
_cell_formula_units_Z 48
_cell_length_a 9.457735
_cell_length_b 9.457735
_cell_length_c 29.640073
_cell_angle_alpha 90.000000
_cell_angle_beta 90.000000
_cell_angle_gamma 90.000000
_cell_volume 2651.267519
_symmetry_space_group_name_H-M "I -4 "
_symmetry_group_IT_number 82
_symmetry_cell_setting 'tetragonal'
loop_
_space_group_symop_operation_xyz
x,y,z
y,-x,-z
-x,-y,z
-y,x,-z
1/2+x,1/2+y,1/2+z
1/2+y,1/2-x,1/2-z
1/2-x,1/2-y,1/2+z
1/2-y,1/2+x,1/2-z
loop_
_atom_site_type_symbol
_atom_site_label
_atom_site_fract_x
_atom_site_fract_y
_atom_site_fract_z
Si Si1 0.164880 0.617678 0.267349
Si Si2 0.981618 0.756769 0.499998
Si Si3 0.117733 0.335172 0.767354
Si Si4 0.732797 0.471877 0.634944
Si Si5 0.267215 0.528118 0.365056
Si Si6 0.000000 0.500000 0.070939
Si Si7 0.500000 0.000000 0.429066
O O1 0.165072 0.497334 0.228988
O O2 0.250047 0.749955 0.249994
O O3 0.221349 0.549789 0.313100
O O4 0.976577 0.643357 0.458631
O O5 0.852586 0.872857 0.500000
O O6 0.976576 0.643354 0.541365
O O7 0.165069 0.497403 0.771012
O O8 0.049850 0.278681 0.813104
O O9 0.651644 0.618917 0.627256
O O10 0.618908 0.348378 0.627245
O O11 0.865630 0.468903 0.602296
O O12 0.134372 0.531100 0.397699
#
# Coordination Sequence:
#
# PCOD9542884 Si02
#       7
#     8   8   8   8   8   4   4
#     4  11  22  38  59  83 118 163 207 251 306 358
#     4  10  22  42  66  94 128 160 196 252 314 378
#     4  11  22  38  59  83 118 163 207 251 306 358
#     4  11  23  39  60  89 124 159 205 261 304 355
#     4  11  23  39  60  89 124 159 205 261 304 355
#     4  11  22  40  67  92 122 166 205 246 312 379
#     4  11  22  40  67  92 122 166 205 246 312 379
#
# _framework density 18.104548000000001
#
# number of rings (size 3 to 8) (size 9 to 14) (size 15 to 20)
#    0.000    1.167    3.333    4.000    0.000    0.667 
#    0.000    0.000    0.000    8.000    0.000    0.000 
#    0.000    0.000    0.000    0.000    0.000    0.000 
#
# Total GULP energy -133832.606953 kJ/mol
# GULP energy per Si atom -5576.358623 kJ/mol
# Density = 1.806334 g / cm^3
# Si number density = 18.104548 Si / 1000 Ang^3
#
#
#
# Elastic Constant Matrix: (Units=GPa)
#
#
# Indices 1 2 3 4 5 6 
#
# 1 143.7786 73.8826 57.3876 0.0000 0.0000 -4.7710
# 2 73.8826 143.7786 57.3876 0.0000 0.0000 4.7710
# 3 57.3876 57.3876 97.6003 0.0000 0.0000 0.0000
# 4 0.0000 0.0000 0.0000 28.7339 0.0000 0.0000
# 5 0.0000 0.0000 0.0000 0.0000 28.7339 0.0000
# 6 -4.7710 4.7710 0.0000 0.0000 0.0000 21.4046
#
#
#
# Elastic Compliance Matrix: (Units=1/GPa)
#
#
# Indices 1 2 3 4 5 6 
#
# 1 0.010707 -0.004049 -0.003915 0.000000 0.000000 0.003289
# 2 -0.004049 0.010707 -0.003915 0.000000 0.000000 -0.003289
# 3 -0.003915 -0.003915 0.014850 0.000000 0.000000 0.000000
# 4 0.000000 0.000000 0.000000 0.034802 0.000000 0.000000
# 5 0.000000 0.000000 0.000000 0.000000 0.034802 0.000000
# 6 0.003289 -0.003289 0.000000 0.000000 0.000000 0.048185
#
#
# Mechanical properties :
#
#
# Convention : Reuss Voigt Hill
#
# Bulk Modulus (GPa) = 79.95753 84.71924 82.33838
# Shear Modulus (GPa) = 27.47529 28.87447 28.17488
#
# Velocity S-wave (km/s) = 3.89985 3.99792 3.94919
# Velocity P-wave (km/s) = 8.03360 8.25876 8.14696
#
# Compressibility (1/GPa) = 0.01250664
#
# Stress axis : x y z
#
# Youngs Moduli (GPa) = 93.39292 93.39292 67.33912
#
# Poissons Ratio (x) = 0.37811 0.26366
# Poissons Ratio (y) = 0.37811 0.26366
# Poissons Ratio (z) = 0.36567 0.36567
#
# Static dielectric constant tensor:
#      x y z
#    x 1.657000 0.000000 0.000000 
#    y 0.000000 1.657000 0.000000 
#    z 0.000000 0.000000 1.613610 
# 
# From -- ./inp_files/4075.got.cif
#   From: 2010.05.17/outbox.cif.g08.bks.cpg/sg82_3_cif.got.tgz:4075.got - 2010.06.03 18:52:26.
