data_PCOD9542090
_publ_section_title
;
Structure prediction by ZEFSAII (Michael W. Deem and Ramdas Pophale) SiO2 
 PCOD9542090
Probable space group: I 41
;
_chemical_formula_sum "Si O2"
_cell_formula_units_Z 56
_cell_length_a 14.352003
_cell_length_b 14.352003
_cell_length_c 15.382660
_cell_angle_alpha 90.000000
_cell_angle_beta 90.000000
_cell_angle_gamma 90.000000
_cell_volume 3168.520155
_symmetry_space_group_name_H-M "I 41"
_symmetry_group_IT_number 80
_symmetry_cell_setting 'tetragonal'
loop_
_space_group_symop_operation_xyz
x,y,z
-y,1/2+x,1/4+z
-x,-y,z
y,1/2-x,1/4+z
1/2+x,1/2+y,1/2+z
1/2-y,x,3/4+z
1/2-x,1/2-y,1/2+z
1/2+y,-x,3/4+z
loop_
_atom_site_type_symbol
_atom_site_label
_atom_site_fract_x
_atom_site_fract_y
_atom_site_fract_z
Si Si1 0.500000 0.000000 0.040931
Si Si2 0.338944 0.105447 0.126625
Si Si3 0.313415 0.184810 0.314430
Si Si4 0.500000 0.500000 0.348502
Si Si5 0.890009 0.656585 0.996789
Si Si6 0.971381 0.292300 0.271135
Si Si7 0.631143 0.073941 0.897054
Si Si8 0.557005 0.626578 0.491578
O O1 0.439360 0.069157 0.098607
O O2 0.561948 0.064518 0.977934
O O3 0.331928 0.127294 0.227706
O O4 0.312901 0.202653 0.080416
O O5 0.272088 0.025746 0.090022
O O6 0.345653 0.292417 0.300734
O O7 0.361180 0.136796 0.397296
O O8 0.413760 0.465225 0.288498
O O9 0.488480 0.587875 0.415650
O O10 0.922061 0.764224 0.990717
O O11 0.929779 0.232288 0.191748
O O12 0.894616 0.345864 0.328611
O O13 0.054970 0.357085 0.234316
O O14 0.612833 0.983163 0.838002
#
# Coordination Sequence:
#
# PCOD9542090 Si02
#       8
#     4   8   8   4   8   8   8   8
#     4  10  19  35  54  88 118 156 198 261 329 368
#     4  10  21  33  61  85 123 156 208 263 318 370
#     4  10  21  36  58  93 120 162 208 260 318 378
#     4  12  23  39  60  96 130 166 206 267 331 402
#     4  11  23  38  61  91 132 163 207 264 327 378
#     4  11  21  36  60  91 128 161 209 268 321 380
#     4  11  22  34  59  88 125 159 197 263 325 380
#     4  12  21  37  60  90 124 157 210 266 324 367
#
# _framework density 17.673866
#
# number of rings (size 3 to 8) (size 9 to 14) (size 15 to 20)
#    0.000    1.143    5.714    1.714    2.000    0.571 
#    0.000    0.000    0.000   20.571    0.000    0.000 
#    0.000    0.000    0.000    0.000    0.000    0.000 
#
# Total GULP energy -156038.258560 kJ/mol
# GULP energy per Si atom -5572.794949 kJ/mol
# Density = 1.763364 g / cm^3
# Si number density = 17.673866 Si / 1000 Ang^3
#
#
#
# Elastic Constant Matrix: (Units=GPa)
#
#
# Indices 1 2 3 4 5 6 
#
# 1 77.0738 45.4817 51.7624 0.0000 0.0000 -5.8454
# 2 45.4817 77.0737 51.7623 0.0000 0.0000 5.8454
# 3 51.7624 51.7623 118.3683 0.0000 0.0000 0.0000
# 4 0.0000 0.0000 0.0000 27.7612 0.0000 0.0000
# 5 0.0000 0.0000 0.0000 0.0000 27.7612 0.0000
# 6 -5.8454 5.8454 0.0000 0.0000 0.0000 32.3431
#
#
#
# Elastic Compliance Matrix: (Units=1/GPa)
#
#
# Indices 1 2 3 4 5 6 
#
# 1 0.023431 -0.010492 -0.005658 0.000000 0.000000 0.006131
# 2 -0.010492 0.023431 -0.005658 0.000000 0.000000 -0.006131
# 3 -0.005658 -0.005658 0.013397 0.000000 0.000000 0.000000
# 4 0.000000 0.000000 0.000000 0.036022 0.000000 0.000000
# 5 0.000000 0.000000 0.000000 0.000000 0.036022 0.000000
# 6 0.006131 -0.006131 0.000000 0.000000 0.000000 0.033135
#
#
# Mechanical properties :
#
#
# Convention : Reuss Voigt Hill
#
# Bulk Modulus (GPa) = 60.08829 63.39207 61.74018
# Shear Modulus (GPa) = 23.29916 25.80704 24.55310
#
# Velocity S-wave (km/s) = 3.63476 3.82538 3.73128
# Velocity P-wave (km/s) = 7.18940 7.44694 7.31930
#
# Compressibility (1/GPa) = 0.01664218
#
# Stress axis : x y z
#
# Youngs Moduli (GPa) = 42.67887 42.67886 74.64374
#
# Poissons Ratio (x) = 0.44777 0.42236
# Poissons Ratio (y) = 0.44777 0.42236
# Poissons Ratio (z) = 0.24149 0.24149
#
# Static dielectric constant tensor:
#      x y z
#    x 1.633320 0.000000 0.000000 
#    y 0.000000 1.633320 0.000000 
#    z 0.000000 0.000000 1.616550 
# 
# From -- ./inp_files/1344.got.cif
#   From: 2010.05.17/outbox.cif.g08.bks.cpg/sg80_cif.got.tgz:1344.got - 2010.06.03 18:49:13.
