data_PCOD9542877
_publ_section_title
;
Structure prediction by ZEFSAII (Michael W. Deem and Ramdas Pophale) SiO2 
 PCOD9542877
Probable space group: I -4 
;
_chemical_formula_sum "Si O2"
_cell_formula_units_Z 48
_cell_length_a 11.770210
_cell_length_b 11.770210
_cell_length_c 16.804717
_cell_angle_alpha 90.000000
_cell_angle_beta 90.000000
_cell_angle_gamma 90.000000
_cell_volume 2328.089253
_symmetry_space_group_name_H-M "I -4 "
_symmetry_group_IT_number 82
_symmetry_cell_setting 'tetragonal'
loop_
_space_group_symop_operation_xyz
x,y,z
y,-x,-z
-x,-y,z
-y,x,-z
1/2+x,1/2+y,1/2+z
1/2+y,1/2-x,1/2-z
1/2-x,1/2-y,1/2+z
1/2-y,1/2+x,1/2-z
loop_
_atom_site_type_symbol
_atom_site_label
_atom_site_fract_x
_atom_site_fract_y
_atom_site_fract_z
Si Si1 0.931695 0.868742 0.847994
Si Si2 0.011361 0.864799 0.673607
Si Si3 0.880532 0.472507 0.502253
Si Si4 0.664618 0.795930 0.082312
Si Si5 0.832323 0.087875 0.891852
Si Si6 0.306354 0.756230 0.079080
O O1 0.990214 0.835522 0.765808
O O2 0.839897 0.782273 0.879495
O O3 0.033799 0.885103 0.912800
O O4 0.862153 0.985412 0.832580
O O5 0.921151 0.789116 0.624674
O O6 0.132386 0.824487 0.640985
O O7 0.000000 0.000000 0.661393
O O8 0.867896 0.571496 0.568991
O O9 0.765558 0.462403 0.449601
O O10 0.892460 0.347149 0.539684
O O11 0.000000 0.500000 0.458913
O O12 0.786248 0.789386 0.127580
O O13 0.689114 0.752183 0.992706
#
# Coordination Sequence:
#
# PCOD9542877 Si02
#       6
#     8   8   8   8   8   8
#     4  11  23  44  70 103 134 180 232 291 346 399
#     4  12  28  43  68  97 145 189 229 277 348 429
#     4  11  21  40  66 103 133 169 227 293 347 397
#     4  11  24  41  68  99 134 180 227 284 346 407
#     4  10  22  41  69  97 131 172 237 282 340 401
#     4  11  25  41  69 101 139 179 226 285 345 416
#
# _framework density 20.617767000000001
#
# number of rings (size 3 to 8) (size 9 to 14) (size 15 to 20)
#    0.000    1.000    6.667    0.000    4.667    0.000 
#    0.000    0.000    0.000    0.000    0.000    0.000 
#    0.000    0.000    0.000    0.000    0.000    0.000 
#
# Total GULP energy -133644.966449 kJ/mol
# GULP energy per Si atom -5568.540269 kJ/mol
# Density = 2.057084 g / cm^3
# Si number density = 20.617767 Si / 1000 Ang^3
#
#
#
# Elastic Constant Matrix: (Units=GPa)
#
#
# Indices 1 2 3 4 5 6 
#
# 1 97.5616 28.7392 29.0004 0.0000 0.0000 9.1255
# 2 28.7392 97.5616 29.0004 0.0000 0.0000 -9.1255
# 3 29.0004 29.0004 72.8322 0.0000 0.0000 0.0000
# 4 0.0000 0.0000 0.0000 29.9622 0.0000 0.0000
# 5 0.0000 0.0000 0.0000 0.0000 29.9622 0.0000
# 6 9.1255 -9.1255 0.0000 0.0000 0.0000 46.3735
#
#
#
# Elastic Compliance Matrix: (Units=1/GPa)
#
#
# Indices 1 2 3 4 5 6 
#
# 1 0.012510 -0.002820 -0.003858 0.000000 0.000000 -0.003017
# 2 -0.002820 0.012510 -0.003858 0.000000 0.000000 0.003017
# 3 -0.003858 -0.003858 0.016803 0.000000 0.000000 0.000000
# 4 0.000000 0.000000 0.000000 0.033375 0.000000 0.000000
# 5 0.000000 0.000000 0.000000 0.000000 0.033375 0.000000
# 6 -0.003017 0.003017 0.000000 0.000000 0.000000 0.022751
#
#
# Mechanical properties :
#
#
# Convention : Reuss Voigt Hill
#
# Bulk Modulus (GPa) = 48.19533 49.04837 48.62185
# Shear Modulus (GPa) = 31.38460 33.34060 32.36260
#
# Velocity S-wave (km/s) = 3.90579 4.02566 3.96617
# Velocity P-wave (km/s) = 6.61563 6.74158 6.67890
#
# Compressibility (1/GPa) = 0.02074890
#
# Stress axis : x y z
#
# Youngs Moduli (GPa) = 79.93757 79.93758 59.51444
#
# Poissons Ratio (x) = 0.22546 0.22961
# Poissons Ratio (y) = 0.22546 0.22961
# Poissons Ratio (z) = 0.30841 0.30841
#
# Static dielectric constant tensor:
#      x y z
#    x 1.795540 0.000000 0.000000 
#    y 0.000000 1.795540 0.000000 
#    z 0.000000 0.000000 1.750260 
# 
# From -- ./inp_files/2642.got.cif
#   From: 2010.05.17/outbox.cif.g08.bks.cpg/sg82_2_cif.got.tgz:2642.got - 2010.06.03 18:52:26.
