data_PCOD9542051
_publ_section_title
;
Structure prediction by ZEFSAII (Michael W. Deem and Ramdas Pophale) SiO2 
 PCOD9542051
Probable space group: I 4
;
_chemical_formula_sum "Si O2"
_cell_formula_units_Z 48
_cell_length_a 9.201032
_cell_length_b 9.201032
_cell_length_c 22.666215
_cell_angle_alpha 90.000000
_cell_angle_beta 90.000000
_cell_angle_gamma 90.000000
_cell_volume 1918.898866
_symmetry_space_group_name_H-M "I 4"
_symmetry_group_IT_number 79
_symmetry_cell_setting 'tetragonal'
loop_
_space_group_symop_operation_xyz
x,y,z
-y,x,z
-x,-y,z
y,-x,z
1/2+x,1/2+y,1/2+z
1/2-y,1/2+x,1/2+z
1/2-x,1/2-y,1/2+z
1/2+y,1/2-x,1/2+z
loop_
_atom_site_type_symbol
_atom_site_label
_atom_site_fract_x
_atom_site_fract_y
_atom_site_fract_z
Si Si1 0.722754 0.439444 0.089120
Si Si2 0.776430 0.937455 0.910163
Si Si3 0.776430 0.062545 0.730879
Si Si4 0.560556 0.277246 0.551921
Si Si5 0.040060 0.775831 0.251449
Si Si6 0.959940 0.775831 0.389592
O O1 0.672001 0.597088 0.067949
O O2 0.717491 0.442909 0.159944
O O3 0.876567 0.376567 0.070521
O O4 0.617723 0.878016 0.895837
O O5 0.903298 0.826269 0.888879
O O6 0.782508 0.942908 0.981097
O O7 0.617723 0.121984 0.745204
O O8 0.903298 0.173731 0.752162
O O9 0.672001 0.402912 0.573093
O O10 0.888730 0.837861 0.226317
O O11 0.999999 0.788657 0.320520
O O12 0.111270 0.837861 0.414724
#
# Coordination Sequence:
#
# PCOD9542051 Si02
#       6
#     8   8   8   8   8   8
#     4   9  19  35  54  81 118 154 189 232 280 332
#     4   9  19  37  59  83 113 149 190 236 283 334
#     4   9  19  37  59  83 113 149 190 236 283 334
#     4   9  19  35  54  81 118 154 189 232 280 332
#     4   9  19  37  55  77 109 142 181 231 284 338
#     4   9  19  37  55  77 109 142 181 231 284 338
#
# _framework density 25.014347999999998
#
# number of rings (size 3 to 8) (size 9 to 14) (size 15 to 20)
#    0.000    3.000    0.000    3.000    0.000    4.667 
#    0.000   26.667    0.000    8.000    0.000    0.000 
#    0.000    0.000    0.000    0.000    0.000    0.000 
#
# Total GULP energy -133875.218015 kJ/mol
# GULP energy per Si atom -5578.134084 kJ/mol
# Density = 2.495741 g / cm^3
# Si number density = 25.014348 Si / 1000 Ang^3
#
#
#
# Elastic Constant Matrix: (Units=GPa)
#
#
# Indices 1 2 3 4 5 6 
#
# 1 75.5494 111.0152 7.7617 0.0000 0.0000 0.0000
# 2 111.0152 75.5494 7.7617 0.0000 0.0000 0.0000
# 3 7.7617 7.7617 49.3785 0.0000 0.0000 0.0000
# 4 0.0000 0.0000 0.0000 67.1663 0.0000 0.0000
# 5 0.0000 0.0000 0.0000 0.0000 67.1663 0.0000
# 6 0.0000 0.0000 0.0000 0.0000 0.0000 71.9286
#
#
#
# Elastic Compliance Matrix: (Units=1/GPa)
#
#
# Indices 1 2 3 4 5 6 
#
# 1 -0.011383 0.016814 -0.000854 0.000000 0.000000 0.000000
# 2 0.016814 -0.011383 -0.000854 0.000000 0.000000 0.000000
# 3 -0.000854 -0.000854 0.020520 0.000000 0.000000 0.000000
# 4 0.000000 0.000000 0.000000 0.014888 0.000000 0.000000
# 5 0.000000 0.000000 0.000000 0.000000 0.014888 0.000000
# 6 0.000000 0.000000 0.000000 0.000000 0.000000 0.013903
#
#
# Mechanical properties :
#
#
# Convention : Reuss Voigt Hill
#
# Bulk Modulus (GPa) = 35.75574 50.39491 43.07533
# Shear Modulus (GPa) = 243.37428 46.18151 144.77789
#
# Velocity S-wave (km/s) = 9.87447 4.30141 7.61601
# Velocity P-wave (km/s) = 12.01382 6.69773 9.72603
#
# Compressibility (1/GPa) = 0.02796754
#
# Stress axis : x y z
#
# Youngs Moduli (GPa) = -87.85373 -87.85373 48.73266
#
# Poissons Ratio (x) = 1.47714 0.04160
# Poissons Ratio (y) = 1.47714 0.04160
# Poissons Ratio (z) = -0.07500 -0.07500
#
# Static dielectric constant tensor:
#      x y z
#    x 1.967850 0.000000 0.000000 
#    y 0.000000 1.967850 0.000000 
#    z 0.000000 0.000000 1.956540 
# 
# From -- ./inp_files/2134.got.cif
#   From: 2010.05.17/outbox.cif.g08.bks.cpg/sg79_cif.got.tgz:2134.got - 2010.06.03 18:47:27.
