data_PCOD9542993
_publ_section_title
;
Structure prediction by ZEFSAII (Michael W. Deem and Ramdas Pophale) SiO2 
 PCOD9542993
Probable space group: I -4 
;
_chemical_formula_sum "Si O2"
_cell_formula_units_Z 44
_cell_length_a 8.848994
_cell_length_b 8.848994
_cell_length_c 21.065092
_cell_angle_alpha 90.000000
_cell_angle_beta 90.000000
_cell_angle_gamma 90.000000
_cell_volume 1649.495600
_symmetry_space_group_name_H-M "I -4 "
_symmetry_group_IT_number 82
_symmetry_cell_setting 'tetragonal'
loop_
_space_group_symop_operation_xyz
x,y,z
y,-x,-z
-x,-y,z
-y,x,-z
1/2+x,1/2+y,1/2+z
1/2+y,1/2-x,1/2-z
1/2-x,1/2-y,1/2+z
1/2-y,1/2+x,1/2-z
loop_
_atom_site_type_symbol
_atom_site_label
_atom_site_fract_x
_atom_site_fract_y
_atom_site_fract_z
Si Si1 0.835201 0.446349 0.992533
Si Si2 0.000000 0.500000 0.750000
Si Si3 0.647463 0.589649 0.574183
Si Si4 0.338084 0.918394 0.831797
Si Si5 0.854850 0.334805 0.636173
Si Si6 0.000000 0.000000 0.500000
Si Si7 0.529892 0.674980 0.801569
O O1 0.852124 0.267685 0.977858
O O2 0.821370 0.532443 0.923914
O O3 0.674618 0.484240 0.026410
O O4 0.000000 0.500000 0.018329
O O5 0.938572 0.375513 0.701697
O O6 0.500000 0.500000 0.556686
O O7 0.571985 0.730234 0.609462
O O8 0.744129 0.473875 0.618897
O O9 0.379073 0.742457 0.830701
O O10 0.249226 0.955361 0.767580
O O11 0.500000 0.000000 0.832173
O O12 0.783755 0.174042 0.654722
O O13 0.500000 0.500000 0.796375
#
# Coordination Sequence:
#
# PCOD9542993 Si02
#       7
#     8   2   8   8   8   2   8
#     4  10  25  54  78 121 152 193 265 332 397 498
#     4  12  20  40  68 104 152 216 244 304 376 462
#     4  11  23  43  70 102 149 193 244 323 382 460
#     4  12  24  40  53  91 142 195 255 300 362 445
#     4  11  24  42  70 101 149 197 256 302 376 471
#     4  12  28  56  96 112 164 208 264 356 428 462
#     4  12  25  36  57  88 133 198 247 306 360 436
#
# _framework density 26.674821000000001
#
# number of rings (size 3 to 8) (size 9 to 14) (size 15 to 20)
#    0.000    0.727    4.545    3.818    8.909    0.000 
#    6.545    0.000    0.000    0.000    0.000    0.000 
#    0.000    0.000    0.000    0.000    0.000    0.000 
#
# Total GULP energy -123188.497161 kJ/mol
# GULP energy per Si atom -5599.477144 kJ/mol
# Density = 2.661411 g / cm^3
# Si number density = 26.674821 Si / 1000 Ang^3
#
#
#
# Elastic Constant Matrix: (Units=GPa)
#
#
# Indices 1 2 3 4 5 6 
#
# 1 151.3933 41.6816 27.4415 0.0000 0.0000 2.9275
# 2 41.6816 151.3933 27.4415 0.0000 0.0000 -2.9275
# 3 27.4415 27.4415 96.4003 0.0000 0.0000 0.0000
# 4 0.0000 0.0000 0.0000 1194.1153 -0.0001 0.0000
# 5 0.0000 0.0000 0.0000 -0.0001 1194.1159 0.0000
# 6 2.9275 -2.9275 0.0000 0.0000 0.0000 54.0753
#
#
#
# Elastic Compliance Matrix: (Units=1/GPa)
#
#
# Indices 1 2 3 4 5 6 
#
# 1 0.007388 -0.001753 -0.001604 0.000000 0.000000 -0.000495
# 2 -0.001753 0.007388 -0.001604 0.000000 0.000000 0.000495
# 3 -0.001604 -0.001604 0.011287 0.000000 0.000000 0.000000
# 4 0.000000 0.000000 0.000000 0.000837 0.000000 0.000000
# 5 0.000000 0.000000 0.000000 0.000000 0.000837 0.000000
# 6 -0.000495 0.000495 0.000000 0.000000 0.000000 0.018546
#
#
# Mechanical properties :
#
#
# Convention : Reuss Voigt Hill
#
# Bulk Modulus (GPa) = 61.95516 65.81290 63.88403
# Shear Modulus (GPa) = 81.18568 508.63613 294.91091
#
# Velocity S-wave (km/s) = 5.52281 13.82368 10.52605
# Velocity P-wave (km/s) = 7.99656 16.71880 13.10464
#
# Compressibility (1/GPa) = 0.01614071
#
# Stress axis : x y z
#
# Youngs Moduli (GPa) = 135.34960 135.34960 88.59984
#
# Poissons Ratio (x) = 0.23726 0.14213
# Poissons Ratio (y) = 0.23726 0.14213
# Poissons Ratio (z) = 0.21712 0.21712
#
# Static dielectric constant tensor:
#      x y z
#    x -7.589290 0.000000 0.000000 
#    y 0.000000 -7.589290 0.000000 
#    z 0.000000 0.000000 2.065990 
# 
# From -- ./inp_files/3975.got.cif
#   From: 2010.05.17/outbox.cif.g08.bks.cpg/sg82_2_cif.got.tgz:3975.got - 2010.06.03 18:52:26.
