data_PCOD9542798
_publ_section_title
;
Structure prediction by ZEFSAII (Michael W. Deem and Ramdas Pophale) SiO2 
 PCOD9542798
Probable space group: I -4 
;
_chemical_formula_sum "Si O2"
_cell_formula_units_Z 56
_cell_length_a 11.468188
_cell_length_b 11.468188
_cell_length_c 20.569879
_cell_angle_alpha 90.000000
_cell_angle_beta 90.000000
_cell_angle_gamma 90.000000
_cell_volume 2705.336828
_symmetry_space_group_name_H-M "I -4 "
_symmetry_group_IT_number 82
_symmetry_cell_setting 'tetragonal'
loop_
_space_group_symop_operation_xyz
x,y,z
y,-x,-z
-x,-y,z
-y,x,-z
1/2+x,1/2+y,1/2+z
1/2+y,1/2-x,1/2-z
1/2-x,1/2-y,1/2+z
1/2-y,1/2+x,1/2-z
loop_
_atom_site_type_symbol
_atom_site_label
_atom_site_fract_x
_atom_site_fract_y
_atom_site_fract_z
Si Si1 0.655078 0.912806 0.722640
Si Si2 0.815468 0.738917 0.378795
Si Si3 0.849570 0.382991 0.537184
Si Si4 0.527639 0.134715 0.336276
Si Si5 0.522354 0.865309 0.595058
Si Si6 0.005921 0.185879 0.482924
Si Si7 0.178633 0.267770 0.755777
O O1 0.550129 0.859195 0.766994
O O2 0.616921 0.871988 0.651583
O O3 0.780306 0.861410 0.738020
O O4 0.712034 0.769197 0.428663
O O5 0.817340 0.598651 0.377523
O O6 0.933182 0.783780 0.414055
O O7 0.775850 0.800022 0.311337
O O8 0.858927 0.488785 0.588546
O O9 0.804210 0.431272 0.469036
O O10 0.964797 0.304053 0.519517
O O11 0.653867 0.169170 0.308842
O O12 0.440612 0.214955 0.294242
O O13 0.500000 0.000000 0.319535
O O14 0.500000 0.000000 0.576047
O O15 0.892086 0.102269 0.478787
#
# Coordination Sequence:
#
# PCOD9542798 Si02
#       7
#     8   8   8   8   8   8   8
#     4  11  22  40  65  92 126 170 216 269 323 394
#     4  10  21  37  62  89 131 167 214 268 329 394
#     4  10  23  36  64  92 123 173 211 262 321 397
#     4  11  22  43  66  92 131 172 220 270 324 394
#     4  12  20  38  62  90 124 162 211 261 321 391
#     4   9  18  36  56  91 136 165 206 269 331 389
#     4  11  21  42  67  91 126 172 220 272 325 390
#
# _framework density 20.699826000000002
#
# number of rings (size 3 to 8) (size 9 to 14) (size 15 to 20)
#    0.000    1.429    5.714    0.429    0.000    1.143 
#    2.571    2.143    0.000    2.143    0.000    0.000 
#    0.000    0.000    0.000    0.000    0.000    0.000 
#
# Total GULP energy -156021.047919 kJ/mol
# GULP energy per Si atom -5572.180283 kJ/mol
# Density = 2.065271 g / cm^3
# Si number density = 20.699826 Si / 1000 Ang^3
#
#
#
# Elastic Constant Matrix: (Units=GPa)
#
#
# Indices 1 2 3 4 5 6 
#
# 1 43.0467 11.9551 12.9916 0.0000 0.0000 4.9120
# 2 11.9551 43.0467 12.9916 0.0000 0.0000 -4.9120
# 3 12.9916 12.9916 118.0778 0.0000 0.0000 0.0000
# 4 0.0000 0.0000 0.0000 14.6860 0.0000 0.0000
# 5 0.0000 0.0000 0.0000 0.0000 14.6860 0.0000
# 6 4.9120 -4.9120 0.0000 0.0000 0.0000 35.2011
#
#
#
# Elastic Compliance Matrix: (Units=1/GPa)
#
#
# Indices 1 2 3 4 5 6 
#
# 1 0.026412 -0.007234 -0.002110 0.000000 0.000000 -0.004695
# 2 -0.007234 0.026412 -0.002110 0.000000 0.000000 0.004695
# 3 -0.002110 -0.002110 0.008933 0.000000 0.000000 0.000000
# 4 0.000000 0.000000 0.000000 0.068092 0.000000 0.000000
# 5 0.000000 0.000000 0.000000 0.000000 0.068092 0.000000
# 6 -0.004695 0.004695 0.000000 0.000000 0.000000 0.029719
#
#
# Mechanical properties :
#
#
# Convention : Reuss Voigt Hill
#
# Bulk Modulus (GPa) = 25.74064 31.11642 28.42853
# Shear Modulus (GPa) = 18.97395 23.99681 21.48538
#
# Velocity S-wave (km/s) = 3.03086 3.40851 3.22522
# Velocity P-wave (km/s) = 4.97095 5.52770 5.25670
#
# Compressibility (1/GPa) = 0.03884907
#
# Stress axis : x y z
#
# Youngs Moduli (GPa) = 37.86116 37.86116 111.94048
#
# Poissons Ratio (x) = 0.27390 0.23620
# Poissons Ratio (y) = 0.27390 0.23620
# Poissons Ratio (z) = 0.07989 0.07989
#
# Static dielectric constant tensor:
#      x y z
#    x 1.739560 0.000000 0.000000 
#    y 0.000000 1.739560 0.000000 
#    z 0.000000 0.000000 1.846680 
# 
# From -- ./inp_files/3137.got.cif
#   From: 2010.05.17/outbox.cif.g08.bks.cpg/sg82_2_cif.got.tgz:3137.got - 2010.06.03 18:52:26.
