data_PCOD9542590
_publ_section_title
;
Structure prediction by ZEFSAII (Michael W. Deem and Ramdas Pophale) SiO2 
 PCOD9542590
Probable space group: P -4
;
_chemical_formula_sum "Si O2"
_cell_formula_units_Z 24
_cell_length_a 12.589167
_cell_length_b 12.589167
_cell_length_c 6.377430
_cell_angle_alpha 90.000000
_cell_angle_beta 90.000000
_cell_angle_gamma 90.000000
_cell_volume 1010.740550
_symmetry_space_group_name_H-M "P -4"
_symmetry_group_IT_number 81
_symmetry_cell_setting 'tetragonal'
loop_
_space_group_symop_operation_xyz
x,y,z
y,-x,-z
-x,-y,z
-y,x,-z
loop_
_atom_site_type_symbol
_atom_site_label
_atom_site_fract_x
_atom_site_fract_y
_atom_site_fract_z
Si Si1 0.139825 0.029614 0.132899
Si Si2 0.566807 0.636977 0.384580
Si Si3 0.500000 0.500000 0.000000
Si Si4 0.408564 0.123501 0.912023
Si Si5 0.500000 0.000000 0.297411
Si Si6 0.000000 0.000000 0.500000
Si Si7 0.620806 0.093320 0.680510
Si Si8 0.215366 0.721762 0.790817
O O1 0.096342 0.978794 0.345873
O O2 0.241773 0.093404 0.202065
O O3 0.060343 0.122009 0.041815
O O4 0.635888 0.546190 0.500766
O O5 0.544489 0.590787 0.153024
O O6 0.632032 0.744237 0.368349
O O7 0.327994 0.218094 0.971549
O O8 0.456829 0.087450 0.135642
O O9 0.511917 0.144839 0.772490
O O10 0.358532 0.017605 0.806362
O O11 0.412086 0.945500 0.448312
O O12 0.711989 0.178148 0.727066
#
# Coordination Sequence:
#
# PCOD9542590 Si02
#       8
#     4   4   1   4   2   1   4   4
#     4   9  20  40  61  91 129 151 199 259 296 364
#     4   9  22  42  55  85 125 157 209 259 294 356
#     4   8  18  44  64  66 112 176 194 264 316 326
#     4   9  21  41  59  85 121 156 201 252 300 359
#     4   8  18  42  60  74 130 158 182 258 304 342
#     4   8  18  40  64  82 136 160 178 252 324 342
#     4   9  21  41  59  85 121 156 201 252 300 359
#     4  12  22  34  68  90 116 164 206 242 310 364
#
# _framework density 23.744965000000001
#
# number of rings (size 3 to 8) (size 9 to 14) (size 15 to 20)
#    0.000    3.333    0.000    1.000    4.667    1.333 
#    0.000   16.667    0.000    0.000    0.000    0.000 
#    0.000    0.000    0.000    0.000    0.000    0.000 
#
# Total GULP energy -133727.166635 kJ/mol
# GULP energy per Si atom -5571.965276 kJ/mol
# Density = 2.369092 g / cm^3
# Si number density = 23.744965 Si / 1000 Ang^3
#
#
#
# Elastic Constant Matrix: (Units=GPa)
#
#
# Indices 1 2 3 4 5 6 
#
# 1 46.7588 15.3045 19.6797 0.0000 0.0000 0.3747
# 2 15.3045 46.7588 19.6797 0.0000 0.0000 -0.3747
# 3 19.6797 19.6797 122.4157 0.0000 0.0000 0.0000
# 4 0.0000 0.0000 0.0000 18.9296 0.0000 0.0000
# 5 0.0000 0.0000 0.0000 0.0000 18.9296 0.0000
# 6 0.3747 -0.3747 0.0000 0.0000 0.0000 36.3710
#
#
#
# Elastic Compliance Matrix: (Units=1/GPa)
#
#
# Indices 1 2 3 4 5 6 
#
# 1 0.024871 -0.006929 -0.002884 0.000000 0.000000 -0.000328
# 2 -0.006929 0.024871 -0.002884 0.000000 0.000000 0.000328
# 3 -0.002884 -0.002884 0.009096 0.000000 0.000000 0.000000
# 4 0.000000 0.000000 0.000000 0.052827 0.000000 0.000000
# 5 0.000000 0.000000 0.000000 0.000000 0.052827 0.000000
# 6 -0.000328 0.000328 0.000000 0.000000 0.000000 0.027501
#
#
# Mechanical properties :
#
#
# Convention : Reuss Voigt Hill
#
# Bulk Modulus (GPa) = 29.90212 36.14014 33.02113
# Shear Modulus (GPa) = 21.87832 25.59734 23.73783
#
# Velocity S-wave (km/s) = 3.03873 3.28687 3.16523
# Velocity P-wave (km/s) = 4.99322 5.44590 5.22447
#
# Compressibility (1/GPa) = 0.03344244
#
# Stress axis : x y z
#
# Youngs Moduli (GPa) = 40.20771 40.20771 109.93519
#
# Poissons Ratio (x) = 0.27860 0.31709
# Poissons Ratio (y) = 0.27860 0.31709
# Poissons Ratio (z) = 0.11597 0.11597
#
# Static dielectric constant tensor:
#      x y z
#    x 2.025170 0.000000 0.000000 
#    y 0.000000 2.025170 0.000000 
#    z 0.000000 0.000000 1.904880 
# 
# From -- ./inp_files/314.got.cif
#   From: 2010.05.17/outbox.cif.g08.bks.cpg/sg81_cif.got.tgz:314.got - 2010.06.03 18:51:07.
