data_PCOD9542733
_publ_section_title
;
Structure prediction by ZEFSAII (Michael W. Deem and Ramdas Pophale) SiO2 
 PCOD9542733
Probable space group: I -4 
;
_chemical_formula_sum "Si O2"
_cell_formula_units_Z 34
_cell_length_a 8.576938
_cell_length_b 8.576938
_cell_length_c 18.066537
_cell_angle_alpha 90.000000
_cell_angle_beta 90.000000
_cell_angle_gamma 90.000000
_cell_volume 1329.044297
_symmetry_space_group_name_H-M "I -4 "
_symmetry_group_IT_number 82
_symmetry_cell_setting 'tetragonal'
loop_
_space_group_symop_operation_xyz
x,y,z
y,-x,-z
-x,-y,z
-y,x,-z
1/2+x,1/2+y,1/2+z
1/2+y,1/2-x,1/2-z
1/2-x,1/2-y,1/2+z
1/2-y,1/2+x,1/2-z
loop_
_atom_site_type_symbol
_atom_site_label
_atom_site_fract_x
_atom_site_fract_y
_atom_site_fract_z
Si Si1 0.083389 0.842174 0.087973
Si Si2 0.500000 0.500000 0.000000
Si Si3 0.562159 0.829707 0.999510
Si Si4 0.647716 0.899356 0.655911
Si Si5 0.224293 0.628059 0.734341
O O1 0.148159 0.744196 0.018515
O O2 0.215846 0.860844 0.150332
O O3 0.941241 0.749524 0.125358
O O4 0.000000 0.000000 0.071518
O O5 0.669886 0.482756 0.959487
O O6 0.492485 0.798238 0.917092
O O7 0.500000 0.000000 0.025439
O O8 0.778378 0.847248 0.713722
O O9 0.500000 0.000000 0.681687
O O10 0.205365 0.446607 0.756386
#
# Coordination Sequence:
#
# PCOD9542733 Si02
#       5
#     8   2   8   8   8
#     4  10  20  38  61  89 134 175 217 270 330 399
#     4  12  24  52  80 100 132 176 228 312 352 402
#     4   9  24  45  67 102 128 171 235 279 354 413
#     4   9  21  38  59  85 130 171 220 267 320 399
#     4  11  23  34  55  98 136 178 225 259 327 397
#
# _framework density 25.582291000000001
#
# number of rings (size 3 to 8) (size 9 to 14) (size 15 to 20)
#    0.000    2.588    2.353    0.000    9.882    0.941 
#    8.471    0.000    0.000    0.000    0.000    0.000 
#    0.000    0.000    0.000    0.000    0.000    0.000 
#
# Total GULP energy -95030.926379 kJ/mol
# GULP energy per Si atom -5590.054493 kJ/mol
# Density = 2.552406 g / cm^3
# Si number density = 25.582291 Si / 1000 Ang^3
#
#
#
# Elastic Constant Matrix: (Units=GPa)
#
#
# Indices 1 2 3 4 5 6 
#
# 1 153.2267 90.3020 40.3097 0.0000 0.0000 -21.8846
# 2 90.3020 153.2267 40.3097 0.0000 0.0000 21.8846
# 3 40.3097 40.3097 77.2092 0.0000 0.0000 0.0000
# 4 0.0000 0.0000 0.0000 36.3290 0.0000 0.0000
# 5 0.0000 0.0000 0.0000 0.0000 36.3290 0.0000
# 6 -21.8846 21.8846 0.0000 0.0000 0.0000 40.6028
#
#
#
# Elastic Compliance Matrix: (Units=1/GPa)
#
#
# Indices 1 2 3 4 5 6 
#
# 1 0.015194 -0.010230 -0.002592 0.000000 0.000000 0.013703
# 2 -0.010230 0.015194 -0.002592 0.000000 0.000000 -0.013703
# 3 -0.002592 -0.002592 0.015658 0.000000 0.000000 0.000000
# 4 0.000000 0.000000 0.000000 0.027526 0.000000 0.000000
# 5 0.000000 0.000000 0.000000 0.000000 0.027526 0.000000
# 6 0.013703 -0.013703 0.000000 0.000000 0.000000 0.039401
#
#
# Mechanical properties :
#
#
# Convention : Reuss Voigt Hill
#
# Bulk Modulus (GPa) = 65.70500 80.61172 73.15836
# Shear Modulus (GPa) = 28.34487 36.83490 32.58989
#
# Velocity S-wave (km/s) = 3.33226 3.79866 3.57308
# Velocity P-wave (km/s) = 6.36748 7.12874 6.75884
#
# Compressibility (1/GPa) = 0.01521954
#
# Stress axis : x y z
#
# Youngs Moduli (GPa) = 65.81555 65.81555 63.86484
#
# Poissons Ratio (x) = 0.67327 0.16552
# Poissons Ratio (y) = 0.67327 0.16552
# Poissons Ratio (z) = 0.17058 0.17058
#
# Static dielectric constant tensor:
#      x y z
#    x 1.971600 0.000000 0.000000 
#    y 0.000000 1.971600 0.000000 
#    z 0.000000 0.000000 2.028000 
# 
# From -- ./inp_files/2957.got.cif
#   From: 2010.05.17/outbox.cif.g08.bks.cpg/sg82_2_cif.got.tgz:2957.got - 2010.06.03 18:52:26.
