data_PCOD9542366
_publ_section_title
;
Structure prediction by ZEFSAII (Michael W. Deem and Ramdas Pophale) SiO2 
 PCOD9542366
Probable space group: P -4
;
_chemical_formula_sum "Si O2"
_cell_formula_units_Z 25
_cell_length_a 11.545607
_cell_length_b 11.545607
_cell_length_c 7.372942
_cell_angle_alpha 90.000000
_cell_angle_beta 90.000000
_cell_angle_gamma 90.000000
_cell_volume 982.820844
_symmetry_space_group_name_H-M "P -4"
_symmetry_group_IT_number 81
_symmetry_cell_setting 'tetragonal'
loop_
_space_group_symop_operation_xyz
x,y,z
y,-x,-z
-x,-y,z
-y,x,-z
loop_
_atom_site_type_symbol
_atom_site_label
_atom_site_fract_x
_atom_site_fract_y
_atom_site_fract_z
Si Si1 0.657300 0.103003 0.425854
Si Si2 0.531447 0.311845 0.457082
Si Si3 0.000000 0.000000 0.500000
Si Si4 0.220426 0.124965 0.395743
Si Si5 0.949270 0.177911 0.977810
Si Si6 0.437672 0.678901 0.034116
Si Si7 0.073386 0.385290 0.009229
O O1 0.551229 0.177239 0.512688
O O2 0.763980 0.188375 0.484170
O O3 0.641308 0.084725 0.208535
O O4 0.692006 0.970876 0.477406
O O5 0.406798 0.374520 0.474124
O O6 0.555547 0.300246 0.246008
O O7 0.061863 0.903736 0.615657
O O8 0.238664 0.130948 0.177613
O O9 0.998742 0.282759 0.096982
O O10 0.879747 0.074878 0.072178
O O11 0.398210 0.793851 0.931572
O O12 0.567373 0.642783 0.983292
O O13 0.000000 0.500000 0.030343
#
# Coordination Sequence:
#
# PCOD9542366 Si02
#       7
#     4   4   1   4   4   4   4
#     4   9  20  37  61  89 121 161 211 269 325 388
#     4  10  20  37  61  90 125 158 221 275 328 391
#     4   8  12  24  50  72 100 140 192 242 280 352
#     4   9  17  33  57  83 114 159 207 255 313 383
#     4  10  21  37  59  89 126 176 221 261 326 397
#     4  10  21  40  67  89 123 175 222 265 337 404
#     4  10  23  40  64  92 131 169 219 278 333 395
#
# _framework density 25.436985
#
# number of rings (size 3 to 8) (size 9 to 14) (size 15 to 20)
#    0.000    2.400    0.000    2.880    2.240    7.680 
#    2.880    0.000    0.000    0.960    0.000    0.000 
#    0.000    0.000    0.000    0.000    0.000    0.000 
#
# Total GULP energy -139299.953306 kJ/mol
# GULP energy per Si atom -5571.998132 kJ/mol
# Density = 2.537909 g / cm^3
# Si number density = 25.436985 Si / 1000 Ang^3
#
#
#
# Elastic Constant Matrix: (Units=GPa)
#
#
# Indices 1 2 3 4 5 6 
#
# 1 99.7436 55.9496 -14.9004 0.0000 0.0000 21.1873
# 2 55.9496 99.7436 -14.9004 0.0000 0.0000 -21.1873
# 3 -14.9004 -14.9004 59.2398 0.0000 0.0000 0.0000
# 4 0.0000 0.0000 0.0000 -119.0042 0.0000 0.0000
# 5 0.0000 0.0000 0.0000 0.0000 -119.0042 0.0000
# 6 21.1873 -21.1873 0.0000 0.0000 0.0000 36.5642
#
#
#
# Elastic Compliance Matrix: (Units=1/GPa)
#
#
# Indices 1 2 3 4 5 6 
#
# 1 0.029362 -0.022614 0.001697 0.000000 0.000000 -0.030117
# 2 -0.022614 0.029362 0.001697 0.000000 0.000000 0.030117
# 3 0.001697 0.001697 0.017734 0.000000 0.000000 0.000000
# 4 0.000000 0.000000 0.000000 -0.008403 0.000000 0.000000
# 5 0.000000 0.000000 0.000000 0.000000 -0.008403 0.000000
# 6 -0.030117 0.030117 0.000000 0.000000 0.000000 0.062253
#
#
# Mechanical properties :
#
#
# Convention : Reuss Voigt Hill
#
# Bulk Modulus (GPa) = 26.30278 34.55829 30.43053
# Shear Modulus (GPa) = 28.89915 -24.78363 2.05776
#
# Velocity S-wave (km/s) = 3.37428 -3.12479 0.90040
# Velocity P-wave (km/s) = 5.05409 0.77219 3.61525
#
# Compressibility (1/GPa) = 0.03801880
#
# Stress axis : x y z
#
# Youngs Moduli (GPa) = 34.05813 34.05813 56.38778
#
# Poissons Ratio (x) = 0.77018 -0.09570
# Poissons Ratio (y) = 0.77018 -0.09570
# Poissons Ratio (z) = -0.05780 -0.05780
#
# Static dielectric constant tensor:
#      x y z
#    x 2.509890 0.000000 0.000000 
#    y 0.000000 2.509890 0.000000 
#    z 0.000000 0.000000 2.163460 
# 
# From -- ./inp_files/858.got.cif
#   From: 2010.05.17/outbox.cif.g08.bks.cpg/sg81_cif.got.tgz:858.got - 2010.06.03 18:51:07.
