data_PCOD9542464
_publ_section_title
;
Structure prediction by ZEFSAII (Michael W. Deem and Ramdas Pophale) SiO2 
 PCOD9542464
Probable space group: P -4
;
_chemical_formula_sum "Si O2"
_cell_formula_units_Z 18
_cell_length_a 8.671551
_cell_length_b 8.671551
_cell_length_c 11.458316
_cell_angle_alpha 90.000000
_cell_angle_beta 90.000000
_cell_angle_gamma 90.000000
_cell_volume 861.617201
_symmetry_space_group_name_H-M "P -4"
_symmetry_group_IT_number 81
_symmetry_cell_setting 'tetragonal'
loop_
_space_group_symop_operation_xyz
x,y,z
y,-x,-z
-x,-y,z
-y,x,-z
loop_
_atom_site_type_symbol
_atom_site_label
_atom_site_fract_x
_atom_site_fract_y
_atom_site_fract_z
Si Si1 0.465459 0.829889 0.677188
Si Si2 0.141683 0.804059 0.983314
Si Si3 0.353946 0.388131 0.844729
Si Si4 0.844770 0.339671 0.744799
Si Si5 0.000000 0.500000 0.550133
O O1 0.584141 0.717372 0.739600
O O2 0.298038 0.765929 0.706736
O O3 0.500000 0.000000 0.726515
O O4 0.479135 0.856693 0.538091
O O5 0.088961 0.729023 0.862279
O O6 0.277354 0.711355 0.051384
O O7 0.978611 0.809503 0.049675
O O8 0.500000 0.500000 0.876171
O O9 0.224647 0.497701 0.789311
O O10 0.958631 0.362078 0.637214
#
# Coordination Sequence:
#
# PCOD9542464 Si02
#       5
#     4   4   4   4   2
#     4   9  22  40  67  94 136 174 228 283 343 397
#     4  11  25  44  68 100 145 180 225 281 351 424
#     4  10  23  41  67 100 133 181 233 288 343 403
#     4  11  23  41  67  98 132 179 232 279 346 408
#     4  10  24  40  62 100 128 182 218 286 332 408
#
# _framework density 20.890948999999999
#
# number of rings (size 3 to 8) (size 9 to 14) (size 15 to 20)
#    0.667    1.111    0.000    2.667    9.333    0.000 
#    2.000    0.000    0.000    0.000    0.000    0.000 
#    0.000    0.000    0.000    0.000    0.000    0.000 
#
# Total GULP energy -100359.897786 kJ/mol
# GULP energy per Si atom -5575.549877 kJ/mol
# Density = 2.084340 g / cm^3
# Si number density = 20.890949 Si / 1000 Ang^3
#
#
#
# Elastic Constant Matrix: (Units=GPa)
#
#
# Indices 1 2 3 4 5 6 
#
# 1 80.7112 26.1382 29.9284 0.0000 0.0000 -2.1996
# 2 26.1382 80.7112 29.9284 0.0000 0.0000 2.1996
# 3 29.9284 29.9284 104.6855 0.0000 0.0000 0.0000
# 4 0.0000 0.0000 0.0000 10.9036 0.0000 0.0000
# 5 0.0000 0.0000 0.0000 0.0000 10.9036 0.0000
# 6 -2.1996 2.1996 0.0000 0.0000 0.0000 26.7598
#
#
#
# Elastic Compliance Matrix: (Units=1/GPa)
#
#
# Indices 1 2 3 4 5 6 
#
# 1 0.014795 -0.003651 -0.003186 0.000000 0.000000 0.001516
# 2 -0.003651 0.014795 -0.003186 0.000000 0.000000 -0.001516
# 3 -0.003186 -0.003186 0.011374 0.000000 0.000000 0.000000
# 4 0.000000 0.000000 0.000000 0.091713 0.000000 0.000000
# 5 0.000000 0.000000 0.000000 0.000000 0.091713 0.000000
# 6 0.001516 -0.001516 0.000000 0.000000 0.000000 0.037619
#
#
# Mechanical properties :
#
#
# Convention : Reuss Voigt Hill
#
# Bulk Modulus (GPa) = 47.80579 48.67754 48.24167
# Shear Modulus (GPa) = 17.29944 21.72095 19.51019
#
# Velocity S-wave (km/s) = 2.88077 3.22798 3.05930
# Velocity P-wave (km/s) = 5.83080 6.10283 5.96837
#
# Compressibility (1/GPa) = 0.02091797
#
# Stress axis : x y z
#
# Youngs Moduli (GPa) = 67.59046 67.59046 87.91969
#
# Poissons Ratio (x) = 0.24679 0.28010
# Poissons Ratio (y) = 0.24679 0.28010
# Poissons Ratio (z) = 0.21533 0.21533
#
# Static dielectric constant tensor:
#      x y z
#    x 1.816500 0.000000 0.000000 
#    y 0.000000 1.816500 0.000000 
#    z 0.000000 0.000000 1.760650 
# 
# From -- ./inp_files/1229.got.cif
#   From: 2010.05.17/outbox.cif.g08.bks.cpg/sg81_cif.got.tgz:1229.got - 2010.06.03 18:51:07.
