data_PCOD9542826
_publ_section_title
;
Structure prediction by ZEFSAII (Michael W. Deem and Ramdas Pophale) SiO2 
 PCOD9542826
Probable space group: I -4 
;
_chemical_formula_sum "Si O2"
_cell_formula_units_Z 54
_cell_length_a 14.583705
_cell_length_b 14.583705
_cell_length_c 12.118158
_cell_angle_alpha 90.000000
_cell_angle_beta 90.000000
_cell_angle_gamma 90.000000
_cell_volume 2577.343788
_symmetry_space_group_name_H-M "I -4 "
_symmetry_group_IT_number 82
_symmetry_cell_setting 'tetragonal'
loop_
_space_group_symop_operation_xyz
x,y,z
y,-x,-z
-x,-y,z
-y,x,-z
1/2+x,1/2+y,1/2+z
1/2+y,1/2-x,1/2-z
1/2-x,1/2-y,1/2+z
1/2-y,1/2+x,1/2-z
loop_
_atom_site_type_symbol
_atom_site_label
_atom_site_fract_x
_atom_site_fract_y
_atom_site_fract_z
Si Si1 0.000000 0.500000 0.750000
Si Si2 0.712387 0.728652 0.339468
Si Si3 0.662853 0.924863 0.373873
Si Si4 0.300564 0.466412 0.442562
Si Si5 0.387555 0.195757 0.711110
Si Si6 0.000000 0.000000 0.845524
Si Si7 0.888537 0.506759 0.095072
Si Si8 0.197775 0.992667 0.201899
O O1 0.069527 0.561039 0.678378
O O2 0.691645 0.821849 0.405885
O O3 0.729640 0.637053 0.411754
O O4 0.795582 0.743444 0.254510
O O5 0.616076 0.708419 0.279284
O O6 0.655022 0.995685 0.474391
O O7 0.733942 0.955674 0.281632
O O8 0.252188 0.540599 0.363056
O O9 0.408176 0.475131 0.413222
O O10 0.284835 0.487015 0.571491
O O11 0.436435 0.155139 0.820051
O O12 0.363823 0.106455 0.640986
O O13 0.020295 0.907832 0.778057
O O14 0.000000 0.500000 0.092237
#
# Coordination Sequence:
#
# PCOD9542826 Si02
#       8
#     2   8   8   8   8   4   8   8
#     4  12  24  44  64  94 144 188 208 288 362 428
#     4  11  24  41  68 104 133 183 241 290 365 429
#     4  12  26  43  66 102 141 181 222 287 366 439
#     4  11  22  42  68 101 134 180 241 296 349 427
#     4  12  23  44  70  99 132 182 240 307 347 421
#     4  10  21  40  70  97 134 181 236 290 335 416
#     4  12  23  45  71  98 135 182 239 294 360 420
#     4  11  23  43  66 104 138 182 224 288 362 432
#
# _framework density 20.951802000000001
#
# number of rings (size 3 to 8) (size 9 to 14) (size 15 to 20)
#    0.000    0.593    5.185    4.000    0.000    2.370 
#    5.333    0.000    0.000    0.889    0.000    0.000 
#    0.000    0.000    0.000    0.000    0.000    0.000 
#
# Total GULP energy -150887.778922 kJ/mol
# GULP energy per Si atom -5588.436256 kJ/mol
# Density = 2.090412 g / cm^3
# Si number density = 20.951802 Si / 1000 Ang^3
#
#
#
# Elastic Constant Matrix: (Units=GPa)
#
#
# Indices 1 2 3 4 5 6 
#
# 1 108.3046 18.7558 42.3736 0.0000 0.0000 -2.6342
# 2 18.7558 108.3046 42.3736 0.0000 0.0000 2.6342
# 3 42.3736 42.3736 93.3691 0.0000 0.0000 0.0000
# 4 0.0000 0.0000 0.0000 21.2306 0.0000 0.0000
# 5 0.0000 0.0000 0.0000 0.0000 21.2306 0.0000
# 6 -2.6342 2.6342 0.0000 0.0000 0.0000 30.2227
#
#
#
# Elastic Compliance Matrix: (Units=1/GPa)
#
#
# Indices 1 2 3 4 5 6 
#
# 1 0.011256 0.000031 -0.005122 0.000000 0.000000 0.000978
# 2 0.000031 0.011256 -0.005122 0.000000 0.000000 -0.000978
# 3 -0.005122 -0.005122 0.015359 0.000000 0.000000 0.000000
# 4 0.000000 0.000000 0.000000 0.047102 0.000000 0.000000
# 5 0.000000 0.000000 0.000000 0.000000 0.047102 0.000000
# 6 0.000978 -0.000978 0.000000 0.000000 0.000000 0.033258
#
#
# Mechanical properties :
#
#
# Convention : Reuss Voigt Hill
#
# Bulk Modulus (GPa) = 57.32664 57.44272 57.38468
# Shear Modulus (GPa) = 26.09951 28.30178 27.20064
#
# Velocity S-wave (km/s) = 3.53327 3.67932 3.60703
# Velocity P-wave (km/s) = 6.63821 6.74729 6.69297
#
# Compressibility (1/GPa) = 0.01744390
#
# Stress axis : x y z
#
# Youngs Moduli (GPa) = 88.84389 88.84389 65.10655
#
# Poissons Ratio (x) = -0.00276 0.33349
# Poissons Ratio (y) = -0.00276 0.33349
# Poissons Ratio (z) = 0.45508 0.45508
#
# Static dielectric constant tensor:
#      x y z
#    x 1.786540 0.000000 0.000000 
#    y 0.000000 1.786540 0.000000 
#    z 0.000000 0.000000 1.770880 
# 
# From -- ./inp_files/1866.got.cif
#   From: 2010.05.17/outbox.cif.g08.bks.cpg/sg82_1_cif.got.tgz:1866.got - 2010.06.03 18:52:26.
