data_PCOD9542426
_publ_section_title
;
Structure prediction by ZEFSAII (Michael W. Deem and Ramdas Pophale) SiO2 
 PCOD9542426
Probable space group: P -4
;
_chemical_formula_sum "Si O2"
_cell_formula_units_Z 17
_cell_length_a 11.511480
_cell_length_b 11.511480
_cell_length_c 4.929839
_cell_angle_alpha 90.000000
_cell_angle_beta 90.000000
_cell_angle_gamma 90.000000
_cell_volume 653.273532
_symmetry_space_group_name_H-M "P -4"
_symmetry_group_IT_number 81
_symmetry_cell_setting 'tetragonal'
loop_
_space_group_symop_operation_xyz
x,y,z
y,-x,-z
-x,-y,z
-y,x,-z
loop_
_atom_site_type_symbol
_atom_site_label
_atom_site_fract_x
_atom_site_fract_y
_atom_site_fract_z
Si Si1 0.000000 0.000000 0.500000
Si Si2 0.099707 0.404475 0.874896
Si Si3 0.742909 0.043103 0.609457
Si Si4 0.578315 0.667843 0.054890
Si Si5 0.395214 0.193448 0.526733
O O1 0.881090 0.035767 0.657468
O O2 0.160047 0.492699 0.654196
O O3 0.000000 0.500000 0.948883
O O4 0.095954 0.290618 0.680560
O O5 0.105169 0.334023 0.159375
O O6 0.691717 0.912844 0.560322
O O7 0.642880 0.700591 0.331251
O O8 0.634978 0.556120 0.914913
O O9 0.579627 0.766503 0.828874
#
# Coordination Sequence:
#
# PCOD9542426 Si02
#       5
#     1   4   4   4   4
#     4  12  32  50  68 106 164 210 252 314 400 478
#     4  10  21  43  73 100 130 174 245 314 357 420
#     4  11  25  45  68  99 141 193 250 313 372 439
#     4  11  24  41  64 103 148 179 220 298 389 465
#     4  11  22  42  74 105 134 190 256 305 369 450
#
# _framework density 26.022790000000001
#
# number of rings (size 3 to 8) (size 9 to 14) (size 15 to 20)
#    0.000    1.176    0.000    7.765    0.000   10.353 
#    0.000    0.000    0.000    0.000    0.000    0.000 
#    0.000    0.000    0.000    0.000    0.000    0.000 
#
# Total GULP energy -94690.308200 kJ/mol
# GULP energy per Si atom -5570.018129 kJ/mol
# Density = 2.596356 g / cm^3
# Si number density = 26.022790 Si / 1000 Ang^3
#
#
#
# Elastic Constant Matrix: (Units=GPa)
#
#
# Indices 1 2 3 4 5 6 
#
# 1 29.2556 70.3259 28.6321 0.0000 0.0000 -86.9815
# 2 70.3259 29.2556 28.6321 0.0000 0.0000 86.9815
# 3 28.6321 28.6321 180.1502 0.0000 0.0000 0.0000
# 4 0.0000 0.0000 0.0000 -39.0180 0.0000 0.0000
# 5 0.0000 0.0000 0.0000 0.0000 -39.0180 0.0000
# 6 -86.9815 86.9815 0.0000 0.0000 0.0000 -74.9554
#
#
#
# Elastic Compliance Matrix: (Units=1/GPa)
#
#
# Indices 1 2 3 4 5 6 
#
# 1 0.008635 0.002417 -0.001757 0.000000 0.000000 -0.007217
# 2 0.002417 0.008635 -0.001757 0.000000 0.000000 0.007217
# 3 -0.001757 -0.001757 0.006109 0.000000 0.000000 0.000000
# 4 0.000000 0.000000 0.000000 -0.025629 0.000000 0.000000
# 5 0.000000 0.000000 0.000000 0.000000 -0.025629 0.000000
# 6 -0.007217 0.007217 0.000000 0.000000 0.000000 0.003407
#
#
# Mechanical properties :
#
#
# Convention : Reuss Voigt Hill
#
# Bulk Modulus (GPa) = 47.19812 54.87130 51.03471
# Shear Modulus (GPa) = -328.61213 -23.19352 -175.90282
#
# Velocity S-wave (km/s) = -11.24957 -2.98867 -8.23058
# Velocity P-wave (km/s) = 12.27030 3.03680 8.40649
#
# Compressibility (1/GPa) = 0.02118729
#
# Stress axis : x y z
#
# Youngs Moduli (GPa) = 115.80181 115.80181 163.68531
#
# Poissons Ratio (x) = -0.27986 0.28752
# Poissons Ratio (y) = -0.27986 0.28752
# Poissons Ratio (z) = 0.20341 0.20341
#
# Static dielectric constant tensor:
#      x y z
#    x 2.352760 0.000000 0.000000 
#    y 0.000000 2.352760 0.000000 
#    z 0.000000 0.000000 1.967100 
# 
# From -- ./inp_files/210.got.cif
#   From: 2010.05.17/outbox.cif.g08.bks.cpg/sg81_cif.got.tgz:210.got - 2010.06.03 18:51:07.
