data_PCOD9542842
_publ_section_title
;
Structure prediction by ZEFSAII (Michael W. Deem and Ramdas Pophale) SiO2 
 PCOD9542842
Probable space group: I -4 
;
_chemical_formula_sum "Si O2"
_cell_formula_units_Z 48
_cell_length_a 11.416470
_cell_length_b 11.416470
_cell_length_c 18.538328
_cell_angle_alpha 90.000000
_cell_angle_beta 90.000000
_cell_angle_gamma 90.000000
_cell_volume 2416.207574
_symmetry_space_group_name_H-M "I -4 "
_symmetry_group_IT_number 82
_symmetry_cell_setting 'tetragonal'
loop_
_space_group_symop_operation_xyz
x,y,z
y,-x,-z
-x,-y,z
-y,x,-z
1/2+x,1/2+y,1/2+z
1/2+y,1/2-x,1/2-z
1/2-x,1/2-y,1/2+z
1/2-y,1/2+x,1/2-z
loop_
_atom_site_type_symbol
_atom_site_label
_atom_site_fract_x
_atom_site_fract_y
_atom_site_fract_z
Si Si1 0.777047 0.510284 0.445269
Si Si2 0.120578 0.138902 0.169378
Si Si3 0.215096 0.238296 0.768277
Si Si4 0.461420 0.624396 0.807457
Si Si5 0.203371 0.912675 0.087420
Si Si6 0.562474 0.876163 0.840825
O O1 0.746308 0.414919 0.382979
O O2 0.786785 0.449239 0.522021
O O3 0.666713 0.598911 0.444583
O O4 0.883154 0.590076 0.418285
O O5 0.229633 0.158556 0.222369
O O6 0.017598 0.125679 0.227131
O O7 0.144879 0.028360 0.120161
O O8 0.155898 0.260618 0.845197
O O9 0.326846 0.152880 0.787972
O O10 0.129151 0.174095 0.712720
O O11 0.500000 0.500000 0.841467
O O12 0.497282 0.749667 0.842557
O O13 0.500000 0.000000 0.821812
#
# Coordination Sequence:
#
# PCOD9542842 Si02
#       6
#     8   8   8   8   8   8
#     4  11  20  33  59  92 120 157 202 279 340 386
#     4  11  19  32  54  86 126 158 205 260 332 396
#     4  10  22  32  54  91 123 166 205 265 328 401
#     4  11  19  33  55  87 126 163 209 260 335 410
#     4  11  20  34  58  89 123 152 208 271 334 393
#     4  10  22  34  55  89 130 160 212 277 339 389
#
# _framework density 19.865842000000001
#
# number of rings (size 3 to 8) (size 9 to 14) (size 15 to 20)
#    0.000    1.333    6.667    1.500    2.333    0.000 
#    0.000    0.000    3.667    0.000    0.000    0.000 
#    0.000    0.000    0.000    0.000    0.000    0.000 
#
# Total GULP energy -133707.666422 kJ/mol
# GULP energy per Si atom -5571.152768 kJ/mol
# Density = 1.982063 g / cm^3
# Si number density = 19.865842 Si / 1000 Ang^3
#
#
#
# Elastic Constant Matrix: (Units=GPa)
#
#
# Indices 1 2 3 4 5 6 
#
# 1 62.4920 28.0265 35.8916 0.0000 0.0000 1.0406
# 2 28.0265 62.4920 35.8916 0.0000 0.0000 -1.0406
# 3 35.8916 35.8916 93.2486 0.0000 0.0000 0.0000
# 4 0.0000 0.0000 0.0000 22.4380 0.0000 0.0000
# 5 0.0000 0.0000 0.0000 0.0000 22.4380 0.0000
# 6 1.0406 -1.0406 0.0000 0.0000 0.0000 18.6251
#
#
#
# Elastic Compliance Matrix: (Units=1/GPa)
#
#
# Indices 1 2 3 4 5 6 
#
# 1 0.022507 -0.006606 -0.006120 0.000000 0.000000 -0.001627
# 2 -0.006606 0.022507 -0.006120 0.000000 0.000000 0.001627
# 3 -0.006120 -0.006120 0.015435 0.000000 0.000000 0.000000
# 4 0.000000 0.000000 0.000000 0.044567 0.000000 0.000000
# 5 0.000000 0.000000 0.000000 0.000000 0.044567 0.000000
# 6 -0.001627 0.001627 0.000000 0.000000 0.000000 0.053873
#
#
# Mechanical properties :
#
#
# Convention : Reuss Voigt Hill
#
# Bulk Modulus (GPa) = 43.94409 46.42799 45.18604
# Shear Modulus (GPa) = 20.10170 20.59506 20.34838
#
# Velocity S-wave (km/s) = 3.18445 3.22329 3.20392
# Velocity P-wave (km/s) = 5.97406 6.10527 6.04002
#
# Compressibility (1/GPa) = 0.02275619
#
# Stress axis : x y z
#
# Youngs Moduli (GPa) = 44.43078 44.43078 64.78576
#
# Poissons Ratio (x) = 0.29350 0.39651
# Poissons Ratio (y) = 0.29350 0.39651
# Poissons Ratio (z) = 0.27193 0.27193
#
# Static dielectric constant tensor:
#      x y z
#    x 1.783730 0.000000 0.000000 
#    y 0.000000 1.783730 0.000000 
#    z 0.000000 0.000000 1.697030 
# 
# From -- ./inp_files/2637.got.cif
#   From: 2010.05.17/outbox.cif.g08.bks.cpg/sg82_2_cif.got.tgz:2637.got - 2010.06.03 18:52:26.
