data_PCOD9542494
_publ_section_title
;
Structure prediction by ZEFSAII (Michael W. Deem and Ramdas Pophale) SiO2 
 PCOD9542494
Probable space group: P -4
;
_chemical_formula_sum "Si O2"
_cell_formula_units_Z 16
_cell_length_a 12.045156
_cell_length_b 12.045156
_cell_length_c 5.058862
_cell_angle_alpha 90.000000
_cell_angle_beta 90.000000
_cell_angle_gamma 90.000000
_cell_volume 733.968955
_symmetry_space_group_name_H-M "P -4"
_symmetry_group_IT_number 81
_symmetry_cell_setting 'tetragonal'
loop_
_space_group_symop_operation_xyz
x,y,z
y,-x,-z
-x,-y,z
-y,x,-z
loop_
_atom_site_type_symbol
_atom_site_label
_atom_site_fract_x
_atom_site_fract_y
_atom_site_fract_z
Si Si1 0.810194 0.502080 0.129311
Si Si2 0.693584 0.937164 0.083382
Si Si3 0.282101 0.728263 0.183233
Si Si4 0.686672 0.085658 0.582603
O O1 0.728902 0.404319 0.230658
O O2 0.877280 0.559778 0.364190
O O3 0.896029 0.432991 0.952524
O O4 0.755551 0.602596 0.964721
O O5 0.755012 0.823538 0.004382
O O6 0.719642 0.029324 0.860153
O O7 0.707402 0.991075 0.366027
O O8 0.267892 0.802207 0.444717
#
# Coordination Sequence:
#
# PCOD9542494 Si02
#       4
#     4   4   4   4
#     4  10  25  42  70 106 144 187 235 292 366 427
#     4  10  27  40  74 100 140 185 248 292 348 420
#     4  10  26  42  71 109 147 186 233 304 367 420
#     4  12  23  46  70 107 133 193 245 294 341 436
#
# _framework density 21.799285000000001
#
# number of rings (size 3 to 8) (size 9 to 14) (size 15 to 20)
#    1.500    0.000    2.500    0.750   10.500    2.500 
#    0.000    0.000    0.000    4.500    0.000    0.000 
#    0.000    0.000    0.000    0.000    0.000    0.000 
#
# Total GULP energy -89137.828017 kJ/mol
# GULP energy per Si atom -5571.114251 kJ/mol
# Density = 2.174967 g / cm^3
# Si number density = 21.799285 Si / 1000 Ang^3
#
#
#
# Elastic Constant Matrix: (Units=GPa)
#
#
# Indices 1 2 3 4 5 6 
#
# 1 89.5332 47.5870 21.3704 0.0000 0.0000 -3.6358
# 2 47.5870 89.5332 21.3704 0.0000 0.0000 3.6358
# 3 21.3704 21.3704 85.5994 0.0000 0.0000 0.0000
# 4 0.0000 0.0000 0.0000 27.0913 0.0000 0.0000
# 5 0.0000 0.0000 0.0000 0.0000 27.0913 0.0000
# 6 -3.6358 3.6358 0.0000 0.0000 0.0000 25.9218
#
#
#
# Elastic Compliance Matrix: (Units=1/GPa)
#
#
# Indices 1 2 3 4 5 6 
#
# 1 0.016171 -0.008263 -0.001974 0.000000 0.000000 0.003427
# 2 -0.008263 0.016171 -0.001974 0.000000 0.000000 -0.003427
# 3 -0.001974 -0.001974 0.012668 0.000000 0.000000 0.000000
# 4 0.000000 0.000000 0.000000 0.036912 0.000000 0.000000
# 5 0.000000 0.000000 0.000000 0.000000 0.036912 0.000000
# 6 0.003427 -0.003427 0.000000 0.000000 0.000000 0.039539
#
#
# Mechanical properties :
#
#
# Convention : Reuss Voigt Hill
#
# Bulk Modulus (GPa) = 48.57364 49.48018 49.02691
# Shear Modulus (GPa) = 26.36301 27.64342 27.00322
#
# Velocity S-wave (km/s) = 3.48135 3.56489 3.52336
# Velocity P-wave (km/s) = 6.20405 6.30015 6.25229
#
# Compressibility (1/GPa) = 0.02058730
#
# Stress axis : x y z
#
# Youngs Moduli (GPa) = 61.83824 61.83824 78.93817
#
# Poissons Ratio (x) = 0.51097 0.15585
# Poissons Ratio (y) = 0.51097 0.15585
# Poissons Ratio (z) = 0.12209 0.12209
#
# Static dielectric constant tensor:
#      x y z
#    x 1.832990 0.000000 0.000000 
#    y 0.000000 1.832990 0.000000 
#    z 0.000000 0.000000 1.824830 
# 
# From -- ./inp_files/83.got.cif
#   From: 2010.05.17/outbox.cif.g08.bks.cpg/sg81_cif.got.tgz:83.got - 2010.06.03 18:51:07.
