data_PCOD9542328
_publ_section_title
;
Structure prediction by ZEFSAII (Michael W. Deem and Ramdas Pophale) SiO2 
 PCOD9542328
Probable space group: P -4
;
_chemical_formula_sum "Si O2"
_cell_formula_units_Z 25
_cell_length_a 16.743030
_cell_length_b 16.743030
_cell_length_c 4.981904
_cell_angle_alpha 90.000000
_cell_angle_beta 90.000000
_cell_angle_gamma 90.000000
_cell_volume 1396.572433
_symmetry_space_group_name_H-M "P -4"
_symmetry_group_IT_number 81
_symmetry_cell_setting 'tetragonal'
loop_
_space_group_symop_operation_xyz
x,y,z
y,-x,-z
-x,-y,z
-y,x,-z
loop_
_atom_site_type_symbol
_atom_site_label
_atom_site_fract_x
_atom_site_fract_y
_atom_site_fract_z
Si Si1 0.377201 0.844588 0.143043
Si Si2 0.500000 0.500000 0.500000
Si Si3 0.686590 0.714335 0.773692
Si Si4 0.620997 0.878748 0.840030
Si Si5 0.462476 0.792745 0.640467
Si Si6 0.404878 0.015935 0.354177
Si Si7 0.372696 0.383355 0.273872
O O1 0.311165 0.779063 0.211206
O O2 0.449951 0.810572 0.327511
O O3 0.366921 0.934274 0.243343
O O4 0.397644 0.838137 0.828899
O O5 0.453946 0.431823 0.327731
O O6 0.684451 0.808101 0.831086
O O7 0.647667 0.684377 0.495663
O O8 0.638233 0.662171 0.994119
O O9 0.543909 0.829713 0.739570
O O10 0.631058 0.950385 0.628620
O O11 0.606495 0.917073 0.127808
O O12 0.447015 0.699976 0.698064
O O13 0.500000 0.000000 0.392981
#
# Coordination Sequence:
#
# PCOD9542328 Si02
#       7
#     4   1   4   4   4   4   4
#     4  10  20  35  52  73 107 135 170 210 271 317
#     4  12  24  38  52  74 100 138 208 262 260 302
#     4  10  23  40  52  74 104 148 174 219 274 339
#     4  12  21  33  55  78 109 132 181 213 274 329
#     4  10  18  33  50  71  98 137 170 221 263 321
#     4  12  21  33  55  86 106 133 172 229 273 322
#     4  10  23  36  53  69 100 142 193 231 280 293
#
# _framework density 17.900967999999999
#
# number of rings (size 3 to 8) (size 9 to 14) (size 15 to 20)
#    0.000    1.280    3.200    3.360    0.000    5.760 
#    0.000    0.000    0.000    0.000    0.000    0.000 
#    0.000    3.840    0.000    0.000    0.000    0.000 
#
# Total GULP energy -139647.254565 kJ/mol
# GULP energy per Si atom -5585.890183 kJ/mol
# Density = 1.786022 g / cm^3
# Si number density = 17.900968 Si / 1000 Ang^3
#
#
#
# Elastic Constant Matrix: (Units=GPa)
#
#
# Indices 1 2 3 4 5 6 
#
# 1 58.4579 15.0355 -4.1177 0.0000 0.0000 4.6426
# 2 15.0355 58.4579 -4.1177 0.0000 0.0000 -4.6426
# 3 -4.1177 -4.1177 58.9921 0.0000 0.0000 0.0000
# 4 0.0000 0.0000 0.0000 14.6647 0.0000 0.0000
# 5 0.0000 0.0000 0.0000 0.0000 14.6647 0.0000
# 6 4.6426 -4.6426 0.0000 0.0000 0.0000 21.0114
#
#
#
# Elastic Compliance Matrix: (Units=1/GPa)
#
#
# Indices 1 2 3 4 5 6 
#
# 1 0.018943 -0.005229 0.000957 0.000000 0.000000 -0.005341
# 2 -0.005229 0.018943 0.000957 0.000000 0.000000 0.005341
# 3 0.000957 0.000957 0.017085 0.000000 0.000000 0.000000
# 4 0.000000 0.000000 0.000000 0.068191 0.000000 0.000000
# 5 0.000000 0.000000 0.000000 0.000000 0.068191 0.000000
# 6 -0.005341 0.005341 0.000000 0.000000 0.000000 0.049953
#
#
# Mechanical properties :
#
#
# Convention : Reuss Voigt Hill
#
# Bulk Modulus (GPa) = 20.68597 21.05644 20.87121
# Shear Modulus (GPa) = 18.93589 21.34202 20.13895
#
# Velocity S-wave (km/s) = 3.25593 3.45661 3.35777
# Velocity P-wave (km/s) = 5.07106 5.26490 5.16889
#
# Compressibility (1/GPa) = 0.04834193
#
# Stress axis : x y z
#
# Youngs Moduli (GPa) = 52.79053 52.79053 58.53064
#
# Poissons Ratio (x) = 0.27603 -0.05603
# Poissons Ratio (y) = 0.27603 -0.05603
# Poissons Ratio (z) = -0.05053 -0.05053
#
# Static dielectric constant tensor:
#      x y z
#    x 1.642240 0.000000 0.000000 
#    y 0.000000 1.642240 0.000000 
#    z 0.000000 0.000000 1.642640 
# 
# From -- ./inp_files/352.got.cif
#   From: 2010.05.17/outbox.cif.g08.bks.cpg/sg81_cif.got.tgz:352.got - 2010.06.03 18:51:07.
