data_PCOD9542160
_publ_section_title
;
Structure prediction by ZEFSAII (Michael W. Deem and Ramdas Pophale) SiO2 
 PCOD9542160
Probable space group: I 41
;
_chemical_formula_sum "Si O2"
_cell_formula_units_Z 64
_cell_length_a 11.004988
_cell_length_b 11.004988
_cell_length_c 23.593583
_cell_angle_alpha 90.000000
_cell_angle_beta 90.000000
_cell_angle_gamma 90.000000
_cell_volume 2857.413195
_symmetry_space_group_name_H-M "I 41"
_symmetry_group_IT_number 80
_symmetry_cell_setting 'tetragonal'
loop_
_space_group_symop_operation_xyz
x,y,z
-y,1/2+x,1/4+z
-x,-y,z
y,1/2-x,1/4+z
1/2+x,1/2+y,1/2+z
1/2-y,x,3/4+z
1/2-x,1/2-y,1/2+z
1/2+y,-x,3/4+z
loop_
_atom_site_type_symbol
_atom_site_label
_atom_site_fract_x
_atom_site_fract_y
_atom_site_fract_z
Si Si1 0.327076 0.343302 0.742840
Si Si2 0.364353 0.514320 0.843586
Si Si3 0.292616 0.350719 0.299388
Si Si4 0.889878 0.307774 0.015537
Si Si5 0.112814 0.588562 0.905637
Si Si6 0.033393 0.863239 0.873099
Si Si7 0.425615 0.740543 0.774135
Si Si8 0.134234 0.052878 0.127040
O O1 0.339388 0.395223 0.806642
O O2 0.217144 0.253543 0.752344
O O3 0.455257 0.270734 0.735001
O O4 0.310667 0.429836 0.689482
O O5 0.500000 0.500000 0.871976
O O6 0.241913 0.555496 0.875920
O O7 0.385698 0.607701 0.792080
O O8 0.276955 0.470025 0.262056
O O9 0.414103 0.342047 0.335154
O O10 0.181431 0.359052 0.344404
O O11 0.862437 0.416967 0.972905
O O12 0.880088 0.353769 0.079971
O O13 0.810665 0.190188 0.001439
O O14 0.068675 0.729883 0.898374
O O15 0.000000 0.500000 0.889711
O O16 0.000000 0.000000 0.900168
O O17 0.461743 0.801307 0.833834
O O18 0.000000 0.000000 0.134715
#
# Coordination Sequence:
#
# PCOD9542160 Si02
#       8
#     8   8   8   8   8   8   8   8
#     4  10  23  39  66  98 137 171 222 294 359 417
#     4  10  22  45  65  99 140 175 231 298 348 436
#     4  10  22  41  63  95 140 169 232 289 343 428
#     4  11  23  44  66  94 139 180 233 284 357 422
#     4  12  25  43  75 100 137 193 239 288 371 428
#     4  10  23  45  66  97 138 184 234 294 339 434
#     4  10  21  41  65  94 132 173 225 289 344 437
#     4  11  21  38  66  98 127 177 220 285 363 416
#
# _framework density 22.397881999999999
#
# number of rings (size 3 to 8) (size 9 to 14) (size 15 to 20)
#    0.000    1.500    2.500    3.000    1.750    4.000 
#    9.000    0.625    0.000    0.000    0.000    0.000 
#    0.000    0.000    0.000    0.000    0.000    0.000 
#
# Total GULP energy -178261.889715 kJ/mol
# GULP energy per Si atom -5570.684054 kJ/mol
# Density = 2.234690 g / cm^3
# Si number density = 22.397882 Si / 1000 Ang^3
#
#
#
# Elastic Constant Matrix: (Units=GPa)
#
#
# Indices 1 2 3 4 5 6 
#
# 1 ******************** 8.8702 0.0008 0.0010**********
# 2 ******************** 8.8692 -0.0008 -0.001045119.1180
# 3 8.8702 8.8692 41.4061 0.0000 0.0000 0.0001
# 4 0.0008 -0.0008 0.0000 44.5782 0.0000 0.0001
# 5 0.0010 -0.0010 0.0000 0.0000 44.5782 0.0002
# 6 **********45119.1180 0.0001 0.0001 0.0002-7538.2064
#
#
#
# Elastic Compliance Matrix: (Units=1/GPa)
#
#
# Indices 1 2 3 4 5 6 
#
# 1 0.004105 0.003765 -0.001686 0.000000 0.000000 -0.002035
# 2 0.003765 0.004105 -0.001686 0.000000 0.000000 0.002035
# 3 -0.001686 -0.001686 0.024873 0.000000 0.000000 0.000000
# 4 0.000000 0.000000 0.000000 0.022432 0.000000 0.000000
# 5 0.000000 0.000000 0.000000 0.000000 0.022432 0.000000
# 6 -0.002035 0.002035 0.000000 0.000000 0.000000 0.024230
#
#
# Mechanical properties :
#
#
# Convention : Reuss Voigt Hill
#
# Bulk Modulus (GPa) = 29.52461 37.62333 33.57397
# Shear Modulus (GPa) = 44.37261 -55200.89475 -27578.26107
#
# Velocity S-wave (km/s) = 4.45579 -157.15944 -111.08383
# Velocity P-wave (km/s) = 6.29941 181.42570 128.20999
#
# Compressibility (1/GPa) = 0.03387005
#
# Stress axis : x y z
#
# Youngs Moduli (GPa) = 243.60024 243.60025 40.20375
#
# Poissons Ratio (x) = -0.91717 0.06778
# Poissons Ratio (y) = -0.91717 0.06778
# Poissons Ratio (z) = 0.41068 0.41068
#
# Static dielectric constant tensor:
#      x y z
#    x 1.777690 0.000000 0.000000 
#    y 0.000000 1.777690 0.000000 
#    z 0.000000 0.000000 1.887440 
# 
# From -- ./inp_files/2144.got.cif
#   From: 2010.05.17/outbox.cif.g08.bks.cpg/sg80_cif.got.tgz:2144.got - 2010.06.03 18:49:13.
