data_PCOD9542549
_publ_section_title
;
Structure prediction by ZEFSAII (Michael W. Deem and Ramdas Pophale) SiO2 
 PCOD9542549
Probable space group: P -4
;
_chemical_formula_sum "Si O2"
_cell_formula_units_Z 14
_cell_length_a 8.157974
_cell_length_b 8.157974
_cell_length_c 8.175410
_cell_angle_alpha 90.000000
_cell_angle_beta 90.000000
_cell_angle_gamma 90.000000
_cell_volume 544.094299
_symmetry_space_group_name_H-M "P -4"
_symmetry_group_IT_number 81
_symmetry_cell_setting 'tetragonal'
loop_
_space_group_symop_operation_xyz
x,y,z
y,-x,-z
-x,-y,z
-y,x,-z
loop_
_atom_site_type_symbol
_atom_site_label
_atom_site_fract_x
_atom_site_fract_y
_atom_site_fract_z
Si Si1 0.323811 0.089336 0.843728
Si Si2 0.500000 0.500000 0.000000
Si Si3 0.160894 0.776040 0.495785
Si Si4 0.430128 0.186450 0.190618
Si Si5 0.000000 0.000000 0.000000
O O1 0.298715 0.195332 0.681559
O O2 0.500000 0.000000 0.824720
O O3 0.329407 0.161621 0.024537
O O4 0.152406 0.993606 0.872004
O O5 0.345824 0.474439 0.877673
O O6 0.227181 0.671458 0.646968
O O7 0.962467 0.778038 0.503738
O O8 0.500000 0.000000 0.217414
#
# Coordination Sequence:
#
# PCOD9542549 Si02
#       5
#     4   1   4   4   1
#     4  11  25  45  76 113 154 204 263 328 397 485
#     4  12  32  56  82 124 164 230 284 340 430 492
#     4  11  24  44  79 121 160 212 272 335 421 497
#     4  11  28  52  79 117 168 214 278 345 411 497
#     4  12  24  48  82 108 160 218 252 332 418 476
#
# _framework density 25.730834000000002
#
# number of rings (size 3 to 8) (size 9 to 14) (size 15 to 20)
#    0.000    0.857    0.000    6.000   20.000    0.000 
#    0.000    1.429    0.000    0.000    0.000    0.000 
#    0.000    0.000    0.000    0.000    0.000    0.000 
#
# Total GULP energy -78087.054235 kJ/mol
# GULP energy per Si atom -5577.646731 kJ/mol
# Density = 2.567227 g / cm^3
# Si number density = 25.730834 Si / 1000 Ang^3
#
#
#
# Elastic Constant Matrix: (Units=GPa)
#
#
# Indices 1 2 3 4 5 6 
#
# 1 113.0137 61.0696 53.0105 0.0000 0.0000 13.2929
# 2 61.0696 113.0137 53.0105 0.0000 0.0000 -13.2929
# 3 53.0105 53.0105 221.5936 0.0000 0.0000 0.0000
# 4 0.0000 0.0000 0.0000 58.0411 0.0000 0.0000
# 5 0.0000 0.0000 0.0000 0.0000 58.0411 0.0000
# 6 13.2929 -13.2929 0.0000 0.0000 0.0000 -11.1681
#
#
#
# Elastic Compliance Matrix: (Units=1/GPa)
#
#
# Indices 1 2 3 4 5 6 
#
# 1 0.009344 -0.002620 -0.001609 0.000000 0.000000 0.014240
# 2 -0.002620 0.009344 -0.001609 0.000000 0.000000 -0.014240
# 3 -0.001609 -0.001609 0.005282 0.000000 0.000000 0.000000
# 4 0.000000 0.000000 0.000000 0.017229 0.000000 0.000000
# 5 0.000000 0.000000 0.000000 0.000000 0.017229 0.000000
# 6 0.014240 -0.014240 0.000000 0.000000 0.000000 -0.055643
#
#
# Mechanical properties :
#
#
# Convention : Reuss Voigt Hill
#
# Bulk Modulus (GPa) = 81.32576 86.86690 84.09633
# Shear Modulus (GPa) = 269.43844 39.68484 154.56164
#
# Velocity S-wave (km/s) = 10.24410 3.93148 7.75880
# Velocity P-wave (km/s) = 13.09950 7.37847 10.63106
#
# Compressibility (1/GPa) = 0.01229623
#
# Stress axis : x y z
#
# Youngs Moduli (GPa) = 107.02378 107.02378 189.30886
#
# Poissons Ratio (x) = 0.28037 0.30451
# Poissons Ratio (y) = 0.28037 0.30451
# Poissons Ratio (z) = 0.17215 0.17215
#
# Static dielectric constant tensor:
#      x y z
#    x 2.181460 0.000000 0.000000 
#    y 0.000000 2.181460 0.000000 
#    z 0.000000 0.000000 1.928120 
# 
# From -- ./inp_files/527.got.cif
#   From: 2010.05.17/outbox.cif.g08.bks.cpg/sg81_cif.got.tgz:527.got - 2010.06.03 18:51:07.
