data_PCOD9542156
_publ_section_title
;
Structure prediction by ZEFSAII (Michael W. Deem and Ramdas Pophale) SiO2 
 PCOD9542156
Probable space group: I 41
;
_chemical_formula_sum "Si O2"
_cell_formula_units_Z 56
_cell_length_a 14.901706
_cell_length_b 14.901706
_cell_length_c 10.607795
_cell_angle_alpha 90.000000
_cell_angle_beta 90.000000
_cell_angle_gamma 90.000000
_cell_volume 2355.575886
_symmetry_space_group_name_H-M "I 41"
_symmetry_group_IT_number 80
_symmetry_cell_setting 'tetragonal'
loop_
_space_group_symop_operation_xyz
x,y,z
-y,1/2+x,1/4+z
-x,-y,z
y,1/2-x,1/4+z
1/2+x,1/2+y,1/2+z
1/2-y,x,3/4+z
1/2-x,1/2-y,1/2+z
1/2+y,-x,3/4+z
loop_
_atom_site_type_symbol
_atom_site_label
_atom_site_fract_x
_atom_site_fract_y
_atom_site_fract_z
Si Si1 0.209728 0.450826 0.875000
Si Si2 0.265832 0.693194 0.537921
Si Si3 0.446706 0.356835 0.544054
Si Si4 0.317091 0.446866 0.113841
Si Si5 0.044509 0.616519 0.216455
Si Si6 0.318348 0.209429 0.953019
Si Si7 0.369675 0.625655 0.200932
O O1 0.117949 0.397219 0.902502
O O2 0.246630 0.413081 0.743703
O O3 0.192828 0.555689 0.899239
O O4 0.280062 0.418138 0.979368
O O5 0.271493 0.690361 0.689847
O O6 0.290902 0.593161 0.496227
O O7 0.335426 0.772737 0.492514
O O8 0.449120 0.267164 0.459601
O O9 0.389811 0.438548 0.480777
O O10 0.543828 0.403201 0.552993
O O11 0.394827 0.333616 0.671066
O O12 0.351989 0.547824 0.102153
O O13 0.076486 0.592443 0.075453
O O14 0.281391 0.252683 0.823331
#
# Coordination Sequence:
#
# PCOD9542156 Si02
#       7
#     8   8   8   8   8   8   8
#     4  12  25  43  67 104 149 187 251 309 380 448
#     4  10  21  40  66  96 136 187 248 296 364 439
#     4  11  24  40  70 105 141 180 243 312 371 441
#     4  12  23  41  72 109 138 191 247 315 369 439
#     4  10  22  43  67 105 142 187 249 310 374 451
#     4  12  28  47  68 106 147 201 254 312 391 463
#     4  11  22  41  69 107 141 193 253 311 362 447
#
# _framework density 23.77338
#
# number of rings (size 3 to 8) (size 9 to 14) (size 15 to 20)
#    0.000    0.857    4.286    3.000    6.000    1.143 
#    0.000    2.857    0.000    0.000    0.000    0.000 
#    0.000    0.000    0.000    0.000    0.000    0.000 
#
# Total GULP energy -156363.817119 kJ/mol
# GULP energy per Si atom -5584.422040 kJ/mol
# Density = 2.371927 g / cm^3
# Si number density = 23.773380 Si / 1000 Ang^3
#
#
#
# Elastic Constant Matrix: (Units=GPa)
#
#
# Indices 1 2 3 4 5 6 
#
# 1 67.1400 3.3379 14.0456 0.0000 0.0000 9.3267
# 2 3.3379 67.1400 14.0456 0.0000 0.0000 -9.3267
# 3 14.0456 14.0456 85.1928 0.0000 0.0000 0.0000
# 4 0.0000 0.0000 0.0000 32.8697 0.0000 0.0000
# 5 0.0000 0.0000 0.0000 0.0000 32.8697 0.0000
# 6 9.3267 -9.3267 0.0000 0.0000 0.0000 42.4316
#
#
#
# Elastic Compliance Matrix: (Units=1/GPa)
#
#
# Indices 1 2 3 4 5 6 
#
# 1 0.015968 -0.000782 -0.002504 0.000000 0.000000 -0.003682
# 2 -0.000782 0.015968 -0.002504 0.000000 0.000000 0.003682
# 3 -0.002504 -0.002504 0.012564 0.000000 0.000000 0.000000
# 4 0.000000 0.000000 0.000000 0.030423 0.000000 0.000000
# 5 0.000000 0.000000 0.000000 0.000000 0.030423 0.000000
# 6 -0.003682 0.003682 0.000000 0.000000 0.000000 0.025186
#
#
# Mechanical properties :
#
#
# Convention : Reuss Voigt Hill
#
# Bulk Modulus (GPa) = 30.37481 31.37011 30.87246
# Shear Modulus (GPa) = 32.66163 34.17045 33.41604
#
# Velocity S-wave (km/s) = 3.71060 3.79534 3.75321
# Velocity P-wave (km/s) = 5.58235 5.69476 5.63883
#
# Compressibility (1/GPa) = 0.03292202
#
# Stress axis : x y z
#
# Youngs Moduli (GPa) = 62.62393 62.62393 79.59445
#
# Poissons Ratio (x) = 0.04894 0.19929
# Poissons Ratio (y) = 0.04894 0.19929
# Poissons Ratio (z) = 0.15680 0.15680
#
# Static dielectric constant tensor:
#      x y z
#    x 1.947150 0.000000 0.000000 
#    y 0.000000 1.947150 0.000000 
#    z 0.000000 0.000000 1.952430 
# 
# From -- ./inp_files/1055.got.cif
#   From: 2010.05.17/outbox.cif.g08.bks.cpg/sg80_cif.got.tgz:1055.got - 2010.06.03 18:49:13.
