data_PCOD9542124
_publ_section_title
;
Structure prediction by ZEFSAII (Michael W. Deem and Ramdas Pophale) SiO2 
 PCOD9542124
Probable space group: I 41
;
_chemical_formula_sum "Si O2"
_cell_formula_units_Z 64
_cell_length_a 11.272924
_cell_length_b 11.272924
_cell_length_c 25.552205
_cell_angle_alpha 90.000000
_cell_angle_beta 90.000000
_cell_angle_gamma 90.000000
_cell_volume 3247.143945
_symmetry_space_group_name_H-M "I 41"
_symmetry_group_IT_number 80
_symmetry_cell_setting 'tetragonal'
loop_
_space_group_symop_operation_xyz
x,y,z
-y,1/2+x,1/4+z
-x,-y,z
y,1/2-x,1/4+z
1/2+x,1/2+y,1/2+z
1/2-y,x,3/4+z
1/2-x,1/2-y,1/2+z
1/2+y,-x,3/4+z
loop_
_atom_site_type_symbol
_atom_site_label
_atom_site_fract_x
_atom_site_fract_y
_atom_site_fract_z
Si Si1 0.964969 0.622180 0.423630
Si Si2 0.255192 0.243185 0.861742
Si Si3 0.727973 0.202207 0.911193
Si Si4 0.626043 0.951847 0.415632
Si Si5 0.691836 0.120294 0.499145
Si Si6 0.617217 0.561328 0.790284
Si Si7 0.200451 0.619570 0.824114
Si Si8 0.007599 0.637819 0.093419
O O1 0.866059 0.697853 0.395442
O O2 0.910403 0.588308 0.480215
O O3 0.000000 0.500000 0.394698
O O4 0.092350 0.684147 0.427186
O O5 0.163511 0.320804 0.897521
O O6 0.318066 0.331439 0.820015
O O7 0.191273 0.125177 0.839631
O O8 0.796242 0.268074 0.958946
O O9 0.729776 0.291464 0.862080
O O10 0.790771 0.084507 0.887264
O O11 0.500000 0.000000 0.435626
O O12 0.704124 0.004131 0.462708
O O13 0.639496 0.028837 0.363170
O O14 0.801935 0.116784 0.538708
O O15 0.578909 0.137450 0.537821
O O16 0.500000 0.500000 0.815211
O O17 0.711469 0.455750 0.789520
O O18 0.000000 0.500000 0.109174
#
# Coordination Sequence:
#
# PCOD9542124 Si02
#       8
#     8   8   8   8   8   8   8   8
#     4  11  21  40  63  92 132 170 218 271 332 395
#     4  11  25  43  66 100 135 177 224 279 337 399
#     4  10  20  40  68  91 131 173 218 271 334 398
#     4  10  23  41  62  90 132 169 214 274 327 390
#     4  10  21  40  68  94 123 176 221 267 338 399
#     4  10  21  39  63  93 131 167 214 279 324 394
#     4   9  19  37  61  91 118 164 214 267 320 385
#     4  11  25  43  66  97 140 175 224 280 332 415
#
# _framework density 19.709627000000001
#
# number of rings (size 3 to 8) (size 9 to 14) (size 15 to 20)
#    0.000    1.750    2.500    1.125    5.250    2.000 
#    2.250    0.000    0.000    0.000    0.000    0.000 
#    0.000    0.000    0.000    0.000    0.000    0.000 
#
# Total GULP energy -178195.456968 kJ/mol
# GULP energy per Si atom -5568.608030 kJ/mol
# Density = 1.966477 g / cm^3
# Si number density = 19.709627 Si / 1000 Ang^3
#
#
#
# Elastic Constant Matrix: (Units=GPa)
#
#
# Indices 1 2 3 4 5 6 
#
# 1 98.4337 32.2742 21.0872 0.0000 0.0000 2.8367
# 2 32.2742 98.4337 21.0872 0.0000 0.0000 -2.8367
# 3 21.0872 21.0872 73.9060 0.0000 0.0000 0.0000
# 4 0.0000 0.0000 0.0000 -33.7487 0.0000 0.0000
# 5 0.0000 0.0000 0.0000 0.0000 -33.7487 0.0000
# 6 2.8367 -2.8367 0.0000 0.0000 0.0000 25.0034
#
#
#
# Elastic Compliance Matrix: (Units=1/GPa)
#
#
# Indices 1 2 3 4 5 6 
#
# 1 0.011845 -0.003419 -0.002404 0.000000 0.000000 -0.001732
# 2 -0.003419 0.011845 -0.002404 0.000000 0.000000 0.001732
# 3 -0.002404 -0.002404 0.014903 0.000000 0.000000 0.000000
# 4 0.000000 0.000000 0.000000 -0.029631 0.000000 0.000000
# 5 0.000000 0.000000 0.000000 0.000000 -0.029631 0.000000
# 6 -0.001732 0.001732 0.000000 0.000000 0.000000 0.040388
#
#
# Mechanical properties :
#
#
# Convention : Reuss Voigt Hill
#
# Bulk Modulus (GPa) = 45.17025 46.63006 45.90016
# Shear Modulus (GPa) = 114.80504 4.58953 59.69729
#
# Velocity S-wave (km/s) = 7.64033 1.52762 5.50946
# Velocity P-wave (km/s) = 10.03994 5.17894 7.98817
#
# Compressibility (1/GPa) = 0.02213846
#
# Stress axis : x y z
#
# Youngs Moduli (GPa) = 84.42423 84.42423 67.10202
#
# Poissons Ratio (x) = 0.28861 0.16133
# Poissons Ratio (y) = 0.28861 0.16133
# Poissons Ratio (z) = 0.20298 0.20298
#
# Static dielectric constant tensor:
#      x y z
#    x 2.080240 0.000000 0.000000 
#    y 0.000000 2.080240 0.000000 
#    z 0.000000 0.000000 1.710700 
# 
# From -- ./inp_files/2136.got.cif
#   From: 2010.05.17/outbox.cif.g08.bks.cpg/sg80_cif.got.tgz:2136.got - 2010.06.03 18:49:13.
