data_PCOD9542485
_publ_section_title
;
Structure prediction by ZEFSAII (Michael W. Deem and Ramdas Pophale) SiO2 
 PCOD9542485
Probable space group: P -4
;
_chemical_formula_sum "Si O2"
_cell_formula_units_Z 16
_cell_length_a 9.686358
_cell_length_b 9.686358
_cell_length_c 6.746076
_cell_angle_alpha 90.000000
_cell_angle_beta 90.000000
_cell_angle_gamma 90.000000
_cell_volume 632.954165
_symmetry_space_group_name_H-M "P -4"
_symmetry_group_IT_number 81
_symmetry_cell_setting 'tetragonal'
loop_
_space_group_symop_operation_xyz
x,y,z
y,-x,-z
-x,-y,z
-y,x,-z
loop_
_atom_site_type_symbol
_atom_site_label
_atom_site_fract_x
_atom_site_fract_y
_atom_site_fract_z
Si Si1 0.333840 0.376174 0.441263
Si Si2 0.116962 0.318787 0.997739
Si Si3 0.204470 0.914186 0.564094
Si Si4 0.372459 0.180169 0.061835
O O1 0.342236 0.540095 0.411294
O O2 0.523655 0.165989 0.969979
O O3 0.370921 0.285437 0.246748
O O4 0.182032 0.330452 0.509875
O O5 0.975634 0.330793 0.878555
O O6 0.249392 0.235691 0.923774
O O7 0.241208 0.923329 0.797669
O O8 0.065446 0.827728 0.517796
#
# Coordination Sequence:
#
# PCOD9542485 Si02
#       4
#     4   4   4   4
#     4  10  24  44  70 106 144 186 237 296 359 425
#     4  10  24  44  70 106 144 186 237 296 359 425
#     4  10  24  44  70 106 144 186 237 296 359 425
#     4  10  24  44  70 106 144 186 237 296 359 425
#
# _framework density 25.278290999999999
#
# number of rings (size 3 to 8) (size 9 to 14) (size 15 to 20)
#    0.000    2.000    0.000    0.000    0.000   36.000 
#    0.000    0.000    0.000    0.000    0.000    0.000 
#    0.000    0.000    0.000    0.000    0.000    0.000 
#
# Total GULP energy -89381.589405 kJ/mol
# GULP energy per Si atom -5586.349338 kJ/mol
# Density = 2.522076 g / cm^3
# Si number density = 25.278291 Si / 1000 Ang^3
#
#
#
# Elastic Constant Matrix: (Units=GPa)
#
#
# Indices 1 2 3 4 5 6 
#
# 1 154.0558 5.8627 7.5300 0.0000 0.0000 -2.9337
# 2 5.8627 154.0558 7.5300 0.0000 0.0000 2.9337
# 3 7.5300 7.5300 93.3155 0.0000 0.0000 0.0000
# 4 0.0000 0.0000 0.0000 33.5709 0.0000 0.0000
# 5 0.0000 0.0000 0.0000 0.0000 33.5709 0.0000
# 6 -2.9337 2.9337 0.0000 0.0000 0.0000 48.8001
#
#
#
# Elastic Compliance Matrix: (Units=1/GPa)
#
#
# Indices 1 2 3 4 5 6 
#
# 1 0.006533 -0.000231 -0.000508 0.000000 0.000000 0.000407
# 2 -0.000231 0.006533 -0.000508 0.000000 0.000000 -0.000407
# 3 -0.000508 -0.000508 0.010798 0.000000 0.000000 0.000000
# 4 0.000000 0.000000 0.000000 0.029788 0.000000 0.000000
# 5 0.000000 0.000000 0.000000 0.000000 0.029788 0.000000
# 6 0.000407 -0.000407 0.000000 0.000000 0.000000 0.020541
#
#
# Mechanical properties :
#
#
# Convention : Reuss Voigt Hill
#
# Bulk Modulus (GPa) = 46.80183 49.25252 48.02718
# Shear Modulus (GPa) = 44.01464 48.55535 46.28499
#
# Velocity S-wave (km/s) = 4.17730 4.38748 4.28368
# Velocity P-wave (km/s) = 6.46694 6.72258 6.59600
#
# Compressibility (1/GPa) = 0.02136669
#
# Stress axis : x y z
#
# Youngs Moduli (GPa) = 153.07933 153.07933 92.60639
#
# Poissons Ratio (x) = 0.03544 0.04709
# Poissons Ratio (y) = 0.03544 0.04709
# Poissons Ratio (z) = 0.07783 0.07783
#
# Static dielectric constant tensor:
#      x y z
#    x 1.984900 0.000000 0.000000 
#    y 0.000000 1.984900 0.000000 
#    z 0.000000 0.000000 2.096660 
# 
# From -- ./inp_files/59.got.cif
#   From: 2010.05.17/outbox.cif.g08.bks.cpg/sg81_cif.got.tgz:59.got - 2010.06.03 18:51:07.
