data_PCOD9542419
_publ_section_title
;
Structure prediction by ZEFSAII (Michael W. Deem and Ramdas Pophale) SiO2 
 PCOD9542419
Probable space group: P -4
;
_chemical_formula_sum "Si O2"
_cell_formula_units_Z 16
_cell_length_a 10.037436
_cell_length_b 10.037436
_cell_length_c 7.393457
_cell_angle_alpha 90.000000
_cell_angle_beta 90.000000
_cell_angle_gamma 90.000000
_cell_volume 744.891691
_symmetry_space_group_name_H-M "P -4"
_symmetry_group_IT_number 81
_symmetry_cell_setting 'tetragonal'
loop_
_space_group_symop_operation_xyz
x,y,z
y,-x,-z
-x,-y,z
-y,x,-z
loop_
_atom_site_type_symbol
_atom_site_label
_atom_site_fract_x
_atom_site_fract_y
_atom_site_fract_z
Si Si1 0.370500 0.335971 0.962302
Si Si2 0.362710 0.070438 0.178354
Si Si3 0.762566 0.176190 0.305941
Si Si4 0.645010 0.987992 0.579383
O O1 0.286291 0.334197 0.779101
O O2 0.336288 0.471250 0.067234
O O3 0.333993 0.203259 0.071307
O O4 0.383199 0.095677 0.393543
O O5 0.500000 0.000000 0.115934
O O6 0.250573 0.955450 0.181342
O O7 0.905711 0.244306 0.315245
O O8 0.709067 0.122772 0.499134
O O9 0.500000 0.000000 0.669383
#
# Coordination Sequence:
#
# PCOD9542419 Si02
#       4
#     4   4   4   4
#     4  11  21  38  67 100 129 171 226 282 339 403
#     4   9  19  42  60  87 134 167 211 275 336 403
#     4  10  21  41  63  88 131 172 215 273 328 403
#     4   9  20  40  62  88 125 171 216 273 329 387
#
# _framework density 21.479634000000001
#
# number of rings (size 3 to 8) (size 9 to 14) (size 15 to 20)
#    1.500    0.750    2.500    0.000    0.000    3.500 
#    4.500    0.000    0.000    0.000    0.000    0.000 
#    0.000    0.000    0.000    0.000    0.000    0.000 
#
# Total GULP energy -89106.613008 kJ/mol
# GULP energy per Si atom -5569.163313 kJ/mol
# Density = 2.143075 g / cm^3
# Si number density = 21.479634 Si / 1000 Ang^3
#
#
#
# Elastic Constant Matrix: (Units=GPa)
#
#
# Indices 1 2 3 4 5 6 
#
# 1 127.9056 75.9608 27.4283 0.0000 0.0000 -14.0008
# 2 75.9608 127.9056 27.4283 0.0000 0.0000 14.0008
# 3 27.4283 27.4283 37.3011 0.0000 0.0000 0.0000
# 4 0.0000 0.0000 0.0000 -47.5486 0.0000 0.0000
# 5 0.0000 0.0000 0.0000 0.0000 -47.5486 0.0000
# 6 -14.0008 14.0008 0.0000 0.0000 0.0000 34.7433
#
#
#
# Elastic Compliance Matrix: (Units=1/GPa)
#
#
# Indices 1 2 3 4 5 6 
#
# 1 0.015354 -0.009239 -0.004497 0.000000 0.000000 0.009911
# 2 -0.009239 0.015354 -0.004497 0.000000 0.000000 -0.009911
# 3 -0.004497 -0.004497 0.033422 0.000000 0.000000 0.000000
# 4 0.000000 0.000000 0.000000 -0.021031 0.000000 0.000000
# 5 0.000000 0.000000 0.000000 0.000000 -0.021031 0.000000
# 6 0.009911 -0.009911 0.000000 0.000000 0.000000 0.036770
#
#
# Mechanical properties :
#
#
# Convention : Reuss Voigt Hill
#
# Bulk Modulus (GPa) = 36.14594 61.63858 48.89226
# Shear Modulus (GPa) = 47.83532 -1.25113 23.29209
#
# Velocity S-wave (km/s) = 4.72424 -0.76403 3.29657
# Velocity P-wave (km/s) = 6.82806 5.28964 6.10748
#
# Compressibility (1/GPa) = 0.02766563
#
# Stress axis : x y z
#
# Youngs Moduli (GPa) = 65.12779 65.12779 29.92067
#
# Poissons Ratio (x) = 0.60174 0.13454
# Poissons Ratio (y) = 0.60174 0.13454
# Poissons Ratio (z) = 0.29285 0.29285
#
# Static dielectric constant tensor:
#      x y z
#    x 1.852630 0.000000 0.000000 
#    y 0.000000 1.852630 0.000000 
#    z 0.000000 0.000000 1.806880 
# 
# From -- ./inp_files/1094.got.cif
#   From: 2010.05.17/outbox.cif.g08.bks.cpg/sg81_cif.got.tgz:1094.got - 2010.06.03 18:51:07.
