data_PCOD9542045
_publ_section_title
;
Structure prediction by ZEFSAII (Michael W. Deem and Ramdas Pophale) SiO2 
 PCOD9542045
Probable space group: I 4
;
_chemical_formula_sum "Si O2"
_cell_formula_units_Z 64
_cell_length_a 11.557077
_cell_length_b 11.557077
_cell_length_c 24.977990
_cell_angle_alpha 90.000000
_cell_angle_beta 90.000000
_cell_angle_gamma 90.000000
_cell_volume 3336.210931
_symmetry_space_group_name_H-M "I 4"
_symmetry_group_IT_number 79
_symmetry_cell_setting 'tetragonal'
loop_
_space_group_symop_operation_xyz
x,y,z
-y,x,z
-x,-y,z
y,-x,z
1/2+x,1/2+y,1/2+z
1/2-y,1/2+x,1/2+z
1/2-x,1/2-y,1/2+z
1/2+y,1/2-x,1/2+z
loop_
_atom_site_type_symbol
_atom_site_label
_atom_site_fract_x
_atom_site_fract_y
_atom_site_fract_z
Si Si1 0.448918 0.317974 0.056290
Si Si2 0.996307 0.808647 0.137561
Si Si3 0.618007 0.065921 0.343601
Si Si4 0.381992 0.065920 0.058704
Si Si5 0.496306 0.691354 0.764744
Si Si6 0.047382 0.816432 0.974901
Si Si7 0.952614 0.816433 0.427403
Si Si8 0.051079 0.817973 0.846014
O O1 0.577643 0.361901 0.070360
O O2 0.412480 0.194709 0.078561
O O3 0.448462 0.304515 0.991503
O O4 0.000065 0.693287 0.103226
O O5 0.000000 0.787284 0.201153
O O6 0.886715 0.890355 0.125035
O O7 0.701163 0.072938 0.395174
O O8 0.587517 0.194708 0.323742
O O9 0.500000 0.000000 0.356289
O O10 0.693287 0.000064 0.299080
O O11 0.298838 0.072933 0.007130
O O12 0.500000 0.000000 0.046017
O O13 0.386714 0.609644 0.777271
O O14 0.919364 0.863647 0.988982
O O15 0.051534 0.804513 0.910801
O O16 0.080634 0.863645 0.413321
O O17 0.922355 0.861902 0.831944
#
# Coordination Sequence:
#
# PCOD9542045 Si02
#       8
#     8   8   8   8   8   8   8   8
#     4   9  21  39  54  75 116 163 196 226 274 338
#     4   9  20  41  66  87 110 141 182 240 303 348
#     4  12  24  32  55  90 116 144 192 238 288 345
#     4  12  24  32  55  90 116 144 192 238 288 345
#     4   9  20  41  66  87 110 141 182 240 303 348
#     4   9  19  37  57  77 110 155 198 242 284 325
#     4   9  19  37  57  77 110 155 198 242 284 325
#     4   9  21  39  54  75 116 163 196 226 274 338
#
# _framework density 19.183439
#
# number of rings (size 3 to 8) (size 9 to 14) (size 15 to 20)
#    0.000    2.250    0.000    4.500    7.000    4.500 
#    0.000    0.000    0.000    0.000    0.000    0.000 
#    0.000    0.000    0.000    0.000    0.000    0.000 
#
# Total GULP energy -178759.574272 kJ/mol
# GULP energy per Si atom -5586.236696 kJ/mol
# Density = 1.913978 g / cm^3
# Si number density = 19.183439 Si / 1000 Ang^3
#
#
#
# Elastic Constant Matrix: (Units=GPa)
#
#
# Indices 1 2 3 4 5 6 
#
# 1 94.8218 34.4324 -1.1857 0.0000 0.0000 -0.0001
# 2 34.4324 94.8218 -1.1857 0.0000 0.0000 0.0001
# 3 -1.1857 -1.1857 20.4782 0.0000 0.0000 0.0000
# 4 0.0000 0.0000 0.0000 16.3801 0.0000 0.0000
# 5 0.0000 0.0000 0.0000 0.0000 16.3801 0.0000
# 6 -0.0001 0.0001 0.0000 0.0000 0.0000 10.8549
#
#
#
# Elastic Compliance Matrix: (Units=1/GPa)
#
#
# Indices 1 2 3 4 5 6 
#
# 1 0.012152 -0.004407 0.000448 0.000000 0.000000 0.000000
# 2 -0.004407 0.012152 0.000448 0.000000 0.000000 0.000000
# 3 0.000448 0.000448 0.048884 0.000000 0.000000 0.000000
# 4 0.000000 0.000000 0.000000 0.061050 0.000000 0.000000
# 5 0.000000 0.000000 0.000000 0.000000 0.061050 0.000000
# 6 0.000000 0.000000 0.000000 0.000000 0.000000 0.092125
#
#
# Mechanical properties :
#
#
# Convention : Reuss Voigt Hill
#
# Bulk Modulus (GPa) = 15.11302 30.47152 22.79227
# Shear Modulus (GPa) = 15.79833 20.59373 18.19603
#
# Velocity S-wave (km/s) = 2.87285 3.28001 3.08316
# Velocity P-wave (km/s) = 4.34737 5.50122 4.95797
#
# Compressibility (1/GPa) = 0.06616810
#
# Stress axis : x y z
#
# Youngs Moduli (GPa) = 82.29057 82.29057 20.45640
#
# Poissons Ratio (x) = 0.36267 -0.00917
# Poissons Ratio (y) = 0.36267 -0.00917
# Poissons Ratio (z) = -0.03690 -0.03690
#
# Static dielectric constant tensor:
#      x y z
#    x 1.660720 0.000000 0.000000 
#    y 0.000000 1.660720 0.000000 
#    z 0.000000 0.000000 1.673480 
# 
# From -- ./inp_files/2061.got.cif
#   From: 2010.05.17/outbox.cif.g08.bks.cpg/sg79_cif.got.tgz:2061.got - 2010.06.03 18:47:27.
