data_PCOD9542471
_publ_section_title
;
Structure prediction by ZEFSAII (Michael W. Deem and Ramdas Pophale) SiO2 
 PCOD9542471
Probable space group: P -4
;
_chemical_formula_sum "Si O2"
_cell_formula_units_Z 14
_cell_length_a 8.473108
_cell_length_b 8.473108
_cell_length_c 7.943637
_cell_angle_alpha 90.000000
_cell_angle_beta 90.000000
_cell_angle_gamma 90.000000
_cell_volume 570.301973
_symmetry_space_group_name_H-M "P -4"
_symmetry_group_IT_number 81
_symmetry_cell_setting 'tetragonal'
loop_
_space_group_symop_operation_xyz
x,y,z
y,-x,-z
-x,-y,z
-y,x,-z
loop_
_atom_site_type_symbol
_atom_site_label
_atom_site_fract_x
_atom_site_fract_y
_atom_site_fract_z
Si Si1 0.500000 0.500000 0.000000
Si Si2 0.278607 0.817213 0.166999
Si Si3 0.000000 0.000000 0.000000
Si Si4 0.747534 0.086708 0.513490
Si Si5 0.786710 0.556115 0.168653
O O1 0.603594 0.395697 0.872429
O O2 0.346490 0.871533 0.344198
O O3 0.230821 0.632194 0.182948
O O4 0.387037 0.858537 0.007399
O O5 0.120140 0.911643 0.122351
O O6 0.645613 0.133933 0.676735
O O7 0.906436 0.193745 0.500349
#
# Coordination Sequence:
#
# PCOD9542471 Si02
#       5
#     1   4   1   4   4
#     4   8  20  44  66  96 136 174 220 276 326 392
#     4  11  24  44  69  98 134 174 220 274 331 393
#     4  12  24  44  70  96 136 174 216 280 330 392
#     4  11  24  43  68 100 135 172 219 275 333 393
#     4  10  23  43  68  98 133 176 222 270 333 394
#
# _framework density 24.548401999999999
#
# number of rings (size 3 to 8) (size 9 to 14) (size 15 to 20)
#    0.000    1.429    0.000    5.143    0.000   11.429 
#    0.000    7.143    0.000    0.000    0.000    0.000 
#    0.000    0.000    0.000    0.000    0.000    0.000 
#
# Total GULP energy -78247.210473 kJ/mol
# GULP energy per Si atom -5589.086462 kJ/mol
# Density = 2.449253 g / cm^3
# Si number density = 24.548402 Si / 1000 Ang^3
#
#
#
# Elastic Constant Matrix: (Units=GPa)
#
#
# Indices 1 2 3 4 5 6 
#
# 1 91.1944 27.6713 49.6320 0.0000 0.0000 2.2263
# 2 27.6713 91.1944 49.6320 0.0000 0.0000 -2.2263
# 3 49.6320 49.6320 232.5254 0.0000 0.0000 0.0000
# 4 0.0000 0.0000 0.0000 17.0623 0.0000 0.0000
# 5 0.0000 0.0000 0.0000 0.0000 17.0623 0.0000
# 6 2.2263 -2.2263 0.0000 0.0000 0.0000 42.5474
#
#
#
# Elastic Compliance Matrix: (Units=1/GPa)
#
#
# Indices 1 2 3 4 5 6 
#
# 1 0.013019 -0.002781 -0.002185 0.000000 0.000000 -0.000827
# 2 -0.002781 0.013019 -0.002185 0.000000 0.000000 0.000827
# 3 -0.002185 -0.002185 0.005233 0.000000 0.000000 0.000000
# 4 0.000000 0.000000 0.000000 0.058609 0.000000 0.000000
# 5 0.000000 0.000000 0.000000 0.000000 0.058609 0.000000
# 6 -0.000827 0.000827 0.000000 0.000000 0.000000 0.023590
#
#
# Mechanical properties :
#
#
# Convention : Reuss Voigt Hill
#
# Bulk Modulus (GPa) = 58.93436 74.30941 66.62189
# Shear Modulus (GPa) = 26.03648 34.53299 30.28474
#
# Velocity S-wave (km/s) = 3.26025 3.75471 3.51618
# Velocity P-wave (km/s) = 6.18319 7.00952 6.60928
#
# Compressibility (1/GPa) = 0.01696803
#
# Stress axis : x y z
#
# Youngs Moduli (GPa) = 76.81093 76.81093 191.07806
#
# Poissons Ratio (x) = 0.21363 0.41755
# Poissons Ratio (y) = 0.21363 0.41755
# Poissons Ratio (z) = 0.16785 0.16785
#
# Static dielectric constant tensor:
#      x y z
#    x 2.041040 0.000000 0.000000 
#    y 0.000000 2.041040 0.000000 
#    z 0.000000 0.000000 1.965710 
# 
# From -- ./inp_files/525.got.cif
#   From: 2010.05.17/outbox.cif.g08.bks.cpg/sg81_cif.got.tgz:525.got - 2010.06.03 18:51:07.
