data_PCOD9542449
_publ_section_title
;
Structure prediction by ZEFSAII (Michael W. Deem and Ramdas Pophale) SiO2 
 PCOD9542449
Probable space group: P -4
;
_chemical_formula_sum "Si O2"
_cell_formula_units_Z 16
_cell_length_a 11.743544
_cell_length_b 11.743544
_cell_length_c 5.225747
_cell_angle_alpha 90.000000
_cell_angle_beta 90.000000
_cell_angle_gamma 90.000000
_cell_volume 720.687084
_symmetry_space_group_name_H-M "P -4"
_symmetry_group_IT_number 81
_symmetry_cell_setting 'tetragonal'
loop_
_space_group_symop_operation_xyz
x,y,z
y,-x,-z
-x,-y,z
-y,x,-z
loop_
_atom_site_type_symbol
_atom_site_label
_atom_site_fract_x
_atom_site_fract_y
_atom_site_fract_z
Si Si1 0.958521 0.167276 0.589081
Si Si2 0.678857 0.769071 0.641669
Si Si3 0.114441 0.309048 0.920883
Si Si4 0.579820 0.177931 0.581043
O O1 0.880580 0.266788 0.483338
O O2 0.058303 0.124281 0.397522
O O3 0.024250 0.213910 0.835795
O O4 0.758210 0.745426 0.890489
O O5 0.545616 0.785932 0.660684
O O6 0.712253 0.660914 0.464975
O O7 0.114631 0.403027 0.690999
O O8 0.103492 0.366696 0.192408
#
# Coordination Sequence:
#
# PCOD9542449 Si02
#       4
#     4   4   4   4
#     4   9  18  43  68  96 134 176 224 279 340 405
#     4   9  22  40  68  92 141 169 232 268 351 395
#     4   9  22  40  64  96 126 172 218 272 333 394
#     4  10  22  41  64  99 130 175 220 277 332 405
#
# _framework density 22.201035000000001
#
# number of rings (size 3 to 8) (size 9 to 14) (size 15 to 20)
#    1.500    1.250    0.000    0.000    3.500    1.500 
#    9.000    2.500    5.500    0.000    0.000    0.000 
#    0.000    0.000    0.000    0.000    0.000    0.000 
#
# Total GULP energy -89229.222897 kJ/mol
# GULP energy per Si atom -5576.826431 kJ/mol
# Density = 2.215050 g / cm^3
# Si number density = 22.201035 Si / 1000 Ang^3
#
#
#
# Elastic Constant Matrix: (Units=GPa)
#
#
# Indices 1 2 3 4 5 6 
#
# 1 133.6888 46.6521 15.4545 0.0000 0.0000 -1.8571
# 2 46.6521 133.6888 15.4545 0.0000 0.0000 1.8571
# 3 15.4545 15.4545 70.9318 0.0000 0.0000 0.0000
# 4 0.0000 0.0000 0.0000 12.5525 0.0000 0.0000
# 5 0.0000 0.0000 0.0000 0.0000 12.5525 0.0000
# 6 -1.8571 1.8571 0.0000 0.0000 0.0000 17.6973
#
#
#
# Elastic Compliance Matrix: (Units=1/GPa)
#
#
# Indices 1 2 3 4 5 6 
#
# 1 0.008651 -0.002890 -0.001255 0.000000 0.000000 0.001211
# 2 -0.002890 0.008651 -0.001255 0.000000 0.000000 -0.001211
# 3 -0.001255 -0.001255 0.014645 0.000000 0.000000 0.000000
# 4 0.000000 0.000000 0.000000 0.079665 0.000000 0.000000
# 5 0.000000 0.000000 0.000000 0.000000 0.079665 0.000000
# 6 0.001211 -0.001211 0.000000 0.000000 0.000000 0.056760
#
#
# Mechanical properties :
#
#
# Convention : Reuss Voigt Hill
#
# Bulk Modulus (GPa) = 47.29207 54.82573 51.05890
# Shear Modulus (GPa) = 18.80503 25.94368 22.37435
#
# Velocity S-wave (km/s) = 2.91354 3.42216 3.17804
# Velocity P-wave (km/s) = 5.71544 6.35324 6.04276
#
# Compressibility (1/GPa) = 0.02114520
#
# Stress axis : x y z
#
# Youngs Moduli (GPa) = 115.59867 115.59867 68.28299
#
# Poissons Ratio (x) = 0.33413 0.08570
# Poissons Ratio (y) = 0.33413 0.08570
# Poissons Ratio (z) = 0.14508 0.14508
#
# Static dielectric constant tensor:
#      x y z
#    x 1.817510 0.000000 0.000000 
#    y 0.000000 1.817510 0.000000 
#    z 0.000000 0.000000 1.839660 
# 
# From -- ./inp_files/67.got.cif
#   From: 2010.05.17/outbox.cif.g08.bks.cpg/sg81_cif.got.tgz:67.got - 2010.06.03 18:51:07.
