data_PCOD9542211
_publ_section_title
;
Structure prediction by ZEFSAII (Michael W. Deem and Ramdas Pophale) SiO2 
 PCOD9542211
Probable space group: I 41
;
_chemical_formula_sum "Si O2"
_cell_formula_units_Z 48
_cell_length_a 10.876678
_cell_length_b 10.876678
_cell_length_c 17.879095
_cell_angle_alpha 90.000000
_cell_angle_beta 90.000000
_cell_angle_gamma 90.000000
_cell_volume 2115.134919
_symmetry_space_group_name_H-M "I 41"
_symmetry_group_IT_number 80
_symmetry_cell_setting 'tetragonal'
loop_
_space_group_symop_operation_xyz
x,y,z
-y,1/2+x,1/4+z
-x,-y,z
y,1/2-x,1/4+z
1/2+x,1/2+y,1/2+z
1/2-y,x,3/4+z
1/2-x,1/2-y,1/2+z
1/2+y,-x,3/4+z
loop_
_atom_site_type_symbol
_atom_site_label
_atom_site_fract_x
_atom_site_fract_y
_atom_site_fract_z
Si Si1 0.500000 0.500000 0.359761
Si Si2 0.237429 0.068688 0.769767
Si Si3 0.938704 0.292513 0.457091
Si Si4 0.364181 0.182383 0.229642
Si Si5 0.786027 0.040504 0.619325
Si Si6 0.908075 0.293597 0.618648
Si Si7 0.000000 0.000000 0.087805
O O1 0.634897 0.552775 0.333204
O O2 0.447005 0.638361 0.377855
O O3 0.231391 0.206079 0.737251
O O4 0.176289 0.990089 0.703433
O O5 0.376567 0.032688 0.791018
O O6 0.909632 0.356764 0.536844
O O7 0.839724 0.197043 0.424831
O O8 0.964704 0.388532 0.391803
O O9 0.059114 0.210421 0.469422
O O10 0.439974 0.183409 0.306870
O O11 0.462759 0.200078 0.162491
O O12 0.864232 0.158050 0.597239
#
# Coordination Sequence:
#
# PCOD9542211 Si02
#       7
#     4   8   8   8   8   8   4
#     4  10  23  42  68 107 142 192 258 314 379 446
#     4  11  25  46  73 107 147 198 256 318 385 458
#     4  12  30  48  76 109 159 204 258 318 400 474
#     4  11  26  47  76 112 145 204 257 323 382 460
#     4  11  22  44  74 108 143 194 256 318 376 452
#     4  12  26  49  78 113 151 200 262 323 390 465
#     4  12  31  48  72 115 162 214 244 320 413 492
#
# _framework density 22.693587000000001
#
# number of rings (size 3 to 8) (size 9 to 14) (size 15 to 20)
#    0.000    0.667    1.667    5.000   11.667    1.333 
#    0.000    0.000    0.000    0.000    0.000    0.000 
#    0.000    0.000    0.000    0.000    0.000    0.000 
#
# Total GULP energy -133864.727689 kJ/mol
# GULP energy per Si atom -5577.696987 kJ/mol
# Density = 2.264194 g / cm^3
# Si number density = 22.693587 Si / 1000 Ang^3
#
#
#
# Elastic Constant Matrix: (Units=GPa)
#
#
# Indices 1 2 3 4 5 6 
#
# 1 76.6858 -0.3138 14.7274 0.0000 0.0000 -31.3309
# 2 -0.3138 76.6858 14.7274 0.0000 0.0000 31.3309
# 3 14.7274 14.7274 87.2186 0.0000 0.0000 0.0000
# 4 0.0000 0.0000 0.0000 35.5709 0.0000 0.0000
# 5 0.0000 0.0000 0.0000 0.0000 35.5709 0.0000
# 6 -31.3309 31.3309 0.0000 0.0000 0.0000 65.5681
#
#
#
# Elastic Compliance Matrix: (Units=1/GPa)
#
#
# Indices 1 2 3 4 5 6 
#
# 1 0.017628 -0.003622 -0.002365 0.000000 0.000000 0.010154
# 2 -0.003622 0.017628 -0.002365 0.000000 0.000000 -0.010154
# 3 -0.002365 -0.002365 0.012264 0.000000 0.000000 0.000000
# 4 0.000000 0.000000 0.000000 0.028113 0.000000 0.000000
# 5 0.000000 0.000000 0.000000 0.000000 0.028113 0.000000
# 6 0.010154 -0.010154 0.000000 0.000000 0.000000 0.024956
#
#
# Mechanical properties :
#
#
# Convention : Reuss Voigt Hill
#
# Bulk Modulus (GPa) = 32.45065 33.20802 32.82934
# Shear Modulus (GPa) = 32.11743 41.43857 36.77800
#
# Velocity S-wave (km/s) = 3.76608 4.27781 4.03008
# Velocity P-wave (km/s) = 5.76556 6.25016 6.01275
#
# Compressibility (1/GPa) = 0.03081602
#
# Stress axis : x y z
#
# Youngs Moduli (GPa) = 56.72705 56.72705 81.53860
#
# Poissons Ratio (x) = 0.20549 0.19284
# Poissons Ratio (y) = 0.20549 0.19284
# Poissons Ratio (z) = 0.13416 0.13416
#
# Static dielectric constant tensor:
#      x y z
#    x 1.827690 0.000000 0.000000 
#    y 0.000000 1.827690 0.000000 
#    z 0.000000 0.000000 1.903550 
# 
# From -- ./inp_files/1541.got.cif
#   From: 2010.05.17/outbox.cif.g08.bks.cpg/sg80_cif.got.tgz:1541.got - 2010.06.03 18:49:13.
