data_PCOD9542107
_publ_section_title
;
Structure prediction by ZEFSAII (Michael W. Deem and Ramdas Pophale) SiO2 
 PCOD9542107
Probable space group: I 41
;
_chemical_formula_sum "Si O2"
_cell_formula_units_Z 44
_cell_length_a 14.445894
_cell_length_b 14.445894
_cell_length_c 11.694084
_cell_angle_alpha 90.000000
_cell_angle_beta 90.000000
_cell_angle_gamma 90.000000
_cell_volume 2440.366512
_symmetry_space_group_name_H-M "I 41"
_symmetry_group_IT_number 80
_symmetry_cell_setting 'tetragonal'
loop_
_space_group_symop_operation_xyz
x,y,z
-y,1/2+x,1/4+z
-x,-y,z
y,1/2-x,1/4+z
1/2+x,1/2+y,1/2+z
1/2-y,x,3/4+z
1/2-x,1/2-y,1/2+z
1/2+y,-x,3/4+z
loop_
_atom_site_type_symbol
_atom_site_label
_atom_site_fract_x
_atom_site_fract_y
_atom_site_fract_z
Si Si1 0.865338 0.111898 0.625000
Si Si2 0.644596 0.168141 0.121358
Si Si3 0.582672 0.151239 0.871972
Si Si4 0.571170 0.855514 0.692716
Si Si5 0.000000 0.500000 0.011774
Si Si6 0.006898 0.215872 0.019766
O O1 0.868861 0.100692 0.488450
O O2 0.845749 0.221073 0.640024
O O3 0.786834 0.048738 0.686368
O O4 0.962111 0.082412 0.682789
O O5 0.747449 0.127547 0.099428
O O6 0.585585 0.144907 0.008948
O O7 0.483259 0.144309 0.812175
O O8 0.643979 0.071058 0.813187
O O9 0.520605 0.918235 0.598496
O O10 0.555800 0.757744 0.632627
O O11 0.667796 0.907780 0.705013
#
# Coordination Sequence:
#
# PCOD9542107 Si02
#       6
#     8   8   8   8   4   8
#     4  10  21  35  58  87 121 147 193 237 293 351
#     4  10  21  34  57  89 124 148 184 242 306 335
#     4  11  19  35  56  90 117 149 187 244 296 341
#     4  11  22  36  62  84 113 152 198 242 289 343
#     4  10  20  36  56  88 114 152 190 236 288 346
#     4  11  21  37  61  84 115 153 198 240 284 347
#
# _framework density 18.030079000000001
#
# number of rings (size 3 to 8) (size 9 to 14) (size 15 to 20)
#    0.000    1.455    3.636    3.273    2.545    0.000 
#    3.273    0.000   20.000    0.000    0.000    0.000 
#    0.000    0.000    0.000    0.000    0.000    0.000 
#
# Total GULP energy -122523.630932 kJ/mol
# GULP energy per Si atom -5569.255951 kJ/mol
# Density = 1.798904 g / cm^3
# Si number density = 18.030079 Si / 1000 Ang^3
#
#
#
# Elastic Constant Matrix: (Units=GPa)
#
#
# Indices 1 2 3 4 5 6 
#
# 1 18.5098 22.6131 8.4674 0.0000 0.0000 -5.9878
# 2 22.6131 18.5098 8.4674 0.0000 0.0000 5.9878
# 3 8.4674 8.4674 98.4633 0.0000 0.0000 0.0000
# 4 0.0000 0.0000 0.0000 29.8492 0.0000 0.0000
# 5 0.0000 0.0000 0.0000 0.0000 29.8492 0.0000
# 6 -5.9878 5.9878 0.0000 0.0000 0.0000 25.1211
#
#
#
# Elastic Compliance Matrix: (Units=1/GPa)
#
#
# Indices 1 2 3 4 5 6 
#
# 1 -0.059257 0.084468 -0.002168 0.000000 0.000000 -0.034258
# 2 0.084468 -0.059257 -0.002168 0.000000 0.000000 0.034258
# 3 -0.002168 -0.002168 0.010529 0.000000 0.000000 0.000000
# 4 0.000000 0.000000 0.000000 0.033502 0.000000 0.000000
# 5 0.000000 0.000000 0.000000 0.000000 0.033502 0.000000
# 6 -0.034258 0.034258 0.000000 0.000000 0.000000 0.023476
#
#
# Mechanical properties :
#
#
# Convention : Reuss Voigt Hill
#
# Bulk Modulus (GPa) = 19.12874 23.84209 21.48542
# Shear Modulus (GPa) = -31.18305 23.35956 -3.91175
#
# Velocity S-wave (km/s) = -4.16324 3.60333 -1.47454
# Velocity P-wave (km/s) = 3.53238 5.52849 3.00720
#
# Compressibility (1/GPa) = 0.05227735
#
# Stress axis : x y z
#
# Youngs Moduli (GPa) = -16.87554 -16.87554 94.97636
#
# Poissons Ratio (x) = 1.42543 0.20591
# Poissons Ratio (y) = 1.42543 0.20591
# Poissons Ratio (z) = -0.03659 -0.03659
#
# Static dielectric constant tensor:
#      x y z
#    x 1.691780 0.000000 0.000000 
#    y 0.000000 1.691780 0.000000 
#    z 0.000000 0.000000 1.659290 
# 
# From -- ./inp_files/994.got.cif
#   From: 2010.05.17/outbox.cif.g08.bks.cpg/sg80_cif.got.tgz:994.got - 2010.06.03 18:49:13.
