data_PCOD9542822
_publ_section_title
;
Structure prediction by ZEFSAII (Michael W. Deem and Ramdas Pophale) SiO2 
 PCOD9542822
Probable space group: I -4 
;
_chemical_formula_sum "Si O2"
_cell_formula_units_Z 28
_cell_length_a 12.219709
_cell_length_b 12.219709
_cell_length_c 8.060158
_cell_angle_alpha 90.000000
_cell_angle_beta 90.000000
_cell_angle_gamma 90.000000
_cell_volume 1203.553174
_symmetry_space_group_name_H-M "I -4 "
_symmetry_group_IT_number 82
_symmetry_cell_setting 'tetragonal'
loop_
_space_group_symop_operation_xyz
x,y,z
y,-x,-z
-x,-y,z
-y,x,-z
1/2+x,1/2+y,1/2+z
1/2+y,1/2-x,1/2-z
1/2-x,1/2-y,1/2+z
1/2-y,1/2+x,1/2-z
loop_
_atom_site_type_symbol
_atom_site_label
_atom_site_fract_x
_atom_site_fract_y
_atom_site_fract_z
Si Si1 0.849116 0.157301 0.347718
Si Si2 0.905468 0.159761 0.994782
Si Si3 0.000000 0.500000 0.750000
Si Si4 0.428330 0.778586 0.152584
Si Si5 0.500000 0.500000 0.000000
O O1 0.857525 0.207699 0.166088
O O2 0.767115 0.053855 0.360425
O O3 0.853216 0.237701 0.502462
O O4 0.965813 0.095636 0.378139
O O5 0.036964 0.144034 0.012696
O O6 0.886101 0.230641 0.828804
O O7 0.908673 0.563845 0.852129
#
# Coordination Sequence:
#
# PCOD9542822 Si02
#       5
#     8   8   2   8   2
#     4   9  16  33  63  94 113 164 214 252 298 381
#     4   9  15  29  61 100 122 146 207 273 305 351
#     4  12  28  48  54  88 152 170 184 272 338 352
#     4  10  21  40  61  88 129 167 201 257 318 368
#     4   8  12  24  58  96 128 134 192 284 318 316
#
# _framework density 23.264448000000002
#
# number of rings (size 3 to 8) (size 9 to 14) (size 15 to 20)
#    0.000    2.571    0.000    6.857    0.000    0.000 
#   10.286    4.286    0.000    0.000    0.000    0.000 
#    0.000    0.000    0.000    0.000    0.000    0.000 
#
# Total GULP energy -78170.380263 kJ/mol
# GULP energy per Si atom -5583.598590 kJ/mol
# Density = 2.321150 g / cm^3
# Si number density = 23.264448 Si / 1000 Ang^3
#
#
#
# Elastic Constant Matrix: (Units=GPa)
#
#
# Indices 1 2 3 4 5 6 
#
# 1 71.5446 15.8215 67.0332 0.0000 0.0000 -7.5091
# 2 15.8215 71.5446 67.0332 0.0000 0.0000 7.5091
# 3 67.0332 67.0332 181.6221 0.0000 0.0000 0.0000
# 4 0.0000 0.0000 0.0000 27.1782 0.0000 0.0000
# 5 0.0000 0.0000 0.0000 0.0000 27.1782 0.0000
# 6 -7.5091 7.5091 0.0000 0.0000 0.0000 24.2997
#
#
#
# Elastic Compliance Matrix: (Units=1/GPa)
#
#
# Indices 1 2 3 4 5 6 
#
# 1 0.022986 0.003410 -0.009742 0.000000 0.000000 0.006049
# 2 0.003410 0.022986 -0.009742 0.000000 0.000000 -0.006049
# 3 -0.009742 -0.009742 0.012697 0.000000 0.000000 0.000000
# 4 0.000000 0.000000 0.000000 0.036794 0.000000 0.000000
# 5 0.000000 0.000000 0.000000 0.000000 0.036794 0.000000
# 6 0.006049 -0.006049 0.000000 0.000000 0.000000 0.044892
#
#
# Mechanical properties :
#
#
# Convention : Reuss Voigt Hill
#
# Bulk Modulus (GPa) = 37.70722 69.38744 53.54733
# Shear Modulus (GPa) = 22.92120 27.38611 25.15366
#
# Velocity S-wave (km/s) = 3.14227 3.43471 3.29174
# Velocity P-wave (km/s) = 5.42295 6.75425 6.12488
#
# Compressibility (1/GPa) = 0.02652012
#
# Stress axis : x y z
#
# Youngs Moduli (GPa) = 43.50466 43.50466 78.75734
#
# Poissons Ratio (x) = -0.14834 0.76727
# Poissons Ratio (y) = -0.14834 0.76727
# Poissons Ratio (z) = 0.42383 0.42383
#
# Static dielectric constant tensor:
#      x y z
#    x 1.936080 0.000000 0.000000 
#    y 0.000000 1.936080 0.000000 
#    z 0.000000 0.000000 1.960450 
# 
# From -- ./inp_files/729.got.cif
#   From: 2010.05.17/outbox.cif.g08.bks.cpg/sg82_1_cif.got.tgz:729.got - 2010.06.03 18:52:26.
