data_PCOD9542854
_publ_section_title
;
Structure prediction by ZEFSAII (Michael W. Deem and Ramdas Pophale) SiO2 
 PCOD9542854
Probable space group: I -4 
;
_chemical_formula_sum "Si O2"
_cell_formula_units_Z 56
_cell_length_a 13.793982
_cell_length_b 13.793982
_cell_length_c 16.107683
_cell_angle_alpha 90.000000
_cell_angle_beta 90.000000
_cell_angle_gamma 90.000000
_cell_volume 3064.872299
_symmetry_space_group_name_H-M "I -4 "
_symmetry_group_IT_number 82
_symmetry_cell_setting 'tetragonal'
loop_
_space_group_symop_operation_xyz
x,y,z
y,-x,-z
-x,-y,z
-y,x,-z
1/2+x,1/2+y,1/2+z
1/2+y,1/2-x,1/2-z
1/2-x,1/2-y,1/2+z
1/2-y,1/2+x,1/2-z
loop_
_atom_site_type_symbol
_atom_site_label
_atom_site_fract_x
_atom_site_fract_y
_atom_site_fract_z
Si Si1 0.914709 0.073115 0.701686
Si Si2 0.235082 0.970441 0.977400
Si Si3 0.609021 0.386417 0.022588
Si Si4 0.522414 0.212362 0.800436
Si Si5 0.152166 0.094286 0.123346
Si Si6 0.100176 0.440973 0.370266
Si Si7 0.272395 0.207232 0.582341
O O1 0.893053 0.136108 0.620297
O O2 0.941025 0.130305 0.784701
O O3 0.819954 0.009656 0.721498
O O4 0.000000 0.000000 0.677924
O O5 0.143222 0.944640 0.917779
O O6 0.287528 0.865545 0.979120
O O7 0.315024 0.040707 0.936254
O O8 0.194686 0.014331 0.061776
O O9 0.500551 0.369317 0.987486
O O10 0.681466 0.322145 0.969180
O O11 0.527492 0.147722 0.717520
O O12 0.438726 0.167369 0.858680
O O13 0.623796 0.210248 0.849368
O O14 0.224320 0.187185 0.124449
O O15 0.000000 0.500000 0.385771
#
# Coordination Sequence:
#
# PCOD9542854 Si02
#       7
#     8   8   8   8   8   8   8
#     4  12  24  39  64  91 128 172 210 273 325 381
#     4  10  23  38  57  89 127 175 210 253 324 392
#     4  11  21  42  64  94 126 166 219 273 336 396
#     4  12  19  35  62  93 131 150 208 273 340 386
#     4  10  24  40  55  91 126 172 220 243 324 390
#     4  12  19  34  60 100 127 154 203 276 344 378
#     4  10  22  39  58  93 127 167 211 267 325 388
#
# _framework density 18.271560999999998
#
# number of rings (size 3 to 8) (size 9 to 14) (size 15 to 20)
#    0.857    0.143    7.143    0.857    4.000    0.000 
#    0.000    1.429    0.000    0.000    0.000    0.000 
#    0.000    0.000    0.000    0.000    0.000    0.000 
#
# Total GULP energy -156131.710021 kJ/mol
# GULP energy per Si atom -5576.132501 kJ/mol
# Density = 1.822997 g / cm^3
# Si number density = 18.271561 Si / 1000 Ang^3
#
#
#
# Elastic Constant Matrix: (Units=GPa)
#
#
# Indices 1 2 3 4 5 6 
#
# 1 36.0389 -3.9797 4.5321 0.0000 0.0000 7.0409
# 2 -3.9797 36.0389 4.5321 0.0000 0.0000 -7.0409
# 3 4.5321 4.5321 96.2530 0.0000 0.0000 0.0000
# 4 0.0000 0.0000 0.0000 28.0016 0.0000 0.0000
# 5 0.0000 0.0000 0.0000 0.0000 28.0016 0.0000
# 6 7.0409 -7.0409 0.0000 0.0000 0.0000 20.7134
#
#
#
# Elastic Compliance Matrix: (Units=1/GPa)
#
#
# Indices 1 2 3 4 5 6 
#
# 1 0.029998 0.001615 -0.001489 0.000000 0.000000 -0.009648
# 2 0.001615 0.029998 -0.001489 0.000000 0.000000 0.009648
# 3 -0.001489 -0.001489 0.010529 0.000000 0.000000 0.000000
# 4 0.000000 0.000000 0.000000 0.035712 0.000000 0.000000
# 5 0.000000 0.000000 0.000000 0.000000 0.035712 0.000000
# 6 -0.009648 0.009648 0.000000 0.000000 0.000000 0.054837
#
#
# Mechanical properties :
#
#
# Convention : Reuss Voigt Hill
#
# Bulk Modulus (GPa) = 14.74890 19.83331 17.29111
# Shear Modulus (GPa) = 22.51113 26.22639 24.36876
#
# Velocity S-wave (km/s) = 3.51384 3.79273 3.65595
# Velocity P-wave (km/s) = 4.95503 5.48253 5.22544
#
# Compressibility (1/GPa) = 0.06780166
#
# Stress axis : x y z
#
# Youngs Moduli (GPa) = 33.33531 33.33530 94.97163
#
# Poissons Ratio (x) = -0.05383 0.14137
# Poissons Ratio (y) = -0.05383 0.14137
# Poissons Ratio (z) = 0.04962 0.04962
#
# Static dielectric constant tensor:
#      x y z
#    x 1.646570 0.000000 0.000000 
#    y 0.000000 1.646570 0.000000 
#    z 0.000000 0.000000 1.632620 
# 
# From -- ./inp_files/2309.got.cif
#   From: 2010.05.17/outbox.cif.g08.bks.cpg/sg82_2_cif.got.tgz:2309.got - 2010.06.03 18:52:26.
