data_PCOD9542139
_publ_section_title
;
Structure prediction by ZEFSAII (Michael W. Deem and Ramdas Pophale) SiO2 
 PCOD9542139
Probable space group: I 41
;
_chemical_formula_sum "Si O2"
_cell_formula_units_Z 40
_cell_length_a 16.471654
_cell_length_b 16.471654
_cell_length_c 5.865674
_cell_angle_alpha 90.000000
_cell_angle_beta 90.000000
_cell_angle_gamma 90.000000
_cell_volume 1591.447603
_symmetry_space_group_name_H-M "I 41"
_symmetry_group_IT_number 80
_symmetry_cell_setting 'tetragonal'
loop_
_space_group_symop_operation_xyz
x,y,z
-y,1/2+x,1/4+z
-x,-y,z
y,1/2-x,1/4+z
1/2+x,1/2+y,1/2+z
1/2-y,x,3/4+z
1/2-x,1/2-y,1/2+z
1/2+y,-x,3/4+z
loop_
_atom_site_type_symbol
_atom_site_label
_atom_site_fract_x
_atom_site_fract_y
_atom_site_fract_z
Si Si1 0.537983 0.272663 0.321930
Si Si2 0.911737 0.719430 0.174317
Si Si3 0.175641 0.660435 0.392997
Si Si4 0.902860 0.853503 0.534400
Si Si5 0.011098 0.616821 0.536767
O O1 0.480385 0.269082 0.541828
O O2 0.626897 0.294264 0.399585
O O3 0.486232 0.323922 0.144977
O O4 0.538160 0.183769 0.219251
O O5 0.873593 0.786468 0.346890
O O6 0.959250 0.655458 0.330450
O O7 0.863643 0.667529 0.980078
O O8 0.245938 0.653253 0.583983
O O9 0.099248 0.600010 0.435874
O O10 0.926914 0.939609 0.422482
#
# Coordination Sequence:
#
# PCOD9542139 Si02
#       5
#     8   8   8   8   8
#     4  10  22  43  72 101 143 182 234 299 351 435
#     4  10  20  44  72 104 142 188 236 300 354 438
#     4  12  24  44  77 106 140 187 246 300 372 428
#     4  10  22  42  79  98 152 188 236 295 368 424
#     4  10  22  43  72 101 143 182 234 299 351 435
#
# _framework density 25.134347000000002
#
# number of rings (size 3 to 8) (size 9 to 14) (size 15 to 20)
#    0.000    1.600    2.000    2.400    0.000    0.000 
#    0.000    6.000  167.200    0.000    0.000    0.000 
#    0.000    0.000    0.000    0.000    0.000    0.000 
#
# Total GULP energy -111619.986879 kJ/mol
# GULP energy per Si atom -5580.999344 kJ/mol
# Density = 2.507714 g / cm^3
# Si number density = 25.134347 Si / 1000 Ang^3
#
#
#
# Elastic Constant Matrix: (Units=GPa)
#
#
# Indices 1 2 3 4 5 6 
#
# 1 46.0375 8.0969 11.0081 0.0000 0.0000 -14.5701
# 2 8.0969 46.0375 11.0081 0.0000 0.0000 14.5701
# 3 11.0081 11.0081 83.6228 0.0000 0.0000 0.0000
# 4 0.0000 0.0000 0.0000 31.4685 0.0000 0.0000
# 5 0.0000 0.0000 0.0000 0.0000 31.4685 0.0000
# 6 -14.5701 14.5701 0.0000 0.0000 0.0000 0.1774
#
#
#
# Elastic Compliance Matrix: (Units=1/GPa)
#
#
# Indices 1 2 3 4 5 6 
#
# 1 0.009546 0.009971 -0.002569 0.000000 0.000000 -0.034870
# 2 0.009971 0.009546 -0.002569 0.000000 0.000000 0.034870
# 3 -0.002569 -0.002569 0.012635 0.000000 0.000000 0.000000
# 4 0.000000 0.000000 0.000000 0.031778 0.000000 0.000000
# 5 0.000000 0.000000 0.000000 0.000000 0.031778 0.000000
# 6 -0.034870 0.034870 0.000000 0.000000 0.000000 -0.090800
#
#
# Mechanical properties :
#
#
# Convention : Reuss Voigt Hill
#
# Bulk Modulus (GPa) = 24.15883 26.21377 25.18630
# Shear Modulus (GPa) = 580.33544 22.32851 301.33197
#
# Velocity S-wave (km/s) = 15.21166 2.98378 10.96124
# Velocity P-wave (km/s) = 17.83701 4.72469 13.04764
#
# Compressibility (1/GPa) = 0.04139272
#
# Stress axis : x y z
#
# Youngs Moduli (GPa) = 104.75098 104.75098 79.14581
#
# Poissons Ratio (x) = -1.04448 0.20335
# Poissons Ratio (y) = -1.04448 0.20335
# Poissons Ratio (z) = 0.26914 0.26914
#
# Static dielectric constant tensor:
#      x y z
#    x 2.138960 0.000000 0.000000 
#    y 0.000000 2.138960 0.000000 
#    z 0.000000 0.000000 2.118610 
# 
# From -- ./inp_files/200.got.cif
#   From: 2010.05.17/outbox.cif.g08.bks.cpg/sg80_cif.got.tgz:200.got - 2010.06.03 18:49:13.
