data_PCOD9542513
_publ_section_title
;
Structure prediction by ZEFSAII (Michael W. Deem and Ramdas Pophale) SiO2 
 PCOD9542513
Probable space group: P -4
;
_chemical_formula_sum "Si O2"
_cell_formula_units_Z 24
_cell_length_a 11.208514
_cell_length_b 11.208514
_cell_length_c 9.638444
_cell_angle_alpha 90.000000
_cell_angle_beta 90.000000
_cell_angle_gamma 90.000000
_cell_volume 1210.885296
_symmetry_space_group_name_H-M "P -4"
_symmetry_group_IT_number 81
_symmetry_cell_setting 'tetragonal'
loop_
_space_group_symop_operation_xyz
x,y,z
y,-x,-z
-x,-y,z
-y,x,-z
loop_
_atom_site_type_symbol
_atom_site_label
_atom_site_fract_x
_atom_site_fract_y
_atom_site_fract_z
Si Si1 0.113253 0.556737 0.643750
Si Si2 0.279062 0.769878 0.742088
Si Si3 0.999643 0.738811 0.447850
Si Si4 0.820925 0.091567 0.004830
Si Si5 0.926409 0.877772 0.713334
Si Si6 0.688513 0.546289 0.469331
O O1 0.187487 0.659247 0.724003
O O2 0.203504 0.459967 0.579200
O O3 0.000000 0.500000 0.721324
O O4 0.054395 0.619496 0.508646
O O5 0.260788 0.872099 0.626081
O O6 0.253595 0.837123 0.888747
O O7 0.406514 0.720716 0.685278
O O8 0.991609 0.823747 0.581201
O O9 0.086755 0.796321 0.336518
O O10 0.781665 0.083490 0.164692
O O11 0.951380 0.154509 0.024599
O O12 0.000000 0.000000 0.749244
O O13 0.633770 0.413772 0.472279
#
# Coordination Sequence:
#
# PCOD9542513 Si02
#       6
#     4   4   4   4   4   4
#     4  11  21  34  57  91 121 153 215 289 333 367
#     4  11  21  36  57  87 124 168 216 262 327 400
#     4  12  19  31  53  87 123 161 209 260 317 389
#     4  11  20  31  49  83 131 174 197 235 314 411
#     4  12  19  31  52  84 132 175 205 239 308 408
#     4   9  20  39  61  87 118 159 220 284 333 371
#
# _framework density 19.820208000000001
#
# number of rings (size 3 to 8) (size 9 to 14) (size 15 to 20)
#    0.000    1.000    8.333    1.000    0.000    0.000 
#    0.000    0.000    0.000    5.000    0.000    0.000 
#    5.000    0.000    0.000    0.000    0.000    0.000 
#
# Total GULP energy -133664.353805 kJ/mol
# GULP energy per Si atom -5569.348075 kJ/mol
# Density = 1.977510 g / cm^3
# Si number density = 19.820208 Si / 1000 Ang^3
#
#
#
# Elastic Constant Matrix: (Units=GPa)
#
#
# Indices 1 2 3 4 5 6 
#
# 1 62.6206 11.2829 22.9606 0.0000 0.0000 -0.3189
# 2 11.2829 62.6206 22.9606 0.0000 0.0000 0.3189
# 3 22.9606 22.9606 114.6918 0.0000 0.0000 0.0000
# 4 0.0000 0.0000 0.0000 24.9638 0.0000 0.0000
# 5 0.0000 0.0000 0.0000 0.0000 24.9638 0.0000
# 6 -0.3189 0.3189 0.0000 0.0000 0.0000 18.6360
#
#
#
# Elastic Compliance Matrix: (Units=1/GPa)
#
#
# Indices 1 2 3 4 5 6 
#
# 1 0.017468 -0.002015 -0.003094 0.000000 0.000000 0.000333
# 2 -0.002015 0.017468 -0.003094 0.000000 0.000000 -0.000333
# 3 -0.003094 -0.003094 0.009958 0.000000 0.000000 0.000000
# 4 0.000000 0.000000 0.000000 0.040058 0.000000 0.000000
# 5 0.000000 0.000000 0.000000 0.000000 0.040058 0.000000
# 6 0.000333 -0.000333 0.000000 0.000000 0.000000 0.053671
#
#
# Mechanical properties :
#
#
# Convention : Reuss Voigt Hill
#
# Bulk Modulus (GPa) = 35.10020 39.37126 37.23573
# Shear Modulus (GPa) = 24.44007 25.89465 25.16736
#
# Velocity S-wave (km/s) = 3.51535 3.61844 3.56727
# Velocity P-wave (km/s) = 5.85018 6.11268 5.98287
#
# Compressibility (1/GPa) = 0.02848987
#
# Stress axis : x y z
#
# Youngs Moduli (GPa) = 57.24672 57.24672 100.42477
#
# Poissons Ratio (x) = 0.11534 0.31068
# Poissons Ratio (y) = 0.11534 0.31068
# Poissons Ratio (z) = 0.17710 0.17710
#
# Static dielectric constant tensor:
#      x y z
#    x 1.792770 0.000000 0.000000 
#    y 0.000000 1.792770 0.000000 
#    z 0.000000 0.000000 1.746870 
# 
# From -- ./inp_files/836.got.cif
#   From: 2010.05.17/outbox.cif.g08.bks.cpg/sg81_cif.got.tgz:836.got - 2010.06.03 18:51:07.
