data_PCOD9542467
_publ_section_title
;
Structure prediction by ZEFSAII (Michael W. Deem and Ramdas Pophale) SiO2 
 PCOD9542467
Probable space group: P -4
;
_chemical_formula_sum "Si O2"
_cell_formula_units_Z 16
_cell_length_a 11.460313
_cell_length_b 11.460313
_cell_length_c 5.135081
_cell_angle_alpha 90.000000
_cell_angle_beta 90.000000
_cell_angle_gamma 90.000000
_cell_volume 674.435243
_symmetry_space_group_name_H-M "P -4"
_symmetry_group_IT_number 81
_symmetry_cell_setting 'tetragonal'
loop_
_space_group_symop_operation_xyz
x,y,z
y,-x,-z
-x,-y,z
-y,x,-z
loop_
_atom_site_type_symbol
_atom_site_label
_atom_site_fract_x
_atom_site_fract_y
_atom_site_fract_z
Si Si1 0.342377 0.200781 0.077432
Si Si2 0.884823 0.898917 0.853104
Si Si3 0.172965 0.406595 0.137907
Si Si4 0.674868 0.029809 0.370919
O O1 0.283774 0.320924 0.170083
O O2 0.351706 0.105034 0.308394
O O3 0.245281 0.145625 0.886634
O O4 0.462190 0.212024 0.922069
O O5 0.946757 0.814948 0.645403
O O6 0.122441 0.961658 0.881640
O O7 0.086598 0.384606 0.379252
O O8 0.100997 0.370274 0.880613
#
# Coordination Sequence:
#
# PCOD9542467 Si02
#       4
#     4   4   4   4
#     4  10  23  42  67 100 140 183 237 293 360 439
#     4   8  16  36  66 100 136 174 223 294 368 430
#     4  11  25  42  68  99 135 184 232 295 364 431
#     4  10  23  42  67  98 135 180 233 291 361 436
#
# _framework density 23.723555999999999
#
# number of rings (size 3 to 8) (size 9 to 14) (size 15 to 20)
#    0.000    2.250    0.000    0.750    0.000   16.500 
#    0.000    0.000    0.000   18.000    0.000    0.000 
#    0.000    0.000    0.000    0.000    0.000    0.000 
#
# Total GULP energy -89422.920763 kJ/mol
# GULP energy per Si atom -5588.932548 kJ/mol
# Density = 2.366956 g / cm^3
# Si number density = 23.723556 Si / 1000 Ang^3
#
#
#
# Elastic Constant Matrix: (Units=GPa)
#
#
# Indices 1 2 3 4 5 6 
#
# 1 200.1127 70.7675 56.7108 0.0000 0.0000 0.6868
# 2 70.7675 200.1127 56.7108 0.0000 0.0000 -0.6868
# 3 56.7108 56.7108 162.2194 0.0000 0.0000 0.0000
# 4 0.0000 0.0000 0.0000 21.8775 0.0000 0.0000
# 5 0.0000 0.0000 0.0000 0.0000 21.8775 0.0000
# 6 0.6868 -0.6868 0.0000 0.0000 0.0000 23.1410
#
#
#
# Elastic Compliance Matrix: (Units=1/GPa)
#
#
# Indices 1 2 3 4 5 6 
#
# 1 0.006029 -0.001704 -0.001512 0.000000 0.000000 -0.000230
# 2 -0.001704 0.006029 -0.001512 0.000000 0.000000 0.000230
# 3 -0.001512 -0.001512 0.007222 0.000000 0.000000 0.000000
# 4 0.000000 0.000000 0.000000 0.045709 0.000000 0.000000
# 5 0.000000 0.000000 0.000000 0.000000 0.045709 0.000000
# 6 -0.000230 0.000230 0.000000 0.000000 0.000000 0.043227
#
#
# Mechanical properties :
#
#
# Convention : Reuss Voigt Hill
#
# Bulk Modulus (GPa) = 101.79718 103.42479 102.61098
# Shear Modulus (GPa) = 30.00192 38.59626 34.29909
#
# Velocity S-wave (km/s) = 3.56005 4.03788 3.80647
# Velocity P-wave (km/s) = 7.73960 8.08887 7.91616
#
# Compressibility (1/GPa) = 0.00982346
#
# Stress axis : x y z
#
# Youngs Moduli (GPa) = 165.85940 165.85940 138.47379
#
# Poissons Ratio (x) = 0.28270 0.20936
# Poissons Ratio (y) = 0.28270 0.20936
# Poissons Ratio (z) = 0.25076 0.25076
#
# Static dielectric constant tensor:
#      x y z
#    x 1.977770 0.000000 0.000000 
#    y 0.000000 1.977770 0.000000 
#    z 0.000000 0.000000 1.915400 
# 
# From -- ./inp_files/170.got.cif
#   From: 2010.05.17/outbox.cif.g08.bks.cpg/sg81_cif.got.tgz:170.got - 2010.06.03 18:51:07.
