data_PCOD9542752
_publ_section_title
;
Structure prediction by ZEFSAII (Michael W. Deem and Ramdas Pophale) SiO2 
 PCOD9542752
Probable space group: I -4 
;
_chemical_formula_sum "Si O2"
_cell_formula_units_Z 34
_cell_length_a 8.194692
_cell_length_b 8.194692
_cell_length_c 25.866989
_cell_angle_alpha 90.000000
_cell_angle_beta 90.000000
_cell_angle_gamma 90.000000
_cell_volume 1737.045317
_symmetry_space_group_name_H-M "I -4 "
_symmetry_group_IT_number 82
_symmetry_cell_setting 'tetragonal'
loop_
_space_group_symop_operation_xyz
x,y,z
y,-x,-z
-x,-y,z
-y,x,-z
1/2+x,1/2+y,1/2+z
1/2+y,1/2-x,1/2-z
1/2-x,1/2-y,1/2+z
1/2-y,1/2+x,1/2-z
loop_
_atom_site_type_symbol
_atom_site_label
_atom_site_fract_x
_atom_site_fract_y
_atom_site_fract_z
Si Si1 0.752085 0.897452 0.743423
Si Si2 0.000000 0.000000 0.000000
Si Si3 0.189787 0.847779 0.148665
Si Si4 0.837810 0.838133 0.094870
Si Si5 0.015489 0.823225 0.371346
O O1 0.581330 0.799496 0.740147
O O2 0.858103 0.820050 0.789190
O O3 0.830008 0.911558 0.687175
O O4 0.101992 0.881890 0.962488
O O5 0.259925 0.669585 0.134376
O O6 0.006965 0.834513 0.126463
O O7 0.260769 0.012536 0.122619
O O8 0.771798 0.655313 0.097893
O O9 0.000000 0.000000 0.394868
#
# Coordination Sequence:
#
# PCOD9542752 Si02
#       5
#     8   2   8   8   8
#     4   9  16  29  51  84 117 164 197 233 286 358
#     4   8  20  40  72  84  96 152 220 260 312 338
#     4   9  19  34  58  84 117 159 207 242 288 351
#     4  10  20  39  66  83 111 158 212 258 292 359
#     4  11  22  32  56  90 131 155 193 245 308 368
#
# _framework density 19.573466
#
# number of rings (size 3 to 8) (size 9 to 14) (size 15 to 20)
#    0.000    2.588    2.353    0.706    3.294    0.941 
#    0.000    0.000   41.412    2.824    0.000    0.000 
#    0.000    0.000    0.000    0.000    0.000    0.000 
#
# Total GULP energy -94677.903612 kJ/mol
# GULP energy per Si atom -5569.288448 kJ/mol
# Density = 1.952892 g / cm^3
# Si number density = 19.573466 Si / 1000 Ang^3
#
#
#
# Elastic Constant Matrix: (Units=GPa)
#
#
# Indices 1 2 3 4 5 6 
#
# 1 47.3099 5.1229 -11.4972 0.0000 0.0000 9.4650
# 2 5.1229 47.3099 -11.4972 0.0000 0.0000 -9.4650
# 3 -11.4972 -11.4972 57.1471 0.0000 0.0000 0.0000
# 4 0.0000 0.0000 0.0000 -3.8600 0.0000 0.0000
# 5 0.0000 0.0000 0.0000 0.0000 -3.8600 0.0000
# 6 9.4650 -9.4650 0.0000 0.0000 0.0000 -3.3659
#
#
#
# Elastic Compliance Matrix: (Units=1/GPa)
#
#
# Indices 1 2 3 4 5 6 
#
# 1 0.015699 0.005219 0.004208 0.000000 0.000000 0.029470
# 2 0.005219 0.015699 0.004208 0.000000 0.000000 -0.029470
# 3 0.004208 0.004208 0.019192 0.000000 0.000000 0.000000
# 4 0.000000 0.000000 0.000000 -0.259066 0.000000 0.000000
# 5 0.000000 0.000000 0.000000 0.000000 -0.259065 0.000000
# 6 0.029470 -0.029470 0.000000 0.000000 0.000000 -0.131354
#
#
# Mechanical properties :
#
#
# Convention : Reuss Voigt Hill
#
# Bulk Modulus (GPa) = 12.84349 12.89155 12.86752
# Shear Modulus (GPa) = -8.33037 9.09205 0.38084
#
# Velocity S-wave (km/s) = -2.06523 2.15758 0.44158
# Velocity P-wave (km/s) = 0.94287 3.57875 2.61691
#
# Compressibility (1/GPa) = 0.07786048
#
# Stress axis : x y z
#
# Youngs Moduli (GPa) = 63.69902 63.69901 52.10505
#
# Poissons Ratio (x) = -0.33243 -0.21927
# Poissons Ratio (y) = -0.33243 -0.21927
# Poissons Ratio (z) = -0.26807 -0.26807
#
# Static dielectric constant tensor:
#      x y z
#    x 1.907780 0.000000 0.000000 
#    y 0.000000 1.907780 0.000000 
#    z 0.000000 0.000000 1.691410 
# 
# From -- ./inp_files/3263.got.cif
#   From: 2010.05.17/outbox.cif.g08.bks.cpg/sg82_2_cif.got.tgz:3263.got - 2010.06.03 18:52:26.
