data_PCOD9542951
_publ_section_title
;
Structure prediction by ZEFSAII (Michael W. Deem and Ramdas Pophale) SiO2 
 PCOD9542951
Probable space group: I -4 
;
_chemical_formula_sum "Si O2"
_cell_formula_units_Z 60
_cell_length_a 14.125827
_cell_length_b 14.125827
_cell_length_c 14.359504
_cell_angle_alpha 90.000000
_cell_angle_beta 90.000000
_cell_angle_gamma 90.000000
_cell_volume 2865.280903
_symmetry_space_group_name_H-M "I -4 "
_symmetry_group_IT_number 82
_symmetry_cell_setting 'tetragonal'
loop_
_space_group_symop_operation_xyz
x,y,z
y,-x,-z
-x,-y,z
-y,x,-z
1/2+x,1/2+y,1/2+z
1/2+y,1/2-x,1/2-z
1/2-x,1/2-y,1/2+z
1/2-y,1/2+x,1/2-z
loop_
_atom_site_type_symbol
_atom_site_label
_atom_site_fract_x
_atom_site_fract_y
_atom_site_fract_z
Si Si1 0.797528 0.022008 0.256506
Si Si2 0.848341 0.747967 0.326910
Si Si3 0.745254 0.431181 0.553998
Si Si4 0.283075 0.095120 0.403366
Si Si5 0.967079 0.208799 0.416469
Si Si6 0.721516 0.744419 0.151004
Si Si7 0.246289 0.373391 0.475036
Si Si8 0.000000 0.000000 0.645078
O O1 0.790708 0.017696 0.146973
O O2 0.770544 0.128382 0.286457
O O3 0.902759 0.995688 0.293964
O O4 0.718850 0.956578 0.304838
O O5 0.803488 0.830968 0.391577
O O6 0.807316 0.761873 0.223584
O O7 0.805872 0.657945 0.380403
O O8 0.960234 0.750841 0.340665
O O9 0.842790 0.374477 0.573701
O O10 0.757980 0.514401 0.481449
O O11 0.667983 0.352455 0.529239
O O12 0.253328 0.019167 0.481519
O O13 0.858738 0.234625 0.395139
O O14 0.984400 0.096367 0.412481
O O15 0.708191 0.821239 0.069166
#
# Coordination Sequence:
#
# PCOD9542951 Si02
#       8
#     8   8   8   8   8   8   8   4
#     4  11  22  40  66 101 139 173 235 282 350 415
#     4  11  22  42  65  96 134 179 225 283 346 416
#     4  11  25  44  70  97 138 189 227 288 347 420
#     4  11  22  42  64  99 138 175 226 283 349 407
#     4  11  23  40  67 101 136 174 224 288 352 407
#     4  11  22  43  68  97 140 184 223 293 348 408
#     4  11  24  44  68  98 138 182 233 282 350 416
#     4  10  24  33  66 113 128 164 224 289 358 403
#
# _framework density 20.940356999999999
#
# number of rings (size 3 to 8) (size 9 to 14) (size 15 to 20)
#    0.000    1.067    6.667    1.600    1.867    2.933 
#    0.000    2.667    0.000    0.000    0.000    0.000 
#    0.000    0.000    0.000    0.000    0.000    0.000 
#
# Total GULP energy -167541.514272 kJ/mol
# GULP energy per Si atom -5584.717142 kJ/mol
# Density = 2.089270 g / cm^3
# Si number density = 20.940357 Si / 1000 Ang^3
#
#
#
# Elastic Constant Matrix: (Units=GPa)
#
#
# Indices 1 2 3 4 5 6 
#
# 1 78.3376 18.7520 2.5634 0.0000 0.0000 1.7444
# 2 18.7520 78.3376 2.5634 0.0000 0.0000 -1.7444
# 3 2.5634 2.5634 51.1694 0.0000 0.0000 0.0000
# 4 0.0000 0.0000 0.0000 31.0040 0.0000 0.0000
# 5 0.0000 0.0000 0.0000 0.0000 31.0040 0.0000
# 6 1.7444 -1.7444 0.0000 0.0000 0.0000 13.6431
#
#
#
# Elastic Compliance Matrix: (Units=1/GPa)
#
#
# Indices 1 2 3 4 5 6 
#
# 1 0.013618 -0.003291 -0.000517 0.000000 0.000000 -0.002162
# 2 -0.003291 0.013618 -0.000517 0.000000 0.000000 0.002162
# 3 -0.000517 -0.000517 0.019595 0.000000 0.000000 0.000000
# 4 0.000000 0.000000 0.000000 0.032254 0.000000 0.000000
# 5 0.000000 0.000000 0.000000 0.000000 0.032254 0.000000
# 6 -0.002162 0.002162 0.000000 0.000000 0.000000 0.073850
#
#
# Mechanical properties :
#
#
# Convention : Reuss Voigt Hill
#
# Bulk Modulus (GPa) = 26.19203 28.40024 27.29614
# Shear Modulus (GPa) = 24.20527 27.39463 25.79995
#
# Velocity S-wave (km/s) = 3.40356 3.62086 3.51389
# Velocity P-wave (km/s) = 5.28968 5.57429 5.43385
#
# Compressibility (1/GPa) = 0.03817955
#
# Stress axis : x y z
#
# Youngs Moduli (GPa) = 73.43156 73.43157 51.03405
#
# Poissons Ratio (x) = 0.24167 0.02640
# Poissons Ratio (y) = 0.24167 0.02640
# Poissons Ratio (z) = 0.03799 0.03799
#
# Static dielectric constant tensor:
#      x y z
#    x 1.774520 0.000000 0.000000 
#    y 0.000000 1.774520 0.000000 
#    z 0.000000 0.000000 1.813920 
# 
# From -- ./inp_files/2350.got.cif
#   From: 2010.05.17/outbox.cif.g08.bks.cpg/sg82_2_cif.got.tgz:2350.got - 2010.06.03 18:52:26.
