data_PCOD9542266
_publ_section_title
;
Structure prediction by ZEFSAII (Michael W. Deem and Ramdas Pophale) SiO2 
 PCOD9542266
Probable space group: I 41
;
_chemical_formula_sum "Si O2"
_cell_formula_units_Z 40
_cell_length_a 15.126347
_cell_length_b 15.126347
_cell_length_c 8.032204
_cell_angle_alpha 90.000000
_cell_angle_beta 90.000000
_cell_angle_gamma 90.000000
_cell_volume 1837.819469
_symmetry_space_group_name_H-M "I 41"
_symmetry_group_IT_number 80
_symmetry_cell_setting 'tetragonal'
loop_
_space_group_symop_operation_xyz
x,y,z
-y,1/2+x,1/4+z
-x,-y,z
y,1/2-x,1/4+z
1/2+x,1/2+y,1/2+z
1/2-y,x,3/4+z
1/2-x,1/2-y,1/2+z
1/2+y,-x,3/4+z
loop_
_atom_site_type_symbol
_atom_site_label
_atom_site_fract_x
_atom_site_fract_y
_atom_site_fract_z
Si Si1 0.226207 0.867215 0.347510
Si Si2 0.191322 0.348760 0.366325
Si Si3 0.544787 0.089127 0.588512
Si Si4 0.524541 0.270148 0.404894
Si Si5 0.490042 0.101724 0.941755
O O1 0.182117 0.793690 0.470848
O O2 0.267462 0.946772 0.460250
O O3 0.153696 0.924166 0.250515
O O4 0.269356 0.326935 0.491761
O O5 0.217396 0.430782 0.244883
O O6 0.107138 0.365834 0.488337
O O7 0.556210 0.174981 0.474525
O O8 0.635918 0.070814 0.687449
O O9 0.481267 0.110248 0.741822
O O10 0.500000 0.000000 0.510220
O O11 0.500000 0.000000 0.988597
#
# Coordination Sequence:
#
# PCOD9542266 Si02
#       5
#     8   8   8   8   8
#     4  12  31  46  75 110 144 187 241 311 371 443
#     4  12  27  47  75 108 149 201 246 299 358 438
#     4  11  23  45  76 103 143 188 241 296 366 430
#     4  12  23  48  72 108 141 191 241 302 367 431
#     4  11  26  48  72 104 144 194 239 303 362 431
#
# _framework density 21.764924000000001
#
# number of rings (size 3 to 8) (size 9 to 14) (size 15 to 20)
#    0.000    0.400    8.000    0.000   11.200    0.800 
#    3.600    0.000    0.000    0.000    0.000    0.000 
#    0.000    0.000    0.000    0.000    0.000    0.000 
#
# Total GULP energy -111339.378937 kJ/mol
# GULP energy per Si atom -5566.968947 kJ/mol
# Density = 2.171539 g / cm^3
# Si number density = 21.764924 Si / 1000 Ang^3
#
#
#
# Elastic Constant Matrix: (Units=GPa)
#
#
# Indices 1 2 3 4 5 6 
#
# 1 149.4383 85.3583 53.2139 0.0000 0.0000 -4.3425
# 2 85.3583 149.4383 53.2139 0.0000 0.0000 4.3425
# 3 53.2139 53.2139 63.6577 0.0000 0.0000 0.0000
# 4 0.0000 0.0000 0.0000 23.3136 0.0000 0.0000
# 5 0.0000 0.0000 0.0000 0.0000 23.3136 0.0000
# 6 -4.3425 4.3425 0.0000 0.0000 0.0000 29.5649
#
#
#
# Elastic Compliance Matrix: (Units=1/GPa)
#
#
# Indices 1 2 3 4 5 6 
#
# 1 0.011390 -0.004533 -0.005732 0.000000 0.000000 0.002339
# 2 -0.004533 0.011390 -0.005732 0.000000 0.000000 -0.002339
# 3 -0.005732 -0.005732 0.025293 0.000000 0.000000 0.000000
# 4 0.000000 0.000000 0.000000 0.042893 0.000000 0.000000
# 5 0.000000 0.000000 0.000000 0.000000 0.042893 0.000000
# 6 0.002339 -0.002339 0.000000 0.000000 0.000000 0.034511
#
#
# Mechanical properties :
#
#
# Convention : Reuss Voigt Hill
#
# Bulk Modulus (GPa) = 62.19616 82.90072 72.54844
# Shear Modulus (GPa) = 24.30443 26.62165 25.46304
#
# Velocity S-wave (km/s) = 3.34530 3.50114 3.42411
# Velocity P-wave (km/s) = 6.59998 7.38348 7.00270
#
# Compressibility (1/GPa) = 0.01607816
#
# Stress axis : x y z
#
# Youngs Moduli (GPa) = 87.79710 87.79710 39.53714
#
# Poissons Ratio (x) = 0.39795 0.22664
# Poissons Ratio (y) = 0.39795 0.22664
# Poissons Ratio (z) = 0.50328 0.50328
#
# Static dielectric constant tensor:
#      x y z
#    x 1.899670 0.000000 0.000000 
#    y 0.000000 1.899670 0.000000 
#    z 0.000000 0.000000 1.867750 
# 
# From -- ./inp_files/595.got.cif
#   From: 2010.05.17/outbox.cif.g08.bks.cpg/sg80_cif.got.tgz:595.got - 2010.06.03 18:49:13.
