data_PCOD9542504
_publ_section_title
;
Structure prediction by ZEFSAII (Michael W. Deem and Ramdas Pophale) SiO2 
 PCOD9542504
Probable space group: P -4
;
_chemical_formula_sum "Si O2"
_cell_formula_units_Z 16
_cell_length_a 10.608472
_cell_length_b 10.608472
_cell_length_c 6.178543
_cell_angle_alpha 90.000000
_cell_angle_beta 90.000000
_cell_angle_gamma 90.000000
_cell_volume 695.331241
_symmetry_space_group_name_H-M "P -4"
_symmetry_group_IT_number 81
_symmetry_cell_setting 'tetragonal'
loop_
_space_group_symop_operation_xyz
x,y,z
y,-x,-z
-x,-y,z
-y,x,-z
loop_
_atom_site_type_symbol
_atom_site_label
_atom_site_fract_x
_atom_site_fract_y
_atom_site_fract_z
Si Si1 0.500000 0.000000 0.279321
Si Si2 0.651728 0.680946 0.736674
Si Si3 0.808718 0.597699 0.364822
Si Si4 0.500000 0.500000 0.000000
Si Si5 0.000000 0.000000 0.000000
Si Si6 0.269140 0.915059 0.036913
O O1 0.461211 0.888739 0.439874
O O2 0.378075 0.005882 0.127931
O O3 0.691197 0.663331 0.486150
O O4 0.526201 0.763953 0.762668
O O5 0.610298 0.549904 0.845448
O O6 0.776077 0.729150 0.856601
O O7 0.886932 0.693367 0.213544
O O8 0.136591 0.976200 0.102971
#
# Coordination Sequence:
#
# PCOD9542504 Si02
#       6
#     2   4   4   1   1   4
#     4  10  26  46  76 102 134 202 258 322 386 460
#     4  11  24  40  71 111 148 193 243 320 390 469
#     4  11  24  44  73 106 146 193 257 317 395 466
#     4  12  20  42  68 120 158 184 248 322 396 460
#     4  12  32  48  78 108 156 218 248 320 398 460
#     4  11  27  49  73 107 154 201 264 319 392 469
#
# _framework density 23.010615000000001
#
# number of rings (size 3 to 8) (size 9 to 14) (size 15 to 20)
#    0.000    1.000    2.500    2.250   10.500    0.000 
#    0.000    5.000    0.000    0.000    0.000    0.000 
#    0.000    0.000    0.000    0.000    0.000    0.000 
#
# Total GULP energy -89293.350721 kJ/mol
# GULP energy per Si atom -5580.834420 kJ/mol
# Density = 2.295824 g / cm^3
# Si number density = 23.010615 Si / 1000 Ang^3
#
#
#
# Elastic Constant Matrix: (Units=GPa)
#
#
# Indices 1 2 3 4 5 6 
#
# 1 101.0296 16.7897 22.7489 0.0000 0.0000 -3.4858
# 2 16.7897 101.0296 22.7489 0.0000 0.0000 3.4858
# 3 22.7489 22.7489 88.1737 0.0000 0.0000 0.0000
# 4 0.0000 0.0000 0.0000 28.0314 0.0000 0.0000
# 5 0.0000 0.0000 0.0000 0.0000 28.0314 0.0000
# 6 -3.4858 3.4858 0.0000 0.0000 0.0000 49.8104
#
#
#
# Elastic Compliance Matrix: (Units=1/GPa)
#
#
# Indices 1 2 3 4 5 6 
#
# 1 0.010683 -0.001257 -0.002432 0.000000 0.000000 0.000836
# 2 -0.001257 0.010683 -0.002432 0.000000 0.000000 -0.000836
# 3 -0.002432 -0.002432 0.012596 0.000000 0.000000 0.000000
# 4 0.000000 0.000000 0.000000 0.035674 0.000000 0.000000
# 5 0.000000 0.000000 0.000000 0.000000 0.035674 0.000000
# 6 0.000836 -0.000836 0.000000 0.000000 0.000000 0.020193
#
#
# Mechanical properties :
#
#
# Convention : Reuss Voigt Hill
#
# Bulk Modulus (GPa) = 46.03773 46.08976 46.06374
# Shear Modulus (GPa) = 34.48592 36.37101 35.42847
#
# Velocity S-wave (km/s) = 3.87550 3.98001 3.92810
# Velocity P-wave (km/s) = 6.33061 6.41825 6.37458
#
# Compressibility (1/GPa) = 0.02172131
#
# Stress axis : x y z
#
# Youngs Moduli (GPa) = 93.60324 93.60324 79.38882
#
# Poissons Ratio (x) = 0.11762 0.19308
# Poissons Ratio (y) = 0.11762 0.19308
# Poissons Ratio (z) = 0.22765 0.22765
#
# Static dielectric constant tensor:
#      x y z
#    x 1.916980 0.000000 0.000000 
#    y 0.000000 1.916980 0.000000 
#    z 0.000000 0.000000 1.930650 
# 
# From -- ./inp_files/132.got.cif
#   From: 2010.05.17/outbox.cif.g08.bks.cpg/sg81_cif.got.tgz:132.got - 2010.06.03 18:51:07.
