data_PCOD9542846
_publ_section_title
;
Structure prediction by ZEFSAII (Michael W. Deem and Ramdas Pophale) SiO2 
 PCOD9542846
Probable space group: I -4 
;
_chemical_formula_sum "Si O2"
_cell_formula_units_Z 28
_cell_length_a 7.243767
_cell_length_b 7.243767
_cell_length_c 24.944619
_cell_angle_alpha 90.000000
_cell_angle_beta 90.000000
_cell_angle_gamma 90.000000
_cell_volume 1308.898048
_symmetry_space_group_name_H-M "I -4 "
_symmetry_group_IT_number 82
_symmetry_cell_setting 'tetragonal'
loop_
_space_group_symop_operation_xyz
x,y,z
y,-x,-z
-x,-y,z
-y,x,-z
1/2+x,1/2+y,1/2+z
1/2+y,1/2-x,1/2-z
1/2-x,1/2-y,1/2+z
1/2-y,1/2+x,1/2-z
loop_
_atom_site_type_symbol
_atom_site_label
_atom_site_fract_x
_atom_site_fract_y
_atom_site_fract_z
Si Si1 0.000000 0.500000 0.595072
Si Si2 0.225699 0.632882 0.499509
Si Si3 0.776591 0.992546 0.724453
Si Si4 0.868571 0.175144 0.390218
O O1 0.887044 0.369378 0.554181
O O2 0.877856 0.653978 0.624336
O O3 0.418408 0.732193 0.510068
O O4 0.138326 0.716426 0.446185
O O5 0.679664 0.826251 0.757302
O O6 0.730757 0.952814 0.662187
O O7 0.000000 0.000000 0.730104
O O8 0.000000 0.000000 0.398497
#
# Coordination Sequence:
#
# PCOD9542846 Si02
#       4
#     4   8   8   8
#     4  10  22  36  60 101 133 172 214 260 326 400
#     4   9  20  39  60  95 134 173 211 260 319 396
#     4  10  24  48  70 101 132 175 232 289 344 397
#     4  10  23  40  65  96 129 175 219 270 332 389
#
# _framework density 21.392042
#
# number of rings (size 3 to 8) (size 9 to 14) (size 15 to 20)
#    0.000    2.286    0.000    0.000    8.000    7.429 
#   20.571    0.000    0.000    0.000    0.000    0.000 
#    0.000    0.000    0.000    0.000    0.000    0.000 
#
# Total GULP energy -78127.567030 kJ/mol
# GULP energy per Si atom -5580.540502 kJ/mol
# Density = 2.134335 g / cm^3
# Si number density = 21.392042 Si / 1000 Ang^3
#
#
#
# Elastic Constant Matrix: (Units=GPa)
#
#
# Indices 1 2 3 4 5 6 
#
# 1 108.1537 30.6516 46.6298 0.0000 0.0000 12.2770
# 2 30.6516 108.1537 46.6298 0.0000 0.0000 -12.2770
# 3 46.6298 46.6298 110.5899 0.0000 0.0000 0.0000
# 4 0.0000 0.0000 0.0000 11.0504 0.0000 0.0000
# 5 0.0000 0.0000 0.0000 0.0000 11.0504 0.0000
# 6 12.2770 -12.2770 0.0000 0.0000 0.0000 45.3504
#
#
#
# Elastic Compliance Matrix: (Units=1/GPa)
#
#
# Indices 1 2 3 4 5 6 
#
# 1 0.012083 -0.002031 -0.004238 0.000000 0.000000 -0.003821
# 2 -0.002031 0.012083 -0.004238 0.000000 0.000000 0.003821
# 3 -0.004238 -0.004238 0.012617 0.000000 0.000000 0.000000
# 4 0.000000 0.000000 0.000000 0.090495 0.000000 0.000000
# 5 0.000000 0.000000 0.000000 0.000000 0.090495 0.000000
# 6 -0.003821 0.003821 0.000000 0.000000 0.000000 0.024119
#
#
# Mechanical properties :
#
#
# Convention : Reuss Voigt Hill
#
# Bulk Modulus (GPa) = 63.42334 63.85774 63.64054
# Shear Modulus (GPa) = 18.64552 27.02263 22.83407
#
# Velocity S-wave (km/s) = 2.95551 3.55802 3.27067
# Velocity P-wave (km/s) = 6.43111 6.84071 6.63907
#
# Compressibility (1/GPa) = 0.01576707
#
# Stress axis : x y z
#
# Youngs Moduli (GPa) = 82.76315 82.76315 79.26059
#
# Poissons Ratio (x) = 0.16807 0.33594
# Poissons Ratio (y) = 0.16807 0.33594
# Poissons Ratio (z) = 0.35078 0.35078
#
# Static dielectric constant tensor:
#      x y z
#    x 1.894670 0.000000 0.000000 
#    y 0.000000 1.894670 0.000000 
#    z 0.000000 0.000000 1.775320 
# 
# From -- ./inp_files/2806.got.cif
#   From: 2010.05.17/outbox.cif.g08.bks.cpg/sg82_2_cif.got.tgz:2806.got - 2010.06.03 18:52:26.
