data_PCOD9542908
_publ_section_title
;
Structure prediction by ZEFSAII (Michael W. Deem and Ramdas Pophale) SiO2 
 PCOD9542908
Probable space group: I -4 
;
_chemical_formula_sum "Si O2"
_cell_formula_units_Z 44
_cell_length_a 9.304245
_cell_length_b 9.304245
_cell_length_c 26.383286
_cell_angle_alpha 90.000000
_cell_angle_beta 90.000000
_cell_angle_gamma 90.000000
_cell_volume 2283.974027
_symmetry_space_group_name_H-M "I -4 "
_symmetry_group_IT_number 82
_symmetry_cell_setting 'tetragonal'
loop_
_space_group_symop_operation_xyz
x,y,z
y,-x,-z
-x,-y,z
-y,x,-z
1/2+x,1/2+y,1/2+z
1/2+y,1/2-x,1/2-z
1/2-x,1/2-y,1/2+z
1/2-y,1/2+x,1/2-z
loop_
_atom_site_type_symbol
_atom_site_label
_atom_site_fract_x
_atom_site_fract_y
_atom_site_fract_z
Si Si1 0.723505 0.286958 0.852572
Si Si2 0.026890 0.669461 0.439647
Si Si3 0.540820 0.167731 0.435452
Si Si4 0.244699 0.254638 0.974180
Si Si5 0.500000 0.500000 0.193042
Si Si6 0.783145 0.420937 0.257298
O O1 0.622366 0.202305 0.891555
O O2 0.867431 0.314809 0.884560
O O3 0.634183 0.430333 0.837563
O O4 0.746459 0.183925 0.804508
O O5 0.107408 0.721610 0.490400
O O6 0.000000 0.500000 0.442115
O O7 0.880296 0.757850 0.437786
O O8 0.632190 0.219389 0.484424
O O9 0.396666 0.260991 0.440540
O O10 0.500000 0.000000 0.438890
O O11 0.637102 0.443601 0.225601
O O12 0.844023 0.580823 0.270942
#
# Coordination Sequence:
#
# PCOD9542908 Si02
#       6
#     8   8   8   8   4   8
#     4  10  25  42  65  99 120 168 217 263 310 380
#     4  11  23  39  63  91 127 165 222 254 301 373
#     4  11  23  43  59  94 134 163 219 261 305 373
#     4  11  20  42  62  84 132 176 204 257 315 353
#     4  10  22  44  72  93 124 165 210 256 342 384
#     4   9  20  45  72  93 127 161 208 265 325 392
#
# _framework density 19.264665999999998
#
# number of rings (size 3 to 8) (size 9 to 14) (size 15 to 20)
#    0.000    1.636    3.636    0.000    7.636    0.727 
#    9.818    0.000    0.000    0.000    0.000    0.000 
#    0.000    0.000    0.000    0.000    0.000    0.000 
#
# Total GULP energy -122684.588872 kJ/mol
# GULP energy per Si atom -5576.572221 kJ/mol
# Density = 1.922082 g / cm^3
# Si number density = 19.264666 Si / 1000 Ang^3
#
#
#
# Elastic Constant Matrix: (Units=GPa)
#
#
# Indices 1 2 3 4 5 6 
#
# 1 130.7574 53.4265 44.2395 0.0000 0.0000 -3.0959
# 2 53.4265 130.7574 44.2395 0.0000 0.0000 3.0959
# 3 44.2395 44.2395 72.1486 0.0000 0.0000 0.0000
# 4 0.0000 0.0000 0.0000 4.0379 0.0000 0.0000
# 5 0.0000 0.0000 0.0000 0.0000 4.0379 0.0000
# 6 -3.0959 3.0959 0.0000 0.0000 0.0000 25.7245
#
#
#
# Elastic Compliance Matrix: (Units=1/GPa)
#
#
# Indices 1 2 3 4 5 6 
#
# 1 0.010377 -0.002680 -0.004719 0.000000 0.000000 0.001571
# 2 -0.002680 0.010377 -0.004719 0.000000 0.000000 -0.001571
# 3 -0.004719 -0.004719 0.019648 0.000000 0.000000 0.000000
# 4 0.000000 0.000000 0.000000 0.247651 0.000000 0.000000
# 5 0.000000 0.000000 0.000000 0.000000 0.247651 0.000000
# 6 0.001571 -0.001571 0.000000 0.000000 0.000000 0.039252
#
#
# Mechanical properties :
#
#
# Convention : Reuss Voigt Hill
#
# Bulk Modulus (GPa) = 61.86741 68.60825 65.23783
# Shear Modulus (GPa) = 8.27018 19.54392 13.90705
#
# Velocity S-wave (km/s) = 2.07419 3.18857 2.68972
# Velocity P-wave (km/s) = 6.15796 7.01761 6.60179
#
# Compressibility (1/GPa) = 0.01616360
#
# Stress axis : x y z
#
# Youngs Moduli (GPa) = 96.36854 96.36855 50.89662
#
# Poissons Ratio (x) = 0.25831 0.24019
# Poissons Ratio (y) = 0.25831 0.24019
# Poissons Ratio (z) = 0.45478 0.45478
#
# Static dielectric constant tensor:
#      x y z
#    x 1.710360 0.000000 0.000000 
#    y 0.000000 1.710360 0.000000 
#    z 0.000000 0.000000 1.677390 
# 
# From -- ./inp_files/3945.got.cif
#   From: 2010.05.17/outbox.cif.g08.bks.cpg/sg82_2_cif.got.tgz:3945.got - 2010.06.03 18:52:26.
