data_PCOD9542126
_publ_section_title
;
Structure prediction by ZEFSAII (Michael W. Deem and Ramdas Pophale) SiO2 
 PCOD9542126
Probable space group: I 41
;
_chemical_formula_sum "Si O2"
_cell_formula_units_Z 56
_cell_length_a 13.686937
_cell_length_b 13.686937
_cell_length_c 11.535725
_cell_angle_alpha 90.000000
_cell_angle_beta 90.000000
_cell_angle_gamma 90.000000
_cell_volume 2161.013256
_symmetry_space_group_name_H-M "I 41"
_symmetry_group_IT_number 80
_symmetry_cell_setting 'tetragonal'
loop_
_space_group_symop_operation_xyz
x,y,z
-y,1/2+x,1/4+z
-x,-y,z
y,1/2-x,1/4+z
1/2+x,1/2+y,1/2+z
1/2-y,x,3/4+z
1/2-x,1/2-y,1/2+z
1/2+y,-x,3/4+z
loop_
_atom_site_type_symbol
_atom_site_label
_atom_site_fract_x
_atom_site_fract_y
_atom_site_fract_z
Si Si1 0.306528 0.649094 0.167660
Si Si2 0.144212 0.397173 0.913113
Si Si3 0.868348 0.147692 0.316048
Si Si4 0.730643 0.694992 0.436996
Si Si5 0.376483 0.492600 0.356149
Si Si6 0.888348 0.352632 0.312021
Si Si7 0.987488 0.651118 0.724386
O O1 0.341432 0.752151 0.109021
O O2 0.353193 0.583929 0.271687
O O3 0.203091 0.670757 0.227710
O O4 0.311092 0.569204 0.066164
O O5 0.146292 0.278102 0.918479
O O6 0.252903 0.435473 0.923076
O O7 0.087938 0.416106 0.794729
O O8 0.082303 0.434320 0.022855
O O9 0.921268 0.245960 0.357001
O O10 0.898624 0.142551 0.181610
O O11 0.899049 0.048127 0.374605
O O12 0.736114 0.699418 0.579588
O O13 0.706301 0.584788 0.400587
O O14 0.407222 0.538989 0.477671
#
# Coordination Sequence:
#
# PCOD9542126 Si02
#       7
#     8   8   8   8   8   8   8
#     4  11  21  39  68  95 130 170 228 280 329 417
#     4  10  21  42  68  96 128 173 234 279 339 406
#     4  12  22  38  67 100 134 177 226 277 349 411
#     4  10  20  40  69  94 123 174 235 279 337 418
#     4  10  21  36  63  97 126 168 222 280 329 405
#     4  12  21  39  63  97 132 178 220 274 343 410
#     4  11  22  40  70 103 129 177 232 288 333 419
#
# _framework density 25.913772000000002
#
# number of rings (size 3 to 8) (size 9 to 14) (size 15 to 20)
#    0.000    1.143    7.143    0.857    0.000    1.143 
#    0.000    6.429    0.000    0.000    0.000    0.000 
#    0.000    0.000    0.000    0.000    0.000    0.000 
#
# Total GULP energy -155873.238059 kJ/mol
# GULP energy per Si atom -5566.901359 kJ/mol
# Density = 2.585479 g / cm^3
# Si number density = 25.913772 Si / 1000 Ang^3
#
#
#
# Elastic Constant Matrix: (Units=GPa)
#
#
# Indices 1 2 3 4 5 6 
#
# 1 86.0303 47.5551 46.2750 0.0000 0.0000 1.9852
# 2 47.5551 86.0303 46.2750 0.0000 0.0000 -1.9852
# 3 46.2750 46.2750 144.5307 0.0000 0.0000 0.0000
# 4 0.0000 0.0000 0.0000 20.2529 0.0000 0.0000
# 5 0.0000 0.0000 0.0000 0.0000 20.2529 0.0000
# 6 1.9852 -1.9852 0.0000 0.0000 0.0000 10.4717
#
#
#
# Elastic Compliance Matrix: (Units=1/GPa)
#
#
# Indices 1 2 3 4 5 6 
#
# 1 0.018065 -0.008445 -0.003080 0.000000 0.000000 -0.005026
# 2 -0.008445 0.018065 -0.003080 0.000000 0.000000 0.005026
# 3 -0.003080 -0.003080 0.008891 0.000000 0.000000 0.000000
# 4 0.000000 0.000000 0.000000 0.049376 0.000000 0.000000
# 5 0.000000 0.000000 0.000000 0.000000 0.049376 0.000000
# 6 -0.005026 0.005026 0.000000 0.000000 0.000000 0.097401
#
#
# Mechanical properties :
#
#
# Convention : Reuss Voigt Hill
#
# Bulk Modulus (GPa) = 63.24833 66.31127 64.77980
# Shear Modulus (GPa) = 18.13877 21.96126 20.05001
#
# Velocity S-wave (km/s) = 2.64856 2.91430 2.78460
# Velocity P-wave (km/s) = 5.81493 6.08021 5.94905
#
# Compressibility (1/GPa) = 0.01581069
#
# Stress axis : x y z
#
# Youngs Moduli (GPa) = 55.35707 55.35707 112.47074
#
# Poissons Ratio (x) = 0.46748 0.34641
# Poissons Ratio (y) = 0.46748 0.34641
# Poissons Ratio (z) = 0.17050 0.17050
#
# Static dielectric constant tensor:
#      x y z
#    x 2.098300 0.000000 0.000000 
#    y 0.000000 2.098300 0.000000 
#    z 0.000000 0.000000 2.093930 
# 
# From -- ./inp_files/1065.got.cif
#   From: 2010.05.17/outbox.cif.g08.bks.cpg/sg80_cif.got.tgz:1065.got - 2010.06.03 18:49:13.
