data_PCOD9542359
_publ_section_title
;
Structure prediction by ZEFSAII (Michael W. Deem and Ramdas Pophale) SiO2 
 PCOD9542359
Probable space group: P -4
;
_chemical_formula_sum "Si O2"
_cell_formula_units_Z 29
_cell_length_a 12.630806
_cell_length_b 12.630806
_cell_length_c 10.750730
_cell_angle_alpha 90.000000
_cell_angle_beta 90.000000
_cell_angle_gamma 90.000000
_cell_volume 1715.142009
_symmetry_space_group_name_H-M "P -4"
_symmetry_group_IT_number 81
_symmetry_cell_setting 'tetragonal'
loop_
_space_group_symop_operation_xyz
x,y,z
y,-x,-z
-x,-y,z
-y,x,-z
loop_
_atom_site_type_symbol
_atom_site_label
_atom_site_fract_x
_atom_site_fract_y
_atom_site_fract_z
Si Si1 0.696329 0.627523 0.143109
Si Si2 0.314058 0.495561 0.693666
Si Si3 0.124052 0.875354 0.503068
Si Si4 0.500000 0.500000 0.500000
Si Si5 0.496660 0.876017 0.489304
Si Si6 0.691874 0.120032 0.684192
Si Si7 0.305294 0.627216 0.126237
Si Si8 0.130063 0.688998 0.319855
O O1 0.607575 0.659619 0.243609
O O2 0.808564 0.662011 0.199178
O O3 0.691897 0.500659 0.125869
O O4 0.669061 0.683762 0.013514
O O5 0.400390 0.474740 0.586506
O O6 0.200422 0.494975 0.628315
O O7 0.329957 0.405729 0.796603
O O8 0.195238 0.852113 0.623320
O O9 0.154809 0.799142 0.389419
O O10 0.999234 0.858884 0.527255
O O11 0.394174 0.858840 0.575844
O O12 0.597351 0.851834 0.577260
O O13 0.500000 0.000000 0.455314
O O14 0.687883 0.994772 0.711882
O O15 0.202401 0.665637 0.201539
#
# Coordination Sequence:
#
# PCOD9542359 Si02
#       8
#     4   4   4   1   4   4   4   4
#     4  12  23  39  56  77 110 155 195 232 279 329
#     4  12  22  34  54  84 110 137 186 237 287 331
#     4   9  18  35  62  91 117 146 180 228 289 342
#     4  12  20  28  54  84 108 128 172 246 292 324
#     4  10  20  35  56  83 116 146 174 226 293 353
#     4  10  20  37  59  83 114 148 185 226 282 344
#     4  12  23  39  56  77 110 155 195 232 279 329
#     4  10  20  37  59  83 114 148 185 226 282 344
#
# _framework density 16.908221000000001
#
# number of rings (size 3 to 8) (size 9 to 14) (size 15 to 20)
#    0.000    1.241    4.138    3.310    0.000    0.000 
#    0.000    2.759    0.000    0.000    0.000    0.000 
#    0.000    0.000    0.000    0.000    0.000    0.000 
#
# Total GULP energy -162007.947968 kJ/mol
# GULP energy per Si atom -5586.480964 kJ/mol
# Density = 1.686974 g / cm^3
# Si number density = 16.908221 Si / 1000 Ang^3
#
#
#
# Elastic Constant Matrix: (Units=GPa)
#
#
# Indices 1 2 3 4 5 6 
#
# 1 67.5279 30.0782 28.9178 0.0000 0.0000 0.4272
# 2 30.0782 67.5279 28.9178 0.0000 0.0000 -0.4272
# 3 28.9178 28.9178 55.2911 0.0000 0.0000 0.0000
# 4 0.0000 0.0000 0.0000 11.8080 0.0000 0.0000
# 5 0.0000 0.0000 0.0000 0.0000 11.8080 0.0000
# 6 0.4272 -0.4272 0.0000 0.0000 0.0000 19.2720
#
#
#
# Elastic Compliance Matrix: (Units=1/GPa)
#
#
# Indices 1 2 3 4 5 6 
#
# 1 0.020781 -0.005935 -0.007765 0.000000 0.000000 -0.000592
# 2 -0.005935 0.020781 -0.007765 0.000000 0.000000 0.000592
# 3 -0.007765 -0.007765 0.026208 0.000000 0.000000 0.000000
# 4 0.000000 0.000000 0.000000 0.084688 0.000000 0.000000
# 5 0.000000 0.000000 0.000000 0.000000 0.084688 0.000000
# 6 -0.000592 0.000592 0.000000 0.000000 0.000000 0.051915
#
#
# Mechanical properties :
#
#
# Convention : Reuss Voigt Hill
#
# Bulk Modulus (GPa) = 40.25495 40.68606 40.47050
# Shear Modulus (GPa) = 14.69415 15.40646 15.05031
#
# Velocity S-wave (km/s) = 2.95117 3.02185 2.98672
# Velocity P-wave (km/s) = 5.95585 6.02417 5.99011
#
# Compressibility (1/GPa) = 0.02484167
#
# Stress axis : x y z
#
# Youngs Moduli (GPa) = 48.12068 48.12068 38.15609
#
# Poissons Ratio (x) = 0.28559 0.29627
# Poissons Ratio (y) = 0.28559 0.29627
# Poissons Ratio (z) = 0.37364 0.37364
#
# Static dielectric constant tensor:
#      x y z
#    x 1.580220 0.000000 0.000000 
#    y 0.000000 1.580220 0.000000 
#    z 0.000000 0.000000 1.526470 
# 
# From -- ./inp_files/1406.got.cif
#   From: 2010.05.17/outbox.cif.g08.bks.cpg/sg81_cif.got.tgz:1406.got - 2010.06.03 18:51:07.
