data_PCOD9542648
_publ_section_title
;
Structure prediction by ZEFSAII (Michael W. Deem and Ramdas Pophale) SiO2 
 PCOD9542648
Probable space group: I -4 
;
_chemical_formula_sum "Si O2"
_cell_formula_units_Z 56
_cell_length_a 14.863341
_cell_length_b 14.863341
_cell_length_c 11.504871
_cell_angle_alpha 90.000000
_cell_angle_beta 90.000000
_cell_angle_gamma 90.000000
_cell_volume 2541.643511
_symmetry_space_group_name_H-M "I -4 "
_symmetry_group_IT_number 82
_symmetry_cell_setting 'tetragonal'
loop_
_space_group_symop_operation_xyz
x,y,z
y,-x,-z
-x,-y,z
-y,x,-z
1/2+x,1/2+y,1/2+z
1/2+y,1/2-x,1/2-z
1/2-x,1/2-y,1/2+z
1/2-y,1/2+x,1/2-z
loop_
_atom_site_type_symbol
_atom_site_label
_atom_site_fract_x
_atom_site_fract_y
_atom_site_fract_z
Si Si1 0.164087 0.631946 0.467848
Si Si2 0.744993 0.437565 0.703108
Si Si3 0.018591 0.743707 0.183229
Si Si4 0.114260 0.171148 0.367343
Si Si5 0.012883 0.754532 0.563726
Si Si6 0.741888 0.796990 0.725066
Si Si7 0.360116 0.461925 0.525280
O O1 0.199994 0.594483 0.590742
O O2 0.174308 0.550455 0.375903
O O3 0.071762 0.681317 0.496396
O O4 0.225852 0.708804 0.405251
O O5 0.789871 0.480633 0.815625
O O6 0.699414 0.348131 0.755290
O O7 0.678914 0.513124 0.649674
O O8 0.102392 0.705526 0.253242
O O9 0.962818 0.812580 0.267095
O O10 0.065976 0.789701 0.071511
O O11 0.158898 0.075713 0.402752
O O12 0.196807 0.228763 0.314908
O O13 0.067822 0.212308 0.481941
O O14 0.395629 0.557087 0.474996
#
# Coordination Sequence:
#
# PCOD9542648 Si02
#       7
#     8   8   8   8   8   8   8
#     4  10  23  44  66  97 135 176 235 276 342 411
#     4  11  23  39  67  97 134 185 223 286 337 418
#     4  10  21  40  68  95 131 180 232 282 326 410
#     4  11  25  42  72 100 138 181 225 292 339 422
#     4  12  24  45  67 107 141 178 231 285 362 408
#     4  11  21  45  71  97 132 188 239 274 345 414
#     4  10  19  33  55  95 138 171 215 273 339 402
#
# _framework density 22.032988
#
# number of rings (size 3 to 8) (size 9 to 14) (size 15 to 20)
#    0.000    1.286    4.286    1.714    0.000    0.286 
#    5.143    0.714    0.000    0.000    0.000    0.000 
#    0.000    0.000    0.000    0.000    0.000    0.000 
#
# Total GULP energy -156168.431035 kJ/mol
# GULP energy per Si atom -5577.443966 kJ/mol
# Density = 2.198284 g / cm^3
# Si number density = 22.032988 Si / 1000 Ang^3
#
#
#
# Elastic Constant Matrix: (Units=GPa)
#
#
# Indices 1 2 3 4 5 6 
#
# 1 20.8538 15.5130 22.6259 0.0000 0.0000 -8.2052
# 2 15.5130 20.8538 22.6259 0.0000 0.0000 8.2052
# 3 22.6259 22.6259 144.1233 0.0000 0.0000 0.0000
# 4 0.0000 0.0000 0.0000 31.9520 0.0000 0.0000
# 5 0.0000 0.0000 0.0000 0.0000 31.9520 0.0000
# 6 -8.2052 8.2052 0.0000 0.0000 0.0000 9.1112
#
#
#
# Elastic Compliance Matrix: (Units=1/GPa)
#
#
# Indices 1 2 3 4 5 6 
#
# 1 -0.035891 0.070064 -0.005365 0.000000 0.000000 -0.095419
# 2 0.070064 -0.035891 -0.005365 0.000000 0.000000 0.095419
# 3 -0.005365 -0.005365 0.008623 0.000000 0.000000 0.000000
# 4 0.000000 0.000000 0.000000 0.031297 0.000000 0.000000
# 5 0.000000 0.000000 0.000000 0.000000 0.031297 0.000000
# 6 -0.095419 0.095419 0.000000 0.000000 0.000000 -0.062107
#
#
# Mechanical properties :
#
#
# Convention : Reuss Voigt Hill
#
# Bulk Modulus (GPa) = 18.01480 34.15115 26.08297
# Shear Modulus (GPa) = -30.70569 22.94077 -3.88246
#
# Velocity S-wave (km/s) = -3.73718 3.23026 -1.32889
# Velocity P-wave (km/s) = 3.22923 5.42646 3.08371
#
# Compressibility (1/GPa) = 0.05550993
#
# Stress axis : x y z
#
# Youngs Moduli (GPa) = -27.86249 -27.86249 115.96961
#
# Poissons Ratio (x) = 1.95215 0.62216
# Poissons Ratio (y) = 1.95215 0.62216
# Poissons Ratio (z) = -0.14948 -0.14948
#
# Static dielectric constant tensor:
#      x y z
#    x 1.811250 0.000000 0.000000 
#    y 0.000000 1.811250 0.000000 
#    z 0.000000 0.000000 1.899120 
# 
# From -- ./inp_files/1852.got.cif
#   From: 2010.05.17/outbox.cif.g08.bks.cpg/sg82_1_cif.got.tgz:1852.got - 2010.06.03 18:52:26.
