data_PCOD9542671
_publ_section_title
;
Structure prediction by ZEFSAII (Michael W. Deem and Ramdas Pophale) SiO2 
 PCOD9542671
Probable space group: I -4 
;
_chemical_formula_sum "Si O2"
_cell_formula_units_Z 64
_cell_length_a 18.373681
_cell_length_b 18.373681
_cell_length_c 9.639535
_cell_angle_alpha 90.000000
_cell_angle_beta 90.000000
_cell_angle_gamma 90.000000
_cell_volume 3254.231379
_symmetry_space_group_name_H-M "I -4 "
_symmetry_group_IT_number 82
_symmetry_cell_setting 'tetragonal'
loop_
_space_group_symop_operation_xyz
x,y,z
y,-x,-z
-x,-y,z
-y,x,-z
1/2+x,1/2+y,1/2+z
1/2+y,1/2-x,1/2-z
1/2-x,1/2-y,1/2+z
1/2-y,1/2+x,1/2-z
loop_
_atom_site_type_symbol
_atom_site_label
_atom_site_fract_x
_atom_site_fract_y
_atom_site_fract_z
Si Si1 0.767695 0.663192 0.287829
Si Si2 0.140716 0.495548 0.480421
Si Si3 0.679280 0.396384 0.400525
Si Si4 0.052172 0.364478 0.579023
Si Si5 0.798169 0.944678 0.995206
Si Si6 0.306586 0.927695 0.710996
Si Si7 0.636424 0.890163 0.337872
Si Si8 0.215788 0.727536 0.508991
O O1 0.716840 0.601311 0.353159
O O2 0.853229 0.646650 0.270330
O O3 0.772105 0.727442 0.401221
O O4 0.741804 0.693335 0.140115
O O5 0.073894 0.441893 0.509855
O O6 0.214960 0.459459 0.541333
O O7 0.160046 0.515739 0.321569
O O8 0.126301 0.570936 0.556346
O O9 0.668434 0.475721 0.468465
O O10 0.606762 0.347513 0.407935
O O11 0.723620 0.412007 0.259178
O O12 0.739359 0.347633 0.481736
O O13 0.048069 0.311857 0.447470
O O14 0.115107 0.353325 0.692552
O O15 0.977313 0.363133 0.663667
O O16 0.708152 0.854622 0.401290
#
# Coordination Sequence:
#
# PCOD9542671 Si02
#       8
#     8   8   8   8   8   8   8   8
#     4  10  20  37  57  85 117 156 209 255 309 365
#     4  11  22  40  59  81 123 165 209 256 298 364
#     4   9  20  36  61  89 118 153 208 263 320 371
#     4  12  26  37  58  87 127 173 205 256 307 375
#     4  10  19  37  61  89 124 157 203 273 313 373
#     4  10  22  38  60  87 114 162 213 251 299 371
#     4  12  24  41  53  85 129 164 209 250 313 367
#     4  10  22  38  60  85 117 163 208 252 304 373
#
# _framework density 19.666702000000001
#
# number of rings (size 3 to 8) (size 9 to 14) (size 15 to 20)
#    0.000    1.500    6.250    0.375    7.000    1.250 
#    0.000    0.000    0.000    0.000    0.000    0.000 
#    0.000    6.000    0.000    0.000    0.000    0.000 
#
# Total GULP energy -178413.865363 kJ/mol
# GULP energy per Si atom -5575.433293 kJ/mol
# Density = 1.962194 g / cm^3
# Si number density = 19.666702 Si / 1000 Ang^3
#
#
#
# Elastic Constant Matrix: (Units=GPa)
#
#
# Indices 1 2 3 4 5 6 
#
# 1 63.1106 17.5632 9.5543 0.0000 0.0000 10.5606
# 2 17.5632 63.1106 9.5543 0.0000 0.0000 -10.5606
# 3 9.5543 9.5543 99.6453 0.0000 0.0000 0.0000
# 4 0.0000 0.0000 0.0000 23.0822 0.0000 0.0000
# 5 0.0000 0.0000 0.0000 0.0000 23.0822 0.0000
# 6 10.5606 -10.5606 0.0000 0.0000 0.0000 27.6634
#
#
#
# Elastic Compliance Matrix: (Units=1/GPa)
#
#
# Indices 1 2 3 4 5 6 
#
# 1 0.019681 -0.006997 -0.001216 0.000000 0.000000 -0.010184
# 2 -0.006997 0.019681 -0.001216 0.000000 0.000000 0.010184
# 3 -0.001216 -0.001216 0.010269 0.000000 0.000000 0.000000
# 4 0.000000 0.000000 0.000000 0.043323 0.000000 0.000000
# 5 0.000000 0.000000 0.000000 0.000000 0.043323 0.000000
# 6 -0.010184 0.010184 0.000000 0.000000 0.000000 0.043925
#
#
# Mechanical properties :
#
#
# Convention : Reuss Voigt Hill
#
# Bulk Modulus (GPa) = 32.49754 33.24554 32.87154
# Shear Modulus (GPa) = 23.88713 27.37855 25.63284
#
# Velocity S-wave (km/s) = 3.48889 3.73517 3.61413
# Velocity P-wave (km/s) = 5.72624 5.96181 5.84521
#
# Compressibility (1/GPa) = 0.03077156
#
# Stress axis : x y z
#
# Youngs Moduli (GPa) = 50.81107 50.81107 97.38227
#
# Poissons Ratio (x) = 0.35553 0.11843
# Poissons Ratio (y) = 0.35553 0.11843
# Poissons Ratio (z) = 0.06179 0.06179
#
# Static dielectric constant tensor:
#      x y z
#    x 1.730650 0.000000 0.000000 
#    y 0.000000 1.730650 0.000000 
#    z 0.000000 0.000000 1.750450 
# 
# From -- ./inp_files/1244.got.cif
#   From: 2010.05.17/outbox.cif.g08.bks.cpg/sg82_1_cif.got.tgz:1244.got - 2010.06.03 18:52:26.
