data_PCOD9542545
_publ_section_title
;
Structure prediction by ZEFSAII (Michael W. Deem and Ramdas Pophale) SiO2 
 PCOD9542545
Probable space group: P -4
;
_chemical_formula_sum "Si O2"
_cell_formula_units_Z 16
_cell_length_a 9.345940
_cell_length_b 9.345940
_cell_length_c 8.863747
_cell_angle_alpha 90.000000
_cell_angle_beta 90.000000
_cell_angle_gamma 90.000000
_cell_volume 774.218115
_symmetry_space_group_name_H-M "P -4"
_symmetry_group_IT_number 81
_symmetry_cell_setting 'tetragonal'
loop_
_space_group_symop_operation_xyz
x,y,z
y,-x,-z
-x,-y,z
-y,x,-z
loop_
_atom_site_type_symbol
_atom_site_label
_atom_site_fract_x
_atom_site_fract_y
_atom_site_fract_z
Si Si1 0.000000 0.500000 0.918491
Si Si2 0.596761 0.772683 0.837587
Si Si3 0.741070 0.102768 0.304001
Si Si4 0.557226 0.277847 0.534201
Si Si5 0.500000 0.500000 0.000000
Si Si6 0.000000 0.000000 0.500000
O O1 0.975371 0.639064 0.814861
O O2 0.870348 0.460282 0.029025
O O3 0.756837 0.805365 0.780286
O O4 0.492498 0.781424 0.693982
O O5 0.587497 0.609587 0.895919
O O6 0.636292 0.163509 0.432822
O O7 0.862968 0.014431 0.390100
O O8 0.414816 0.338354 0.452410
#
# Coordination Sequence:
#
# PCOD9542545 Si02
#       6
#     2   4   4   4   1   1
#     4  12  28  42  74 106 142 188 230 298 358 430
#     4  11  24  42  72 107 138 179 229 298 355 419
#     4  11  27  47  68 103 140 191 238 289 350 427
#     4   9  20  40  72 103 131 173 228 293 343 405
#     4  12  20  44  70 108 140 160 234 300 364 400
#     4  12  32  48  70  96 152 200 238 288 348 440
#
# _framework density 20.666008999999999
#
# number of rings (size 3 to 8) (size 9 to 14) (size 15 to 20)
#    0.000    1.250    2.500    3.000   10.500    2.000 
#    0.000    0.000    0.000    0.000    0.000    0.000 
#    0.000    0.000    0.000    0.000    0.000    0.000 
#
# Total GULP energy -89480.839130 kJ/mol
# GULP energy per Si atom -5592.552446 kJ/mol
# Density = 2.061897 g / cm^3
# Si number density = 20.666009 Si / 1000 Ang^3
#
#
#
# Elastic Constant Matrix: (Units=GPa)
#
#
# Indices 1 2 3 4 5 6 
#
# 1 74.7482 37.3416 66.5190 0.0000 0.0000 1.8866
# 2 37.3416 74.7482 66.5190 0.0000 0.0000 -1.8866
# 3 66.5190 66.5190 131.9280 0.0000 0.0000 0.0000
# 4 0.0000 0.0000 0.0000 -30.0021 0.0000 0.0000
# 5 0.0000 0.0000 0.0000 0.0000 -30.0021 0.0000
# 6 1.8866 -1.8866 0.0000 0.0000 0.0000 11.9557
#
#
#
# Elastic Compliance Matrix: (Units=1/GPa)
#
#
# Indices 1 2 3 4 5 6 
#
# 1 0.024691 -0.002474 -0.011202 0.000000 0.000000 -0.004287
# 2 -0.002474 0.024691 -0.011202 0.000000 0.000000 0.004287
# 3 -0.011202 -0.011202 0.018876 0.000000 0.000000 0.000000
# 4 0.000000 0.000000 0.000000 -0.033331 0.000000 0.000000
# 5 0.000000 0.000000 0.000000 0.000000 -0.033331 0.000000
# 6 -0.004287 0.004287 0.000000 0.000000 0.000000 0.084995
#
#
# Mechanical properties :
#
#
# Convention : Reuss Voigt Hill
#
# Bulk Modulus (GPa) = 54.04785 69.13148 61.58966
# Shear Modulus (GPa) = 35.08406 -2.20672 16.43867
#
# Velocity S-wave (km/s) = 4.12475 -1.03447 2.82342
# Velocity P-wave (km/s) = 6.99246 5.66547 6.36365
#
# Compressibility (1/GPa) = 0.01850212
#
# Stress axis : x y z
#
# Youngs Moduli (GPa) = 40.50026 40.50026 52.97748
#
# Poissons Ratio (x) = 0.10022 0.59344
# Poissons Ratio (y) = 0.10022 0.59344
# Poissons Ratio (z) = 0.45368 0.45368
#
# Static dielectric constant tensor:
#      x y z
#    x 1.781010 0.000000 0.000000 
#    y 0.000000 1.781010 0.000000 
#    z 0.000000 0.000000 1.716200 
# 
# From -- ./inp_files/547.got.cif
#   From: 2010.05.17/outbox.cif.g08.bks.cpg/sg81_cif.got.tgz:547.got - 2010.06.03 18:51:07.
