data_PCOD9542916
_publ_section_title
;
Structure prediction by ZEFSAII (Michael W. Deem and Ramdas Pophale) SiO2 
 PCOD9542916
Probable space group: I -4 
;
_chemical_formula_sum "Si O2"
_cell_formula_units_Z 48
_cell_length_a 20.185560
_cell_length_b 20.185560
_cell_length_c 6.413046
_cell_angle_alpha 90.000000
_cell_angle_beta 90.000000
_cell_angle_gamma 90.000000
_cell_volume 2613.039410
_symmetry_space_group_name_H-M "I -4 "
_symmetry_group_IT_number 82
_symmetry_cell_setting 'tetragonal'
loop_
_space_group_symop_operation_xyz
x,y,z
y,-x,-z
-x,-y,z
-y,x,-z
1/2+x,1/2+y,1/2+z
1/2+y,1/2-x,1/2-z
1/2-x,1/2-y,1/2+z
1/2-y,1/2+x,1/2-z
loop_
_atom_site_type_symbol
_atom_site_label
_atom_site_fract_x
_atom_site_fract_y
_atom_site_fract_z
Si Si1 0.757534 0.962347 0.494619
Si Si2 0.402081 0.631873 0.716679
Si Si3 0.916777 0.747884 0.230627
Si Si4 0.317197 0.174797 0.455551
Si Si5 0.010416 0.166733 0.891289
Si Si6 0.769237 0.181041 0.395604
O O1 0.827516 0.939830 0.601385
O O2 0.710814 0.898958 0.470499
O O3 0.726651 0.017773 0.644115
O O4 0.776520 0.993494 0.273850
O O5 0.443503 0.644962 0.506931
O O6 0.389706 0.553103 0.725733
O O7 0.328541 0.662892 0.736774
O O8 0.865923 0.775427 0.403648
O O9 0.879375 0.691410 0.100756
O O10 0.941897 0.803836 0.070696
O O11 0.256403 0.220769 0.535821
O O12 0.330344 0.200214 0.221792
#
# Coordination Sequence:
#
# PCOD9542916 Si02
#       6
#     8   8   8   8   8   8
#     4  10  24  38  60  90 123 165 207 251 322 376
#     4  10  23  36  57  82 115 169 207 255 297 364
#     4  11  21  40  59  90 129 155 195 261 320 360
#     4  11  22  34  64  93 119 155 207 256 314 379
#     4  11  23  39  59  81 123 171 208 257 306 365
#     4  11  21  35  59  92 117 156 198 262 313 358
#
# _framework density 18.369413999999999
#
# number of rings (size 3 to 8) (size 9 to 14) (size 15 to 20)
#    0.000    1.333    5.000    0.000    7.000    1.667 
#    0.000    0.000    0.000    0.500    0.000    0.000 
#    0.000    0.000    0.000    0.000    0.000    0.000 
#
# Total GULP energy -133861.259977 kJ/mol
# GULP energy per Si atom -5577.552499 kJ/mol
# Density = 1.832760 g / cm^3
# Si number density = 18.369414 Si / 1000 Ang^3
#
#
#
# Elastic Constant Matrix: (Units=GPa)
#
#
# Indices 1 2 3 4 5 6 
#
# 1 84.6591 27.4415 41.8642 0.0000 0.0000 1.1706
# 2 27.4415 84.6591 41.8642 0.0000 0.0000 -1.1706
# 3 41.8642 41.8642 68.9430 0.0000 0.0000 0.0000
# 4 0.0000 0.0000 0.0000 30.5911 0.0000 0.0000
# 5 0.0000 0.0000 0.0000 0.0000 30.5911 0.0000
# 6 1.1706 -1.1706 0.0000 0.0000 0.0000 27.2088
#
#
#
# Elastic Compliance Matrix: (Units=1/GPa)
#
#
# Indices 1 2 3 4 5 6 
#
# 1 0.016916 -0.000592 -0.009913 0.000000 0.000000 -0.000753
# 2 -0.000592 0.016916 -0.009913 0.000000 0.000000 0.000753
# 3 -0.009913 -0.009913 0.026543 0.000000 0.000000 0.000000
# 4 0.000000 0.000000 0.000000 0.032689 0.000000 0.000000
# 5 0.000000 0.000000 0.000000 0.000000 0.032689 0.000000
# 6 -0.000753 0.000753 0.000000 0.000000 0.000000 0.036818
#
#
# Mechanical properties :
#
#
# Convention : Reuss Voigt Hill
#
# Bulk Modulus (GPa) = 51.17337 51.17787 51.17562
# Shear Modulus (GPa) = 23.81865 26.15095 24.98480
#
# Velocity S-wave (km/s) = 3.60481 3.77717 3.69200
# Velocity P-wave (km/s) = 6.72641 6.85154 6.78926
#
# Compressibility (1/GPa) = 0.01954142
#
# Stress axis : x y z
#
# Youngs Moduli (GPa) = 59.11513 59.11513 37.67443
#
# Poissons Ratio (x) = 0.03498 0.37345
# Poissons Ratio (y) = 0.03498 0.37345
# Poissons Ratio (z) = 0.58599 0.58599
#
# Static dielectric constant tensor:
#      x y z
#    x 1.634730 0.000000 0.000000 
#    y 0.000000 1.634730 0.000000 
#    z 0.000000 0.000000 1.683470 
# 
# From -- ./inp_files/340.got.cif
#   From: 2010.05.17/outbox.cif.g08.bks.cpg/sg82_1_cif.got.tgz:340.got - 2010.06.03 18:52:26.
