data_PCOD9542454
_publ_section_title
;
Structure prediction by ZEFSAII (Michael W. Deem and Ramdas Pophale) SiO2 
 PCOD9542454
Probable space group: P -4
;
_chemical_formula_sum "Si O2"
_cell_formula_units_Z 17
_cell_length_a 11.542626
_cell_length_b 11.542626
_cell_length_c 5.010421
_cell_angle_alpha 90.000000
_cell_angle_beta 90.000000
_cell_angle_gamma 90.000000
_cell_volume 667.549488
_symmetry_space_group_name_H-M "P -4"
_symmetry_group_IT_number 81
_symmetry_cell_setting 'tetragonal'
loop_
_space_group_symop_operation_xyz
x,y,z
y,-x,-z
-x,-y,z
-y,x,-z
loop_
_atom_site_type_symbol
_atom_site_label
_atom_site_fract_x
_atom_site_fract_y
_atom_site_fract_z
Si Si1 0.760118 0.266336 0.904226
Si Si2 0.405220 0.099017 0.735827
Si Si3 0.064496 0.838695 0.546143
Si Si4 0.649015 0.660592 0.610261
Si Si5 0.500000 0.500000 0.000000
O O1 0.838998 0.169727 0.775515
O O2 0.664288 0.306405 0.690689
O O3 0.853778 0.368158 0.972094
O O4 0.699834 0.247955 0.188642
O O5 0.285873 0.059089 0.594959
O O6 0.433609 0.223907 0.603503
O O7 0.500000 0.000000 0.732167
O O8 0.940385 0.883895 0.639164
O O9 0.584850 0.563818 0.785790
#
# Coordination Sequence:
#
# PCOD9542454 Si02
#       5
#     4   4   4   4   1
#     4   9  21  45  61 100 135 184 241 273 349 428
#     4   9  21  45  68 100 141 189 240 291 351 434
#     4  10  22  42  73 108 141 181 238 303 366 422
#     4   9  23  41  67 101 136 189 235 272 365 411
#     4  12  24  46  72 110 156 182 224 318 344 458
#
# _framework density 25.466276000000001
#
# number of rings (size 3 to 8) (size 9 to 14) (size 15 to 20)
#    1.412    1.176    0.000    0.000    0.000   10.353 
#    8.471    2.353    0.000    0.000    0.000    0.000 
#    0.000    0.000    0.000    0.000    0.000    0.000 
#
# Total GULP energy -94677.467131 kJ/mol
# GULP energy per Si atom -5569.262772 kJ/mol
# Density = 2.540831 g / cm^3
# Si number density = 25.466276 Si / 1000 Ang^3
#
#
#
# Elastic Constant Matrix: (Units=GPa)
#
#
# Indices 1 2 3 4 5 6 
#
# 1 82.2974 16.9240 5.3495 0.0000 0.0000 -2.3539
# 2 16.9240 82.2974 5.3495 0.0000 0.0000 2.3539
# 3 5.3495 5.3495 134.1730 0.0000 0.0000 0.0000
# 4 0.0000 0.0000 0.0000 16.0585 0.0000 0.0000
# 5 0.0000 0.0000 0.0000 0.0000 16.0585 0.0000
# 6 -2.3539 2.3539 0.0000 0.0000 0.0000 61.7328
#
#
#
# Elastic Compliance Matrix: (Units=1/GPa)
#
#
# Indices 1 2 3 4 5 6 
#
# 1 0.012730 -0.002608 -0.000404 0.000000 0.000000 0.000585
# 2 -0.002608 0.012730 -0.000404 0.000000 0.000000 -0.000585
# 3 -0.000404 -0.000404 0.007485 0.000000 0.000000 0.000000
# 4 0.000000 0.000000 0.000000 0.062272 0.000000 0.000000
# 5 0.000000 0.000000 0.000000 0.000000 0.062272 0.000000
# 6 0.000585 -0.000585 0.000000 0.000000 0.000000 0.016243
#
#
# Mechanical properties :
#
#
# Convention : Reuss Voigt Hill
#
# Bulk Modulus (GPa) = 38.29225 39.33489 38.81357
# Shear Modulus (GPa) = 26.41719 36.84625 31.63172
#
# Velocity S-wave (km/s) = 3.22427 3.80789 3.52817
# Velocity P-wave (km/s) = 5.37869 5.90024 5.64549
#
# Compressibility (1/GPa) = 0.02611494
#
# Stress axis : x y z
#
# Youngs Moduli (GPa) = 78.55195 78.55195 133.59620
#
# Poissons Ratio (x) = 0.20490 0.05392
# Poissons Ratio (y) = 0.20490 0.05392
# Poissons Ratio (z) = 0.03170 0.03170
#
# Static dielectric constant tensor:
#      x y z
#    x 2.093140 0.000000 0.000000 
#    y 0.000000 2.093140 0.000000 
#    z 0.000000 0.000000 2.055480 
# 
# From -- ./inp_files/95.got.cif
#   From: 2010.05.17/outbox.cif.g08.bks.cpg/sg81_cif.got.tgz:95.got - 2010.06.03 18:51:07.
