data_PCOD9542440
_publ_section_title
;
Structure prediction by ZEFSAII (Michael W. Deem and Ramdas Pophale) SiO2 
 PCOD9542440
Probable space group: P -4
;
_chemical_formula_sum "Si O2"
_cell_formula_units_Z 17
_cell_length_a 11.515776
_cell_length_b 11.515776
_cell_length_c 5.847039
_cell_angle_alpha 90.000000
_cell_angle_beta 90.000000
_cell_angle_gamma 90.000000
_cell_volume 775.393949
_symmetry_space_group_name_H-M "P -4"
_symmetry_group_IT_number 81
_symmetry_cell_setting 'tetragonal'
loop_
_space_group_symop_operation_xyz
x,y,z
y,-x,-z
-x,-y,z
-y,x,-z
loop_
_atom_site_type_symbol
_atom_site_label
_atom_site_fract_x
_atom_site_fract_y
_atom_site_fract_z
Si Si1 0.500000 0.500000 0.500000
Si Si2 0.839844 0.279260 0.129793
Si Si3 0.506637 0.875449 0.185476
Si Si4 0.708753 0.645059 0.512644
Si Si5 0.704466 0.102601 0.850831
O O1 0.604037 0.575895 0.387712
O O2 0.748325 0.328302 0.314683
O O3 0.971172 0.268705 0.218179
O O4 0.846433 0.367927 0.915288
O O5 0.791817 0.156348 0.038923
O O6 0.450373 0.775220 0.334247
O O7 0.500000 0.000000 0.312253
O O8 0.421437 0.893847 0.969709
O O9 0.806132 0.698979 0.352136
#
# Coordination Sequence:
#
# PCOD9542440 Si02
#       5
#     1   4   4   4   4
#     4  12  24  36  58  92 124 154 200 260 310 372
#     4  10  22  40  61  87 123 164 208 263 322 382
#     4   9  20  38  60  84 115 158 204 255 315 383
#     4  11  23  38  60  90 123 163 208 260 320 386
#     4  10  22  40  61  88 120 161 211 260 320 385
#
# _framework density 21.924339
#
# number of rings (size 3 to 8) (size 9 to 14) (size 15 to 20)
#    0.000    1.882    0.000    2.824    0.000   12.706 
#    0.000    4.706    0.000    0.000    0.000    0.000 
#    0.000    0.000    0.000    0.000    0.000    0.000 
#
# Total GULP energy -94878.831140 kJ/mol
# GULP energy per Si atom -5581.107714 kJ/mol
# Density = 2.187444 g / cm^3
# Si number density = 21.924339 Si / 1000 Ang^3
#
#
#
# Elastic Constant Matrix: (Units=GPa)
#
#
# Indices 1 2 3 4 5 6 
#
# 1 128.9985 57.2321 21.6039 0.0000 0.0000 9.3310
# 2 57.2321 128.9985 21.6039 0.0000 0.0000 -9.3310
# 3 21.6039 21.6039 34.6848 0.0000 0.0000 0.0000
# 4 0.0000 0.0000 0.0000 15.4277 0.0000 0.0000
# 5 0.0000 0.0000 0.0000 0.0000 15.4277 0.0000
# 6 9.3310 -9.3310 0.0000 0.0000 0.0000 32.2197
#
#
#
# Elastic Compliance Matrix: (Units=1/GPa)
#
#
# Indices 1 2 3 4 5 6 
#
# 1 0.010673 -0.004396 -0.003910 0.000000 0.000000 -0.004364
# 2 -0.004396 0.010673 -0.003910 0.000000 0.000000 0.004364
# 3 -0.003910 -0.003910 0.033701 0.000000 0.000000 0.000000
# 4 0.000000 0.000000 0.000000 0.064818 0.000000 0.000000
# 5 0.000000 0.000000 0.000000 0.000000 0.064818 0.000000
# 6 -0.004364 0.004364 0.000000 0.000000 0.000000 0.033565
#
#
# Mechanical properties :
#
#
# Convention : Reuss Voigt Hill
#
# Bulk Modulus (GPa) = 32.66201 54.84017 43.75109
# Shear Modulus (GPa) = 19.77188 25.43115 22.60151
#
# Velocity S-wave (km/s) = 3.00630 3.40950 3.21423
# Velocity P-wave (km/s) = 5.19426 6.36924 5.81152
#
# Compressibility (1/GPa) = 0.03061661
#
# Stress axis : x y z
#
# Youngs Moduli (GPa) = 93.69583 93.69583 29.67241
#
# Poissons Ratio (x) = 0.41189 0.11601
# Poissons Ratio (y) = 0.41189 0.11601
# Poissons Ratio (z) = 0.36631 0.36631
#
# Static dielectric constant tensor:
#      x y z
#    x 1.837140 0.000000 0.000000 
#    y 0.000000 1.837140 0.000000 
#    z 0.000000 0.000000 1.811670 
# 
# From -- ./inp_files/197.got.cif
#   From: 2010.05.17/outbox.cif.g08.bks.cpg/sg81_cif.got.tgz:197.got - 2010.06.03 18:51:07.
