data_PCOD9542405
_publ_section_title
;
Structure prediction by ZEFSAII (Michael W. Deem and Ramdas Pophale) SiO2 
 PCOD9542405
Probable space group: P -4
;
_chemical_formula_sum "Si O2"
_cell_formula_units_Z 27
_cell_length_a 8.150474
_cell_length_b 8.150474
_cell_length_c 18.478520
_cell_angle_alpha 90.000000
_cell_angle_beta 90.000000
_cell_angle_gamma 90.000000
_cell_volume 1227.532268
_symmetry_space_group_name_H-M "P -4"
_symmetry_group_IT_number 81
_symmetry_cell_setting 'tetragonal'
loop_
_space_group_symop_operation_xyz
x,y,z
y,-x,-z
-x,-y,z
-y,x,-z
loop_
_atom_site_type_symbol
_atom_site_label
_atom_site_fract_x
_atom_site_fract_y
_atom_site_fract_z
Si Si1 0.500000 0.500000 0.000000
Si Si2 0.110638 0.151196 0.726700
Si Si3 0.746678 0.543414 0.893611
Si Si4 0.315830 0.996838 0.598255
Si Si5 0.500000 0.000000 0.229442
Si Si6 0.337560 0.290539 0.486131
Si Si7 0.746987 0.032608 0.996249
Si Si8 0.867192 0.376944 0.149618
O O1 0.652318 0.435894 0.952561
O O2 0.192752 0.084553 0.653336
O O3 0.029637 0.332672 0.725240
O O4 0.238227 0.156927 0.791428
O O5 0.000000 0.000000 0.749389
O O6 0.605144 0.675038 0.870358
O O7 0.843091 0.475349 0.824489
O O8 0.879549 0.639637 0.943076
O O9 0.318367 0.121603 0.530232
O O10 0.500000 0.000000 0.629362
O O11 0.283549 0.807340 0.574418
O O12 0.302702 0.464540 0.529106
O O13 0.666544 0.953743 0.926101
O O14 0.884742 0.155520 0.966570
O O15 0.000000 0.500000 0.182789
#
# Coordination Sequence:
#
# PCOD9542405 Si02
#       8
#     1   4   4   4   2   4   4   4
#     4  12  24  36  56 100 112 156 220 282 352 420
#     4  11  26  42  65  92 130 182 225 271 333 413
#     4  10  23  36  59  84 123 161 207 279 348 401
#     4  10  22  42  69 102 140 178 226 277 331 403
#     4  10  26  46  60  88 138 178 222 284 342 418
#     4   9  20  39  68 106 146 178 219 283 343 395
#     4   9  19  32  58  86 109 145 201 266 330 394
#     4  10  21  38  58  86 119 161 210 268 334 406
#
# _framework density 21.995349999999998
#
# number of rings (size 3 to 8) (size 9 to 14) (size 15 to 20)
#    0.000    2.074    0.000    1.333   13.481    2.370 
#    1.333    0.000    0.000    1.778    0.000    0.000 
#    0.000    0.000    0.000    0.000    0.000    0.000 
#
# Total GULP energy -150326.242000 kJ/mol
# GULP energy per Si atom -5567.638593 kJ/mol
# Density = 2.194529 g / cm^3
# Si number density = 21.995350 Si / 1000 Ang^3
#
#
#
# Elastic Constant Matrix: (Units=GPa)
#
#
# Indices 1 2 3 4 5 6 
#
# 1 99.0765 50.1057 21.6944 0.0000 0.0000 3.4000
# 2 50.1057 99.0765 21.6944 0.0000 0.0000 -3.4000
# 3 21.6944 21.6944 36.0407 0.0000 0.0000 0.0000
# 4 0.0000 0.0000 0.0000 1092.4957 0.0000 0.0000
# 5 0.0000 0.0000 0.0000 0.0000 1092.4957 0.0000
# 6 3.4000 -3.4000 0.0000 0.0000 0.0000 40.0436
#
#
#
# Elastic Compliance Matrix: (Units=1/GPa)
#
#
# Indices 1 2 3 4 5 6 
#
# 1 0.014395 -0.006269 -0.004891 0.000000 0.000000 -0.001754
# 2 -0.006269 0.014395 -0.004891 0.000000 0.000000 0.001754
# 3 -0.004891 -0.004891 0.033635 0.000000 0.000000 0.000000
# 4 0.000000 0.000000 0.000000 0.000915 0.000000 0.000000
# 5 0.000000 0.000000 0.000000 0.000000 0.000915 0.000000
# 6 -0.001754 0.001754 0.000000 0.000000 0.000000 0.025271
#
#
# Mechanical properties :
#
#
# Convention : Reuss Voigt Hill
#
# Bulk Modulus (GPa) = 32.97993 46.79807 39.88900
# Shear Modulus (GPa) = 37.95462 454.38695 246.17078
#
# Velocity S-wave (km/s) = 4.15851 14.38859 10.59068
# Velocity P-wave (km/s) = 6.17124 17.24427 12.95085
#
# Compressibility (1/GPa) = 0.03032147
#
# Stress axis : x y z
#
# Youngs Moduli (GPa) = 69.46922 69.46922 29.73105
#
# Poissons Ratio (x) = 0.43551 0.14542
# Poissons Ratio (y) = 0.43551 0.14542
# Poissons Ratio (z) = 0.33979 0.33979
#
# Static dielectric constant tensor:
#      x y z
#    x -1.831220 0.000000 0.000000 
#    y 0.000000 -1.831220 0.000000 
#    z 0.000000 0.000000 1.860870 
# 
# From -- ./inp_files/1796.got.cif
#   From: 2010.05.17/outbox.cif.g08.bks.cpg/sg81_cif.got.tgz:1796.got - 2010.06.03 18:51:07.
