data_PCOD9542018
_publ_section_title
;
Structure prediction by ZEFSAII (Michael W. Deem and Ramdas Pophale) SiO2 
 PCOD9542018
Probable space group: I 4
;
_chemical_formula_sum "Si O2"
_cell_formula_units_Z 38
_cell_length_a 8.478683
_cell_length_b 8.478683
_cell_length_c 24.175493
_cell_angle_alpha 90.000000
_cell_angle_beta 90.000000
_cell_angle_gamma 90.000000
_cell_volume 1737.929422
_symmetry_space_group_name_H-M "I 4"
_symmetry_group_IT_number 79
_symmetry_cell_setting 'tetragonal'
loop_
_space_group_symop_operation_xyz
x,y,z
-y,x,z
-x,-y,z
y,-x,z
1/2+x,1/2+y,1/2+z
1/2-y,1/2+x,1/2+z
1/2-x,1/2-y,1/2+z
1/2+y,1/2-x,1/2+z
loop_
_atom_site_type_symbol
_atom_site_label
_atom_site_fract_x
_atom_site_fract_y
_atom_site_fract_z
Si Si1 0.385869 0.852958 0.138120
Si Si2 0.879553 0.769275 0.022328
Si Si3 0.753014 0.087589 0.258900
Si Si4 0.915875 0.249772 0.423928
Si Si5 0.500000 0.500000 0.141988
Si Si6 0.500000 0.000000 0.839995
O O1 0.268585 0.849773 0.086284
O O2 0.300617 0.883755 0.196342
O O3 0.486420 0.693718 0.141484
O O4 0.500000 0.000000 0.127821
O O5 0.064478 0.794642 0.010157
O O6 0.813419 0.629005 0.984414
O O7 0.906786 0.193031 0.268421
O O8 0.607842 0.108251 0.300429
O O9 0.896865 0.388232 0.379736
O O10 0.095201 0.191254 0.416601
#
# Coordination Sequence:
#
# PCOD9542018 Si02
#       6
#     8   8   8   8   2   4
#     4  12  26  46  72 116 159 202 256 317 376 471
#     4  11  25  44  72 109 152 198 248 313 387 460
#     4  11  24  46  74 105 148 201 255 317 391 461
#     4  11  26  46  72 102 140 192 251 317 388 460
#     4  12  28  44  80 112 156 212 272 304 400 466
#     4  12  24  44  70 102 138 190 254 324 384 464
#
# _framework density 21.865099000000001
#
# number of rings (size 3 to 8) (size 9 to 14) (size 15 to 20)
#    0.000    0.632    1.053    6.316    7.368    3.368 
#    0.000    0.000    0.000    2.526    0.000    0.000 
#    0.000    0.000    0.000    0.000    0.000    0.000 
#
# Total GULP energy -106125.056543 kJ/mol
# GULP energy per Si atom -5585.529292 kJ/mol
# Density = 2.181533 g / cm^3
# Si number density = 21.865099 Si / 1000 Ang^3
#
#
#
# Elastic Constant Matrix: (Units=GPa)
#
#
# Indices 1 2 3 4 5 6 
#
# 1 125.7164 47.9769 42.3243 0.0000 0.0000 -8.5357
# 2 47.9769 125.7164 42.3243 0.0000 0.0000 8.5357
# 3 42.3243 42.3243 134.8956 0.0000 0.0000 0.0000
# 4 0.0000 0.0000 0.0000 18.1125 0.0000 0.0000
# 5 0.0000 0.0000 0.0000 0.0000 18.1124 0.0000
# 6 -8.5357 8.5357 0.0000 0.0000 0.0000 21.7933
#
#
#
# Elastic Compliance Matrix: (Units=1/GPa)
#
#
# Indices 1 2 3 4 5 6 
#
# 1 0.010435 -0.003639 -0.002132 0.000000 0.000000 0.005512
# 2 -0.003639 0.010435 -0.002132 0.000000 0.000000 -0.005512
# 3 -0.002132 -0.002132 0.008751 0.000000 0.000000 0.000000
# 4 0.000000 0.000000 0.000000 0.055211 0.000000 0.000000
# 5 0.000000 0.000000 0.000000 0.000000 0.055211 0.000000
# 6 0.005512 -0.005512 0.000000 0.000000 0.000000 0.050204
#
#
# Mechanical properties :
#
#
# Convention : Reuss Voigt Hill
#
# Bulk Modulus (GPa) = 72.38765 72.39773 72.39269
# Shear Modulus (GPa) = 23.73508 28.51718 26.12613
#
# Velocity S-wave (km/s) = 3.29830 3.61533 3.46045
# Velocity P-wave (km/s) = 6.90532 7.11411 7.01049
#
# Compressibility (1/GPa) = 0.01381451
#
# Stress axis : x y z
#
# Youngs Moduli (GPa) = 95.82919 95.82920 114.26906
#
# Poissons Ratio (x) = 0.34870 0.24367
# Poissons Ratio (y) = 0.34870 0.24367
# Poissons Ratio (z) = 0.20435 0.20435
#
# Static dielectric constant tensor:
#      x y z
#    x 1.795590 0.000000 0.000000 
#    y 0.000000 1.795590 0.000000 
#    z 0.000000 0.000000 1.790600 
# 
# From -- ./inp_files/1916.got.cif
#   From: 2010.05.17/outbox.cif.g08.bks.cpg/sg79_cif.got.tgz:1916.got - 2010.06.03 18:47:27.
