data_PCOD9542695
_publ_section_title
;
Structure prediction by ZEFSAII (Michael W. Deem and Ramdas Pophale) SiO2 
 PCOD9542695
Probable space group: I -4 
;
_chemical_formula_sum "Si O2"
_cell_formula_units_Z 52
_cell_length_a 16.515772
_cell_length_b 16.515772
_cell_length_c 9.028437
_cell_angle_alpha 90.000000
_cell_angle_beta 90.000000
_cell_angle_gamma 90.000000
_cell_volume 2462.693304
_symmetry_space_group_name_H-M "I -4 "
_symmetry_group_IT_number 82
_symmetry_cell_setting 'tetragonal'
loop_
_space_group_symop_operation_xyz
x,y,z
y,-x,-z
-x,-y,z
-y,x,-z
1/2+x,1/2+y,1/2+z
1/2+y,1/2-x,1/2-z
1/2-x,1/2-y,1/2+z
1/2-y,1/2+x,1/2-z
loop_
_atom_site_type_symbol
_atom_site_label
_atom_site_fract_x
_atom_site_fract_y
_atom_site_fract_z
Si Si1 0.512930 0.328796 0.587299
Si Si2 0.588342 0.896539 0.229488
Si Si3 0.919985 0.286673 0.333859
Si Si4 0.500000 0.000000 0.750000
Si Si5 0.875802 0.410485 0.104219
Si Si6 0.164455 0.820436 0.904908
Si Si7 0.225127 0.309426 0.896432
Si Si8 0.500000 0.500000 0.500000
O O1 0.551406 0.281587 0.722244
O O2 0.569589 0.307314 0.446286
O O3 0.416636 0.316222 0.584419
O O4 0.524879 0.424982 0.600111
O O5 0.491078 0.890436 0.242836
O O6 0.636812 0.839985 0.342012
O O7 0.616139 0.870890 0.064379
O O8 0.862872 0.348740 0.239528
O O9 0.871115 0.252789 0.472111
O O10 0.003385 0.330701 0.383764
O O11 0.431482 0.029833 0.861273
O O12 0.182930 0.783955 0.743919
O O13 0.221660 0.780082 0.029011
#
# Coordination Sequence:
#
# PCOD9542695 Si02
#       8
#     8   8   8   2   8   8   8   2
#     4  10  22  46  72  94 125 179 227 297 355 398
#     4  11  23  38  64 103 143 178 220 265 331 423
#     4  11  22  38  65  97 139 181 217 262 349 407
#     4   8  16  28  50  76 136 176 206 228 296 356
#     4  10  20  33  56  96 134 178 211 254 304 422
#     4  11  26  45  72  97 139 173 241 284 357 401
#     4  12  26  44  65 105 135 184 223 286 333 428
#     4   8  20  44  72  98 108 164 240 306 344 404
#
# _framework density 21.115093999999999
#
# number of rings (size 3 to 8) (size 9 to 14) (size 15 to 20)
#    0.000    1.385    1.538    3.692    8.615    1.231 
#    0.000    4.615    0.000    0.923    0.000    0.000 
#    0.000    0.000    0.000    0.000    0.000    0.000 
#
# Total GULP energy -145157.299190 kJ/mol
# GULP energy per Si atom -5582.973046 kJ/mol
# Density = 2.106703 g / cm^3
# Si number density = 21.115094 Si / 1000 Ang^3
#
#
#
# Elastic Constant Matrix: (Units=GPa)
#
#
# Indices 1 2 3 4 5 6 
#
# 1 92.2238 37.3928 44.7581 0.0000 0.0000 10.0894
# 2 37.3928 92.2238 44.7581 0.0000 0.0000 -10.0894
# 3 44.7581 44.7581 125.6295 0.0000 0.0000 0.0000
# 4 0.0000 0.0000 0.0000 29.2479 0.0000 0.0000
# 5 0.0000 0.0000 0.0000 0.0000 29.2479 0.0000
# 6 10.0894 -10.0894 0.0000 0.0000 0.0000 24.4717
#
#
#
# Elastic Compliance Matrix: (Units=1/GPa)
#
#
# Indices 1 2 3 4 5 6 
#
# 1 0.015866 -0.005634 -0.003646 0.000000 0.000000 -0.008864
# 2 -0.005634 0.015866 -0.003646 0.000000 0.000000 0.008864
# 3 -0.003646 -0.003646 0.010558 0.000000 0.000000 0.000000
# 4 0.000000 0.000000 0.000000 0.034190 0.000000 0.000000
# 5 0.000000 0.000000 0.000000 0.000000 0.034190 0.000000
# 6 -0.008864 0.008864 0.000000 0.000000 0.000000 0.048173
#
#
# Mechanical properties :
#
#
# Convention : Reuss Voigt Hill
#
# Bulk Modulus (GPa) = 60.82490 62.65501 61.73996
# Shear Modulus (GPa) = 26.29171 28.80472 27.54821
#
# Velocity S-wave (km/s) = 3.53251 3.69748 3.61594
# Velocity P-wave (km/s) = 6.74589 6.92575 6.83641
#
# Compressibility (1/GPa) = 0.01644063
#
# Stress axis : x y z
#
# Youngs Moduli (GPa) = 63.02620 63.02620 94.71848
#
# Poissons Ratio (x) = 0.35506 0.34531
# Poissons Ratio (y) = 0.35506 0.34531
# Poissons Ratio (z) = 0.22977 0.22977
#
# Static dielectric constant tensor:
#      x y z
#    x 1.816310 0.000000 0.000000 
#    y 0.000000 1.816310 0.000000 
#    z 0.000000 0.000000 1.765430 
# 
# From -- ./inp_files/1175.got.cif
#   From: 2010.05.17/outbox.cif.g08.bks.cpg/sg82_1_cif.got.tgz:1175.got - 2010.06.03 18:52:26.
