data_PCOD9542117
_publ_section_title
;
Structure prediction by ZEFSAII (Michael W. Deem and Ramdas Pophale) SiO2 
 PCOD9542117
Probable space group: I 41
;
_chemical_formula_sum "Si O2"
_cell_formula_units_Z 32
_cell_length_a 9.491146
_cell_length_b 9.491146
_cell_length_c 17.922177
_cell_angle_alpha 90.000000
_cell_angle_beta 90.000000
_cell_angle_gamma 90.000000
_cell_volume 1614.462903
_symmetry_space_group_name_H-M "I 41"
_symmetry_group_IT_number 80
_symmetry_cell_setting 'tetragonal'
loop_
_space_group_symop_operation_xyz
x,y,z
-y,1/2+x,1/4+z
-x,-y,z
y,1/2-x,1/4+z
1/2+x,1/2+y,1/2+z
1/2-y,x,3/4+z
1/2-x,1/2-y,1/2+z
1/2+y,-x,3/4+z
loop_
_atom_site_type_symbol
_atom_site_label
_atom_site_fract_x
_atom_site_fract_y
_atom_site_fract_z
Si Si1 0.335216 0.503007 0.623150
Si Si2 0.622818 0.183082 0.624563
Si Si3 0.260389 0.141554 0.979229
Si Si4 0.993100 0.659206 0.960131
O O1 0.500000 0.500000 0.597032
O O2 0.300106 0.665785 0.629245
O O3 0.330671 0.416495 0.699439
O O4 0.247065 0.419645 0.561995
O O5 0.483230 0.197751 0.676215
O O6 0.572473 0.159175 0.540190
O O7 0.728395 0.067980 0.656378
O O8 0.162709 0.278671 0.973355
O O9 0.000000 0.500000 0.931056
#
# Coordination Sequence:
#
# PCOD9542117 Si02
#       4
#     8   8   8   8
#     4  10  20  37  67  98 123 168 214 264 318 381
#     4  11  22  42  66  91 131 170 215 261 318 394
#     4  11  19  40  66  95 123 163 222 257 311 385
#     4  12  24  41  65  96 127 173 213 270 317 376
#
# _framework density 19.820834000000001
#
# number of rings (size 3 to 8) (size 9 to 14) (size 15 to 20)
#    0.000    1.000    7.500    2.250    0.000    0.000 
#    4.500    1.250    0.000    0.000    0.000    0.000 
#    0.000    0.000    0.000    0.000    0.000    0.000 
#
# Total GULP energy -89418.231950 kJ/mol
# GULP energy per Si atom -5588.639497 kJ/mol
# Density = 1.977572 g / cm^3
# Si number density = 19.820834 Si / 1000 Ang^3
#
#
#
# Elastic Constant Matrix: (Units=GPa)
#
#
# Indices 1 2 3 4 5 6 
#
# 1 58.4852 12.9625 -5.8601 0.0000 0.0000 8.2519
# 2 12.9625 58.4852 -5.8601 0.0000 0.0000 -8.2519
# 3 -5.8601 -5.8601 50.6401 0.0000 0.0000 0.0000
# 4 0.0000 0.0000 0.0000 19.4865 0.0000 0.0000
# 5 0.0000 0.0000 0.0000 0.0000 19.4865 0.0000
# 6 8.2519 -8.2519 0.0000 0.0000 0.0000 16.8150
#
#
#
# Elastic Compliance Matrix: (Units=1/GPa)
#
#
# Indices 1 2 3 4 5 6 
#
# 1 0.020494 -0.006227 0.001651 0.000000 0.000000 -0.013113
# 2 -0.006227 0.020494 0.001651 0.000000 0.000000 0.013113
# 3 0.001651 0.001651 0.020129 0.000000 0.000000 0.000000
# 4 0.000000 0.000000 0.000000 0.051318 0.000000 0.000000
# 5 0.000000 0.000000 0.000000 0.000000 0.051318 0.000000
# 6 -0.013113 0.013113 0.000000 0.000000 0.000000 0.072341
#
#
# Mechanical properties :
#
#
# Convention : Reuss Voigt Hill
#
# Bulk Modulus (GPa) = 18.09383 18.89945 18.49664
# Shear Modulus (GPa) = 19.20370 22.24880 20.72625
#
# Velocity S-wave (km/s) = 3.11604 3.35400 3.23721
# Velocity P-wave (km/s) = 4.70051 4.95529 4.82958
#
# Compressibility (1/GPa) = 0.05526745
#
# Stress axis : x y z
#
# Youngs Moduli (GPa) = 48.79449 48.79449 49.67882
#
# Poissons Ratio (x) = 0.30384 -0.08202
# Poissons Ratio (y) = 0.30384 -0.08202
# Poissons Ratio (z) = -0.08056 -0.08056
#
# Static dielectric constant tensor:
#      x y z
#    x 1.705100 0.000000 0.000000 
#    y 0.000000 1.705100 0.000000 
#    z 0.000000 0.000000 1.691830 
# 
# From -- ./inp_files/1659.got.cif
#   From: 2010.05.17/outbox.cif.g08.bks.cpg/sg80_cif.got.tgz:1659.got - 2010.06.03 18:49:13.
