data_PCOD9542453
_publ_section_title
;
Structure prediction by ZEFSAII (Michael W. Deem and Ramdas Pophale) SiO2 
 PCOD9542453
Probable space group: P -4
;
_chemical_formula_sum "Si O2"
_cell_formula_units_Z 24
_cell_length_a 13.238056
_cell_length_b 13.238056
_cell_length_c 6.207082
_cell_angle_alpha 90.000000
_cell_angle_beta 90.000000
_cell_angle_gamma 90.000000
_cell_volume 1087.767078
_symmetry_space_group_name_H-M "P -4"
_symmetry_group_IT_number 81
_symmetry_cell_setting 'tetragonal'
loop_
_space_group_symop_operation_xyz
x,y,z
y,-x,-z
-x,-y,z
-y,x,-z
loop_
_atom_site_type_symbol
_atom_site_label
_atom_site_fract_x
_atom_site_fract_y
_atom_site_fract_z
Si Si1 0.500000 0.500000 0.500000
Si Si2 0.049071 0.802810 0.248084
Si Si3 0.317983 0.023760 0.363019
Si Si4 0.297236 0.206140 0.031872
Si Si5 0.500000 0.000000 0.683999
Si Si6 0.000000 0.000000 0.000000
Si Si7 0.889194 0.656202 0.028363
Si Si8 0.636926 0.449248 0.886430
O O1 0.589802 0.454347 0.647445
O O2 0.018791 0.783483 0.494188
O O3 0.961958 0.742705 0.123167
O O4 0.152680 0.744180 0.184974
O O5 0.048681 0.914234 0.151672
O O6 0.297810 0.116936 0.205623
O O7 0.410893 0.040399 0.528933
O O8 0.347581 0.925712 0.220401
O O9 0.220345 0.298294 0.071495
O O10 0.407455 0.253901 0.060139
O O11 0.555137 0.080686 0.841163
O O12 0.560527 0.380680 0.024252
#
# Coordination Sequence:
#
# PCOD9542453 Si02
#       8
#     1   4   4   4   2   1   4   4
#     4   8  18  40  60  90 132 168 218 244 324 406
#     4  10  23  42  65  95 128 171 222 269 325 391
#     4  10  24  43  65 100 127 175 228 261 338 403
#     4  11  23  41  64  97 134 164 222 275 326 392
#     4  10  22  42  70  90 134 174 218 278 330 390
#     4  12  20  48  70  88 138 176 208 282 320 376
#     4  10  22  43  61  94 136 169 217 283 324 385
#     4   9  21  39  62  93 127 171 207 266 323 382
#
# _framework density 22.063548000000001
#
# number of rings (size 3 to 8) (size 9 to 14) (size 15 to 20)
#    0.000    2.167    1.667    0.500    0.000   12.000 
#    0.000    5.000    0.000    0.000    0.000    0.000 
#    0.000    0.000    0.000    0.000    0.000    0.000 
#
# Total GULP energy -133842.347857 kJ/mol
# GULP energy per Si atom -5576.764494 kJ/mol
# Density = 2.201333 g / cm^3
# Si number density = 22.063548 Si / 1000 Ang^3
#
#
#
# Elastic Constant Matrix: (Units=GPa)
#
#
# Indices 1 2 3 4 5 6 
#
# 1 61.6130 19.6746 25.5647 0.0000 0.0000 4.9972
# 2 19.6746 61.6130 25.5647 0.0000 0.0000 -4.9972
# 3 25.5647 25.5647 104.9231 0.0000 0.0000 0.0000
# 4 0.0000 0.0000 0.0000 5.7194 0.0000 0.0000
# 5 0.0000 0.0000 0.0000 0.0000 5.7194 0.0000
# 6 4.9972 -4.9972 0.0000 0.0000 0.0000 33.7520
#
#
#
# Elastic Compliance Matrix: (Units=1/GPa)
#
#
# Indices 1 2 3 4 5 6 
#
# 1 0.019623 -0.005094 -0.003540 0.000000 0.000000 -0.003659
# 2 -0.005094 0.019623 -0.003540 0.000000 0.000000 0.003659
# 3 -0.003540 -0.003540 0.011256 0.000000 0.000000 0.000000
# 4 0.000000 0.000000 0.000000 0.174844 0.000000 0.000000
# 5 0.000000 0.000000 0.000000 0.000000 0.174844 0.000000
# 6 -0.003659 0.003659 0.000000 0.000000 0.000000 0.030711
#
#
# Mechanical properties :
#
#
# Convention : Reuss Voigt Hill
#
# Bulk Modulus (GPa) = 38.23608 41.08412 39.66010
# Shear Modulus (GPa) = 10.77665 19.52783 15.15224
#
# Velocity S-wave (km/s) = 2.21246 2.97824 2.62344
# Velocity P-wave (km/s) = 4.88817 5.52158 5.21450
#
# Compressibility (1/GPa) = 0.02615331
#
# Stress axis : x y z
#
# Youngs Moduli (GPa) = 50.96167 50.96167 88.84305
#
# Poissons Ratio (x) = 0.25960 0.31450
# Poissons Ratio (y) = 0.25960 0.31450
# Poissons Ratio (z) = 0.18040 0.18040
#
# Static dielectric constant tensor:
#      x y z
#    x 1.858150 0.000000 0.000000 
#    y 0.000000 1.858150 0.000000 
#    z 0.000000 0.000000 1.859170 
# 
# From -- ./inp_files/319.got.cif
#   From: 2010.05.17/outbox.cif.g08.bks.cpg/sg81_cif.got.tgz:319.got - 2010.06.03 18:51:07.
