data_PCOD9542740
_publ_section_title
;
Structure prediction by ZEFSAII (Michael W. Deem and Ramdas Pophale) SiO2 
 PCOD9542740
Probable space group: I -4 
;
_chemical_formula_sum "Si O2"
_cell_formula_units_Z 64
_cell_length_a 23.011233
_cell_length_b 23.011233
_cell_length_c 5.689992
_cell_angle_alpha 90.000000
_cell_angle_beta 90.000000
_cell_angle_gamma 90.000000
_cell_volume 3012.946607
_symmetry_space_group_name_H-M "I -4 "
_symmetry_group_IT_number 82
_symmetry_cell_setting 'tetragonal'
loop_
_space_group_symop_operation_xyz
x,y,z
y,-x,-z
-x,-y,z
-y,x,-z
1/2+x,1/2+y,1/2+z
1/2+y,1/2-x,1/2-z
1/2-x,1/2-y,1/2+z
1/2-y,1/2+x,1/2-z
loop_
_atom_site_type_symbol
_atom_site_label
_atom_site_fract_x
_atom_site_fract_y
_atom_site_fract_z
Si Si1 0.169884 0.688204 0.646523
Si Si2 0.588510 0.707834 0.861217
Si Si3 0.617335 0.333878 0.622921
Si Si4 0.555724 0.243390 0.319437
Si Si5 0.855404 0.977775 0.490721
Si Si6 0.225628 0.569214 0.630070
Si Si7 0.297807 0.281100 0.083673
Si Si8 0.564281 0.556001 0.606677
O O1 0.104128 0.707077 0.684721
O O2 0.179205 0.620583 0.596193
O O3 0.196810 0.733104 0.459465
O O4 0.212771 0.700767 0.868360
O O5 0.573579 0.735128 0.607763
O O6 0.658168 0.699039 0.877325
O O7 0.541536 0.656808 0.904288
O O8 0.579654 0.746798 0.105207
O O9 0.589330 0.274184 0.532636
O O10 0.605729 0.389127 0.456619
O O11 0.578030 0.350414 0.845072
O O12 0.683306 0.323460 0.695047
O O13 0.532428 0.300556 0.183915
O O14 0.498137 0.207051 0.373061
O O15 0.914166 0.973561 0.344577
O O16 0.572407 0.502618 0.419893
#
# Coordination Sequence:
#
# PCOD9542740 Si02
#       8
#     8   8   8   8   8   8   8   8
#     4  11  22  39  62  99 131 160 207 275 334 395
#     4  10  21  39  61  89 129 169 217 258 323 392
#     4  11  21  38  60  84 120 170 217 273 337 403
#     4  10  21  40  61  85 126 165 211 254 328 410
#     4  10  20  39  58  85 114 173 218 272 330 397
#     4  10  22  40  63  90 126 172 207 253 319 408
#     4  11  22  36  60  98 126 162 209 276 339 380
#     4  10  23  39  55  82 120 169 236 297 333 375
#
# _framework density 21.241665000000001
#
# number of rings (size 3 to 8) (size 9 to 14) (size 15 to 20)
#    0.000    1.625    2.500    2.250    0.000    5.000 
#    0.000    1.250    0.000    0.375    0.000    0.000 
#    0.000    4.500    0.000    0.000    0.000    0.750 
#
# Total GULP energy -178680.636266 kJ/mol
# GULP energy per Si atom -5583.769883 kJ/mol
# Density = 2.119332 g / cm^3
# Si number density = 21.241665 Si / 1000 Ang^3
#
#
#
# Elastic Constant Matrix: (Units=GPa)
#
#
# Indices 1 2 3 4 5 6 
#
# 1 89.9427 24.2758 4.3022 0.0000 0.0000 5.0342
# 2 24.2758 89.9427 4.3022 0.0000 0.0000 -5.0342
# 3 4.3022 4.3022 69.6234 0.0000 0.0000 0.0000
# 4 0.0000 0.0000 0.0000 29.5068 0.0000 0.0000
# 5 0.0000 0.0000 0.0000 0.0000 29.5068 0.0000
# 6 5.0342 -5.0342 0.0000 0.0000 0.0000 31.5582
#
#
#
# Elastic Compliance Matrix: (Units=1/GPa)
#
#
# Indices 1 2 3 4 5 6 
#
# 1 0.012203 -0.003407 -0.000544 0.000000 0.000000 -0.002490
# 2 -0.003407 0.012203 -0.000544 0.000000 0.000000 0.002490
# 3 -0.000544 -0.000544 0.014430 0.000000 0.000000 0.000000
# 4 0.000000 0.000000 0.000000 0.033891 0.000000 0.000000
# 5 0.000000 0.000000 0.000000 0.000000 0.033891 0.000000
# 6 -0.002490 0.002490 0.000000 0.000000 0.000000 0.032482
#
#
# Mechanical properties :
#
#
# Convention : Reuss Voigt Hill
#
# Bulk Modulus (GPa) = 33.50281 35.02989 34.26635
# Shear Modulus (GPa) = 31.63814 32.55625 32.09720
#
# Velocity S-wave (km/s) = 3.86351 3.91917 3.89144
# Velocity P-wave (km/s) = 5.97568 6.08332 6.02974
#
# Compressibility (1/GPa) = 0.02984824
#
# Stress axis : x y z
#
# Youngs Moduli (GPa) = 81.94619 81.94619 69.29928
#
# Poissons Ratio (x) = 0.27919 0.03767
# Poissons Ratio (y) = 0.27919 0.03767
# Poissons Ratio (z) = 0.04454 0.04454
#
# Static dielectric constant tensor:
#      x y z
#    x 1.783530 0.000000 0.000000 
#    y 0.000000 1.783530 0.000000 
#    z 0.000000 0.000000 1.921110 
# 
# From -- ./inp_files/469.got.cif
#   From: 2010.05.17/outbox.cif.g08.bks.cpg/sg82_1_cif.got.tgz:469.got - 2010.06.03 18:52:26.
