data_PCOD9542468
_publ_section_title
;
Structure prediction by ZEFSAII (Michael W. Deem and Ramdas Pophale) SiO2 
 PCOD9542468
Probable space group: P -4
;
_chemical_formula_sum "Si O2"
_cell_formula_units_Z 14
_cell_length_a 8.690486
_cell_length_b 8.690486
_cell_length_c 8.848163
_cell_angle_alpha 90.000000
_cell_angle_beta 90.000000
_cell_angle_gamma 90.000000
_cell_volume 668.253502
_symmetry_space_group_name_H-M "P -4"
_symmetry_group_IT_number 81
_symmetry_cell_setting 'tetragonal'
loop_
_space_group_symop_operation_xyz
x,y,z
y,-x,-z
-x,-y,z
-y,x,-z
loop_
_atom_site_type_symbol
_atom_site_label
_atom_site_fract_x
_atom_site_fract_y
_atom_site_fract_z
Si Si1 0.341494 0.299265 0.743260
Si Si2 0.000000 0.000000 0.000000
Si Si3 0.580696 0.164660 0.521795
Si Si4 0.829997 0.028483 0.724331
Si Si5 0.500000 0.500000 0.000000
O O1 0.480920 0.277269 0.624958
O O2 0.220496 0.398635 0.648022
O O3 0.404878 0.382461 0.892028
O O4 0.264298 0.129296 0.755691
O O5 0.914400 0.878261 0.108106
O O6 0.739240 0.138956 0.612914
O O7 0.500000 0.000000 0.520838
O O8 0.000000 0.000000 0.660522
#
# Coordination Sequence:
#
# PCOD9542468 Si02
#       5
#     4   1   4   4   1
#     4  11  24  43  66  96 137 183 224 285 342 423
#     4   8  20  36  62 100 132 168 210 304 336 400
#     4  10  23  42  68 100 130 182 237 284 340 414
#     4   9  22  38  68  98 134 172 232 288 345 394
#     4  12  28  42  64 100 144 190 220 276 368 422
#
# _framework density 20.950135
#
# number of rings (size 3 to 8) (size 9 to 14) (size 15 to 20)
#    0.857    1.143    0.000    1.714   12.000    0.000 
#    5.143    0.000    0.000    0.000    0.000    0.000 
#    0.000    0.000    0.000    0.000    0.000    0.000 
#
# Total GULP energy -78033.096999 kJ/mol
# GULP energy per Si atom -5573.792643 kJ/mol
# Density = 2.090245 g / cm^3
# Si number density = 20.950135 Si / 1000 Ang^3
#
#
#
# Elastic Constant Matrix: (Units=GPa)
#
#
# Indices 1 2 3 4 5 6 
#
# 1 58.6319 2.8360 18.7804 0.0000 0.0000 -2.1698
# 2 2.8360 58.6319 18.7804 0.0000 0.0000 2.1698
# 3 18.7804 18.7804 118.0038 0.0000 0.0000 0.0000
# 4 0.0000 0.0000 0.0000 -6.7075 0.0000 0.0000
# 5 0.0000 0.0000 0.0000 0.0000 -6.7075 0.0000
# 6 -2.1698 2.1698 0.0000 0.0000 0.0000 19.9336
#
#
#
# Elastic Compliance Matrix: (Units=1/GPa)
#
#
# Indices 1 2 3 4 5 6 
#
# 1 0.018048 -0.000027 -0.002868 0.000000 0.000000 0.001968
# 2 -0.000027 0.018048 -0.002868 0.000000 0.000000 -0.001968
# 3 -0.002868 -0.002868 0.009387 0.000000 0.000000 0.000000
# 4 0.000000 0.000000 0.000000 -0.149087 0.000000 0.000000
# 5 0.000000 0.000000 0.000000 0.000000 -0.149087 0.000000
# 6 0.001968 -0.001968 0.000000 0.000000 0.000000 0.050595
#
#
# Mechanical properties :
#
#
# Convention : Reuss Voigt Hill
#
# Bulk Modulus (GPa) = 29.44874 35.11791 32.28332
# Shear Modulus (GPa) = -27.89421 14.29511 -6.79955
#
# Velocity S-wave (km/s) = -3.65287 2.61500 -1.80351
# Velocity P-wave (km/s) = 1.92463 5.09084 3.33260
#
# Compressibility (1/GPa) = 0.03395731
#
# Stress axis : x y z
#
# Youngs Moduli (GPa) = 55.40671 55.40671 106.52788
#
# Poissons Ratio (x) = 0.00150 0.30553
# Poissons Ratio (y) = 0.00150 0.30553
# Poissons Ratio (z) = 0.15891 0.15891
#
# Static dielectric constant tensor:
#      x y z
#    x 1.843360 0.000000 0.000000 
#    y 0.000000 1.843360 0.000000 
#    z 0.000000 0.000000 1.751960 
# 
# From -- ./inp_files/617.got.cif
#   From: 2010.05.17/outbox.cif.g08.bks.cpg/sg81_cif.got.tgz:617.got - 2010.06.03 18:51:07.
