data_PCOD9542521
_publ_section_title
;
Structure prediction by ZEFSAII (Michael W. Deem and Ramdas Pophale) SiO2 
 PCOD9542521
Probable space group: P -4
;
_chemical_formula_sum "Si O2"
_cell_formula_units_Z 18
_cell_length_a 8.156987
_cell_length_b 8.156987
_cell_length_c 11.886486
_cell_angle_alpha 90.000000
_cell_angle_beta 90.000000
_cell_angle_gamma 90.000000
_cell_volume 790.884426
_symmetry_space_group_name_H-M "P -4"
_symmetry_group_IT_number 81
_symmetry_cell_setting 'tetragonal'
loop_
_space_group_symop_operation_xyz
x,y,z
y,-x,-z
-x,-y,z
-y,x,-z
loop_
_atom_site_type_symbol
_atom_site_label
_atom_site_fract_x
_atom_site_fract_y
_atom_site_fract_z
Si Si1 0.743527 0.913224 0.474168
Si Si2 0.415102 0.245880 0.677951
Si Si3 0.000000 0.500000 0.147514
Si Si4 0.237631 0.578542 0.725439
Si Si5 0.528526 0.246210 0.026028
O O1 0.608036 0.835944 0.556953
O O2 0.668983 0.897514 0.349550
O O3 0.906694 0.801261 0.488785
O O4 0.292176 0.398506 0.684430
O O5 0.596036 0.314654 0.706855
O O6 0.386183 0.104051 0.769480
O O7 0.111398 0.402612 0.058193
O O8 0.195439 0.551432 0.856303
O O9 0.385664 0.337124 0.955159
#
# Coordination Sequence:
#
# PCOD9542521 Si02
#       5
#     4   4   2   4   4
#     4  11  26  44  64 100 149 188 227 287 359 425
#     4  11  22  40  70  98 132 178 233 288 342 413
#     4  12  22  38  70  98 132 180 220 292 354 398
#     4  11  22  43  68 101 133 178 241 289 341 414
#     4  11  21  42  66 100 136 175 238 288 335 412
#
# _framework density 22.759332000000001
#
# number of rings (size 3 to 8) (size 9 to 14) (size 15 to 20)
#    0.000    0.889    4.444    4.000    0.000    6.222 
#    0.000    0.000    0.000    0.667    0.000    0.000 
#    0.000    0.000    0.000    0.000    0.000    0.000 
#
# Total GULP energy -100603.415661 kJ/mol
# GULP energy per Si atom -5589.078648 kJ/mol
# Density = 2.270753 g / cm^3
# Si number density = 22.759332 Si / 1000 Ang^3
#
#
#
# Elastic Constant Matrix: (Units=GPa)
#
#
# Indices 1 2 3 4 5 6 
#
# 1 90.4166 16.1106 36.5711 0.0000 0.0000 2.2019
# 2 16.1106 90.4166 36.5711 0.0000 0.0000 -2.2019
# 3 36.5711 36.5711 163.2888 0.0000 0.0000 0.0000
# 4 0.0000 0.0000 0.0000 32.7192 0.0000 0.0000
# 5 0.0000 0.0000 0.0000 0.0000 32.7192 0.0000
# 6 2.2019 -2.2019 0.0000 0.0000 0.0000 23.9069
#
#
#
# Elastic Compliance Matrix: (Units=1/GPa)
#
#
# Indices 1 2 3 4 5 6 
#
# 1 0.012312 -0.001219 -0.002484 0.000000 0.000000 -0.001246
# 2 -0.001219 0.012312 -0.002484 0.000000 0.000000 0.001246
# 3 -0.002484 -0.002484 0.007237 0.000000 0.000000 0.000000
# 4 0.000000 0.000000 0.000000 0.030563 0.000000 0.000000
# 5 0.000000 0.000000 0.000000 0.000000 0.030563 0.000000
# 6 -0.001246 0.001246 0.000000 0.000000 0.000000 0.042059
#
#
# Mechanical properties :
#
#
# Convention : Reuss Voigt Hill
#
# Bulk Modulus (GPa) = 51.32065 58.06973 54.69519
# Shear Modulus (GPa) = 32.48480 34.86036 33.67258
#
# Velocity S-wave (km/s) = 3.78208 3.91793 3.85061
# Velocity P-wave (km/s) = 6.45527 6.78506 6.62222
#
# Compressibility (1/GPa) = 0.01948533
#
# Stress axis : x y z
#
# Youngs Moduli (GPa) = 81.21873 81.21873 138.17889
#
# Poissons Ratio (x) = 0.09903 0.34330
# Poissons Ratio (y) = 0.09903 0.34330
# Poissons Ratio (z) = 0.20179 0.20179
#
# Static dielectric constant tensor:
#      x y z
#    x 1.892000 0.000000 0.000000 
#    y 0.000000 1.892000 0.000000 
#    z 0.000000 0.000000 1.850050 
# 
# From -- ./inp_files/1136.got.cif
#   From: 2010.05.17/outbox.cif.g08.bks.cpg/sg81_cif.got.tgz:1136.got - 2010.06.03 18:51:07.
