data_PCOD9542497
_publ_section_title
;
Structure prediction by ZEFSAII (Michael W. Deem and Ramdas Pophale) SiO2 
 PCOD9542497
Probable space group: P -4
;
_chemical_formula_sum "Si O2"
_cell_formula_units_Z 16
_cell_length_a 7.960911
_cell_length_b 7.960911
_cell_length_c 9.953290
_cell_angle_alpha 90.000000
_cell_angle_beta 90.000000
_cell_angle_gamma 90.000000
_cell_volume 630.800742
_symmetry_space_group_name_H-M "P -4"
_symmetry_group_IT_number 81
_symmetry_cell_setting 'tetragonal'
loop_
_space_group_symop_operation_xyz
x,y,z
y,-x,-z
-x,-y,z
-y,x,-z
loop_
_atom_site_type_symbol
_atom_site_label
_atom_site_fract_x
_atom_site_fract_y
_atom_site_fract_z
Si Si1 0.821151 0.788108 0.306506
Si Si2 0.742911 0.089842 0.966500
Si Si3 0.110756 0.328724 0.604005
Si Si4 0.468504 0.693257 0.171948
O O1 0.840743 0.706790 0.451809
O O2 0.644211 0.746053 0.236800
O O3 0.813072 0.987020 0.336892
O O4 0.942595 0.716860 0.191632
O O5 0.600060 0.188559 0.050604
O O6 0.911219 0.204063 0.973882
O O7 0.268503 0.344259 0.703361
O O8 0.000000 0.500000 0.606167
O O9 0.500000 0.500000 0.138688
#
# Coordination Sequence:
#
# PCOD9542497 Si02
#       4
#     4   4   4   4
#     4  11  26  45  75 106 156 201 256 325 386 476
#     4  11  26  48  74 112 155 204 256 318 393 480
#     4  10  25  48  72 113 150 200 263 323 394 465
#     4  11  27  48  74 111 155 204 259 329 394 465
#
# _framework density 25.364587
#
# number of rings (size 3 to 8) (size 9 to 14) (size 15 to 20)
#    0.000    1.250    2.500    0.000   14.000    0.500 
#    0.000    0.000    0.000    0.000    0.000    0.000 
#    0.000    0.000    0.000    0.000    0.000    0.000 
#
# Total GULP energy -89496.358548 kJ/mol
# GULP energy per Si atom -5593.522409 kJ/mol
# Density = 2.530686 g / cm^3
# Si number density = 25.364587 Si / 1000 Ang^3
#
#
#
# Elastic Constant Matrix: (Units=GPa)
#
#
# Indices 1 2 3 4 5 6 
#
# 1 116.7812 24.5085 37.4794 0.0000 0.0000 12.0069
# 2 24.5085 116.7812 37.4794 0.0000 0.0000 -12.0069
# 3 37.4794 37.4794 226.4038 0.0000 0.0000 0.0000
# 4 0.0000 0.0000 0.0000 36.0980 0.0000 0.0000
# 5 0.0000 0.0000 0.0000 0.0000 36.0980 0.0000
# 6 12.0069 -12.0069 0.0000 0.0000 0.0000 22.6117
#
#
#
# Elastic Compliance Matrix: (Units=1/GPa)
#
#
# Indices 1 2 3 4 5 6 
#
# 1 0.010167 -0.002408 -0.001284 0.000000 0.000000 -0.006677
# 2 -0.002408 0.010167 -0.001284 0.000000 0.000000 0.006677
# 3 -0.001284 -0.001284 0.004842 0.000000 0.000000 0.000000
# 4 0.000000 0.000000 0.000000 0.027702 0.000000 0.000000
# 5 0.000000 0.000000 0.000000 0.000000 0.027702 0.000000
# 6 -0.006677 0.006677 0.000000 0.000000 0.000000 0.051316
#
#
# Mechanical properties :
#
#
# Convention : Reuss Voigt Hill
#
# Bulk Modulus (GPa) = 65.69213 73.21119 69.45166
# Shear Modulus (GPa) = 34.03077 42.99479 38.51278
#
# Velocity S-wave (km/s) = 3.66685 4.12159 3.90085
# Velocity P-wave (km/s) = 6.62443 7.18166 6.90866
#
# Compressibility (1/GPa) = 0.01522252
#
# Stress axis : x y z
#
# Youngs Moduli (GPa) = 98.35578 98.35578 206.51974
#
# Poissons Ratio (x) = 0.23685 0.26527
# Poissons Ratio (y) = 0.23685 0.26527
# Poissons Ratio (z) = 0.12633 0.12633
#
# Static dielectric constant tensor:
#      x y z
#    x 2.088000 0.000000 0.000000 
#    y 0.000000 2.088000 0.000000 
#    z 0.000000 0.000000 2.044620 
# 
# From -- ./inp_files/492.got.cif
#   From: 2010.05.17/outbox.cif.g08.bks.cpg/sg81_cif.got.tgz:492.got - 2010.06.03 18:51:07.
