data_PCOD9542264
_publ_section_title
;
Structure prediction by ZEFSAII (Michael W. Deem and Ramdas Pophale) SiO2 
 PCOD9542264
Probable space group: I 41
;
_chemical_formula_sum "Si O2"
_cell_formula_units_Z 40
_cell_length_a 7.618274
_cell_length_b 7.618274
_cell_length_c 28.771965
_cell_angle_alpha 90.000000
_cell_angle_beta 90.000000
_cell_angle_gamma 90.000000
_cell_volume 1669.870146
_symmetry_space_group_name_H-M "I 41"
_symmetry_group_IT_number 80
_symmetry_cell_setting 'tetragonal'
loop_
_space_group_symop_operation_xyz
x,y,z
-y,1/2+x,1/4+z
-x,-y,z
y,1/2-x,1/4+z
1/2+x,1/2+y,1/2+z
1/2-y,x,3/4+z
1/2-x,1/2-y,1/2+z
1/2+y,-x,3/4+z
loop_
_atom_site_type_symbol
_atom_site_label
_atom_site_fract_x
_atom_site_fract_y
_atom_site_fract_z
Si Si1 0.854436 0.759192 0.136200
Si Si2 0.205375 0.483812 0.835187
Si Si3 0.678656 0.246209 0.254040
Si Si4 0.892230 0.657982 0.974009
Si Si5 0.223953 0.835461 0.150589
O O1 0.722584 0.733878 0.093089
O O2 0.789488 0.664626 0.183884
O O3 0.061164 0.725867 0.128916
O O4 0.824486 0.963147 0.146272
O O5 0.247314 0.602857 0.790082
O O6 0.299879 0.591912 0.876059
O O7 0.000000 0.500000 0.841069
O O8 0.463504 0.243520 0.248485
O O9 0.720844 0.455758 0.259956
O O10 0.761188 0.206021 0.204476
O O11 0.000000 0.500000 0.948706
#
# Coordination Sequence:
#
# PCOD9542264 Si02
#       5
#     8   8   8   8   8
#     4  11  23  44  71  98 145 197 241 303 374 433
#     4  12  25  41  71 108 139 193 245 311 365 445
#     4   9  22  41  66 103 135 183 245 301 373 429
#     4   8  19  40  68  97 136 185 235 303 367 435
#     4  11  25  45  67 101 149 197 240 307 374 442
#
# _framework density 23.953959999999999
#
# number of rings (size 3 to 8) (size 9 to 14) (size 15 to 20)
#    1.200    0.400    2.000    2.400    2.800    6.400 
#    7.200    2.000    0.000    0.000    0.000    0.000 
#    0.000    0.000    0.000    0.000    0.000    0.000 
#
# Total GULP energy -111477.327466 kJ/mol
# GULP energy per Si atom -5573.866373 kJ/mol
# Density = 2.389944 g / cm^3
# Si number density = 23.953960 Si / 1000 Ang^3
#
#
#
# Elastic Constant Matrix: (Units=GPa)
#
#
# Indices 1 2 3 4 5 6 
#
# 1 77.0174 4.2161 24.9631 0.0000 0.0000 8.4297
# 2 4.2161 77.0174 24.9631 0.0000 0.0000 -8.4297
# 3 24.9631 24.9631 114.7593 0.0000 0.0000 0.0000
# 4 0.0000 0.0000 0.0000 28.6806 0.0000 0.0000
# 5 0.0000 0.0000 0.0000 0.0000 28.6806 0.0000
# 6 8.4297 -8.4297 0.0000 0.0000 0.0000 28.7165
#
#
#
# Elastic Compliance Matrix: (Units=1/GPa)
#
#
# Indices 1 2 3 4 5 6 
#
# 1 0.014474 -0.000264 -0.003091 0.000000 0.000000 -0.004326
# 2 -0.000264 0.014474 -0.003091 0.000000 0.000000 0.004326
# 3 -0.003091 -0.003091 0.010059 0.000000 0.000000 0.000000
# 4 0.000000 0.000000 0.000000 0.034867 0.000000 0.000000
# 5 0.000000 0.000000 0.000000 0.000000 0.034867 0.000000
# 6 -0.004326 0.004326 0.000000 0.000000 0.000000 0.037363
#
#
# Mechanical properties :
#
#
# Convention : Reuss Voigt Hill
#
# Bulk Modulus (GPa) = 38.29303 41.89765 40.09534
# Shear Modulus (GPa) = 29.81512 31.52566 30.67039
#
# Velocity S-wave (km/s) = 3.53184 3.63174 3.58213
# Velocity P-wave (km/s) = 5.71425 5.92578 5.82098
#
# Compressibility (1/GPa) = 0.02611441
#
# Stress axis : x y z
#
# Youngs Moduli (GPa) = 69.08975 69.08974 99.41693
#
# Poissons Ratio (x) = 0.01824 0.30730
# Poissons Ratio (y) = 0.01824 0.30730
# Poissons Ratio (z) = 0.21356 0.21356
#
# Static dielectric constant tensor:
#      x y z
#    x 1.939500 0.000000 0.000000 
#    y 0.000000 1.939500 0.000000 
#    z 0.000000 0.000000 1.937100 
# 
# From -- ./inp_files/2485.got.cif
#   From: 2010.05.17/outbox.cif.g08.bks.cpg/sg80_cif.got.tgz:2485.got - 2010.06.03 18:49:13.
