data_PCOD9542672
_publ_section_title
;
Structure prediction by ZEFSAII (Michael W. Deem and Ramdas Pophale) SiO2 
 PCOD9542672
Probable space group: I -4 
;
_chemical_formula_sum "Si O2"
_cell_formula_units_Z 52
_cell_length_a 16.906060
_cell_length_b 16.906060
_cell_length_c 6.908029
_cell_angle_alpha 90.000000
_cell_angle_beta 90.000000
_cell_angle_gamma 90.000000
_cell_volume 1974.417374
_symmetry_space_group_name_H-M "I -4 "
_symmetry_group_IT_number 82
_symmetry_cell_setting 'tetragonal'
loop_
_space_group_symop_operation_xyz
x,y,z
y,-x,-z
-x,-y,z
-y,x,-z
1/2+x,1/2+y,1/2+z
1/2+y,1/2-x,1/2-z
1/2-x,1/2-y,1/2+z
1/2-y,1/2+x,1/2-z
loop_
_atom_site_type_symbol
_atom_site_label
_atom_site_fract_x
_atom_site_fract_y
_atom_site_fract_z
Si Si1 0.795203 0.004019 0.575968
Si Si2 0.500000 0.000000 0.750000
Si Si3 0.084137 0.345194 0.273745
Si Si4 0.888271 0.434021 0.776001
Si Si5 0.500000 0.500000 0.500000
Si Si6 0.322992 0.750646 0.568409
Si Si7 0.410061 0.385776 0.253011
Si Si8 0.718507 0.852671 0.373291
O O1 0.874255 0.965582 0.660444
O O2 0.750589 0.930478 0.474910
O O3 0.741019 0.044363 0.742823
O O4 0.823674 0.063214 0.409258
O O5 0.420125 0.957359 0.829076
O O6 0.066367 0.358252 0.504802
O O7 0.179191 0.347017 0.282531
O O8 0.897189 0.524179 0.718285
O O9 0.841813 0.376975 0.629756
O O10 0.481672 0.419608 0.380765
O O11 0.348395 0.664424 0.636393
O O12 0.228246 0.756739 0.553964
O O13 0.358160 0.764157 0.356465
#
# Coordination Sequence:
#
# PCOD9542672 Si02
#       8
#     8   2   8   8   2   8   8   8
#     4  12  24  46  74 103 140 189 233 297 361 430
#     4  12  24  40  62 100 144 180 228 298 336 416
#     4  11  24  41  64  99 139 182 233 279 353 413
#     4  10  19  37  63  94 128 171 228 279 331 402
#     4  12  28  50  76 112 128 182 244 296 356 426
#     4  11  25  45  67 103 145 188 237 290 359 431
#     4  12  26  48  74 102 143 182 236 301 359 434
#     4  11  23  42  70 101 139 189 237 287 352 422
#
# _framework density 26.336883
#
# number of rings (size 3 to 8) (size 9 to 14) (size 15 to 20)
#    0.000    0.769    1.538    7.385    0.000    1.231 
#    0.000    0.000    0.000    0.000    0.000    0.000 
#    0.000    0.000    0.000    0.000    0.000    0.000 
#
# Total GULP energy -145655.030644 kJ/mol
# GULP energy per Si atom -5602.116563 kJ/mol
# Density = 2.627694 g / cm^3
# Si number density = 26.336883 Si / 1000 Ang^3
#
#
#
# Elastic Constant Matrix: (Units=GPa)
#
#
# Indices 1 2 3 4 5 6 
#
# 1 125.6653 33.2207 21.4451 0.0000 0.0000 -5.5388
# 2 33.2207 125.6653 21.4451 0.0000 0.0000 5.5388
# 3 21.4451 21.4451 42.1738 0.0000 0.0000 0.0000
# 4 0.0000 0.0000 0.0000 42.5799 0.0000 0.0000
# 5 0.0000 0.0000 0.0000 0.0000 42.5799 0.0000
# 6 -5.5388 5.5388 0.0000 0.0000 0.0000 54.5120
#
#
#
# Elastic Compliance Matrix: (Units=1/GPa)
#
#
# Indices 1 2 3 4 5 6 
#
# 1 0.009123 -0.001828 -0.003710 0.000000 0.000000 0.001113
# 2 -0.001828 0.009123 -0.003710 0.000000 0.000000 -0.001113
# 3 -0.003710 -0.003710 0.027484 0.000000 0.000000 0.000000
# 4 0.000000 0.000000 0.000000 0.023485 0.000000 0.000000
# 5 0.000000 0.000000 0.000000 0.000000 0.023485 0.000000
# 6 0.001113 -0.001113 0.000000 0.000000 0.000000 0.018571
#
#
# Mechanical properties :
#
#
# Convention : Reuss Voigt Hill
#
# Bulk Modulus (GPa) = 36.71592 49.52511 43.12052
# Shear Modulus (GPa) = 36.01181 42.42727 39.21954
#
# Velocity S-wave (km/s) = 3.70178 4.01801 3.86314
# Velocity P-wave (km/s) = 5.67821 6.35383 6.02550
#
# Compressibility (1/GPa) = 0.02723614
#
# Stress axis : x y z
#
# Youngs Moduli (GPa) = 109.61417 109.61417 36.38483
#
# Poissons Ratio (x) = 0.20034 0.13497
# Poissons Ratio (y) = 0.20034 0.13497
# Poissons Ratio (z) = 0.40662 0.40662
#
# Static dielectric constant tensor:
#      x y z
#    x 2.040950 0.000000 0.000000 
#    y 0.000000 2.040950 0.000000 
#    z 0.000000 0.000000 2.170280 
# 
# From -- ./inp_files/1123.got.cif
#   From: 2010.05.17/outbox.cif.g08.bks.cpg/sg82_1_cif.got.tgz:1123.got - 2010.06.03 18:52:26.
