data_PCOD9542174
_publ_section_title
;
Structure prediction by ZEFSAII (Michael W. Deem and Ramdas Pophale) SiO2 
 PCOD9542174
Probable space group: I 41
;
_chemical_formula_sum "Si O2"
_cell_formula_units_Z 56
_cell_length_a 15.612733
_cell_length_b 15.612733
_cell_length_c 10.954981
_cell_angle_alpha 90.000000
_cell_angle_beta 90.000000
_cell_angle_gamma 90.000000
_cell_volume 2670.358033
_symmetry_space_group_name_H-M "I 41"
_symmetry_group_IT_number 80
_symmetry_cell_setting 'tetragonal'
loop_
_space_group_symop_operation_xyz
x,y,z
-y,1/2+x,1/4+z
-x,-y,z
y,1/2-x,1/4+z
1/2+x,1/2+y,1/2+z
1/2-y,x,3/4+z
1/2-x,1/2-y,1/2+z
1/2+y,-x,3/4+z
loop_
_atom_site_type_symbol
_atom_site_label
_atom_site_fract_x
_atom_site_fract_y
_atom_site_fract_z
Si Si1 0.250089 0.703032 0.863770
Si Si2 0.979447 0.718344 0.833749
Si Si3 0.138795 0.520827 0.281023
Si Si4 0.305107 0.949087 0.048862
Si Si5 0.919239 0.885156 0.711464
Si Si6 0.373631 0.476392 0.466589
Si Si7 0.883181 0.428653 0.791072
O O1 0.216063 0.766235 0.757510
O O2 0.350925 0.711343 0.838526
O O3 0.207054 0.612534 0.833397
O O4 0.941580 0.788387 0.743939
O O5 0.052124 0.652342 0.787108
O O6 0.900830 0.659135 0.872725
O O7 0.014039 0.776000 0.948405
O O8 0.153119 0.555511 0.415902
O O9 0.091824 0.428770 0.294441
O O10 0.068707 0.580326 0.215773
O O11 0.366353 0.975831 0.161760
O O12 0.220068 0.005503 0.022576
O O13 0.005887 0.913078 0.643769
O O14 0.888578 0.936579 0.832060
#
# Coordination Sequence:
#
# PCOD9542174 Si02
#       7
#     8   8   8   8   8   8   8
#     4  10  22  36  60  99 138 173 218 284 359 426
#     4  11  25  41  73  98 139 183 236 295 343 423
#     4  10  22  40  67  96 129 183 232 279 345 415
#     4  11  22  44  62  98 137 177 226 290 356 429
#     4  11  24  48  68 105 139 186 243 288 354 424
#     4  10  23  40  67  98 133 179 233 286 341 425
#     4  11  25  42  68 104 144 179 228 296 366 425
#
# _framework density 20.970970000000001
#
# number of rings (size 3 to 8) (size 9 to 14) (size 15 to 20)
#    0.000    1.429    1.429    3.857   12.000    0.000 
#    7.714    2.857    0.000    0.000    0.000    0.000 
#    0.000    0.000    0.000    0.000    0.000    0.000 
#
# Total GULP energy -156071.703263 kJ/mol
# GULP energy per Si atom -5573.989402 kJ/mol
# Density = 2.092324 g / cm^3
# Si number density = 20.970970 Si / 1000 Ang^3
#
#
#
# Elastic Constant Matrix: (Units=GPa)
#
#
# Indices 1 2 3 4 5 6 
#
# 1 102.5045 51.8877 44.9546 0.0000 0.0000 -8.4353
# 2 51.8877 102.5045 44.9546 0.0000 0.0000 8.4353
# 3 44.9546 44.9546 79.3172 0.0000 0.0000 0.0000
# 4 0.0000 0.0000 0.0000 15.5037 0.0000 0.0000
# 5 0.0000 0.0000 0.0000 0.0000 15.5037 0.0000
# 6 -8.4353 8.4353 0.0000 0.0000 0.0000 36.9598
#
#
#
# Elastic Compliance Matrix: (Units=1/GPa)
#
#
# Indices 1 2 3 4 5 6 
#
# 1 0.015525 -0.005857 -0.005480 0.000000 0.000000 0.004880
# 2 -0.005857 0.015525 -0.005480 0.000000 0.000000 -0.004880
# 3 -0.005480 -0.005480 0.018819 0.000000 0.000000 0.000000
# 4 0.000000 0.000000 0.000000 0.064501 0.000000 0.000000
# 5 0.000000 0.000000 0.000000 0.000000 0.064501 0.000000
# 6 0.004880 -0.004880 0.000000 0.000000 0.000000 0.029284
#
#
# Mechanical properties :
#
#
# Convention : Reuss Voigt Hill
#
# Bulk Modulus (GPa) = 61.58874 63.10223 62.34548
# Shear Modulus (GPa) = 20.22648 23.09538 21.66093
#
# Velocity S-wave (km/s) = 3.10901 3.32219 3.21736
# Velocity P-wave (km/s) = 6.50540 6.69862 6.60272
#
# Compressibility (1/GPa) = 0.01623673
#
# Stress axis : x y z
#
# Youngs Moduli (GPa) = 64.41050 64.41050 53.13820
#
# Poissons Ratio (x) = 0.37728 0.29117
# Poissons Ratio (y) = 0.37728 0.29117
# Poissons Ratio (z) = 0.35294 0.35294
#
# Static dielectric constant tensor:
#      x y z
#    x 1.788780 0.000000 0.000000 
#    y 0.000000 1.788780 0.000000 
#    z 0.000000 0.000000 1.867260 
# 
# From -- ./inp_files/1057.got.cif
#   From: 2010.05.17/outbox.cif.g08.bks.cpg/sg80_cif.got.tgz:1057.got - 2010.06.03 18:49:13.
