data_PCOD9542679
_publ_section_title
;
Structure prediction by ZEFSAII (Michael W. Deem and Ramdas Pophale) SiO2 
 PCOD9542679
Probable space group: I -4 
;
_chemical_formula_sum "Si O2"
_cell_formula_units_Z 36
_cell_length_a 11.829709
_cell_length_b 11.829709
_cell_length_c 11.047337
_cell_angle_alpha 90.000000
_cell_angle_beta 90.000000
_cell_angle_gamma 90.000000
_cell_volume 1545.986600
_symmetry_space_group_name_H-M "I -4 "
_symmetry_group_IT_number 82
_symmetry_cell_setting 'tetragonal'
loop_
_space_group_symop_operation_xyz
x,y,z
y,-x,-z
-x,-y,z
-y,x,-z
1/2+x,1/2+y,1/2+z
1/2+y,1/2-x,1/2-z
1/2-x,1/2-y,1/2+z
1/2-y,1/2+x,1/2-z
loop_
_atom_site_type_symbol
_atom_site_label
_atom_site_fract_x
_atom_site_fract_y
_atom_site_fract_z
Si Si1 0.708827 0.222555 0.632764
Si Si2 0.776263 0.504518 0.226807
Si Si3 0.072695 0.364495 0.825505
Si Si4 0.384528 0.377014 0.041550
Si Si5 0.500000 0.000000 0.554081
O O1 0.574106 0.219196 0.649721
O O2 0.760830 0.343769 0.658331
O O3 0.763855 0.171656 0.510730
O O4 0.747720 0.128274 0.732287
O O5 0.889671 0.509772 0.142107
O O6 0.680333 0.572000 0.154419
O O7 0.144664 0.469595 0.769074
O O8 0.023076 0.401863 0.954478
O O9 0.366184 0.480907 0.945979
#
# Coordination Sequence:
#
# PCOD9542679 Si02
#       5
#     8   8   8   8   4
#     4  11  22  38  58  97 123 169 211 276 324 401
#     4  11  22  35  64  90 131 161 217 273 335 384
#     4   9  21  39  64  88 122 168 222 256 319 401
#     4   9  20  37  59  85 117 162 211 261 319 387
#     4  10  19  41  60  94 122 176 210 268 320 416
#
# _framework density 23.286103000000001
#
# number of rings (size 3 to 8) (size 9 to 14) (size 15 to 20)
#    0.000    2.222    2.222    1.333    3.111    1.778 
#    0.000    0.000    0.000    0.000    0.000    0.000 
#    0.000    0.000    0.000    0.000    0.000    0.000 
#
# Total GULP energy -100372.461805 kJ/mol
# GULP energy per Si atom -5576.247878 kJ/mol
# Density = 2.323310 g / cm^3
# Si number density = 23.286103 Si / 1000 Ang^3
#
#
#
# Elastic Constant Matrix: (Units=GPa)
#
#
# Indices 1 2 3 4 5 6 
#
# 1 94.0041 -4.8642 40.3169 0.0000 0.0000 -19.2605
# 2 -4.8642 94.0041 40.3169 0.0000 0.0000 19.2605
# 3 40.3169 40.3169 85.5188 0.0000 0.0000 0.0000
# 4 0.0000 0.0000 0.0000 33.2776 0.0000 0.0000
# 5 0.0000 0.0000 0.0000 0.0000 33.2776 0.0000
# 6 -19.2605 19.2605 0.0000 0.0000 0.0000 33.3954
#
#
#
# Elastic Compliance Matrix: (Units=1/GPa)
#
#
# Indices 1 2 3 4 5 6 
#
# 1 0.016303 0.003257 -0.009221 0.000000 0.000000 0.007524
# 2 0.003257 0.016303 -0.009221 0.000000 0.000000 -0.007524
# 3 -0.009221 -0.009221 0.020388 0.000000 0.000000 0.000000
# 4 0.000000 0.000000 0.000000 0.030050 0.000000 0.000000
# 5 0.000000 0.000000 0.000000 0.000000 0.030050 0.000000
# 6 0.007524 -0.007524 0.000000 0.000000 0.000000 0.038623
#
#
# Mechanical properties :
#
#
# Convention : Reuss Voigt Hill
#
# Bulk Modulus (GPa) = 44.20420 47.22960 45.71690
# Shear Modulus (GPa) = 26.36730 33.17394 29.77062
#
# Velocity S-wave (km/s) = 3.36865 3.77851 3.57945
# Velocity P-wave (km/s) = 5.84420 6.27396 6.06289
#
# Compressibility (1/GPa) = 0.02262228
#
# Stress axis : x y z
#
# Youngs Moduli (GPa) = 61.33923 61.33923 49.04907
#
# Poissons Ratio (x) = -0.19977 0.45229
# Poissons Ratio (y) = -0.19977 0.45229
# Poissons Ratio (z) = 0.56562 0.56562
#
# Static dielectric constant tensor:
#      x y z
#    x 1.952970 0.000000 0.000000 
#    y 0.000000 1.952970 0.000000 
#    z 0.000000 0.000000 1.894640 
# 
# From -- ./inp_files/2144.got.cif
#   From: 2010.05.17/outbox.cif.g08.bks.cpg/sg82_2_cif.got.tgz:2144.got - 2010.06.03 18:52:26.
