data_PCOD9542997
_publ_section_title
;
Structure prediction by ZEFSAII (Michael W. Deem and Ramdas Pophale) SiO2 
 PCOD9542997
Probable space group: I -4 
;
_chemical_formula_sum "Si O2"
_cell_formula_units_Z 48
_cell_length_a 8.835923
_cell_length_b 8.835923
_cell_length_c 31.535201
_cell_angle_alpha 90.000000
_cell_angle_beta 90.000000
_cell_angle_gamma 90.000000
_cell_volume 2462.064627
_symmetry_space_group_name_H-M "I -4 "
_symmetry_group_IT_number 82
_symmetry_cell_setting 'tetragonal'
loop_
_space_group_symop_operation_xyz
x,y,z
y,-x,-z
-x,-y,z
-y,x,-z
1/2+x,1/2+y,1/2+z
1/2+y,1/2-x,1/2-z
1/2-x,1/2-y,1/2+z
1/2-y,1/2+x,1/2-z
loop_
_atom_site_type_symbol
_atom_site_label
_atom_site_fract_x
_atom_site_fract_y
_atom_site_fract_z
Si Si1 0.000000 0.000000 0.184649
Si Si2 0.804504 0.829481 0.881457
Si Si3 0.019101 0.167466 0.348678
Si Si4 0.020261 0.806778 0.955706
Si Si5 0.642401 0.835463 0.586282
Si Si6 0.000000 0.500000 0.485377
Si Si7 0.749379 0.023324 0.747022
O O1 0.056888 0.132096 0.215835
O O2 0.877101 0.069957 0.152858
O O3 0.686791 0.719949 0.859901
O O4 0.886733 0.769517 0.923296
O O5 0.711976 0.978112 0.895934
O O6 0.902198 0.270753 0.373971
O O7 0.995702 0.176652 0.298483
O O8 0.000000 0.000000 0.364708
O O9 0.018533 0.664956 0.990102
O O10 0.181979 0.793438 0.933595
O O11 0.000000 0.000000 0.960858
O O12 0.632982 0.957411 0.548058
O O13 0.627179 0.155955 0.741433
#
# Coordination Sequence:
#
# PCOD9542997 Si02
#       7
#     4   8   8   8   8   4   8
#     4  12  20  42  68 101 130 182 241 280 348 438
#     4  11  22  45  70  96 134 188 235 282 360 427
#     4  12  25  42  63  99 141 175 227 291 356 417
#     4  10  26  45  71 102 137 188 237 300 357 431
#     4  11  24  44  67  96 133 178 229 296 346 428
#     4  12  26  42  74 104 137 179 254 284 368 436
#     4  11  24  38  67  98 130 174 228 287 342 421
#
# _framework density 19.495830999999999
#
# number of rings (size 3 to 8) (size 9 to 14) (size 15 to 20)
#    0.000    0.833    6.667    1.000    9.333    0.000 
#    0.000    0.000    0.000    2.500    0.000    0.000 
#    0.000    0.000    0.000    0.000    0.000    0.000 
#
# Total GULP energy -133682.178933 kJ/mol
# GULP energy per Si atom -5570.090789 kJ/mol
# Density = 1.945146 g / cm^3
# Si number density = 19.495831 Si / 1000 Ang^3
#
#
#
# Elastic Constant Matrix: (Units=GPa)
#
#
# Indices 1 2 3 4 5 6 
#
# 1 79.2162 34.4725 31.7242 0.0000 0.0000 -0.4022
# 2 34.4725 79.2162 31.7242 0.0000 0.0000 0.4022
# 3 31.7242 31.7242 104.4062 0.0000 0.0000 0.0000
# 4 0.0000 0.0000 0.0000 45.9940 0.0000 0.0000
# 5 0.0000 0.0000 0.0000 0.0000 45.9940 0.0000
# 6 -0.4022 0.4022 0.0000 0.0000 0.0000 22.2706
#
#
#
# Elastic Compliance Matrix: (Units=1/GPa)
#
#
# Indices 1 2 3 4 5 6 
#
# 1 0.016474 -0.005882 -0.003218 0.000000 0.000000 0.000404
# 2 -0.005882 0.016474 -0.003218 0.000000 0.000000 -0.000404
# 3 -0.003218 -0.003218 0.011534 0.000000 0.000000 0.000000
# 4 0.000000 0.000000 0.000000 0.021742 0.000000 0.000000
# 5 0.000000 0.000000 0.000000 0.000000 0.021742 0.000000
# 6 0.000404 -0.000404 0.000000 0.000000 0.000000 0.044917
#
#
# Mechanical properties :
#
#
# Convention : Reuss Voigt Hill
#
# Bulk Modulus (GPa) = 50.39231 50.96447 50.67839
# Shear Modulus (GPa) = 30.46237 33.84621 32.15429
#
# Velocity S-wave (km/s) = 3.95714 4.17114 4.06555
# Velocity P-wave (km/s) = 6.83977 7.02822 6.93464
#
# Compressibility (1/GPa) = 0.01984430
#
# Stress axis : x y z
#
# Youngs Moduli (GPa) = 60.70002 60.70002 86.70121
#
# Poissons Ratio (x) = 0.35706 0.27904
# Poissons Ratio (y) = 0.35706 0.27904
# Poissons Ratio (z) = 0.19536 0.19536
#
# Static dielectric constant tensor:
#      x y z
#    x 1.702490 0.000000 0.000000 
#    y 0.000000 1.702490 0.000000 
#    z 0.000000 0.000000 1.706940 
# 
# From -- ./inp_files/4090.got.cif
#   From: 2010.05.17/outbox.cif.g08.bks.cpg/sg82_3_cif.got.tgz:4090.got - 2010.06.03 18:52:26.
