data_PCOD9542569
_publ_section_title
;
Structure prediction by ZEFSAII (Michael W. Deem and Ramdas Pophale) SiO2 
 PCOD9542569
Probable space group: P -4
;
_chemical_formula_sum "Si O2"
_cell_formula_units_Z 25
_cell_length_a 11.646968
_cell_length_b 11.646968
_cell_length_c 8.016981
_cell_angle_alpha 90.000000
_cell_angle_beta 90.000000
_cell_angle_gamma 90.000000
_cell_volume 1087.518413
_symmetry_space_group_name_H-M "P -4"
_symmetry_group_IT_number 81
_symmetry_cell_setting 'tetragonal'
loop_
_space_group_symop_operation_xyz
x,y,z
y,-x,-z
-x,-y,z
-y,x,-z
loop_
_atom_site_type_symbol
_atom_site_label
_atom_site_fract_x
_atom_site_fract_y
_atom_site_fract_z
Si Si1 0.500000 0.500000 0.000000
Si Si2 0.621342 0.930959 0.067653
Si Si3 0.991132 0.866835 0.778316
Si Si4 0.603766 0.257454 0.560732
Si Si5 0.295639 0.533815 0.753488
Si Si6 0.419100 0.103738 0.680651
Si Si7 0.158695 0.811417 0.485202
O O1 0.490412 0.613322 0.112480
O O2 0.748902 0.978361 0.120126
O O3 0.600306 0.808490 0.157040
O O4 0.500000 0.000000 0.105604
O O5 0.622504 0.919842 0.867247
O O6 0.073425 0.864358 0.617384
O O7 0.867562 0.846978 0.696182
O O8 0.000000 0.000000 0.838437
O O9 0.639122 0.381090 0.626858
O O10 0.566271 0.253656 0.368443
O O11 0.502630 0.212759 0.677079
O O12 0.716534 0.179364 0.567209
O O13 0.320011 0.125874 0.548146
O O14 0.500000 0.000000 0.623745
#
# Coordination Sequence:
#
# PCOD9542569 Si02
#       7
#     1   4   4   4   4   4   4
#     4  12  28  42  72 116 148 190 240 320 400 450
#     4  11  26  51  72 106 151 209 254 317 394 479
#     4  12  24  47  75 113 152 198 258 321 395 460
#     4  12  23  44  73 105 138 195 256 306 375 462
#     4  12  25  44  72 102 151 187 248 314 383 456
#     4  11  26  47  74 105 147 200 257 313 383 478
#     4  12  23  45  76 108 148 198 253 323 384 467
#
# _framework density 22.988119000000001
#
# number of rings (size 3 to 8) (size 9 to 14) (size 15 to 20)
#    0.000    0.320    4.800    3.840    2.240    1.280 
#    8.640    0.800    0.000    0.000    0.000    0.000 
#    0.000    0.000    0.000    0.000    0.000    0.000 
#
# Total GULP energy -139770.076080 kJ/mol
# GULP energy per Si atom -5590.803043 kJ/mol
# Density = 2.293580 g / cm^3
# Si number density = 22.988119 Si / 1000 Ang^3
#
#
#
# Elastic Constant Matrix: (Units=GPa)
#
#
# Indices 1 2 3 4 5 6 
#
# 1 114.7363 34.7828 36.4287 0.0000 0.0000 -2.8509
# 2 34.7828 114.7363 36.4287 0.0000 0.0000 2.8509
# 3 36.4287 36.4287 75.5101 0.0000 0.0000 0.0000
# 4 0.0000 0.0000 0.0000 388.7349 0.0000 0.0000
# 5 0.0000 0.0000 0.0000 0.0000 388.7349 0.0000
# 6 -2.8509 2.8509 0.0000 0.0000 0.0000 35.1995
#
#
#
# Elastic Compliance Matrix: (Units=1/GPa)
#
#
# Indices 1 2 3 4 5 6 
#
# 1 0.010662 -0.001918 -0.004218 0.000000 0.000000 0.001019
# 2 -0.001918 0.010662 -0.004218 0.000000 0.000000 -0.001019
# 3 -0.004218 -0.004218 0.017313 0.000000 0.000000 0.000000
# 4 0.000000 0.000000 0.000000 0.002572 0.000000 0.000000
# 5 0.000000 0.000000 0.000000 0.000000 0.002572 0.000000
# 6 0.001019 -0.001019 0.000000 0.000000 0.000000 0.028575
#
#
# Mechanical properties :
#
#
# Convention : Reuss Voigt Hill
#
# Bulk Modulus (GPa) = 55.77995 57.80703 56.79349
# Shear Modulus (GPa) = 50.48406 175.69004 113.08705
#
# Velocity S-wave (km/s) = 4.69133 8.75171 7.02143
# Velocity P-wave (km/s) = 7.32545 11.28380 9.51279
#
# Compressibility (1/GPa) = 0.01792759
#
# Stress axis : x y z
#
# Youngs Moduli (GPa) = 93.79340 93.79340 57.75911
#
# Poissons Ratio (x) = 0.17991 0.24364
# Poissons Ratio (y) = 0.17991 0.24364
# Poissons Ratio (z) = 0.39564 0.39564
#
# Static dielectric constant tensor:
#      x y z
#    x 1.507980 0.000000 0.000000 
#    y 0.000000 1.507980 0.000000 
#    z 0.000000 0.000000 1.800490 
# 
# From -- ./inp_files/870.got.cif
#   From: 2010.05.17/outbox.cif.g08.bks.cpg/sg81_cif.got.tgz:870.got - 2010.06.03 18:51:07.
