data_PCOD9542991
_publ_section_title
;
Structure prediction by ZEFSAII (Michael W. Deem and Ramdas Pophale) SiO2 
 PCOD9542991
Probable space group: I -4 
;
_chemical_formula_sum "Si O2"
_cell_formula_units_Z 38
_cell_length_a 7.757015
_cell_length_b 7.757015
_cell_length_c 23.869948
_cell_angle_alpha 90.000000
_cell_angle_beta 90.000000
_cell_angle_gamma 90.000000
_cell_volume 1436.285366
_symmetry_space_group_name_H-M "I -4 "
_symmetry_group_IT_number 82
_symmetry_cell_setting 'tetragonal'
loop_
_space_group_symop_operation_xyz
x,y,z
y,-x,-z
-x,-y,z
-y,x,-z
1/2+x,1/2+y,1/2+z
1/2+y,1/2-x,1/2-z
1/2-x,1/2-y,1/2+z
1/2-y,1/2+x,1/2-z
loop_
_atom_site_type_symbol
_atom_site_label
_atom_site_fract_x
_atom_site_fract_y
_atom_site_fract_z
Si Si1 0.047976 0.704349 0.672567
Si Si2 0.500000 0.500000 0.500000
Si Si3 0.229902 0.615056 0.566336
Si Si4 0.762603 0.295075 0.385683
Si Si5 0.000000 0.500000 0.030397
Si Si6 0.755639 0.105333 0.765977
O O1 0.193632 0.706264 0.624359
O O2 0.103610 0.793569 0.729742
O O3 0.000000 0.500000 0.679368
O O4 0.888616 0.798057 0.643080
O O5 0.409919 0.656173 0.535005
O O6 0.263516 0.413917 0.580215
O O7 0.080151 0.626528 0.520897
O O8 0.709617 0.409386 0.331748
O O9 0.916910 0.371185 0.421331
O O10 0.580509 0.213502 0.758218
#
# Coordination Sequence:
#
# PCOD9542991 Si02
#       6
#     8   2   8   8   4   8
#     4  10  25  49  77 114 156 204 264 318 401 472
#     4  12  24  40  76 112 140 204 252 320 382 456
#     4  11  24  43  75 114 150 206 254 327 387 470
#     4  11  25  45  75 110 151 207 251 323 395 461
#     4  12  22  48  73 111 170 190 278 312 388 488
#     4  11  27  50  76 112 151 204 260 330 392 468
#
# _framework density 26.457139999999999
#
# number of rings (size 3 to 8) (size 9 to 14) (size 15 to 20)
#    0.000    1.053    5.263    1.263    8.842    2.526 
#    0.000    2.105    0.000    0.000    0.000    0.000 
#    0.000    0.000    0.000    0.000    0.000    0.000 
#
# Total GULP energy -105945.419041 kJ/mol
# GULP energy per Si atom -5576.074686 kJ/mol
# Density = 2.639692 g / cm^3
# Si number density = 26.457140 Si / 1000 Ang^3
#
#
#
# Elastic Constant Matrix: (Units=GPa)
#
#
# Indices 1 2 3 4 5 6 
#
# 1 73.0865 16.6592 30.2189 0.0000 0.0000 -3.1010
# 2 16.6592 73.0865 30.2189 0.0000 0.0000 3.1010
# 3 30.2189 30.2189 185.5814 0.0000 0.0000 0.0000
# 4 0.0000 0.0000 0.0000 41.1747 0.0000 0.0000
# 5 0.0000 0.0000 0.0000 0.0000 41.1747 0.0000
# 6 -3.1010 3.1010 0.0000 0.0000 0.0000 46.0718
#
#
#
# Elastic Compliance Matrix: (Units=1/GPa)
#
#
# Indices 1 2 3 4 5 6 
#
# 1 0.015184 -0.002670 -0.002038 0.000000 0.000000 0.001202
# 2 -0.002670 0.015184 -0.002038 0.000000 0.000000 -0.001202
# 3 -0.002038 -0.002038 0.006052 0.000000 0.000000 0.000000
# 4 0.000000 0.000000 0.000000 0.024287 0.000000 0.000000
# 5 0.000000 0.000000 0.000000 0.000000 0.024287 0.000000
# 6 0.001202 -0.001202 0.000000 0.000000 0.000000 0.021867
#
#
# Mechanical properties :
#
#
# Convention : Reuss Voigt Hill
#
# Bulk Modulus (GPa) = 43.60978 53.99424 48.80201
# Shear Modulus (GPa) = 39.06385 42.66141 40.86263
#
# Velocity S-wave (km/s) = 3.84669 4.01992 3.93426
# Velocity P-wave (km/s) = 6.02066 6.48065 6.25488
#
# Compressibility (1/GPa) = 0.02293063
#
# Stress axis : x y z
#
# Youngs Moduli (GPa) = 65.85676 65.85676 165.23101
#
# Poissons Ratio (x) = 0.17581 0.33672
# Poissons Ratio (y) = 0.17581 0.33672
# Poissons Ratio (z) = 0.13421 0.13421
#
# Static dielectric constant tensor:
#      x y z
#    x 2.226440 0.000000 0.000000 
#    y 0.000000 2.226440 0.000000 
#    z 0.000000 0.000000 2.257760 
# 
# From -- ./inp_files/3418.got.cif
#   From: 2010.05.17/outbox.cif.g08.bks.cpg/sg82_2_cif.got.tgz:3418.got - 2010.06.03 18:52:26.
