data_PCOD9542290
_publ_section_title
;
Structure prediction by ZEFSAII (Michael W. Deem and Ramdas Pophale) SiO2 
 PCOD9542290
Probable space group: I 41
;
_chemical_formula_sum "Si O2"
_cell_formula_units_Z 40
_cell_length_a 15.002991
_cell_length_b 15.002991
_cell_length_c 7.244916
_cell_angle_alpha 90.000000
_cell_angle_beta 90.000000
_cell_angle_gamma 90.000000
_cell_volume 1630.756251
_symmetry_space_group_name_H-M "I 41"
_symmetry_group_IT_number 80
_symmetry_cell_setting 'tetragonal'
loop_
_space_group_symop_operation_xyz
x,y,z
-y,1/2+x,1/4+z
-x,-y,z
y,1/2-x,1/4+z
1/2+x,1/2+y,1/2+z
1/2-y,x,3/4+z
1/2-x,1/2-y,1/2+z
1/2+y,-x,3/4+z
loop_
_atom_site_type_symbol
_atom_site_label
_atom_site_fract_x
_atom_site_fract_y
_atom_site_fract_z
Si Si1 0.568083 0.575058 0.051780
Si Si2 0.502434 0.091336 0.912251
Si Si3 0.301504 0.347301 0.593017
Si Si4 0.538478 0.724054 0.340638
Si Si5 0.641033 0.310842 0.571004
O O1 0.500000 0.500000 0.125083
O O2 0.544985 0.668917 0.148003
O O3 0.669850 0.546855 0.083668
O O4 0.562042 0.562112 0.830742
O O5 0.451277 0.176819 0.833341
O O6 0.602793 0.120826 0.948516
O O7 0.500000 0.000000 0.793680
O O8 0.319915 0.296393 0.782557
O O9 0.375369 0.307441 0.455188
O O10 0.446719 0.702319 0.445497
O O11 0.664309 0.224176 0.689864
#
# Coordination Sequence:
#
# PCOD9542290 Si02
#       5
#     8   8   8   8   8
#     4  11  28  47  79 113 156 208 265 330 405 483
#     4  11  27  49  73 109 154 203 257 330 393 468
#     4  12  27  44  73 109 150 196 246 315 400 467
#     4  12  25  48  77 113 156 205 263 335 399 481
#     4  12  29  50  80 115 163 217 275 332 396 491
#
# _framework density 24.528497000000002
#
# number of rings (size 3 to 8) (size 9 to 14) (size 15 to 20)
#    0.000    0.400    4.000    2.400   11.200    1.600 
#    0.000    0.000    0.000    0.000    0.000    0.000 
#    0.000    0.000    0.000    0.000    0.000    0.000 
#
# Total GULP energy -111892.722104 kJ/mol
# GULP energy per Si atom -5594.636105 kJ/mol
# Density = 2.447267 g / cm^3
# Si number density = 24.528497 Si / 1000 Ang^3
#
#
#
# Elastic Constant Matrix: (Units=GPa)
#
#
# Indices 1 2 3 4 5 6 
#
# 1 165.5962 73.5650 33.9653 0.0000 0.0000 -2.9260
# 2 73.5650 165.5962 33.9653 0.0000 0.0000 2.9260
# 3 33.9653 33.9653 85.4750 0.0000 0.0000 0.0000
# 4 0.0000 0.0000 0.0000 28.4400 0.0000 0.0000
# 5 0.0000 0.0000 0.0000 0.0000 28.4400 0.0000
# 6 -2.9260 2.9260 0.0000 0.0000 0.0000 38.2828
#
#
#
# Elastic Compliance Matrix: (Units=1/GPa)
#
#
# Indices 1 2 3 4 5 6 
#
# 1 0.007816 -0.003103 -0.001873 0.000000 0.000000 0.000835
# 2 -0.003103 0.007816 -0.001873 0.000000 0.000000 -0.000835
# 3 -0.001873 -0.001873 0.013188 0.000000 0.000000 0.000000
# 4 0.000000 0.000000 0.000000 0.035162 0.000000 0.000000
# 5 0.000000 0.000000 0.000000 0.000000 0.035162 0.000000
# 6 0.000835 -0.000835 0.000000 0.000000 0.000000 0.026249
#
#
# Mechanical properties :
#
#
# Convention : Reuss Voigt Hill
#
# Bulk Modulus (GPa) = 66.12588 77.73984 71.93286
# Shear Modulus (GPa) = 34.69074 37.37736 36.03405
#
# Velocity S-wave (km/s) = 3.76480 3.90787 3.83700
# Velocity P-wave (km/s) = 6.77611 7.21972 7.00143
#
# Compressibility (1/GPa) = 0.01512267
#
# Stress axis : x y z
#
# Youngs Moduli (GPa) = 127.94106 127.94106 75.82766
#
# Poissons Ratio (x) = 0.39698 0.14202
# Poissons Ratio (y) = 0.39698 0.14202
# Poissons Ratio (z) = 0.23962 0.23962
#
# Static dielectric constant tensor:
#      x y z
#    x 1.983880 0.000000 0.000000 
#    y 0.000000 1.983880 0.000000 
#    z 0.000000 0.000000 2.073070 
# 
# From -- ./inp_files/591.got.cif
#   From: 2010.05.17/outbox.cif.g08.bks.cpg/sg80_cif.got.tgz:591.got - 2010.06.03 18:49:13.
