data_PCOD9542617
_publ_section_title
;
Structure prediction by ZEFSAII (Michael W. Deem and Ramdas Pophale) SiO2 
 PCOD9542617
Probable space group: I -4 
;
_chemical_formula_sum "Si O2"
_cell_formula_units_Z 64
_cell_length_a 21.834984
_cell_length_b 21.834984
_cell_length_c 7.738230
_cell_angle_alpha 90.000000
_cell_angle_beta 90.000000
_cell_angle_gamma 90.000000
_cell_volume 3689.329037
_symmetry_space_group_name_H-M "I -4 "
_symmetry_group_IT_number 82
_symmetry_cell_setting 'tetragonal'
loop_
_space_group_symop_operation_xyz
x,y,z
y,-x,-z
-x,-y,z
-y,x,-z
1/2+x,1/2+y,1/2+z
1/2+y,1/2-x,1/2-z
1/2-x,1/2-y,1/2+z
1/2-y,1/2+x,1/2-z
loop_
_atom_site_type_symbol
_atom_site_label
_atom_site_fract_x
_atom_site_fract_y
_atom_site_fract_z
Si Si1 0.834492 0.102307 0.252142
Si Si2 0.259385 0.930335 0.957281
Si Si3 0.961820 0.139716 0.262091
Si Si4 0.588554 0.670852 0.856975
Si Si5 0.197106 0.310013 0.042522
Si Si6 0.239331 0.182565 0.886714
Si Si7 0.446885 0.734876 0.456833
Si Si8 0.208469 0.092719 0.406411
O O1 0.907667 0.089859 0.252240
O O2 0.811198 0.085521 0.441873
O O3 0.828579 0.175808 0.219417
O O4 0.795864 0.074995 0.096707
O O5 0.227846 0.917919 0.772245
O O6 0.304846 0.874765 0.997272
O O7 0.280960 0.000152 0.978666
O O8 0.958272 0.176354 0.081744
O O9 0.941636 0.183670 0.422916
O O10 0.032289 0.125934 0.304748
O O11 0.653252 0.636613 0.840681
O O12 0.207612 0.313863 0.246804
O O13 0.228544 0.246009 0.984687
O O14 0.233533 0.365528 0.955233
O O15 0.250913 0.123909 0.006310
O O16 0.450930 0.722868 0.253702
#
# Coordination Sequence:
#
# PCOD9542617 Si02
#       8
#     8   8   8   8   8   8   8   8
#     4   9  17  31  42  68  93 129 168 209 241 294
#     4  10  21  31  49  72 101 131 171 203 252 310
#     4   9  18  30  47  69  98 131 176 205 245 307
#     4  10  17  30  49  70  93 139 169 200 255 295
#     4  11  19  31  51  81 102 130 168 210 255 313
#     4  10  18  30  48  72 107 127 165 208 257 304
#     4  10  19  34  48  68 101 143 160 203 261 299
#     4  11  19  33  52  72 103 138 163 211 263 294
#
# _framework density 17.347328000000001
#
# number of rings (size 3 to 8) (size 9 to 14) (size 15 to 20)
#    0.000    2.000    3.750    4.500    0.000    0.000 
#    0.000    0.000    0.000   12.750    0.000   26.250 
#    0.000    3.000    0.000    0.000    0.000    0.000 
#
# Total GULP energy -178263.991262 kJ/mol
# GULP energy per Si atom -5570.749727 kJ/mol
# Density = 1.730785 g / cm^3
# Si number density = 17.347328 Si / 1000 Ang^3
#
#
#
# Elastic Constant Matrix: (Units=GPa)
#
#
# Indices 1 2 3 4 5 6 
#
# 1 37.5021 6.8785 11.8228 0.0000 0.0000 -4.1252
# 2 6.8785 37.5021 11.8228 0.0000 0.0000 4.1252
# 3 11.8228 11.8228 75.3234 0.0000 0.0000 0.0000
# 4 0.0000 0.0000 0.0000 18.8949 0.0000 0.0000
# 5 0.0000 0.0000 0.0000 0.0000 18.8949 0.0000
# 6 -4.1252 4.1252 0.0000 0.0000 0.0000 6.1438
#
#
#
# Elastic Compliance Matrix: (Units=1/GPa)
#
#
# Indices 1 2 3 4 5 6 
#
# 1 0.032227 -0.007639 -0.003859 0.000000 0.000000 0.026767
# 2 -0.007639 0.032227 -0.003859 0.000000 0.000000 -0.026767
# 3 -0.003859 -0.003859 0.014488 0.000000 0.000000 0.000000
# 4 0.000000 0.000000 0.000000 0.052924 0.000000 0.000000
# 5 0.000000 0.000000 0.000000 0.000000 0.052924 0.000000
# 6 0.026767 -0.026767 0.000000 0.000000 0.000000 0.198710
#
#
# Mechanical properties :
#
#
# Convention : Reuss Voigt Hill
#
# Bulk Modulus (GPa) = 20.73520 23.48620 22.11070
# Shear Modulus (GPa) = 11.62003 16.77364 14.19684
#
# Velocity S-wave (km/s) = 2.59095 3.11292 2.86385
# Velocity P-wave (km/s) = 4.57489 5.14670 4.86920
#
# Compressibility (1/GPa) = 0.04822716
#
# Stress axis : x y z
#
# Youngs Moduli (GPa) = 31.02960 31.02960 69.02431
#
# Poissons Ratio (x) = 0.23702 0.26640
# Poissons Ratio (y) = 0.23702 0.26640
# Poissons Ratio (z) = 0.11976 0.11976
#
# Static dielectric constant tensor:
#      x y z
#    x 1.633080 0.000000 0.000000 
#    y 0.000000 1.633080 0.000000 
#    z 0.000000 0.000000 1.612320 
# 
# From -- ./inp_files/1234.got.cif
#   From: 2010.05.17/outbox.cif.g08.bks.cpg/sg82_1_cif.got.tgz:1234.got - 2010.06.03 18:52:26.
