data_PCOD9542896
_publ_section_title
;
Structure prediction by ZEFSAII (Michael W. Deem and Ramdas Pophale) SiO2 
 PCOD9542896
Probable space group: I -4 
;
_chemical_formula_sum "Si O2"
_cell_formula_units_Z 56
_cell_length_a 14.088593
_cell_length_b 14.088593
_cell_length_c 12.779002
_cell_angle_alpha 90.000000
_cell_angle_beta 90.000000
_cell_angle_gamma 90.000000
_cell_volume 2536.484334
_symmetry_space_group_name_H-M "I -4 "
_symmetry_group_IT_number 82
_symmetry_cell_setting 'tetragonal'
loop_
_space_group_symop_operation_xyz
x,y,z
y,-x,-z
-x,-y,z
-y,x,-z
1/2+x,1/2+y,1/2+z
1/2+y,1/2-x,1/2-z
1/2-x,1/2-y,1/2+z
1/2-y,1/2+x,1/2-z
loop_
_atom_site_type_symbol
_atom_site_label
_atom_site_fract_x
_atom_site_fract_y
_atom_site_fract_z
Si Si1 0.619956 0.418424 0.047258
Si Si2 0.059355 0.677487 0.673997
Si Si3 0.937184 0.864915 0.017378
Si Si4 0.435810 0.130604 0.786694
Si Si5 0.827874 0.147409 0.757524
Si Si6 0.683941 0.093479 0.489377
Si Si7 0.988779 0.670323 0.908043
O O1 0.620903 0.422081 0.173355
O O2 0.524950 0.375585 0.998275
O O3 0.714907 0.359375 0.017938
O O4 0.139721 0.752150 0.709277
O O5 0.018210 0.654161 0.787456
O O6 0.096732 0.598121 0.593140
O O7 0.967384 0.711317 0.611331
O O8 0.875746 0.856339 0.123631
O O9 0.045699 0.893972 0.045031
O O10 0.946520 0.769855 0.948489
O O11 0.530281 0.117627 0.718453
O O12 0.370778 0.215856 0.747389
O O13 0.463422 0.158045 0.904756
O O14 0.587740 0.151039 0.467555
#
# Coordination Sequence:
#
# PCOD9542896 Si02
#       7
#     8   8   8   8   8   8   8
#     4  10  22  43  72 101 142 195 245 308 364 436
#     4  12  25  44  70 102 137 185 235 303 361 442
#     4  11  26  46  72 102 143 194 239 307 378 452
#     4  10  24  44  70 103 145 193 238 303 372 441
#     4  11  24  47  68 107 142 182 256 296 371 447
#     4  11  24  43  69 103 143 186 240 302 374 433
#     4  12  26  45  71 104 143 186 243 301 374 446
#
# _framework density 22.077805000000001
#
# number of rings (size 3 to 8) (size 9 to 14) (size 15 to 20)
#    0.000    1.000    4.286    1.286    6.000    6.857 
#    5.143    0.000    0.000    0.000    0.000    0.000 
#    0.000    0.000    0.000    0.000    0.000    0.000 
#
# Total GULP energy -155984.568337 kJ/mol
# GULP energy per Si atom -5570.877441 kJ/mol
# Density = 2.202755 g / cm^3
# Si number density = 22.077805 Si / 1000 Ang^3
#
#
#
# Elastic Constant Matrix: (Units=GPa)
#
#
# Indices 1 2 3 4 5 6 
#
# 1 51.0644 -12.9699 4.1377 0.0000 0.0000 -2.0836
# 2 -12.9699 51.0644 4.1377 0.0000 0.0000 2.0836
# 3 4.1377 4.1377 63.2909 0.0000 0.0000 0.0000
# 4 0.0000 0.0000 0.0000 28.5647 0.0000 0.0000
# 5 0.0000 0.0000 0.0000 0.0000 28.5647 0.0000
# 6 -2.0836 2.0836 0.0000 0.0000 0.0000 24.5725
#
#
#
# Elastic Compliance Matrix: (Units=1/GPa)
#
#
# Indices 1 2 3 4 5 6 
#
# 1 0.021166 0.005463 -0.001741 0.000000 0.000000 0.001332
# 2 0.005463 0.021166 -0.001741 0.000000 0.000000 -0.001332
# 3 -0.001741 -0.001741 0.016028 0.000000 0.000000 0.000000
# 4 0.000000 0.000000 0.000000 0.035008 0.000000 0.000000
# 5 0.000000 0.000000 0.000000 0.000000 0.035008 0.000000
# 6 0.001332 -0.001332 0.000000 0.000000 0.000000 0.040922
#
#
# Mechanical properties :
#
#
# Convention : Reuss Voigt Hill
#
# Bulk Modulus (GPa) = 16.04578 17.33672 16.69125
# Shear Modulus (GPa) = 26.86586 27.68133 27.27359
#
# Velocity S-wave (km/s) = 3.49215 3.54476 3.51855
# Velocity P-wave (km/s) = 4.85219 4.96219 4.90750
#
# Compressibility (1/GPa) = 0.06232167
#
# Stress axis : x y z
#
# Youngs Moduli (GPa) = 47.24557 47.24557 62.39205
#
# Poissons Ratio (x) = -0.25809 0.10862
# Poissons Ratio (y) = -0.25809 0.10862
# Poissons Ratio (z) = 0.08225 0.08225
#
# Static dielectric constant tensor:
#      x y z
#    x 1.881110 0.000000 0.000000 
#    y 0.000000 1.881110 0.000000 
#    z 0.000000 0.000000 1.891130 
# 
# From -- ./inp_files/1855.got.cif
#   From: 2010.05.17/outbox.cif.g08.bks.cpg/sg82_1_cif.got.tgz:1855.got - 2010.06.03 18:52:26.
