data_PCOD9542242
_publ_section_title
;
Structure prediction by ZEFSAII (Michael W. Deem and Ramdas Pophale) SiO2 
 PCOD9542242
Probable space group: I 41
;
_chemical_formula_sum "Si O2"
_cell_formula_units_Z 32
_cell_length_a 16.759754
_cell_length_b 16.759754
_cell_length_c 2.713924
_cell_angle_alpha 90.000000
_cell_angle_beta 90.000000
_cell_angle_gamma 90.000000
_cell_volume 762.312360
_symmetry_space_group_name_H-M "I 41"
_symmetry_group_IT_number 80
_symmetry_cell_setting 'tetragonal'
loop_
_space_group_symop_operation_xyz
x,y,z
-y,1/2+x,1/4+z
-x,-y,z
y,1/2-x,1/4+z
1/2+x,1/2+y,1/2+z
1/2-y,x,3/4+z
1/2-x,1/2-y,1/2+z
1/2+y,-x,3/4+z
loop_
_atom_site_type_symbol
_atom_site_label
_atom_site_fract_x
_atom_site_fract_y
_atom_site_fract_z
Si Si1 0.756161 0.618508 0.534800
Si Si2 0.743839 0.381491 0.450636
Si Si3 0.498180 0.124242 0.156241
Si Si4 0.998180 0.124242 0.829197
O O1 0.691784 0.674620 0.810665
O O2 0.673542 0.546604 0.431869
O O3 0.797305 0.573507 0.046850
O O4 0.674620 0.308216 0.424771
O O5 0.702695 0.426493 0.938585
O O6 0.826458 0.453396 0.553569
O O7 0.424258 0.048473 0.117279
O O8 0.548473 0.075742 0.618160
#
# Coordination Sequence:
#
# PCOD9542242 Si02
#       4
#     8   8   8   8
#     4  11  28  54  92 153 214 272 360 455 546 662
#     4  11  28  54  92 153 214 272 360 455 546 662
#     4  10  26  53  98 146 200 280 364 445 542 653
#     4  10  26  53  98 146 200 280 364 445 542 653
#
# _framework density 41.977547999999999
#
# number of rings (size 3 to 8) (size 9 to 14) (size 15 to 20)
#    0.000    1.500    0.000    0.000    0.000   28.000 
#    0.000    0.000    0.000   36.000    0.000    0.000 
#    0.000    0.000    0.000    0.000    0.000    0.000 
#
# Total GULP energy -89547.414314 kJ/mol
# GULP energy per Si atom -5596.713395 kJ/mol
# Density = 4.188201 g / cm^3
# Si number density = 41.977548 Si / 1000 Ang^3
#
#
#
# Elastic Constant Matrix: (Units=GPa)
#
#
# Indices 1 2 3 4 5 6 
#
# 1 812.9033 -33.9687 169.2221 0.0000 0.0000 -188.7874
# 2 -33.9687 812.9033 169.2221 0.0000 0.0000 188.7874
# 3 169.2221 169.2221 568.9959 0.0000 0.0000 0.0000
# 4 0.0000 0.0000 0.0000 37.0814 0.0000 0.0000
# 5 0.0000 0.0000 0.0000 0.0000 37.0814 0.0000
# 6 -188.7874 188.7874 0.0000 0.0000 0.0000 389.0723
#
#
#
# Elastic Compliance Matrix: (Units=1/GPa)
#
#
# Indices 1 2 3 4 5 6 
#
# 1 0.001491 -0.000016 -0.000438 0.000000 0.000000 0.000731
# 2 -0.000016 0.001491 -0.000438 0.000000 0.000000 -0.000731
# 3 -0.000438 -0.000438 0.002018 0.000000 0.000000 0.000000
# 4 0.000000 0.000000 0.000000 0.026968 0.000000 0.000000
# 5 0.000000 0.000000 0.000000 0.000000 0.026968 0.000000
# 6 0.000731 -0.000731 0.000000 0.000000 0.000000 0.003280
#
#
# Mechanical properties :
#
#
# Convention : Reuss Voigt Hill
#
# Bulk Modulus (GPa) = 311.23110 311.52820 311.37965
# Shear Modulus (GPa) = 76.83807 218.66880 147.75343
#
# Velocity S-wave (km/s) = 4.28302 7.22530 5.93924
# Velocity P-wave (km/s) = 9.93792 11.99920 11.01687
#
# Compressibility (1/GPa) = 0.00321305
#
# Stress axis : x y z
#
# Youngs Moduli (GPa) = 670.89196 670.89196 495.46950
#
# Poissons Ratio (x) = 0.01089 0.21725
# Poissons Ratio (y) = 0.01089 0.21725
# Poissons Ratio (z) = 0.29417 0.29417
#
# Static dielectric constant tensor:
#      x y z
#    x 4.616180 0.000000 0.000000 
#    y 0.000000 4.616180 0.000000 
#    z 0.000000 0.000000 4.734240 
# 
# From -- ./inp_files/157.got.cif
#   From: 2010.05.17/outbox.cif.g08.bks.cpg/sg80_cif.got.tgz:157.got - 2010.06.03 18:49:13.
