data_PCOD9542176
_publ_section_title
;
Structure prediction by ZEFSAII (Michael W. Deem and Ramdas Pophale) SiO2 
 PCOD9542176
Probable space group: I 41
;
_chemical_formula_sum "Si O2"
_cell_formula_units_Z 48
_cell_length_a 11.570020
_cell_length_b 11.570020
_cell_length_c 15.806904
_cell_angle_alpha 90.000000
_cell_angle_beta 90.000000
_cell_angle_gamma 90.000000
_cell_volume 2115.996939
_symmetry_space_group_name_H-M "I 41"
_symmetry_group_IT_number 80
_symmetry_cell_setting 'tetragonal'
loop_
_space_group_symop_operation_xyz
x,y,z
-y,1/2+x,1/4+z
-x,-y,z
y,1/2-x,1/4+z
1/2+x,1/2+y,1/2+z
1/2-y,x,3/4+z
1/2-x,1/2-y,1/2+z
1/2+y,-x,3/4+z
loop_
_atom_site_type_symbol
_atom_site_label
_atom_site_fract_x
_atom_site_fract_y
_atom_site_fract_z
Si Si1 0.071625 0.270300 0.262420
Si Si2 0.629541 0.295653 0.636634
Si Si3 0.295653 0.629541 0.194700
Si Si4 0.300005 0.300005 0.915667
Si Si5 0.729700 0.928375 0.568914
Si Si6 0.000000 0.000000 0.757139
Si Si7 0.500000 0.000000 0.824195
O O1 0.177307 0.210447 0.213840
O O2 0.090758 0.210283 0.353690
O O3 0.081298 0.410187 0.273023
O O4 0.955962 0.255765 0.207944
O O5 0.613232 0.250000 0.540667
O O6 0.756444 0.256444 0.665667
O O7 0.588831 0.426389 0.629298
O O8 0.244235 0.544038 0.123390
O O9 0.426389 0.588831 0.202036
O O10 0.177307 0.289552 0.867494
O O11 0.289717 0.409242 0.977644
O O12 0.589813 0.918702 0.558311
#
# Coordination Sequence:
#
# PCOD9542176 Si02
#       7
#     8   8   8   8   8   4   4
#     4  11  22  38  66 102 139 188 246 309 376 435
#     4  12  25  43  71 111 146 192 248 312 377 452
#     4  12  25  43  71 111 146 192 248 312 377 452
#     4  10  22  37  62 101 140 186 242 306 371 462
#     4  11  22  38  66 102 139 188 246 309 376 435
#     4  12  24  43  72 103 148 190 242 317 370 440
#     4  12  24  43  72 103 148 190 242 317 370 440
#
# _framework density 22.684343999999999
#
# number of rings (size 3 to 8) (size 9 to 14) (size 15 to 20)
#    0.000    0.667    6.667    2.000    0.000    1.333 
#    0.000    3.333    0.000    0.000    0.000    0.000 
#    0.000    0.000    0.000    0.000    0.000    0.000 
#
# Total GULP energy -133676.703781 kJ/mol
# GULP energy per Si atom -5569.862658 kJ/mol
# Density = 2.263271 g / cm^3
# Si number density = 22.684344 Si / 1000 Ang^3
#
#
#
# Elastic Constant Matrix: (Units=GPa)
#
#
# Indices 1 2 3 4 5 6 
#
# 1 81.2834 16.1406 34.2307 0.0000 0.0000 0.0000
# 2 16.1406 81.2834 34.2307 0.0000 0.0000 0.0000
# 3 34.2307 34.2307 109.8779 0.0000 0.0000 0.0000
# 4 0.0000 0.0000 0.0000 14.7287 0.0000 0.0000
# 5 0.0000 0.0000 0.0000 0.0000 14.7287 0.0000
# 6 0.0000 0.0000 0.0000 0.0000 0.0000 45.6788
#
#
#
# Elastic Compliance Matrix: (Units=1/GPa)
#
#
# Indices 1 2 3 4 5 6 
#
# 1 0.014246 -0.001105 -0.004094 0.000000 0.000000 0.000000
# 2 -0.001105 0.014246 -0.004094 0.000000 0.000000 0.000000
# 3 -0.004094 -0.004094 0.011652 0.000000 0.000000 0.000000
# 4 0.000000 0.000000 0.000000 0.067895 0.000000 0.000000
# 5 0.000000 0.000000 0.000000 0.000000 0.067895 0.000000
# 6 0.000000 0.000000 0.000000 0.000000 0.000000 0.021892
#
#
# Mechanical properties :
#
#
# Convention : Reuss Voigt Hill
#
# Bulk Modulus (GPa) = 46.38522 49.07208 47.72865
# Shear Modulus (GPa) = 22.36164 27.55008 24.95586
#
# Velocity S-wave (km/s) = 3.14311 3.48874 3.32043
# Velocity P-wave (km/s) = 5.80213 6.15695 5.98217
#
# Compressibility (1/GPa) = 0.02155859
#
# Stress axis : x y z
#
# Youngs Moduli (GPa) = 70.19465 70.19464 85.82340
#
# Poissons Ratio (x) = 0.07755 0.35136
# Poissons Ratio (y) = 0.07755 0.35136
# Poissons Ratio (z) = 0.28737 0.28737
#
# Static dielectric constant tensor:
#      x y z
#    x 1.905700 0.000000 0.000000 
#    y 0.000000 1.905700 0.000000 
#    z 0.000000 0.000000 1.979650 
# 
# From -- ./inp_files/1540.got.cif
#   From: 2010.05.17/outbox.cif.g08.bks.cpg/sg80_cif.got.tgz:1540.got - 2010.06.03 18:49:13.
