data_PCOD9542761
_publ_section_title
;
Structure prediction by ZEFSAII (Michael W. Deem and Ramdas Pophale) SiO2 
 PCOD9542761
Probable space group: I -4 
;
_chemical_formula_sum "Si O2"
_cell_formula_units_Z 36
_cell_length_a 8.286552
_cell_length_b 8.286552
_cell_length_c 23.014201
_cell_angle_alpha 90.000000
_cell_angle_beta 90.000000
_cell_angle_gamma 90.000000
_cell_volume 1580.314852
_symmetry_space_group_name_H-M "I -4 "
_symmetry_group_IT_number 82
_symmetry_cell_setting 'tetragonal'
loop_
_space_group_symop_operation_xyz
x,y,z
y,-x,-z
-x,-y,z
-y,x,-z
1/2+x,1/2+y,1/2+z
1/2+y,1/2-x,1/2-z
1/2-x,1/2-y,1/2+z
1/2-y,1/2+x,1/2-z
loop_
_atom_site_type_symbol
_atom_site_label
_atom_site_fract_x
_atom_site_fract_y
_atom_site_fract_z
Si Si1 0.500000 0.000000 0.250000
Si Si2 0.500000 0.500000 0.191095
Si Si3 0.501918 0.738568 0.600504
Si Si4 0.491120 0.747464 0.902225
Si Si5 0.500000 0.500000 0.000000
Si Si6 0.000000 0.500000 0.250000
Si Si7 0.500000 0.500000 0.500000
Si Si8 0.189894 0.815604 0.210032
O O1 0.372347 0.888568 0.213073
O O2 0.629024 0.430485 0.145405
O O3 0.407465 0.383736 0.234416
O O4 0.656912 0.837491 0.623701
O O5 0.551879 0.638554 0.544470
O O6 0.402412 0.643760 0.650000
O O7 0.375976 0.875069 0.580440
O O8 0.443470 0.642545 0.957695
O O9 0.869349 0.621385 0.280196
#
# Coordination Sequence:
#
# PCOD9542761 Si02
#       8
#     2   4   8   8   2   2   2   8
#     4  12  28  44  68 110 148 176 224 292 356 402
#     4  11  23  41  70 103 135 179 230 278 346 419
#     4  11  23  42  63  91 131 177 222 273 339 418
#     4  10  22  41  67  94 128 173 225 277 338 411
#     4  10  20  40  66  96 124 162 224 298 336 378
#     4  12  24  44  76 102 136 192 236 264 336 438
#     4  12  26  40  62  92 122 168 224 282 344 400
#     4  12  24  43  68 101 142 183 227 283 345 418
#
# _framework density 22.780273999999999
#
# number of rings (size 3 to 8) (size 9 to 14) (size 15 to 20)
#    0.000    0.889    0.000    8.667    0.000    1.778 
#    0.000    4.444    0.000    0.000    0.000    0.000 
#    0.000    0.000    0.000    0.000    0.000    0.000 
#
# Total GULP energy -100297.620901 kJ/mol
# GULP energy per Si atom -5572.090050 kJ/mol
# Density = 2.272842 g / cm^3
# Si number density = 22.780274 Si / 1000 Ang^3
#
#
#
# Elastic Constant Matrix: (Units=GPa)
#
#
# Indices 1 2 3 4 5 6 
#
# 1 103.5057 52.6128 35.8250 0.0000 0.0000 7.7720
# 2 52.6128 103.5057 35.8250 0.0000 0.0000 -7.7720
# 3 35.8250 35.8250 113.2879 0.0000 0.0000 0.0000
# 4 0.0000 0.0000 0.0000 31.0522 0.0000 0.0000
# 5 0.0000 0.0000 0.0000 0.0000 31.0522 0.0000
# 6 7.7720 -7.7720 0.0000 0.0000 0.0000 41.1301
#
#
#
# Elastic Compliance Matrix: (Units=1/GPa)
#
#
# Indices 1 2 3 4 5 6 
#
# 1 0.014173 -0.006680 -0.002369 0.000000 0.000000 -0.003940
# 2 -0.006680 0.014173 -0.002369 0.000000 0.000000 0.003940
# 3 -0.002369 -0.002369 0.010326 0.000000 0.000000 0.000000
# 4 0.000000 0.000000 0.000000 0.032204 0.000000 0.000000
# 5 0.000000 0.000000 0.000000 0.000000 0.032204 0.000000
# 6 -0.003940 0.003940 0.000000 0.000000 0.000000 0.025802
#
#
# Mechanical properties :
#
#
# Convention : Reuss Voigt Hill
#
# Bulk Modulus (GPa) = 63.15720 63.20276 63.17998
# Shear Modulus (GPa) = 31.84783 33.71598 32.78191
#
# Velocity S-wave (km/s) = 3.74310 3.85132 3.79759
# Velocity P-wave (km/s) = 6.81658 6.89794 6.85738
#
# Compressibility (1/GPa) = 0.01583351
#
# Stress axis : x y z
#
# Youngs Moduli (GPa) = 70.55806 70.55806 96.84615
#
# Poissons Ratio (x) = 0.47132 0.22947
# Poissons Ratio (y) = 0.47132 0.22947
# Poissons Ratio (z) = 0.16718 0.16718
#
# Static dielectric constant tensor:
#      x y z
#    x 1.981780 0.000000 0.000000 
#    y 0.000000 1.981780 0.000000 
#    z 0.000000 0.000000 1.815180 
# 
# From -- ./inp_files/3029.got.cif
#   From: 2010.05.17/outbox.cif.g08.bks.cpg/sg82_2_cif.got.tgz:3029.got - 2010.06.03 18:52:26.
