data_PCOD9542872
_publ_section_title
;
Structure prediction by ZEFSAII (Michael W. Deem and Ramdas Pophale) SiO2 
 PCOD9542872
Probable space group: I -4 
;
_chemical_formula_sum "Si O2"
_cell_formula_units_Z 40
_cell_length_a 8.585065
_cell_length_b 8.585065
_cell_length_c 24.468988
_cell_angle_alpha 90.000000
_cell_angle_beta 90.000000
_cell_angle_gamma 90.000000
_cell_volume 1803.446168
_symmetry_space_group_name_H-M "I -4 "
_symmetry_group_IT_number 82
_symmetry_cell_setting 'tetragonal'
loop_
_space_group_symop_operation_xyz
x,y,z
y,-x,-z
-x,-y,z
-y,x,-z
1/2+x,1/2+y,1/2+z
1/2+y,1/2-x,1/2-z
1/2-x,1/2-y,1/2+z
1/2-y,1/2+x,1/2-z
loop_
_atom_site_type_symbol
_atom_site_label
_atom_site_fract_x
_atom_site_fract_y
_atom_site_fract_z
Si Si1 0.166657 0.909018 0.666618
Si Si2 0.864046 0.284279 0.765767
Si Si3 0.236330 0.909867 0.986046
Si Si4 0.709617 0.219257 0.878810
Si Si5 0.675965 0.961908 0.418903
O O1 0.207912 0.842213 0.725367
O O2 0.145155 0.766580 0.624527
O O3 0.283189 0.037641 0.644989
O O4 0.000000 0.000000 0.670341
O O5 0.795299 0.453942 0.750575
O O6 0.826934 0.240481 0.828066
O O7 0.265339 0.916787 0.921558
O O8 0.376320 0.842293 0.022960
O O9 0.081874 0.806312 0.993873
O O10 0.730133 0.376112 0.915883
O O11 0.500000 0.000000 0.400135
#
# Coordination Sequence:
#
# PCOD9542872 Si02
#       5
#     8   8   8   8   8
#     4  10  22  41  65 104 130 169 230 281 333 398
#     4  11  21  39  69  96 127 174 227 276 335 410
#     4  11  26  45  65 102 138 179 226 282 344 402
#     4  11  24  44  67  99 136 175 227 283 336 401
#     4  11  21  43  70  96 131 175 224 276 331 402
#
# _framework density 22.179756000000001
#
# number of rings (size 3 to 8) (size 9 to 14) (size 15 to 20)
#    0.000    1.200    6.000    1.200    2.800    0.000 
#    7.200    0.000    0.000    0.000    0.000    0.000 
#    0.000    0.000    0.000    0.000    0.000    0.000 
#
# Total GULP energy -111791.649457 kJ/mol
# GULP energy per Si atom -5589.582473 kJ/mol
# Density = 2.212927 g / cm^3
# Si number density = 22.179756 Si / 1000 Ang^3
#
#
#
# Elastic Constant Matrix: (Units=GPa)
#
#
# Indices 1 2 3 4 5 6 
#
# 1 67.3134 -1.5247 43.1383 0.0000 0.0000 -10.9287
# 2 -1.5247 67.3134 43.1383 0.0000 0.0000 10.9287
# 3 43.1383 43.1383 164.4200 0.0000 0.0000 0.0000
# 4 0.0000 0.0000 0.0000 36.1925 0.0000 0.0000
# 5 0.0000 0.0000 0.0000 0.0000 36.1925 0.0000
# 6 -10.9287 10.9287 0.0000 0.0000 0.0000 4.6471
#
#
#
# Elastic Compliance Matrix: (Units=1/GPa)
#
#
# Indices 1 2 3 4 5 6 
#
# 1 0.040265 -0.017091 -0.006080 0.000000 0.000000 0.134886
# 2 -0.017091 0.040265 -0.006080 0.000000 0.000000 -0.134886
# 3 -0.006080 -0.006080 0.009272 0.000000 0.000000 0.000000
# 4 0.000000 0.000000 0.000000 0.027630 0.000000 0.000000
# 5 0.000000 0.000000 0.000000 0.000000 0.027630 0.000000
# 6 0.134886 -0.134886 0.000000 0.000000 0.000000 0.849626
#
#
# Mechanical properties :
#
#
# Convention : Reuss Voigt Hill
#
# Bulk Modulus (GPa) = 31.94925 52.06116 42.00520
# Shear Modulus (GPa) = 4.70092 29.69274 17.19683
#
# Velocity S-wave (km/s) = 1.45742 3.66284 2.78751
# Velocity P-wave (km/s) = 4.15548 6.43520 5.41664
#
# Compressibility (1/GPa) = 0.03129964
#
# Stress axis : x y z
#
# Youngs Moduli (GPa) = 24.83569 24.83569 107.84758
#
# Poissons Ratio (x) = 0.42447 0.65571
# Poissons Ratio (y) = 0.42447 0.65571
# Poissons Ratio (z) = 0.15100 0.15100
#
# Static dielectric constant tensor:
#      x y z
#    x 1.842350 0.000000 0.000000 
#    y 0.000000 1.842350 0.000000 
#    z 0.000000 0.000000 1.817350 
# 
# From -- ./inp_files/3340.got.cif
#   From: 2010.05.17/outbox.cif.g08.bks.cpg/sg82_2_cif.got.tgz:3340.got - 2010.06.03 18:52:26.
