data_PCOD9542423
_publ_section_title
;
Structure prediction by ZEFSAII (Michael W. Deem and Ramdas Pophale) SiO2 
 PCOD9542423
Probable space group: P -4
;
_chemical_formula_sum "Si O2"
_cell_formula_units_Z 20
_cell_length_a 8.719660
_cell_length_b 8.719660
_cell_length_c 12.279974
_cell_angle_alpha 90.000000
_cell_angle_beta 90.000000
_cell_angle_gamma 90.000000
_cell_volume 933.676761
_symmetry_space_group_name_H-M "P -4"
_symmetry_group_IT_number 81
_symmetry_cell_setting 'tetragonal'
loop_
_space_group_symop_operation_xyz
x,y,z
y,-x,-z
-x,-y,z
-y,x,-z
loop_
_atom_site_type_symbol
_atom_site_label
_atom_site_fract_x
_atom_site_fract_y
_atom_site_fract_z
Si Si1 0.786299 0.882056 0.834219
Si Si2 0.055079 0.671163 0.926267
Si Si3 0.826548 0.449930 0.329391
Si Si4 0.762537 0.908560 0.476071
Si Si5 0.775729 0.219949 0.740646
O O1 0.936112 0.793010 0.874252
O O2 0.678384 0.779017 0.757561
O O3 0.808517 0.038717 0.764842
O O4 0.703137 0.927275 0.946364
O O5 0.000000 0.500000 0.909309
O O6 0.208145 0.700593 0.857084
O O7 0.842793 0.370451 0.446660
O O8 0.744254 0.611346 0.313755
O O9 0.000000 0.500000 0.297984
O O10 0.724773 0.897834 0.348831
O O11 0.917848 0.807946 0.492430
#
# Coordination Sequence:
#
# PCOD9542423 Si02
#       5
#     4   4   4   4   4
#     4  11  22  42  69  94 133 170 221 277 337 397
#     4  12  25  41  67 103 133 170 224 281 339 412
#     4  10  21  42  65  91 134 174 213 274 341 396
#     4  11  21  36  64  96 127 167 225 282 333 382
#     4  11  23  41  67  99 129 173 225 275 334 397
#
# _framework density 21.420691999999999
#
# number of rings (size 3 to 8) (size 9 to 14) (size 15 to 20)
#    0.000    1.000    6.000    3.600    2.800    0.800 
#    3.600    1.000    0.000    0.000    0.000    0.000 
#    0.000    0.000    0.000    0.000    0.000    0.000 
#
# Total GULP energy -111658.018365 kJ/mol
# GULP energy per Si atom -5582.900918 kJ/mol
# Density = 2.137194 g / cm^3
# Si number density = 21.420692 Si / 1000 Ang^3
#
#
#
# Elastic Constant Matrix: (Units=GPa)
#
#
# Indices 1 2 3 4 5 6 
#
# 1 62.0540 8.4294 17.3211 0.0000 0.0000 -1.7046
# 2 8.4294 62.0540 17.3211 0.0000 0.0000 1.7046
# 3 17.3211 17.3211 106.4034 0.0000 0.0000 0.0000
# 4 0.0000 0.0000 0.0000 12.5283 0.0000 0.0000
# 5 0.0000 0.0000 0.0000 0.0000 12.5283 0.0000
# 6 -1.7046 1.7046 0.0000 0.0000 0.0000 11.4404
#
#
#
# Elastic Compliance Matrix: (Units=1/GPa)
#
#
# Indices 1 2 3 4 5 6 
#
# 1 0.017124 -0.001702 -0.002510 0.000000 0.000000 0.002805
# 2 -0.001702 0.017124 -0.002510 0.000000 0.000000 -0.002805
# 3 -0.002510 -0.002510 0.010216 0.000000 0.000000 0.000000
# 4 0.000000 0.000000 0.000000 0.079819 0.000000 0.000000
# 5 0.000000 0.000000 0.000000 0.000000 0.079819 0.000000
# 6 0.002805 -0.002805 0.000000 0.000000 0.000000 0.088246
#
#
# Mechanical properties :
#
#
# Convention : Reuss Voigt Hill
#
# Bulk Modulus (GPa) = 32.24040 35.18384 33.71212
# Shear Modulus (GPa) = 15.81611 19.79539 17.80575
#
# Velocity S-wave (km/s) = 2.72022 3.04324 2.88625
# Velocity P-wave (km/s) = 4.99498 5.36742 5.18455
#
# Compressibility (1/GPa) = 0.03101699
#
# Stress axis : x y z
#
# Youngs Moduli (GPa) = 58.39742 58.39742 97.89018
#
# Poissons Ratio (x) = 0.09942 0.24575
# Poissons Ratio (y) = 0.09942 0.24575
# Poissons Ratio (z) = 0.14660 0.14660
#
# Static dielectric constant tensor:
#      x y z
#    x 1.838630 0.000000 0.000000 
#    y 0.000000 1.838630 0.000000 
#    z 0.000000 0.000000 1.763870 
# 
# From -- ./inp_files/1252.got.cif
#   From: 2010.05.17/outbox.cif.g08.bks.cpg/sg81_cif.got.tgz:1252.got - 2010.06.03 18:51:07.
