data_PCOD9542924
_publ_section_title
;
Structure prediction by ZEFSAII (Michael W. Deem and Ramdas Pophale) SiO2 
 PCOD9542924
Probable space group: I -4 
;
_chemical_formula_sum "Si O2"
_cell_formula_units_Z 56
_cell_length_a 11.712717
_cell_length_b 11.712717
_cell_length_c 18.297708
_cell_angle_alpha 90.000000
_cell_angle_beta 90.000000
_cell_angle_gamma 90.000000
_cell_volume 2510.221199
_symmetry_space_group_name_H-M "I -4 "
_symmetry_group_IT_number 82
_symmetry_cell_setting 'tetragonal'
loop_
_space_group_symop_operation_xyz
x,y,z
y,-x,-z
-x,-y,z
-y,x,-z
1/2+x,1/2+y,1/2+z
1/2+y,1/2-x,1/2-z
1/2-x,1/2-y,1/2+z
1/2-y,1/2+x,1/2-z
loop_
_atom_site_type_symbol
_atom_site_label
_atom_site_fract_x
_atom_site_fract_y
_atom_site_fract_z
Si Si1 0.514681 0.862415 0.466593
Si Si2 0.777102 0.241755 0.983702
Si Si3 0.343496 0.697665 0.850843
Si Si4 0.840163 0.511462 0.705808
Si Si5 0.742923 0.404640 0.106135
Si Si6 0.849271 0.595599 0.275876
Si Si7 0.371985 0.466004 0.789947
O O1 0.409919 0.779550 0.491560
O O2 0.628668 0.790696 0.489164
O O3 0.511480 0.867725 0.377976
O O4 0.500000 0.000000 0.490072
O O5 0.719435 0.345203 0.029756
O O6 0.756593 0.249547 0.897266
O O7 0.459191 0.735546 0.892734
O O8 0.358815 0.741504 0.768412
O O9 0.334173 0.562373 0.847777
O O10 0.907763 0.616569 0.742568
O O11 0.708169 0.530413 0.720612
O O12 0.861470 0.363078 0.142164
O O13 0.651985 0.367255 0.167442
O O14 0.856825 0.459930 0.267716
O O15 0.500000 0.500000 0.770460
#
# Coordination Sequence:
#
# PCOD9542924 Si02
#       7
#     8   8   8   8   8   8   8
#     4  12  28  51  75 112 145 206 254 306 396 454
#     4  12  28  45  73 102 152 190 246 305 366 479
#     4  10  23  41  66  98 133 181 234 304 365 432
#     4  11  22  42  77 106 143 185 246 320 367 456
#     4  10  23  41  66  98 133 181 234 304 365 432
#     4   9  20  40  68  94 127 172 232 288 351 428
#     4  10  23  41  64 102 133 176 236 300 379 431
#
# _framework density 22.308790999999999
#
# number of rings (size 3 to 8) (size 9 to 14) (size 15 to 20)
#    0.000    1.429    1.429    2.571   12.000    0.286 
#    2.571    0.000    0.000    0.000    0.000    0.000 
#    0.000    0.000    0.000    0.000    0.000    0.000 
#
# Total GULP energy -156232.528351 kJ/mol
# GULP energy per Si atom -5579.733155 kJ/mol
# Density = 2.225802 g / cm^3
# Si number density = 22.308791 Si / 1000 Ang^3
#
#
#
# Elastic Constant Matrix: (Units=GPa)
#
#
# Indices 1 2 3 4 5 6 
#
# 1 87.8160 22.9586 21.9955 0.0000 0.0000 3.2929
# 2 22.9586 87.8160 21.9955 0.0000 0.0000 -3.2929
# 3 21.9955 21.9955 57.7394 0.0000 0.0000 0.0000
# 4 0.0000 0.0000 0.0000 12.4854 0.0000 0.0000
# 5 0.0000 0.0000 0.0000 0.0000 12.4854 0.0000
# 6 3.2929 -3.2929 0.0000 0.0000 0.0000 21.5202
#
#
#
# Elastic Compliance Matrix: (Units=1/GPa)
#
#
# Indices 1 2 3 4 5 6 
#
# 1 0.013149 -0.002513 -0.004052 0.000000 0.000000 -0.002396
# 2 -0.002513 0.013149 -0.004052 0.000000 0.000000 0.002396
# 3 -0.004052 -0.004052 0.020406 0.000000 0.000000 0.000000
# 4 0.000000 0.000000 0.000000 0.080093 0.000000 0.000000
# 5 0.000000 0.000000 0.000000 0.000000 0.080093 0.000000
# 6 -0.002396 0.002396 0.000000 0.000000 0.000000 0.047201
#
#
# Mechanical properties :
#
#
# Convention : Reuss Voigt Hill
#
# Bulk Modulus (GPa) = 39.25940 40.80783 40.03361
# Shear Modulus (GPa) = 17.61706 20.39301 19.00503
#
# Velocity S-wave (km/s) = 2.81319 3.02673 2.92191
# Velocity P-wave (km/s) = 5.30928 5.52691 5.41919
#
# Compressibility (1/GPa) = 0.02547161
#
# Stress axis : x y z
#
# Youngs Moduli (GPa) = 76.05078 76.05078 49.00453
#
# Poissons Ratio (x) = 0.19109 0.19856
# Poissons Ratio (y) = 0.19109 0.19856
# Poissons Ratio (z) = 0.30815 0.30815
#
# Static dielectric constant tensor:
#      x y z
#    x 1.874550 0.000000 0.000000 
#    y 0.000000 1.874550 0.000000 
#    z 0.000000 0.000000 1.773800 
# 
# From -- ./inp_files/3134.got.cif
#   From: 2010.05.17/outbox.cif.g08.bks.cpg/sg82_2_cif.got.tgz:3134.got - 2010.06.03 18:52:26.
