data_PCOD9542560
_publ_section_title
;
Structure prediction by ZEFSAII (Michael W. Deem and Ramdas Pophale) SiO2 
 PCOD9542560
Probable space group: P -4
;
_chemical_formula_sum "Si O2"
_cell_formula_units_Z 17
_cell_length_a 8.501237
_cell_length_b 8.501237
_cell_length_c 10.254918
_cell_angle_alpha 90.000000
_cell_angle_beta 90.000000
_cell_angle_gamma 90.000000
_cell_volume 741.133492
_symmetry_space_group_name_H-M "P -4"
_symmetry_group_IT_number 81
_symmetry_cell_setting 'tetragonal'
loop_
_space_group_symop_operation_xyz
x,y,z
y,-x,-z
-x,-y,z
-y,x,-z
loop_
_atom_site_type_symbol
_atom_site_label
_atom_site_fract_x
_atom_site_fract_y
_atom_site_fract_z
Si Si1 0.088486 0.246701 0.017124
Si Si2 0.399789 0.728260 0.758640
Si Si3 0.654691 0.105980 0.505265
Si Si4 0.000000 0.000000 0.500000
Si Si5 0.252880 0.387913 0.778389
O O1 0.133894 0.326824 0.153456
O O2 0.139968 0.355622 0.898586
O O3 0.910425 0.192663 0.001718
O O4 0.369400 0.753848 0.606283
O O5 0.310542 0.566947 0.789470
O O6 0.584649 0.710029 0.785218
O O7 0.654085 0.165058 0.356342
O O8 0.500000 0.000000 0.521449
O O9 0.817739 0.020998 0.547458
#
# Coordination Sequence:
#
# PCOD9542560 Si02
#       5
#     4   4   4   1   4
#     4  11  28  45  70 106 147 192 252 309 368 446
#     4  11  25  47  73 106 147 194 246 306 376 453
#     4  12  28  47  76 115 148 195 243 318 380 450
#     4  12  28  44  76 106 156 188 260 294 380 464
#     4  11  25  47  73 106 147 194 246 306 376 453
#
# _framework density 22.937839
#
# number of rings (size 3 to 8) (size 9 to 14) (size 15 to 20)
#    0.000    0.706    0.000    5.647   13.176    5.647 
#    0.000    0.000    0.000    0.000    0.000    0.000 
#    0.000    0.000    0.000    0.000    0.000    0.000 
#
# Total GULP energy -95106.911285 kJ/mol
# GULP energy per Si atom -5594.524193 kJ/mol
# Density = 2.288563 g / cm^3
# Si number density = 22.937839 Si / 1000 Ang^3
#
#
#
# Elastic Constant Matrix: (Units=GPa)
#
#
# Indices 1 2 3 4 5 6 
#
# 1 80.1668 38.6627 -1.2149 0.0000 0.0000 0.4551
# 2 38.6627 80.1668 -1.2149 0.0000 0.0000 -0.4551
# 3 -1.2149 -1.2149 87.0950 0.0000 0.0000 0.0000
# 4 0.0000 0.0000 0.0000 82.9413 0.0000 0.0000
# 5 0.0000 0.0000 0.0000 0.0000 82.9413 0.0000
# 6 0.4551 -0.4551 0.0000 0.0000 0.0000 30.2304
#
#
#
# Elastic Compliance Matrix: (Units=1/GPa)
#
#
# Indices 1 2 3 4 5 6 
#
# 1 0.016260 -0.007842 0.000117 0.000000 0.000000 -0.000363
# 2 -0.007842 0.016260 0.000117 0.000000 0.000000 0.000363
# 3 0.000117 0.000117 0.011485 0.000000 0.000000 0.000000
# 4 0.000000 0.000000 0.000000 0.012057 0.000000 0.000000
# 5 0.000000 0.000000 0.000000 0.000000 0.012057 0.000000
# 6 -0.000363 0.000363 0.000000 0.000000 0.000000 0.033090
#
#
# Mechanical properties :
#
#
# Convention : Reuss Voigt Hill
#
# Bulk Modulus (GPa) = 34.73391 35.54383 35.13887
# Shear Modulus (GPa) = 39.67639 53.30235 46.48937
#
# Velocity S-wave (km/s) = 4.16352 4.82578 4.50683
# Velocity P-wave (km/s) = 6.18779 6.82497 6.51418
#
# Compressibility (1/GPa) = 0.02879031
#
# Stress axis : x y z
#
# Youngs Moduli (GPa) = 61.50109 61.50109 87.07020
#
# Poissons Ratio (x) = 0.48230 -0.01022
# Poissons Ratio (y) = 0.48230 -0.01022
# Poissons Ratio (z) = -0.00722 -0.00722
#
# Static dielectric constant tensor:
#      x y z
#    x 1.747580 0.000000 0.000000 
#    y 0.000000 1.747580 0.000000 
#    z 0.000000 0.000000 1.784260 
# 
# From -- ./inp_files/1054.got.cif
#   From: 2010.05.17/outbox.cif.g08.bks.cpg/sg81_cif.got.tgz:1054.got - 2010.06.03 18:51:07.
