data_PCOD9542048
_publ_section_title
;
Structure prediction by ZEFSAII (Michael W. Deem and Ramdas Pophale) SiO2 
 PCOD9542048
Probable space group: I 4
;
_chemical_formula_sum "Si O2"
_cell_formula_units_Z 64
_cell_length_a 10.625252
_cell_length_b 10.625252
_cell_length_c 29.351650
_cell_angle_alpha 90.000000
_cell_angle_beta 90.000000
_cell_angle_gamma 90.000000
_cell_volume 3313.683293
_symmetry_space_group_name_H-M "I 4"
_symmetry_group_IT_number 79
_symmetry_cell_setting 'tetragonal'
loop_
_space_group_symop_operation_xyz
x,y,z
-y,x,z
-x,-y,z
y,-x,z
1/2+x,1/2+y,1/2+z
1/2-y,1/2+x,1/2+z
1/2-x,1/2-y,1/2+z
1/2+y,1/2-x,1/2+z
loop_
_atom_site_type_symbol
_atom_site_label
_atom_site_fract_x
_atom_site_fract_y
_atom_site_fract_z
Si Si1 0.407608 0.690245 0.155540
Si Si2 0.710022 0.470482 0.903594
Si Si3 0.615001 0.924964 0.731113
Si Si4 0.790866 0.037707 0.906282
Si Si5 0.029518 0.210022 0.803095
Si Si6 0.209134 0.962293 0.300406
Si Si7 0.592392 0.309755 0.051149
Si Si8 0.075036 0.615001 0.475575
O O1 0.339028 0.556423 0.161472
O O2 0.372381 0.790731 0.193338
O O3 0.387198 0.731362 0.103344
O O4 0.636039 0.603559 0.908378
O O5 0.760340 0.456751 0.852273
O O6 0.812653 0.476350 0.942611
O O7 0.687347 0.023650 0.764078
O O8 0.565436 0.815040 0.763839
O O9 0.500000 0.000000 0.709005
O O10 0.684960 0.065436 0.942850
O O11 0.902451 0.140953 0.910532
O O12 0.739660 0.043249 0.854416
O O13 0.136039 0.103559 0.798311
O O14 0.097549 0.859047 0.296156
O O15 0.660972 0.443576 0.045217
O O16 0.627619 0.209269 0.013351
O O17 0.000000 0.500000 0.497684
#
# Coordination Sequence:
#
# PCOD9542048 Si02
#       8
#     8   8   8   8   8   8   8   8
#     4   9  20  42  68  89 112 143 184 243 307 347
#     4   9  20  38  57  77 110 155 199 246 287 321
#     4  12  25  31  58  91 117 147 193 238 284 343
#     4   9  22  40  54  74 118 167 197 227 277 338
#     4   9  20  38  57  77 110 155 199 246 287 321
#     4   9  22  40  54  74 118 167 197 227 277 338
#     4   9  20  42  68  89 112 143 184 243 307 347
#     4  12  25  31  58  91 117 147 193 238 284 343
#
# _framework density 19.313856000000001
#
# number of rings (size 3 to 8) (size 9 to 14) (size 15 to 20)
#    0.000    2.250    0.000    3.750   10.500    4.500 
#    0.000    0.000    0.000    0.000    0.000    1.750 
#    0.000    0.000    0.000    0.000    0.000    0.000 
#
# Total GULP energy -178841.049783 kJ/mol
# GULP energy per Si atom -5588.782806 kJ/mol
# Density = 1.926990 g / cm^3
# Si number density = 19.313856 Si / 1000 Ang^3
#
#
#
# Elastic Constant Matrix: (Units=GPa)
#
#
# Indices 1 2 3 4 5 6 
#
# 1 38.0348 2.2186 25.0167 0.0000 0.0000 -2.3620
# 2 2.2186 38.0348 25.0167 0.0000 0.0000 2.3620
# 3 25.0167 25.0167 70.5771 0.0000 0.0000 0.0000
# 4 0.0000 0.0000 0.0000 -0.6372 0.0000 0.0000
# 5 0.0000 0.0000 0.0000 0.0000 -0.6372 0.0000
# 6 -2.3620 2.3620 0.0000 0.0000 0.0000 8.4288
#
#
#
# Elastic Compliance Matrix: (Units=1/GPa)
#
#
# Indices 1 2 3 4 5 6 
#
# 1 0.036700 0.007708 -0.015741 0.000000 0.000000 0.008124
# 2 0.007708 0.036700 -0.015741 0.000000 0.000000 -0.008124
# 3 -0.015741 -0.015741 0.025328 0.000000 0.000000 0.000000
# 4 0.000000 0.000000 0.000000 -1.569476 -0.000005 0.000000
# 5 0.000000 0.000000 0.000000 -0.000005 -1.569474 0.000000
# 6 0.008124 -0.008124 0.000000 0.000000 0.000000 0.123194
#
#
# Mechanical properties :
#
#
# Convention : Reuss Voigt Hill
#
# Bulk Modulus (GPa) = 19.53871 27.90563 23.72217
# Shear Modulus (GPa) = -1.75290 7.72387 2.98549
#
# Velocity S-wave (km/s) = -0.95371 2.00195 1.24464
# Velocity P-wave (km/s) = 2.98758 4.45237 3.79139
#
# Compressibility (1/GPa) = 0.05118045
#
# Stress axis : x y z
#
# Youngs Moduli (GPa) = 27.24801 27.24801 39.48219
#
# Poissons Ratio (x) = -0.21003 0.62148
# Poissons Ratio (y) = -0.21003 0.62148
# Poissons Ratio (z) = 0.42891 0.42891
#
# Static dielectric constant tensor:
#      x y z
#    x 1.691420 0.000000 0.000000 
#    y 0.000000 1.691420 0.000000 
#    z 0.000000 0.000000 1.651480 
# 
# From -- ./inp_files/2062.got.cif
#   From: 2010.05.17/outbox.cif.g08.bks.cpg/sg79_cif.got.tgz:2062.got - 2010.06.03 18:47:27.
