data_PCOD9542961
_publ_section_title
;
Structure prediction by ZEFSAII (Michael W. Deem and Ramdas Pophale) SiO2 
 PCOD9542961
Probable space group: I -4 
;
_chemical_formula_sum "Si O2"
_cell_formula_units_Z 34
_cell_length_a 7.458636
_cell_length_b 7.458636
_cell_length_c 28.699119
_cell_angle_alpha 90.000000
_cell_angle_beta 90.000000
_cell_angle_gamma 90.000000
_cell_volume 1596.567892
_symmetry_space_group_name_H-M "I -4 "
_symmetry_group_IT_number 82
_symmetry_cell_setting 'tetragonal'
loop_
_space_group_symop_operation_xyz
x,y,z
y,-x,-z
-x,-y,z
-y,x,-z
1/2+x,1/2+y,1/2+z
1/2+y,1/2-x,1/2-z
1/2-x,1/2-y,1/2+z
1/2-y,1/2+x,1/2-z
loop_
_atom_site_type_symbol
_atom_site_label
_atom_site_fract_x
_atom_site_fract_y
_atom_site_fract_z
Si Si1 0.766100 0.682630 0.107465
Si Si2 0.186359 0.718122 0.095299
Si Si3 0.500000 0.000000 0.250000
Si Si4 0.734333 0.315718 0.994154
Si Si5 0.282931 0.491816 0.671454
O O1 0.713636 0.472970 0.103092
O O2 0.715620 0.782893 0.059288
O O3 0.715948 0.798415 0.152257
O O4 0.981028 0.687846 0.108579
O O5 0.258147 0.869326 0.129511
O O6 0.179416 0.767299 0.040359
O O7 0.463979 0.170855 0.282903
O O8 0.527990 0.254782 0.997815
O O9 0.500000 0.500000 0.678595
#
# Coordination Sequence:
#
# PCOD9542961 Si02
#       5
#     8   8   2   8   8
#     4   9  19  36  57  85 122 162 197 243 302 365
#     4   9  19  36  57  85 122 162 197 243 302 365
#     4  12  28  44  68  96 108 164 220 260 324 350
#     4   9  18  30  49  84 122 160 199 234 293 360
#     4  10  24  44  62  90 122 152 210 262 306 365
#
# _framework density 21.295679
#
# number of rings (size 3 to 8) (size 9 to 14) (size 15 to 20)
#    0.000    2.588    0.000    0.000    6.588    1.882 
#    0.000    0.000    0.000    0.000    0.000    0.000 
#    0.000    0.000    0.000    0.000    0.000    0.000 
#
# Total GULP energy -94791.313153 kJ/mol
# GULP energy per Si atom -5575.959597 kJ/mol
# Density = 2.124721 g / cm^3
# Si number density = 21.295679 Si / 1000 Ang^3
#
#
#
# Elastic Constant Matrix: (Units=GPa)
#
#
# Indices 1 2 3 4 5 6 
#
# 1 41.9940 -0.4469 15.9053 0.0000 0.0000 -5.0756
# 2 -0.4469 41.9940 15.9053 0.0000 0.0000 5.0756
# 3 15.9053 15.9053 96.0236 0.0000 0.0000 0.0000
# 4 0.0000 0.0000 0.0000 26.0526 0.0000 0.0000
# 5 0.0000 0.0000 0.0000 0.0000 26.0526 0.0000
# 6 -5.0756 5.0756 0.0000 0.0000 0.0000 10.3336
#
#
#
# Elastic Compliance Matrix: (Units=1/GPa)
#
#
# Indices 1 2 3 4 5 6 
#
# 1 0.027132 0.000433 -0.004566 0.000000 0.000000 0.013114
# 2 0.000433 0.027132 -0.004566 0.000000 0.000000 -0.013114
# 3 -0.004566 -0.004566 0.011927 0.000000 0.000000 0.000000
# 4 0.000000 0.000000 0.000000 0.038384 0.000000 0.000000
# 5 0.000000 0.000000 0.000000 0.000000 0.038384 0.000000
# 6 0.013114 -0.013114 0.000000 0.000000 0.000000 0.109654
#
#
# Mechanical properties :
#
#
# Convention : Reuss Voigt Hill
#
# Bulk Modulus (GPa) = 20.49472 26.97100 23.73286
# Shear Modulus (GPa) = 17.46584 22.39765 19.93175
#
# Velocity S-wave (km/s) = 2.86695 3.24658 3.06265
# Velocity P-wave (km/s) = 4.53916 5.17168 4.86571
#
# Compressibility (1/GPa) = 0.04879306
#
# Stress axis : x y z
#
# Youngs Moduli (GPa) = 36.85709 36.85710 83.84578
#
# Poissons Ratio (x) = -0.01596 0.38282
# Poissons Ratio (y) = -0.01596 0.38282
# Poissons Ratio (z) = 0.16828 0.16828
#
# Static dielectric constant tensor:
#      x y z
#    x 1.825390 0.000000 0.000000 
#    y 0.000000 1.825390 0.000000 
#    z 0.000000 0.000000 1.749050 
# 
# From -- ./inp_files/2943.got.cif
#   From: 2010.05.17/outbox.cif.g08.bks.cpg/sg82_2_cif.got.tgz:2943.got - 2010.06.03 18:52:26.
