data_PCOD9542202
_publ_section_title
;
Structure prediction by ZEFSAII (Michael W. Deem and Ramdas Pophale) SiO2 
 PCOD9542202
Probable space group: I 41
;
_chemical_formula_sum "Si O2"
_cell_formula_units_Z 40
_cell_length_a 18.200053
_cell_length_b 18.200053
_cell_length_c 4.753719
_cell_angle_alpha 90.000000
_cell_angle_beta 90.000000
_cell_angle_gamma 90.000000
_cell_volume 1574.631052
_symmetry_space_group_name_H-M "I 41"
_symmetry_group_IT_number 80
_symmetry_cell_setting 'tetragonal'
loop_
_space_group_symop_operation_xyz
x,y,z
-y,1/2+x,1/4+z
-x,-y,z
y,1/2-x,1/4+z
1/2+x,1/2+y,1/2+z
1/2-y,x,3/4+z
1/2-x,1/2-y,1/2+z
1/2+y,-x,3/4+z
loop_
_atom_site_type_symbol
_atom_site_label
_atom_site_fract_x
_atom_site_fract_y
_atom_site_fract_z
Si Si1 0.906900 0.113966 0.152950
Si Si2 0.570615 0.603665 0.528704
Si Si3 0.135382 0.028987 0.506279
Si Si4 0.758241 0.636016 0.003603
Si Si5 0.345195 0.687524 0.120620
O O1 0.678797 0.091529 0.135672
O O2 0.881246 0.047704 0.356762
O O3 0.855125 0.138329 0.898231
O O4 0.983714 0.100911 0.993354
O O5 0.578606 0.582892 0.852223
O O6 0.606519 0.683222 0.481452
O O7 0.615307 0.545082 0.332403
O O8 0.214943 0.061763 0.421752
O O9 0.810372 0.690546 0.829941
O O10 0.336419 0.770391 0.220163
#
# Coordination Sequence:
#
# PCOD9542202 Si02
#       5
#     8   8   8   8   8
#     4  12  26  46  80 107 154 201 268 324 404 490
#     4  11  25  46  74 109 154 200 252 317 386 473
#     4  11  25  46  74 109 154 200 252 317 386 473
#     4  10  22  44  74 112 154 196 252 310 390 460
#     4  12  27  52  73 109 144 199 261 340 405 482
#
# _framework density 25.402774999999998
#
# number of rings (size 3 to 8) (size 9 to 14) (size 15 to 20)
#    0.000    0.800    0.000    6.600    2.800    6.400 
#   14.400    0.000    0.000    0.000    0.000    0.000 
#    0.000    0.000    0.000    0.000    0.000    0.000 
#
# Total GULP energy -111728.865675 kJ/mol
# GULP energy per Si atom -5586.443284 kJ/mol
# Density = 2.534496 g / cm^3
# Si number density = 25.402775 Si / 1000 Ang^3
#
#
#
# Elastic Constant Matrix: (Units=GPa)
#
#
# Indices 1 2 3 4 5 6 
#
# 1 151.1736 -31.5734 24.2963 0.0000 0.0000 -13.0182
# 2 -31.5734 151.1736 24.2963 0.0000 0.0000 13.0182
# 3 24.2963 24.2963 111.7176 0.0000 0.0000 0.0000
# 4 0.0000 0.0000 0.0000 41.4682 0.0000 0.0000
# 5 0.0000 0.0000 0.0000 0.0000 41.4682 0.0000
# 6 -13.0182 13.0182 0.0000 0.0000 0.0000 29.7062
#
#
#
# Elastic Compliance Matrix: (Units=1/GPa)
#
#
# Indices 1 2 3 4 5 6 
#
# 1 0.007504 0.001668 -0.001995 0.000000 0.000000 0.002558
# 2 0.001668 0.007504 -0.001995 0.000000 0.000000 -0.002558
# 3 -0.001995 -0.001995 0.009819 0.000000 0.000000 0.000000
# 4 0.000000 0.000000 0.000000 0.024115 0.000000 0.000000
# 5 0.000000 0.000000 0.000000 0.000000 0.024115 0.000000
# 6 0.002558 -0.002558 0.000000 0.000000 0.000000 0.035905
#
#
# Mechanical properties :
#
#
# Convention : Reuss Voigt Hill
#
# Bulk Modulus (GPa) = 49.54571 49.78923 49.66747
# Shear Modulus (GPa) = 41.55156 48.99823 45.27489
#
# Velocity S-wave (km/s) = 4.04878 4.39664 4.22629
# Velocity P-wave (km/s) = 6.43453 6.73916 6.58861
#
# Compressibility (1/GPa) = 0.02018338
#
# Stress axis : x y z
#
# Youngs Moduli (GPa) = 133.26186 133.26186 101.84624
#
# Poissons Ratio (x) = -0.22222 0.20315
# Poissons Ratio (y) = -0.22222 0.20315
# Poissons Ratio (z) = 0.26581 0.26581
#
# Static dielectric constant tensor:
#      x y z
#    x 2.082940 0.000000 0.000000 
#    y 0.000000 2.082940 0.000000 
#    z 0.000000 0.000000 1.999150 
# 
# From -- ./inp_files/236.got.cif
#   From: 2010.05.17/outbox.cif.g08.bks.cpg/sg80_cif.got.tgz:236.got - 2010.06.03 18:49:13.
