data_PCOD9542957
_publ_section_title
;
Structure prediction by ZEFSAII (Michael W. Deem and Ramdas Pophale) SiO2 
 PCOD9542957
Probable space group: I -4 
;
_chemical_formula_sum "Si O2"
_cell_formula_units_Z 34
_cell_length_a 8.797339
_cell_length_b 8.797339
_cell_length_c 19.523766
_cell_angle_alpha 90.000000
_cell_angle_beta 90.000000
_cell_angle_gamma 90.000000
_cell_volume 1511.006209
_symmetry_space_group_name_H-M "I -4 "
_symmetry_group_IT_number 82
_symmetry_cell_setting 'tetragonal'
loop_
_space_group_symop_operation_xyz
x,y,z
y,-x,-z
-x,-y,z
-y,x,-z
1/2+x,1/2+y,1/2+z
1/2+y,1/2-x,1/2-z
1/2-x,1/2-y,1/2+z
1/2-y,1/2+x,1/2-z
loop_
_atom_site_type_symbol
_atom_site_label
_atom_site_fract_x
_atom_site_fract_y
_atom_site_fract_z
Si Si1 0.313292 0.330896 0.172325
Si Si2 0.762133 0.211673 0.069059
Si Si3 0.168259 0.823882 0.706194
Si Si4 0.952696 0.337245 0.454591
Si Si5 0.500000 0.500000 0.500000
O O1 0.234037 0.204216 0.218411
O O2 0.493700 0.315431 0.181957
O O3 0.278292 0.501612 0.199648
O O4 0.250562 0.336458 0.095188
O O5 0.754092 0.219505 0.150640
O O6 0.750571 0.387589 0.044906
O O7 0.912500 0.125964 0.044518
O O8 0.622280 0.137009 0.028364
O O9 0.000000 0.500000 0.423969
#
# Coordination Sequence:
#
# PCOD9542957 Si02
#       5
#     8   8   8   8   2
#     4  10  24  42  67  96 132 179 225 279 336 410
#     4  11  24  43  67 100 130 178 224 288 339 409
#     4  10  24  44  65  97 133 176 227 279 339 404
#     4  11  23  43  70 101 135 181 227 283 348 412
#     4  12  24  40  64 100 136 164 228 286 344 404
#
# _framework density 22.501562
#
# number of rings (size 3 to 8) (size 9 to 14) (size 15 to 20)
#    0.000    1.412    2.353    1.412    6.588    6.588 
#    4.235    0.000    0.000    0.000    0.000    0.000 
#    0.000    0.000    0.000    0.000    0.000    0.000 
#
# Total GULP energy -95009.979098 kJ/mol
# GULP energy per Si atom -5588.822300 kJ/mol
# Density = 2.245035 g / cm^3
# Si number density = 22.501562 Si / 1000 Ang^3
#
#
#
# Elastic Constant Matrix: (Units=GPa)
#
#
# Indices 1 2 3 4 5 6 
#
# 1 59.1539 11.2450 27.3856 0.0000 0.0000 -0.4758
# 2 11.2450 59.1539 27.3856 0.0000 0.0000 0.4758
# 3 27.3856 27.3856 91.1712 0.0000 0.0000 0.0000
# 4 0.0000 0.0000 0.0000 28.9942 0.0000 0.0000
# 5 0.0000 0.0000 0.0000 0.0000 28.9942 0.0000
# 6 -0.4758 0.4758 0.0000 0.0000 0.0000 28.1150
#
#
#
# Elastic Compliance Matrix: (Units=1/GPa)
#
#
# Indices 1 2 3 4 5 6 
#
# 1 0.019708 -0.001172 -0.005568 0.000000 0.000000 0.000353
# 2 -0.001172 0.019708 -0.005568 0.000000 0.000000 -0.000353
# 3 -0.005568 -0.005568 0.014313 0.000000 0.000000 0.000000
# 4 0.000000 0.000000 0.000000 0.034490 0.000000 0.000000
# 5 0.000000 0.000000 0.000000 0.000000 0.034490 0.000000
# 6 0.000353 -0.000353 0.000000 0.000000 0.000000 0.035580
#
#
# Mechanical properties :
#
#
# Convention : Reuss Voigt Hill
#
# Bulk Modulus (GPa) = 34.34670 37.94571 36.14620
# Shear Modulus (GPa) = 25.95925 26.78487 26.37206
#
# Velocity S-wave (km/s) = 3.40025 3.45390 3.42718
# Velocity P-wave (km/s) = 5.54192 5.72766 5.63555
#
# Compressibility (1/GPa) = 0.02911488
#
# Stress axis : x y z
#
# Youngs Moduli (GPa) = 50.73995 50.73995 69.86494
#
# Poissons Ratio (x) = 0.05945 0.38901
# Poissons Ratio (y) = 0.05945 0.38901
# Poissons Ratio (z) = 0.28252 0.28252
#
# Static dielectric constant tensor:
#      x y z
#    x 1.864100 0.000000 0.000000 
#    y 0.000000 1.864100 0.000000 
#    z 0.000000 0.000000 1.797430 
# 
# From -- ./inp_files/2960.got.cif
#   From: 2010.05.17/outbox.cif.g08.bks.cpg/sg82_2_cif.got.tgz:2960.got - 2010.06.03 18:52:26.
