data_PCOD9542360
_publ_section_title
;
Structure prediction by ZEFSAII (Michael W. Deem and Ramdas Pophale) SiO2 
 PCOD9542360
Probable space group: P -4
;
_chemical_formula_sum "Si O2"
_cell_formula_units_Z 24
_cell_length_a 10.534447
_cell_length_b 10.534447
_cell_length_c 9.054454
_cell_angle_alpha 90.000000
_cell_angle_beta 90.000000
_cell_angle_gamma 90.000000
_cell_volume 1004.814172
_symmetry_space_group_name_H-M "P -4"
_symmetry_group_IT_number 81
_symmetry_cell_setting 'tetragonal'
loop_
_space_group_symop_operation_xyz
x,y,z
y,-x,-z
-x,-y,z
-y,x,-z
loop_
_atom_site_type_symbol
_atom_site_label
_atom_site_fract_x
_atom_site_fract_y
_atom_site_fract_z
Si Si1 0.676285 0.902220 0.650436
Si Si2 0.500000 0.500000 0.000000
Si Si3 0.000000 0.500000 0.795456
Si Si4 0.576806 0.686950 0.469583
Si Si5 0.408141 0.172937 0.946547
Si Si6 0.000000 0.000000 0.500000
Si Si7 0.932531 0.745713 0.601140
Si Si8 0.321116 0.347488 0.156670
O O1 0.576103 0.818575 0.557041
O O2 0.643215 0.920418 0.820681
O O3 0.796524 0.805777 0.638155
O O4 0.700388 0.032628 0.564885
O O5 0.464054 0.387180 0.107078
O O6 0.967154 0.625949 0.702057
O O7 0.888809 0.466667 0.908741
O O8 0.640860 0.567886 0.555688
O O9 0.660228 0.701928 0.321166
O O10 0.520074 0.247407 0.859335
O O11 0.292757 0.254065 0.020048
O O12 0.124405 0.017389 0.398053
#
# Coordination Sequence:
#
# PCOD9542360 Si02
#       8
#     4   1   2   4   4   1   4   4
#     4  11  24  44  67  99 134 186 235 297 350 438
#     4   8  16  28  50  72 108 156 210 244 316 376
#     4  12  26  42  68 110 142 180 234 320 370 414
#     4  11  22  34  59  97 134 176 231 277 350 430
#     4  11  24  41  63  96 146 186 233 285 380 429
#     4   8  20  52  76 102 136 204 244 290 356 468
#     4  10  24  45  74  99 139 183 249 296 362 418
#     4  10  20  35  56  84 129 180 213 273 337 443
#
# _framework density 23.885014000000002
#
# number of rings (size 3 to 8) (size 9 to 14) (size 15 to 20)
#    0.000    1.500    1.667    3.000    9.333    2.000 
#    0.000    6.667    0.000    1.000    0.000    0.000 
#    0.000    0.000    0.000    0.000    0.000    0.000 
#
# Total GULP energy -133788.370228 kJ/mol
# GULP energy per Si atom -5574.515426 kJ/mol
# Density = 2.383065 g / cm^3
# Si number density = 23.885014 Si / 1000 Ang^3
#
#
#
# Elastic Constant Matrix: (Units=GPa)
#
#
# Indices 1 2 3 4 5 6 
#
# 1 88.3966 12.7614 32.1577 0.0000 0.0000 -2.0107
# 2 12.7614 88.3966 32.1577 0.0000 0.0000 2.0107
# 3 32.1577 32.1577 155.2501 0.0000 0.0000 0.0000
# 4 0.0000 0.0000 0.0000 26.0805 0.0000 0.0000
# 5 0.0000 0.0000 0.0000 0.0000 26.0805 0.0000
# 6 -2.0107 2.0107 0.0000 0.0000 0.0000 30.9080
#
#
#
# Elastic Compliance Matrix: (Units=1/GPa)
#
#
# Indices 1 2 3 4 5 6 
#
# 1 0.012326 -0.000941 -0.002358 0.000000 0.000000 0.000863
# 2 -0.000941 0.012326 -0.002358 0.000000 0.000000 -0.000863
# 3 -0.002358 -0.002358 0.007418 0.000000 0.000000 0.000000
# 4 0.000000 0.000000 0.000000 0.038343 0.000000 0.000000
# 5 0.000000 0.000000 0.000000 0.000000 0.038343 0.000000
# 6 0.000863 -0.000863 0.000000 0.000000 0.000000 0.032466
#
#
# Mechanical properties :
#
#
# Convention : Reuss Voigt Hill
#
# Bulk Modulus (GPa) = 48.18102 54.02186 51.10144
# Shear Modulus (GPa) = 31.35666 33.61158 32.48412
#
# Velocity S-wave (km/s) = 3.62721 3.75537 3.69185
# Velocity P-wave (km/s) = 6.14476 6.43974 6.29398
#
# Compressibility (1/GPa) = 0.02075506
#
# Stress axis : x y z
#
# Youngs Moduli (GPa) = 81.12906 81.12906 134.80458
#
# Poissons Ratio (x) = 0.07636 0.31790
# Poissons Ratio (y) = 0.07636 0.31790
# Poissons Ratio (z) = 0.19132 0.19132
#
# Static dielectric constant tensor:
#      x y z
#    x 2.087580 0.000000 0.000000 
#    y 0.000000 2.087580 0.000000 
#    z 0.000000 0.000000 1.955270 
# 
# From -- ./inp_files/901.got.cif
#   From: 2010.05.17/outbox.cif.g08.bks.cpg/sg81_cif.got.tgz:901.got - 2010.06.03 18:51:07.
