data_PCOD9542537
_publ_section_title
;
Structure prediction by ZEFSAII (Michael W. Deem and Ramdas Pophale) SiO2 
 PCOD9542537
Probable space group: P -4
;
_chemical_formula_sum "Si O2"
_cell_formula_units_Z 18
_cell_length_a 10.242700
_cell_length_b 10.242700
_cell_length_c 6.509316
_cell_angle_alpha 90.000000
_cell_angle_beta 90.000000
_cell_angle_gamma 90.000000
_cell_volume 682.911240
_symmetry_space_group_name_H-M "P -4"
_symmetry_group_IT_number 81
_symmetry_cell_setting 'tetragonal'
loop_
_space_group_symop_operation_xyz
x,y,z
y,-x,-z
-x,-y,z
-y,x,-z
loop_
_atom_site_type_symbol
_atom_site_label
_atom_site_fract_x
_atom_site_fract_y
_atom_site_fract_z
Si Si1 0.394646 0.358399 0.876777
Si Si2 0.000000 0.500000 0.167954
Si Si3 0.791105 0.436353 0.496990
Si Si4 0.828964 0.918683 0.416029
Si Si5 0.126843 0.332438 0.821642
O O1 0.452537 0.337209 0.649146
O O2 0.265382 0.272576 0.884470
O O3 0.342078 0.502757 0.939559
O O4 0.102594 0.561443 0.318490
O O5 0.069559 0.400616 0.018719
O O6 0.809900 0.287285 0.577895
O O7 0.836725 0.555031 0.647953
O O8 0.971899 0.852440 0.399608
O O9 0.771011 0.022480 0.255281
#
# Coordination Sequence:
#
# PCOD9542537 Si02
#       5
#     4   2   4   4   4
#     4  11  26  46  71 112 146 194 259 320 382 461
#     4  12  22  44  74 104 144 200 262 294 398 486
#     4  12  24  46  76 105 150 211 249 322 404 472
#     4  11  23  44  74 110 143 191 266 312 380 473
#     4  12  24  46  76 105 150 211 249 322 404 472
#
# _framework density 26.357745999999999
#
# number of rings (size 3 to 8) (size 9 to 14) (size 15 to 20)
#    0.000    0.444    8.889    0.000    0.000    3.556 
#   12.000    0.000    0.000    2.667    0.000    0.000 
#    0.000    0.000    0.000    0.000    0.000    0.000 
#
# Total GULP energy -100354.489937 kJ/mol
# GULP energy per Si atom -5575.249441 kJ/mol
# Density = 2.629775 g / cm^3
# Si number density = 26.357746 Si / 1000 Ang^3
#
#
#
# Elastic Constant Matrix: (Units=GPa)
#
#
# Indices 1 2 3 4 5 6 
#
# 1 108.3519 -13.2896 26.5061 0.0000 0.0000 6.9363
# 2 -13.2896 108.3519 26.5061 0.0000 0.0000 -6.9363
# 3 26.5061 26.5061 59.4889 0.0000 0.0000 0.0000
# 4 0.0000 0.0000 0.0000 77.2302 0.0000 0.0000
# 5 0.0000 0.0000 0.0000 0.0000 77.2302 0.0000
# 6 6.9363 -6.9363 0.0000 0.0000 0.0000 47.8868
#
#
#
# Elastic Compliance Matrix: (Units=1/GPa)
#
#
# Indices 1 2 3 4 5 6 
#
# 1 0.011178 0.002819 -0.006237 0.000000 0.000000 -0.001211
# 2 0.002819 0.011178 -0.006237 0.000000 0.000000 0.001211
# 3 -0.006237 -0.006237 0.022368 0.000000 0.000000 0.000000
# 4 0.000000 0.000000 0.000000 0.012948 0.000000 0.000000
# 5 0.000000 0.000000 0.000000 0.000000 0.012948 0.000000
# 6 -0.001211 0.001211 0.000000 0.000000 0.000000 0.021233
#
#
# Mechanical properties :
#
#
# Convention : Reuss Voigt Hill
#
# Bulk Modulus (GPa) = 39.34620 39.51534 39.43077
# Shear Modulus (GPa) = 41.79404 56.23409 49.01406
#
# Velocity S-wave (km/s) = 3.98634 4.62399 4.31695
# Velocity P-wave (km/s) = 6.01232 6.59794 6.31193
#
# Compressibility (1/GPa) = 0.02541542
#
# Stress axis : x y z
#
# Youngs Moduli (GPa) = 89.46002 89.46002 44.70749
#
# Poissons Ratio (x) = -0.25221 0.27883
# Poissons Ratio (y) = -0.25221 0.27883
# Poissons Ratio (z) = 0.55794 0.55794
#
# Static dielectric constant tensor:
#      x y z
#    x 1.923560 0.000000 0.000000 
#    y 0.000000 1.923560 0.000000 
#    z 0.000000 0.000000 2.025420 
# 
# From -- ./inp_files/189.got.cif
#   From: 2010.05.17/outbox.cif.g08.bks.cpg/sg81_cif.got.tgz:189.got - 2010.06.03 18:51:07.
