data_PCOD9542210
_publ_section_title
;
Structure prediction by ZEFSAII (Michael W. Deem and Ramdas Pophale) SiO2 
 PCOD9542210
Probable space group: I 41
;
_chemical_formula_sum "Si O2"
_cell_formula_units_Z 52
_cell_length_a 17.445272
_cell_length_b 17.445272
_cell_length_c 9.115473
_cell_angle_alpha 90.000000
_cell_angle_beta 90.000000
_cell_angle_gamma 90.000000
_cell_volume 2774.180402
_symmetry_space_group_name_H-M "I 41"
_symmetry_group_IT_number 80
_symmetry_cell_setting 'tetragonal'
loop_
_space_group_symop_operation_xyz
x,y,z
-y,1/2+x,1/4+z
-x,-y,z
y,1/2-x,1/4+z
1/2+x,1/2+y,1/2+z
1/2-y,x,3/4+z
1/2-x,1/2-y,1/2+z
1/2+y,-x,3/4+z
loop_
_atom_site_type_symbol
_atom_site_label
_atom_site_fract_x
_atom_site_fract_y
_atom_site_fract_z
Si Si1 0.564481 0.130118 0.584210
Si Si2 0.057460 0.180074 0.159816
Si Si3 0.442539 0.180074 0.829193
Si Si4 0.064481 0.869883 0.404798
Si Si5 0.451250 0.776565 0.081961
Si Si6 0.723433 0.048750 0.657047
Si Si7 0.000000 0.500000 0.869503
O O1 0.512034 0.154810 0.721768
O O2 0.642399 0.091735 0.642312
O O3 0.588497 0.204955 0.489663
O O4 0.514230 0.072557 0.480047
O O5 0.110248 0.110248 0.119506
O O6 0.097688 0.250000 0.244504
O O7 0.987965 0.154810 0.267239
O O8 0.024475 0.210261 0.007585
O O9 0.475526 0.210263 0.981422
O O10 0.142400 0.908267 0.346699
O O11 0.088499 0.795046 0.499344
O O12 0.014229 0.927443 0.508960
O O13 0.470377 0.749999 0.244504
#
# Coordination Sequence:
#
# PCOD9542210 Si02
#       7
#     8   8   8   8   8   8   4
#     4  11  23  38  64  91 128 167 216 268 327 401
#     4  10  23  42  65  91 126 166 216 274 330 395
#     4  10  23  42  65  91 126 166 216 274 330 395
#     4  11  23  38  64  91 128 167 216 268 327 401
#     4  11  21  41  59  93 128 165 212 267 326 392
#     4  11  21  41  59  93 128 165 212 267 326 392
#     4  12  20  36  66  88 116 164 218 260 318 380
#
# _framework density 18.744274999999998
#
# number of rings (size 3 to 8) (size 9 to 14) (size 15 to 20)
#    0.000    1.231    3.077    2.769    0.000    1.231 
#    0.000   18.462    0.000    0.000    0.000    0.000 
#    0.000    0.000    0.000    0.000    0.000    0.000 
#
# Total GULP energy -144945.286603 kJ/mol
# GULP energy per Si atom -5574.818715 kJ/mol
# Density = 1.870161 g / cm^3
# Si number density = 18.744275 Si / 1000 Ang^3
#
#
#
# Elastic Constant Matrix: (Units=GPa)
#
#
# Indices 1 2 3 4 5 6 
#
# 1 66.2987 32.9959 29.1260 0.0000 0.0000 0.0006
# 2 32.9959 66.2987 29.1260 0.0000 0.0000 -0.0006
# 3 29.1260 29.1260 99.1847 0.0000 0.0000 0.0000
# 4 0.0000 0.0000 0.0000 26.0718 0.0000 0.0000
# 5 0.0000 0.0000 0.0000 0.0000 26.0718 0.0000
# 6 0.0006 -0.0006 0.0000 0.0000 0.0000 102.1869
#
#
#
# Elastic Compliance Matrix: (Units=1/GPa)
#
#
# Indices 1 2 3 4 5 6 
#
# 1 0.021097 -0.008930 -0.003573 0.000000 0.000000 0.000000
# 2 -0.008930 0.021097 -0.003573 0.000000 0.000000 0.000000
# 3 -0.003573 -0.003573 0.012181 0.000000 0.000000 0.000000
# 4 0.000000 0.000000 0.000000 0.038356 0.000000 0.000000
# 5 0.000000 0.000000 0.000000 0.000000 0.038356 0.000000
# 6 0.000000 0.000000 0.000000 0.000000 0.000000 0.009786
#
#
# Mechanical properties :
#
#
# Convention : Reuss Voigt Hill
#
# Bulk Modulus (GPa) = 44.99811 46.03087 45.51449
# Shear Modulus (GPa) = 27.71122 40.23505 33.97314
#
# Velocity S-wave (km/s) = 3.84915 4.63809 4.26191
# Velocity P-wave (km/s) = 6.61914 7.30021 6.96800
#
# Compressibility (1/GPa) = 0.02222316
#
# Stress axis : x y z
#
# Youngs Moduli (GPa) = 47.39940 47.39940 82.09777
#
# Poissons Ratio (x) = 0.42329 0.29333
# Poissons Ratio (y) = 0.42329 0.29333
# Poissons Ratio (z) = 0.16935 0.16935
#
# Static dielectric constant tensor:
#      x y z
#    x 1.700730 0.000000 0.000000 
#    y 0.000000 1.700730 0.000000 
#    z 0.000000 0.000000 1.649610 
# 
# From -- ./inp_files/698.got.cif
#   From: 2010.05.17/outbox.cif.g08.bks.cpg/sg80_cif.got.tgz:698.got - 2010.06.03 18:49:13.
