data_PCOD9542701
_publ_section_title
;
Structure prediction by ZEFSAII (Michael W. Deem and Ramdas Pophale) SiO2 
 PCOD9542701
Probable space group: I -4 
;
_chemical_formula_sum "Si O2"
_cell_formula_units_Z 56
_cell_length_a 12.008171
_cell_length_b 12.008171
_cell_length_c 22.043559
_cell_angle_alpha 90.000000
_cell_angle_beta 90.000000
_cell_angle_gamma 90.000000
_cell_volume 3178.596798
_symmetry_space_group_name_H-M "I -4 "
_symmetry_group_IT_number 82
_symmetry_cell_setting 'tetragonal'
loop_
_space_group_symop_operation_xyz
x,y,z
y,-x,-z
-x,-y,z
-y,x,-z
1/2+x,1/2+y,1/2+z
1/2+y,1/2-x,1/2-z
1/2-x,1/2-y,1/2+z
1/2-y,1/2+x,1/2-z
loop_
_atom_site_type_symbol
_atom_site_label
_atom_site_fract_x
_atom_site_fract_y
_atom_site_fract_z
Si Si1 0.744484 0.741100 0.337609
Si Si2 0.872441 0.369412 0.766741
Si Si3 0.059335 0.882691 0.090785
Si Si4 0.851399 0.605174 0.937356
Si Si5 0.288430 0.641034 0.472065
Si Si6 0.142134 0.388088 0.590793
Si Si7 0.562816 0.898224 0.796963
O O1 0.706548 0.794114 0.274420
O O2 0.663325 0.640145 0.357612
O O3 0.728711 0.834559 0.389150
O O4 0.867679 0.690221 0.332959
O O5 0.849389 0.498877 0.751600
O O6 0.860842 0.350933 0.838150
O O7 0.961017 0.796862 0.074369
O O8 0.135990 0.892432 0.030517
O O9 0.000000 0.000000 0.103630
O O10 0.840122 0.472937 0.935987
O O11 0.978099 0.632229 0.915743
O O12 0.838372 0.665922 0.001626
O O13 0.341753 0.750903 0.443537
O O14 0.466574 0.856825 0.750414
O O15 0.500000 0.000000 0.831698
#
# Coordination Sequence:
#
# PCOD9542701 Si02
#       7
#     8   8   8   8   8   8   8
#     4  11  19  34  60  85 116 161 190 241 307 359
#     4  11  20  35  53  89 125 158 192 238 297 371
#     4  11  20  33  54  88 122 144 193 261 310 347
#     4  10  20  34  59  89 116 154 199 242 301 361
#     4  11  19  36  57  85 118 152 193 255 302 351
#     4  11  20  37  58  87 125 152 195 249 299 361
#     4   6  17  38  54  71 106 157 186 244 278 343
#
# _framework density 17.617837000000002
#
# number of rings (size 3 to 8) (size 9 to 14) (size 15 to 20)
#    0.857    1.000    5.714    1.714    0.000    1.143 
#    0.000    2.857    0.000    0.429    0.000    0.000 
#    0.000    0.000    0.000    0.000    0.000    0.000 
#
# Total GULP energy -155993.062237 kJ/mol
# GULP energy per Si atom -5571.180794 kJ/mol
# Density = 1.757774 g / cm^3
# Si number density = 17.617837 Si / 1000 Ang^3
#
#
#
# Elastic Constant Matrix: (Units=GPa)
#
#
# Indices 1 2 3 4 5 6 
#
# 1 60.9258 3.6813 4.0002 0.0000 0.0000 -1.1508
# 2 3.6813 60.9258 4.0002 0.0000 0.0000 1.1508
# 3 4.0002 4.0002 29.9437 0.0000 0.0000 0.0000
# 4 0.0000 0.0000 0.0000 11.7980 0.0000 0.0000
# 5 0.0000 0.0000 0.0000 0.0000 11.7980 0.0000
# 6 -1.1508 1.1508 0.0000 0.0000 0.0000 29.0995
#
#
#
# Elastic Compliance Matrix: (Units=1/GPa)
#
#
# Indices 1 2 3 4 5 6 
#
# 1 0.016618 -0.000879 -0.002103 0.000000 0.000000 0.000692
# 2 -0.000879 0.016618 -0.002103 0.000000 0.000000 -0.000692
# 3 -0.002103 -0.002103 0.033958 0.000000 0.000000 0.000000
# 4 0.000000 0.000000 0.000000 0.084760 0.000000 0.000000
# 5 0.000000 0.000000 0.000000 0.000000 0.084760 0.000000
# 6 0.000692 -0.000692 0.000000 0.000000 0.000000 0.034420
#
#
# Mechanical properties :
#
#
# Convention : Reuss Voigt Hill
#
# Bulk Modulus (GPa) = 17.53626 19.46209 18.49917
# Shear Modulus (GPa) = 16.64948 19.88000 18.26474
#
# Velocity S-wave (km/s) = 3.07748 3.36281 3.22330
# Velocity P-wave (km/s) = 4.75427 5.11359 4.93720
#
# Compressibility (1/GPa) = 0.05702471
#
# Stress axis : x y z
#
# Youngs Moduli (GPa) = 60.17705 60.17705 29.44837
#
# Poissons Ratio (x) = 0.05290 0.06192
# Poissons Ratio (y) = 0.05290 0.06192
# Poissons Ratio (z) = 0.12652 0.12652
#
# Static dielectric constant tensor:
#      x y z
#    x 1.606560 0.000000 0.000000 
#    y 0.000000 1.606560 0.000000 
#    z 0.000000 0.000000 1.606920 
# 
# From -- ./inp_files/3127.got.cif
#   From: 2010.05.17/outbox.cif.g08.bks.cpg/sg82_2_cif.got.tgz:3127.got - 2010.06.03 18:52:26.
