data_PCOD9542154
_publ_section_title
;
Structure prediction by ZEFSAII (Michael W. Deem and Ramdas Pophale) SiO2 
 PCOD9542154
Probable space group: I 41
;
_chemical_formula_sum "Si O2"
_cell_formula_units_Z 40
_cell_length_a 8.198757
_cell_length_b 8.198757
_cell_length_c 24.708679
_cell_angle_alpha 90.000000
_cell_angle_beta 90.000000
_cell_angle_gamma 90.000000
_cell_volume 1660.907923
_symmetry_space_group_name_H-M "I 41"
_symmetry_group_IT_number 80
_symmetry_cell_setting 'tetragonal'
loop_
_space_group_symop_operation_xyz
x,y,z
-y,1/2+x,1/4+z
-x,-y,z
y,1/2-x,1/4+z
1/2+x,1/2+y,1/2+z
1/2-y,x,3/4+z
1/2-x,1/2-y,1/2+z
1/2+y,-x,3/4+z
loop_
_atom_site_type_symbol
_atom_site_label
_atom_site_fract_x
_atom_site_fract_y
_atom_site_fract_z
Si Si1 0.104952 0.337033 0.906650
Si Si2 0.741891 0.085303 0.991249
Si Si3 0.109471 0.680774 0.124526
Si Si4 0.677762 0.457057 0.834902
Si Si5 0.420369 0.265892 0.518582
O O1 0.214684 0.392888 0.855791
O O2 0.000000 0.500000 0.912254
O O3 0.998424 0.177865 0.891187
O O4 0.172230 0.319701 0.968153
O O5 0.726672 0.045596 0.928075
O O6 0.585400 0.160122 0.020996
O O7 0.897635 0.205168 0.993561
O O8 0.815719 0.931377 0.024239
O O9 0.282164 0.763791 0.107489
O O10 0.982312 0.695633 0.075300
O O11 0.500000 0.500000 0.855870
#
# Coordination Sequence:
#
# PCOD9542154 Si02
#       5
#     8   8   8   8   8
#     4   9  19  39  62  93 133 170 219 270 339 407
#     4   9  19  38  60  91 127 166 217 271 334 398
#     4   9  19  40  68  90 130 174 218 283 333 402
#     4  10  21  40  59  92 137 170 218 269 335 420
#     4   9  18  37  63  94 121 163 223 273 329 393
#
# _framework density 24.083210999999999
#
# number of rings (size 3 to 8) (size 9 to 14) (size 15 to 20)
#    0.000    2.800    0.000    0.000    0.000    1.600 
#   21.600    7.000    0.000    0.000    0.000    0.000 
#    0.000    0.000    0.000    0.000    0.000    0.000 
#
# Total GULP energy -111350.686003 kJ/mol
# GULP energy per Si atom -5567.534300 kJ/mol
# Density = 2.402840 g / cm^3
# Si number density = 24.083211 Si / 1000 Ang^3
#
#
#
# Elastic Constant Matrix: (Units=GPa)
#
#
# Indices 1 2 3 4 5 6 
#
# 1 61.3553 28.9016 64.5418 0.0000 0.0000 -9.0336
# 2 28.9016 61.3553 64.5418 0.0000 0.0000 9.0336
# 3 64.5418 64.5418 228.3281 0.0000 0.0000 0.0000
# 4 0.0000 0.0000 0.0000 22.3177 0.0000 0.0000
# 5 0.0000 0.0000 0.0000 0.0000 22.3177 0.0000
# 6 -9.0336 9.0336 0.0000 0.0000 0.0000 41.1144
#
#
#
# Elastic Compliance Matrix: (Units=1/GPa)
#
#
# Indices 1 2 3 4 5 6 
#
# 1 0.026853 -0.008255 -0.005257 0.000000 0.000000 0.007714
# 2 -0.008255 0.026853 -0.005257 0.000000 0.000000 -0.007714
# 3 -0.005257 -0.005257 0.007352 0.000000 0.000000 0.000000
# 4 0.000000 0.000000 0.000000 0.044808 0.000000 0.000000
# 5 0.000000 0.000000 0.000000 0.000000 0.044808 0.000000
# 6 0.007714 -0.007714 0.000000 0.000000 0.000000 0.027712
#
#
# Mechanical properties :
#
#
# Convention : Reuss Voigt Hill
#
# Bulk Modulus (GPa) = 42.51805 74.11215 58.31510
# Shear Modulus (GPa) = 22.34515 30.02018 26.18266
#
# Velocity S-wave (km/s) = 3.04934 3.53444 3.30081
# Velocity P-wave (km/s) = 5.48552 6.89177 6.22846
#
# Compressibility (1/GPa) = 0.02351942
#
# Stress axis : x y z
#
# Youngs Moduli (GPa) = 37.24008 37.24008 136.02178
#
# Poissons Ratio (x) = 0.30740 0.71509
# Poissons Ratio (y) = 0.30740 0.71509
# Poissons Ratio (z) = 0.19578 0.19578
#
# Static dielectric constant tensor:
#      x y z
#    x 2.034470 0.000000 0.000000 
#    y 0.000000 2.034470 0.000000 
#    z 0.000000 0.000000 2.020860 
# 
# From -- ./inp_files/2003.got.cif
#   From: 2010.05.17/outbox.cif.g08.bks.cpg/sg80_cif.got.tgz:2003.got - 2010.06.03 18:49:13.
