data_PCOD9542604
_publ_section_title
;
Structure prediction by ZEFSAII (Michael W. Deem and Ramdas Pophale) SiO2 
 PCOD9542604
Probable space group: P -4
;
_chemical_formula_sum "Si O2"
_cell_formula_units_Z 16
_cell_length_a 8.430588
_cell_length_b 8.430588
_cell_length_c 8.628006
_cell_angle_alpha 90.000000
_cell_angle_beta 90.000000
_cell_angle_gamma 90.000000
_cell_volume 613.233922
_symmetry_space_group_name_H-M "P -4"
_symmetry_group_IT_number 81
_symmetry_cell_setting 'tetragonal'
loop_
_space_group_symop_operation_xyz
x,y,z
y,-x,-z
-x,-y,z
-y,x,-z
loop_
_atom_site_type_symbol
_atom_site_label
_atom_site_fract_x
_atom_site_fract_y
_atom_site_fract_z
Si Si1 0.500000 0.000000 0.362349
Si Si2 0.073718 0.705994 0.346074
Si Si3 0.099049 0.341158 0.037904
Si Si4 0.000000 0.000000 0.500000
Si Si5 0.405145 0.664009 0.197888
Si Si6 0.000000 0.000000 0.000000
O O1 0.635033 0.963494 0.488200
O O2 0.471830 0.830278 0.274166
O O3 0.185476 0.970213 0.050016
O O4 0.233508 0.636903 0.275539
O O5 0.092802 0.888320 0.383556
O O6 0.276522 0.367812 0.977732
O O7 0.000000 0.500000 0.006464
O O8 0.065928 0.309276 0.219297
O O9 0.500000 0.500000 0.217099
#
# Coordination Sequence:
#
# PCOD9542604 Si02
#       6
#     2   4   4   1   4   1
#     4  12  28  54  84 124 184 222 304 378 454 552
#     4  12  27  51  87 129 174 238 304 383 467 556
#     4  12  27  54  86 127 179 241 302 377 459 545
#     4  12  26  48  94 132 170 240 302 388 474 552
#     4  12  30  55  86 133 183 243 307 385 458 561
#     4  12  26  52  88 126 166 224 304 382 442 556
#
# _framework density 26.091182
#
# number of rings (size 3 to 8) (size 9 to 14) (size 15 to 20)
#    0.000    0.000    7.500    0.750    3.500    2.000 
#    0.000    1.250    0.000    0.000    0.000    0.000 
#    0.000    0.000    0.000    0.000    0.000    0.000 
#
# Total GULP energy -89329.702608 kJ/mol
# GULP energy per Si atom -5583.106413 kJ/mol
# Density = 2.603180 g / cm^3
# Si number density = 26.091182 Si / 1000 Ang^3
#
#
#
# Elastic Constant Matrix: (Units=GPa)
#
#
# Indices 1 2 3 4 5 6 
#
# 1 190.8970 78.0392 59.5819 0.0000 0.0000 4.6421
# 2 78.0392 190.8970 59.5819 0.0000 0.0000 -4.6421
# 3 59.5819 59.5819 142.2060 0.0000 0.0000 0.0000
# 4 0.0000 0.0000 0.0000 33.2745 0.0000 0.0000
# 5 0.0000 0.0000 0.0000 0.0000 33.2745 0.0000
# 6 4.6421 -4.6421 0.0000 0.0000 0.0000 48.9851
#
#
#
# Elastic Compliance Matrix: (Units=1/GPa)
#
#
# Indices 1 2 3 4 5 6 
#
# 1 0.006748 -0.002182 -0.001913 0.000000 0.000000 -0.000846
# 2 -0.002182 0.006748 -0.001913 0.000000 0.000000 0.000846
# 3 -0.001913 -0.001913 0.008635 0.000000 0.000000 0.000000
# 4 0.000000 0.000000 0.000000 0.030053 0.000000 0.000000
# 5 0.000000 0.000000 0.000000 0.000000 0.030053 0.000000
# 6 -0.000846 0.000846 0.000000 0.000000 0.000000 0.020575
#
#
# Mechanical properties :
#
#
# Convention : Reuss Voigt Hill
#
# Bulk Modulus (GPa) = 98.86443 102.04511 100.45477
# Shear Modulus (GPa) = 42.30094 44.89328 43.59711
#
# Velocity S-wave (km/s) = 4.03087 4.15255 4.09216
# Velocity P-wave (km/s) = 7.72257 7.88590 7.80466
#
# Compressibility (1/GPa) = 0.01011486
#
# Stress axis : x y z
#
# Youngs Moduli (GPa) = 148.18815 148.18815 115.80564
#
# Poissons Ratio (x) = 0.32337 0.22155
# Poissons Ratio (y) = 0.32337 0.22155
# Poissons Ratio (z) = 0.28350 0.28350
#
# Static dielectric constant tensor:
#      x y z
#    x 1.947870 0.000000 0.000000 
#    y 0.000000 1.947870 0.000000 
#    z 0.000000 0.000000 2.123960 
# 
# From -- ./inp_files/1016.got.cif
#   From: 2010.05.17/outbox.cif.g08.bks.cpg/sg81_cif.got.tgz:1016.got - 2010.06.03 18:51:07.
