data_PCOD9542922
_publ_section_title
;
Structure prediction by ZEFSAII (Michael W. Deem and Ramdas Pophale) SiO2 
 PCOD9542922
Probable space group: I -4 
;
_chemical_formula_sum "Si O2"
_cell_formula_units_Z 48
_cell_length_a 9.215039
_cell_length_b 9.215039
_cell_length_c 26.761554
_cell_angle_alpha 90.000000
_cell_angle_beta 90.000000
_cell_angle_gamma 90.000000
_cell_volume 2272.509376
_symmetry_space_group_name_H-M "I -4 "
_symmetry_group_IT_number 82
_symmetry_cell_setting 'tetragonal'
loop_
_space_group_symop_operation_xyz
x,y,z
y,-x,-z
-x,-y,z
-y,x,-z
1/2+x,1/2+y,1/2+z
1/2+y,1/2-x,1/2-z
1/2-x,1/2-y,1/2+z
1/2-y,1/2+x,1/2-z
loop_
_atom_site_type_symbol
_atom_site_label
_atom_site_fract_x
_atom_site_fract_y
_atom_site_fract_z
Si Si1 0.425801 0.338168 0.210523
Si Si2 0.213577 0.917520 0.081466
Si Si3 0.317767 0.212582 0.315014
Si Si4 0.500000 0.500000 0.000000
Si Si5 0.498592 0.831072 0.840422
Si Si6 0.000000 0.000000 0.000000
Si Si7 0.000000 0.500000 0.532370
Si Si8 0.093284 0.283048 0.448121
O O1 0.500000 0.500000 0.216118
O O2 0.383597 0.264400 0.262814
O O3 0.540246 0.225606 0.184728
O O4 0.275118 0.376461 0.182204
O O5 0.218810 0.920033 0.141468
O O6 0.377696 0.937080 0.066761
O O7 0.169582 0.753942 0.067619
O O8 0.128339 0.016379 0.041042
O O9 0.157094 0.277794 0.323173
O O10 0.616523 0.420939 0.035388
O O11 0.492658 0.814264 0.900501
O O12 0.500000 0.000000 0.826775
O O13 0.051921 0.374561 0.495846
#
# Coordination Sequence:
#
# PCOD9542922 Si02
#       8
#     8   8   8   2   8   2   4   8
#     4  10  24  44  68 102 138 179 229 284 341 414
#     4  11  25  42  65  98 133 179 225 279 336 406
#     4  10  25  45  67  96 142 176 230 282 348 403
#     4  12  24  36  72  90 140 176 216 276 340 394
#     4  10  23  40  70 100 134 178 230 280 333 404
#     4  12  24  44  68  98 140 176 228 280 344 406
#     4  12  22  42  62  95 131 176 224 268 332 404
#     4  11  23  40  62  99 133 175 222 272 334 403
#
# _framework density 21.122025000000001
#
# number of rings (size 3 to 8) (size 9 to 14) (size 15 to 20)
#    0.000    1.333    4.167    0.000   11.667    1.667 
#    0.000    5.000    0.000    0.000    0.000    0.000 
#    0.000    0.000    0.000    0.000    0.000    0.000 
#
# Total GULP energy -133764.909036 kJ/mol
# GULP energy per Si atom -5573.537877 kJ/mol
# Density = 2.107395 g / cm^3
# Si number density = 21.122025 Si / 1000 Ang^3
#
#
#
# Elastic Constant Matrix: (Units=GPa)
#
#
# Indices 1 2 3 4 5 6 
#
# 1 60.0172 -9.7196 22.3107 0.0000 0.0000 -2.2210
# 2 -9.7196 60.0172 22.3107 0.0000 0.0000 2.2210
# 3 22.3107 22.3107 100.1066 0.0000 0.0000 0.0000
# 4 0.0000 0.0000 0.0000 385.4654 0.0001 0.0000
# 5 0.0000 0.0000 0.0000 0.0001 385.4655 0.0000
# 6 -2.2210 2.2210 0.0000 0.0000 0.0000 7.6650
#
#
#
# Elastic Compliance Matrix: (Units=1/GPa)
#
#
# Indices 1 2 3 4 5 6 
#
# 1 0.019695 0.005086 -0.005523 0.000000 0.000000 0.004233
# 2 0.005086 0.019695 -0.005523 0.000000 0.000000 -0.004233
# 3 -0.005523 -0.005523 0.012451 0.000000 0.000000 0.000000
# 4 0.000000 0.000000 0.000000 0.002594 0.000000 0.000000
# 5 0.000000 0.000000 0.000000 0.000000 0.002594 0.000000
# 6 0.004233 -0.004233 0.000000 0.000000 0.000000 0.132916
#
#
# Mechanical properties :
#
#
# Convention : Reuss Voigt Hill
#
# Bulk Modulus (GPa) = 25.04893 32.21608 28.63250
# Shear Modulus (GPa) = 23.23708 168.06847 95.65278
#
# Velocity S-wave (km/s) = 3.32043 8.92989 6.73677
# Velocity P-wave (km/s) = 5.15608 11.02767 8.60798
#
# Compressibility (1/GPa) = 0.03992186
#
# Stress axis : x y z
#
# Youngs Moduli (GPa) = 50.77351 50.77351 80.31369
#
# Poissons Ratio (x) = -0.25824 0.44357
# Poissons Ratio (y) = -0.25824 0.44357
# Poissons Ratio (z) = 0.28042 0.28042
#
# Static dielectric constant tensor:
#      x y z
#    x 1.419900 0.000000 0.000000 
#    y 0.000000 1.419900 0.000000 
#    z 0.000000 0.000000 1.755860 
# 
# From -- ./inp_files/4104.got.cif
#   From: 2010.05.17/outbox.cif.g08.bks.cpg/sg82_3_cif.got.tgz:4104.got - 2010.06.03 18:52:26.
