data_PCOD9542070
_publ_section_title
;
Structure prediction by ZEFSAII (Michael W. Deem and Ramdas Pophale) SiO2 
 PCOD9542070
Probable space group: I 41
;
_chemical_formula_sum "Si O2"
_cell_formula_units_Z 52
_cell_length_a 16.972571
_cell_length_b 16.972571
_cell_length_c 8.789253
_cell_angle_alpha 90.000000
_cell_angle_beta 90.000000
_cell_angle_gamma 90.000000
_cell_volume 2531.903995
_symmetry_space_group_name_H-M "I 41"
_symmetry_group_IT_number 80
_symmetry_cell_setting 'tetragonal'
loop_
_space_group_symop_operation_xyz
x,y,z
-y,1/2+x,1/4+z
-x,-y,z
y,1/2-x,1/4+z
1/2+x,1/2+y,1/2+z
1/2-y,x,3/4+z
1/2-x,1/2-y,1/2+z
1/2+y,-x,3/4+z
loop_
_atom_site_type_symbol
_atom_site_label
_atom_site_fract_x
_atom_site_fract_y
_atom_site_fract_z
Si Si1 0.354791 0.922093 0.132310
Si Si2 0.000000 0.000000 0.329160
Si Si3 0.435380 0.162476 0.981546
Si Si4 0.240544 0.942476 0.407948
Si Si5 0.266437 0.511556 0.427696
Si Si6 0.318927 0.684100 0.367637
Si Si7 0.843302 0.765850 0.091337
O O1 0.292602 0.924143 0.263275
O O2 0.390713 0.836648 0.132356
O O3 0.424331 0.980595 0.177204
O O4 0.318016 0.950454 0.973382
O O5 0.076729 0.024307 0.236067
O O6 0.470189 0.204054 0.832371
O O7 0.342324 0.155800 0.954785
O O8 0.467715 0.209950 0.130329
O O9 0.286416 0.902917 0.548486
O O10 0.318438 0.589334 0.393707
O O11 0.258709 0.435562 0.317993
O O12 0.303642 0.743624 0.506687
O O13 0.794750 0.699561 0.186336
#
# Coordination Sequence:
#
# PCOD9542070 Si02
#       7
#     8   4   8   8   8   8   8
#     4  10  19  33  57  87 119 162 210 257 305 383
#     4  10  18  32  58  90 116 158 206 268 306 362
#     4   9  20  37  64  90 119 164 217 263 311 383
#     4  10  20  35  55  88 127 161 209 252 316 384
#     4  10  22  36  61  90 124 161 211 262 322 382
#     4  12  25  38  60  95 137 174 211 256 325 405
#     4  10  21  44  68  94 118 163 223 274 327 385
#
# _framework density 20.537904000000001
#
# number of rings (size 3 to 8) (size 9 to 14) (size 15 to 20)
#    0.000    1.846    3.077    0.923    8.615    0.000 
#    2.769    0.000    0.000    0.000    0.000    0.000 
#    0.000    0.000    0.000    0.000    0.000    0.000 
#
# Total GULP energy -144760.640388 kJ/mol
# GULP energy per Si atom -5567.716938 kJ/mol
# Density = 2.049116 g / cm^3
# Si number density = 20.537904 Si / 1000 Ang^3
#
#
#
# Elastic Constant Matrix: (Units=GPa)
#
#
# Indices 1 2 3 4 5 6 
#
# 1 163.2165 -94.0772 0.2846 0.0000 0.0000 22.3609
# 2 -94.0772 163.2165 0.2846 0.0000 0.0000 -22.3609
# 3 0.2846 0.2846 22.3395 0.0000 0.0000 0.0000
# 4 0.0000 0.0000 0.0000 35.2872 0.0000 0.0000
# 5 0.0000 0.0000 0.0000 0.0000 35.2872 0.0000
# 6 22.3609 -22.3609 0.0000 0.0000 0.0000 25.4094
#
#
#
# Elastic Compliance Matrix: (Units=1/GPa)
#
#
# Indices 1 2 3 4 5 6 
#
# 1 0.009527 0.004938 -0.000184 0.000000 0.000000 -0.004038
# 2 0.004938 0.009527 -0.000184 0.000000 0.000000 0.004038
# 3 -0.000184 -0.000184 0.044768 0.000000 0.000000 0.000000
# 4 0.000000 0.000000 0.000000 0.028339 0.000000 0.000000
# 5 0.000000 0.000000 0.000000 0.000000 0.028339 0.000000
# 6 -0.004038 0.004038 0.000000 0.000000 0.000000 0.046462
#
#
# Mechanical properties :
#
#
# Convention : Reuss Voigt Hill
#
# Bulk Modulus (GPa) = 13.70586 17.97294 15.83940
# Shear Modulus (GPa) = 27.45094 48.68213 38.06653
#
# Velocity S-wave (km/s) = 3.65992 4.87391 4.30987
# Velocity P-wave (km/s) = 4.95459 6.35952 5.70050
#
# Compressibility (1/GPa) = 0.07296149
#
# Stress axis : x y z
#
# Youngs Moduli (GPa) = 104.96741 104.96741 22.33720
#
# Poissons Ratio (x) = -0.51836 0.00412
# Poissons Ratio (y) = -0.51836 0.00412
# Poissons Ratio (z) = 0.01934 0.01934
#
# Static dielectric constant tensor:
#      x y z
#    x 1.790020 0.000000 0.000000 
#    y 0.000000 1.790020 0.000000 
#    z 0.000000 0.000000 1.764870 
# 
# From -- ./inp_files/708.got.cif
#   From: 2010.05.17/outbox.cif.g08.bks.cpg/sg80_cif.got.tgz:708.got - 2010.06.03 18:49:13.
