data_PCOD9542675
_publ_section_title
;
Structure prediction by ZEFSAII (Michael W. Deem and Ramdas Pophale) SiO2 
 PCOD9542675
Probable space group: I -4 
;
_chemical_formula_sum "Si O2"
_cell_formula_units_Z 24
_cell_length_a 13.430186
_cell_length_b 13.430186
_cell_length_c 5.058014
_cell_angle_alpha 90.000000
_cell_angle_beta 90.000000
_cell_angle_gamma 90.000000
_cell_volume 912.313459
_symmetry_space_group_name_H-M "I -4 "
_symmetry_group_IT_number 82
_symmetry_cell_setting 'tetragonal'
loop_
_space_group_symop_operation_xyz
x,y,z
y,-x,-z
-x,-y,z
-y,x,-z
1/2+x,1/2+y,1/2+z
1/2+y,1/2-x,1/2-z
1/2-x,1/2-y,1/2+z
1/2-y,1/2+x,1/2-z
loop_
_atom_site_type_symbol
_atom_site_label
_atom_site_fract_x
_atom_site_fract_y
_atom_site_fract_z
Si Si1 0.887134 0.258067 0.532196
Si Si2 0.633031 0.600309 0.464328
Si Si3 0.857755 0.444237 0.237528
O O1 0.866518 0.171882 0.319765
O O2 0.828914 0.357538 0.439878
O O3 0.003225 0.288312 0.476057
O O4 0.870076 0.213814 0.816560
O O5 0.631620 0.478972 0.468917
O O6 0.896338 0.542915 0.392637
#
# Coordination Sequence:
#
# PCOD9542675 Si02
#       3
#     8   8   8
#     4  10  19  39  64  90 120 160 203 258 315 388
#     4  11  24  40  59  84 122 174 216 253 302 371
#     4   7  16  38  62  98 120 158 188 255 332 399
#
# _framework density 26.306744999999999
#
# number of rings (size 3 to 8) (size 9 to 14) (size 15 to 20)
#    2.000    0.667    0.000    2.000    0.000    5.333 
#    0.000   10.000    0.000    0.000    0.000    0.000 
#    0.000    0.000    0.000    0.000    0.000    0.000 
#
# Total GULP energy -67032.245041 kJ/mol
# GULP energy per Si atom -5586.020420 kJ/mol
# Density = 2.624687 g / cm^3
# Si number density = 26.306745 Si / 1000 Ang^3
#
#
#
# Elastic Constant Matrix: (Units=GPa)
#
#
# Indices 1 2 3 4 5 6 
#
# 1 111.9008 34.2441 25.1481 0.0000 0.0000 0.4586
# 2 34.2441 111.9008 25.1481 0.0000 0.0000 -0.4586
# 3 25.1481 25.1481 51.7681 0.0000 0.0000 0.0000
# 4 0.0000 0.0000 0.0000 29.9699 0.0000 0.0000
# 5 0.0000 0.0000 0.0000 0.0000 29.9699 0.0000
# 6 0.4586 -0.4586 0.0000 0.0000 0.0000 59.3346
#
#
#
# Elastic Compliance Matrix: (Units=1/GPa)
#
#
# Indices 1 2 3 4 5 6 
#
# 1 0.010547 -0.002331 -0.003991 0.000000 0.000000 -0.000100
# 2 -0.002331 0.010547 -0.003991 0.000000 0.000000 0.000100
# 3 -0.003991 -0.003991 0.023195 0.000000 0.000000 0.000000
# 4 0.000000 0.000000 0.000000 0.033367 0.000000 0.000000
# 5 0.000000 0.000000 0.000000 0.000000 0.033367 0.000000
# 6 -0.000100 0.000100 0.000000 0.000000 0.000000 0.016855
#
#
# Mechanical properties :
#
#
# Convention : Reuss Voigt Hill
#
# Bulk Modulus (GPa) = 42.26204 49.40560 45.83382
# Shear Modulus (GPa) = 31.97087 36.59020 34.28053
#
# Velocity S-wave (km/s) = 3.48991 3.73353 3.61378
# Velocity P-wave (km/s) = 5.68676 6.11613 5.90535
#
# Compressibility (1/GPa) = 0.02366190
#
# Stress axis : x y z
#
# Youngs Moduli (GPa) = 94.81153 94.81153 43.11337
#
# Poissons Ratio (x) = 0.22102 0.17208
# Poissons Ratio (y) = 0.22102 0.17208
# Poissons Ratio (z) = 0.37842 0.37842
#
# Static dielectric constant tensor:
#      x y z
#    x 2.147620 0.000000 0.000000 
#    y 0.000000 2.147620 0.000000 
#    z 0.000000 0.000000 1.948280 
# 
# From -- ./inp_files/88.got.cif
#   From: 2010.05.17/outbox.cif.g08.bks.cpg/sg82_1_cif.got.tgz:88.got - 2010.06.03 18:52:26.
