data_PCOD9542192
_publ_section_title
;
Structure prediction by ZEFSAII (Michael W. Deem and Ramdas Pophale) SiO2 
 PCOD9542192
Probable space group: I 41
;
_chemical_formula_sum "Si O2"
_cell_formula_units_Z 52
_cell_length_a 21.052169
_cell_length_b 21.052169
_cell_length_c 5.128659
_cell_angle_alpha 90.000000
_cell_angle_beta 90.000000
_cell_angle_gamma 90.000000
_cell_volume 2272.989972
_symmetry_space_group_name_H-M "I 41"
_symmetry_group_IT_number 80
_symmetry_cell_setting 'tetragonal'
loop_
_space_group_symop_operation_xyz
x,y,z
-y,1/2+x,1/4+z
-x,-y,z
y,1/2-x,1/4+z
1/2+x,1/2+y,1/2+z
1/2-y,x,3/4+z
1/2-x,1/2-y,1/2+z
1/2+y,-x,3/4+z
loop_
_atom_site_type_symbol
_atom_site_label
_atom_site_fract_x
_atom_site_fract_y
_atom_site_fract_z
Si Si1 0.435819 0.804906 0.691150
Si Si2 0.160500 0.214208 0.185941
Si Si3 0.618635 0.584096 0.705334
Si Si4 0.339750 0.719231 0.911390
Si Si5 0.701373 0.563882 0.203832
Si Si6 0.609655 0.411115 0.959208
Si Si7 0.000000 0.500000 0.562302
O O1 0.375384 0.758251 0.683731
O O2 0.500841 0.770837 0.598386
O O3 0.431470 0.857374 0.472210
O O4 0.430205 0.844847 0.961924
O O5 0.180592 0.273303 0.363387
O O6 0.115457 0.157999 0.289923
O O7 0.120482 0.247283 0.953294
O O8 0.648114 0.583034 0.416610
O O9 0.554552 0.543658 0.683795
O O10 0.667176 0.556162 0.925201
O O11 0.275188 0.681981 0.850637
O O12 0.390874 0.665424 0.978646
O O13 0.543157 0.446929 0.950615
#
# Coordination Sequence:
#
# PCOD9542192 Si02
#       7
#     8   8   8   8   8   8   4
#     4  11  22  43  63  97 134 174 216 282 332 397
#     4  10  22  41  71  99 135 171 230 282 345 396
#     4  11  25  41  69  93 136 179 224 276 332 397
#     4  10  22  41  71  99 135 171 230 282 345 396
#     4  11  22  43  63  97 134 174 216 282 332 397
#     4  11  25  41  69  93 136 179 224 276 332 397
#     4  12  24  46  64  98 136 186 226 268 328 418
#
# _framework density 22.877355000000001
#
# number of rings (size 3 to 8) (size 9 to 14) (size 15 to 20)
#    0.000    1.231    3.077    1.846    2.154    9.846 
#    0.000    0.000    0.000    0.000    0.000    0.000 
#    0.000    0.000    0.000    0.000    0.000    0.000 
#
# Total GULP energy -144817.825008 kJ/mol
# GULP energy per Si atom -5569.916346 kJ/mol
# Density = 2.282529 g / cm^3
# Si number density = 22.877355 Si / 1000 Ang^3
#
#
#
# Elastic Constant Matrix: (Units=GPa)
#
#
# Indices 1 2 3 4 5 6 
#
# 1 139.8420 9.4720 15.4731 0.0000 0.0000 -25.9159
# 2 9.4720 139.8420 15.4731 0.0000 0.0000 25.9159
# 3 15.4731 15.4731 75.4704 0.0000 0.0000 0.0000
# 4 0.0000 0.0000 0.0000 -67.4960 0.0000 0.0000
# 5 0.0000 0.0000 0.0000 0.0000 -67.4960 0.0000
# 6 -25.9159 25.9159 0.0000 0.0000 0.0000 98.6604
#
#
#
# Elastic Compliance Matrix: (Units=1/GPa)
#
#
# Indices 1 2 3 4 5 6 
#
# 1 0.007780 -0.000785 -0.001434 0.000000 0.000000 0.002250
# 2 -0.000785 0.007780 -0.001434 0.000000 0.000000 -0.002250
# 3 -0.001434 -0.001434 0.013838 0.000000 0.000000 0.000000
# 4 0.000000 0.000000 0.000000 -0.014816 0.000000 0.000000
# 5 0.000000 0.000000 0.000000 0.000000 -0.014816 0.000000
# 6 0.002250 -0.002250 0.000000 0.000000 0.000000 0.011318
#
#
# Mechanical properties :
#
#
# Convention : Reuss Voigt Hill
#
# Bulk Modulus (GPa) = 45.26700 48.44341 46.85520
# Shear Modulus (GPa) = 194.14230 13.71611 103.92920
#
# Velocity S-wave (km/s) = 9.22206 2.45123 6.74741
# Velocity P-wave (km/s) = 11.54231 5.40672 9.01270
#
# Compressibility (1/GPa) = 0.02209115
#
# Stress axis : x y z
#
# Youngs Moduli (GPa) = 128.53923 128.53923 72.26349
#
# Poissons Ratio (x) = 0.10093 0.10363
# Poissons Ratio (y) = 0.10093 0.10363
# Poissons Ratio (z) = 0.18433 0.18433
#
# Static dielectric constant tensor:
#      x y z
#    x 2.035670 0.000000 0.000000 
#    y 0.000000 2.035670 0.000000 
#    z 0.000000 0.000000 1.853090 
# 
# From -- ./inp_files/350.got.cif
#   From: 2010.05.17/outbox.cif.g08.bks.cpg/sg80_cif.got.tgz:350.got - 2010.06.03 18:49:13.
