data_PCOD9542213
_publ_section_title
;
Structure prediction by ZEFSAII (Michael W. Deem and Ramdas Pophale) SiO2 
 PCOD9542213
Probable space group: I 41
;
_chemical_formula_sum "Si O2"
_cell_formula_units_Z 32
_cell_length_a 14.160460
_cell_length_b 14.160460
_cell_length_c 6.938314
_cell_angle_alpha 90.000000
_cell_angle_beta 90.000000
_cell_angle_gamma 90.000000
_cell_volume 1391.261200
_symmetry_space_group_name_H-M "I 41"
_symmetry_group_IT_number 80
_symmetry_cell_setting 'tetragonal'
loop_
_space_group_symop_operation_xyz
x,y,z
-y,1/2+x,1/4+z
-x,-y,z
y,1/2-x,1/4+z
1/2+x,1/2+y,1/2+z
1/2-y,x,3/4+z
1/2-x,1/2-y,1/2+z
1/2+y,-x,3/4+z
loop_
_atom_site_type_symbol
_atom_site_label
_atom_site_fract_x
_atom_site_fract_y
_atom_site_fract_z
Si Si1 0.100968 0.547323 0.879730
Si Si2 0.307008 0.867023 0.048142
Si Si3 0.603844 0.997965 0.788680
Si Si4 0.629602 0.692723 0.245052
O O1 0.122333 0.628671 0.731171
O O2 0.183869 0.467847 0.874084
O O3 0.000000 0.500000 0.839274
O O4 0.099285 0.570161 0.106073
O O5 0.209530 0.839545 0.144255
O O6 0.319207 0.966778 0.938836
O O7 0.900109 0.873137 0.929017
O O8 0.500000 0.000000 0.878569
O O9 0.657094 0.789721 0.350207
#
# Coordination Sequence:
#
# PCOD9542213 Si02
#       4
#     8   8   8   8
#     4   9  23  46  74 101 142 189 232 291 366 423
#     4  12  29  42  72 105 140 186 244 295 357 420
#     4   9  23  46  74 100 138 194 233 293 365 420
#     4  10  23  42  72 108 144 179 237 295 350 425
#
# _framework density 23.000713999999999
#
# number of rings (size 3 to 8) (size 9 to 14) (size 15 to 20)
#    1.500    0.500    0.000    0.750   10.500    2.000 
#    0.000    0.000    0.000    0.000    0.000    0.000 
#    0.000    0.000    0.000    0.000    0.000    0.000 
#
# Total GULP energy -89088.028883 kJ/mol
# GULP energy per Si atom -5568.001805 kJ/mol
# Density = 2.294836 g / cm^3
# Si number density = 23.000714 Si / 1000 Ang^3
#
#
#
# Elastic Constant Matrix: (Units=GPa)
#
#
# Indices 1 2 3 4 5 6 
#
# 1 67.1186 53.6942 46.6109 0.0000 0.0000 -0.5767
# 2 53.6942 67.1186 46.6109 0.0000 0.0000 0.5767
# 3 46.6109 46.6109 116.7266 0.0000 0.0000 0.0000
# 4 0.0000 0.0000 0.0000 40.6205 0.0000 0.0000
# 5 0.0000 0.0000 0.0000 0.0000 40.6205 0.0000
# 6 -0.5767 0.5767 0.0000 0.0000 0.0000 19.9802
#
#
#
# Elastic Compliance Matrix: (Units=1/GPa)
#
#
# Indices 1 2 3 4 5 6 
#
# 1 0.043320 -0.031357 -0.004777 0.000000 0.000000 0.002155
# 2 -0.031357 0.043320 -0.004777 0.000000 0.000000 -0.002155
# 3 -0.004777 -0.004777 0.012382 0.000000 0.000000 0.000000
# 4 0.000000 0.000000 0.000000 0.024618 0.000000 0.000000
# 5 0.000000 0.000000 0.000000 0.000000 0.024618 0.000000
# 6 0.002155 -0.002155 0.000000 0.000000 0.000000 0.050174
#
#
# Mechanical properties :
#
#
# Convention : Reuss Voigt Hill
#
# Bulk Modulus (GPa) = 58.13834 60.53288 59.33561
# Shear Modulus (GPa) = 17.48327 27.18074 22.33201
#
# Velocity S-wave (km/s) = 2.76002 3.44137 3.11935
# Velocity P-wave (km/s) = 5.95723 6.49351 6.23114
#
# Compressibility (1/GPa) = 0.01720035
#
# Stress axis : x y z
#
# Youngs Moduli (GPa) = 23.08403 23.08403 80.76055
#
# Poissons Ratio (x) = 0.72383 0.38581
# Poissons Ratio (y) = 0.72383 0.38581
# Poissons Ratio (z) = 0.11028 0.11028
#
# Static dielectric constant tensor:
#      x y z
#    x 1.922190 0.000000 0.000000 
#    y 0.000000 1.922190 0.000000 
#    z 0.000000 0.000000 1.874320 
# 
# From -- ./inp_files/543.got.cif
#   From: 2010.05.17/outbox.cif.g08.bks.cpg/sg80_cif.got.tgz:543.got - 2010.06.03 18:49:13.
