data_PCOD9542876
_publ_section_title
;
Structure prediction by ZEFSAII (Michael W. Deem and Ramdas Pophale) SiO2 
 PCOD9542876
Probable space group: I -4 
;
_chemical_formula_sum "Si O2"
_cell_formula_units_Z 36
_cell_length_a 11.783470
_cell_length_b 11.783470
_cell_length_c 12.380352
_cell_angle_alpha 90.000000
_cell_angle_beta 90.000000
_cell_angle_gamma 90.000000
_cell_volume 1719.013921
_symmetry_space_group_name_H-M "I -4 "
_symmetry_group_IT_number 82
_symmetry_cell_setting 'tetragonal'
loop_
_space_group_symop_operation_xyz
x,y,z
y,-x,-z
-x,-y,z
-y,x,-z
1/2+x,1/2+y,1/2+z
1/2+y,1/2-x,1/2-z
1/2-x,1/2-y,1/2+z
1/2-y,1/2+x,1/2-z
loop_
_atom_site_type_symbol
_atom_site_label
_atom_site_fract_x
_atom_site_fract_y
_atom_site_fract_z
Si Si1 0.000000 0.500000 0.250000
Si Si2 0.899297 0.199092 0.148547
Si Si3 0.782856 0.837070 0.428528
Si Si4 0.395282 0.934607 0.938396
Si Si5 0.000000 0.000000 0.000000
Si Si6 0.378368 0.558441 0.867538
O O1 0.099627 0.461688 0.171363
O O2 0.781608 0.266277 0.130029
O O3 0.890633 0.145475 0.268498
O O4 0.991487 0.291804 0.108057
O O5 0.928158 0.088789 0.073401
O O6 0.666532 0.853515 0.492012
O O7 0.878876 0.838281 0.522628
O O8 0.800346 0.946763 0.352436
O O9 0.500000 0.000000 0.996499
O O10 0.500000 0.500000 0.880568
#
# Coordination Sequence:
#
# PCOD9542876 Si02
#       6
#     2   8   8   8   2   8
#     4   8  20  36  60  96 122 168 232 276 332 412
#     4  12  26  45  77 102 149 193 243 299 372 435
#     4  12  24  47  72 105 144 189 237 307 355 442
#     4  10  22  41  68 101 138 176 242 295 348 417
#     4  12  24  48  68 110 140 200 244 308 364 446
#     4  12  26  46  74 105 148 192 244 292 372 430
#
# _framework density 20.942238
#
# number of rings (size 3 to 8) (size 9 to 14) (size 15 to 20)
#    0.667    0.000    5.556    2.667    0.000    3.556 
#    4.000    0.000    0.000    0.000    0.000    0.000 
#    0.000    0.000    0.000    0.000    0.000    0.000 
#
# Total GULP energy -100258.476033 kJ/mol
# GULP energy per Si atom -5569.915335 kJ/mol
# Density = 2.089457 g / cm^3
# Si number density = 20.942238 Si / 1000 Ang^3
#
#
#
# Elastic Constant Matrix: (Units=GPa)
#
#
# Indices 1 2 3 4 5 6 
#
# 1 121.1991 41.5919 30.5967 0.0000 0.0000 -12.3687
# 2 41.5919 121.1991 30.5967 0.0000 0.0000 12.3687
# 3 30.5967 30.5967 65.0376 0.0000 0.0000 0.0000
# 4 0.0000 0.0000 0.0000 24.8250 0.0000 0.0000
# 5 0.0000 0.0000 0.0000 0.0000 24.8250 0.0000
# 6 -12.3687 12.3687 0.0000 0.0000 0.0000 33.6259
#
#
#
# Elastic Compliance Matrix: (Units=1/GPa)
#
#
# Indices 1 2 3 4 5 6 
#
# 1 0.010823 -0.003360 -0.003511 0.000000 0.000000 0.005217
# 2 -0.003360 0.010823 -0.003511 0.000000 0.000000 -0.005217
# 3 -0.003511 -0.003511 0.018679 0.000000 0.000000 0.000000
# 4 0.000000 0.000000 0.000000 0.040282 0.000000 0.000000
# 5 0.000000 0.000000 0.000000 0.000000 0.040282 0.000000
# 6 0.005217 -0.005217 0.000000 0.000000 0.000000 0.033577
#
#
# Mechanical properties :
#
#
# Convention : Reuss Voigt Hill
#
# Bulk Modulus (GPa) = 51.12181 57.00069 54.06125
# Shear Modulus (GPa) = 27.51055 30.29857 28.90456
#
# Velocity S-wave (km/s) = 3.62835 3.80777 3.71914
# Velocity P-wave (km/s) = 6.48206 6.82710 6.65681
#
# Compressibility (1/GPa) = 0.01956112
#
# Stress axis : x y z
#
# Youngs Moduli (GPa) = 92.39874 92.39874 53.53624
#
# Poissons Ratio (x) = 0.31047 0.18795
# Poissons Ratio (y) = 0.31047 0.18795
# Poissons Ratio (z) = 0.32439 0.32439
#
# Static dielectric constant tensor:
#      x y z
#    x 1.832670 0.000000 0.000000 
#    y 0.000000 1.832670 0.000000 
#    z 0.000000 0.000000 1.782490 
# 
# From -- ./inp_files/2218.got.cif
#   From: 2010.05.17/outbox.cif.g08.bks.cpg/sg82_2_cif.got.tgz:2218.got - 2010.06.03 18:52:26.
