data_PCOD9542503
_publ_section_title
;
Structure prediction by ZEFSAII (Michael W. Deem and Ramdas Pophale) SiO2 
 PCOD9542503
Probable space group: P -4
;
_chemical_formula_sum "Si O2"
_cell_formula_units_Z 18
_cell_length_a 12.295625
_cell_length_b 12.295625
_cell_length_c 4.915359
_cell_angle_alpha 90.000000
_cell_angle_beta 90.000000
_cell_angle_gamma 90.000000
_cell_volume 743.115742
_symmetry_space_group_name_H-M "P -4"
_symmetry_group_IT_number 81
_symmetry_cell_setting 'tetragonal'
loop_
_space_group_symop_operation_xyz
x,y,z
y,-x,-z
-x,-y,z
-y,x,-z
loop_
_atom_site_type_symbol
_atom_site_label
_atom_site_fract_x
_atom_site_fract_y
_atom_site_fract_z
Si Si1 0.830353 0.010488 0.108229
Si Si2 0.000000 0.500000 0.712055
Si Si3 0.638623 0.712556 0.639924
Si Si4 0.040760 0.709534 0.366093
Si Si5 0.754736 0.500973 0.867739
O O1 0.805587 0.992242 0.422886
O O2 0.722936 0.015069 0.925520
O O3 0.890501 0.906565 0.974819
O O4 0.998102 0.603293 0.514267
O O5 0.114439 0.505364 0.866846
O O6 0.698525 0.829143 0.662532
O O7 0.713103 0.614710 0.746134
O O8 0.593081 0.709378 0.334327
O O9 0.532607 0.715407 0.834422
#
# Coordination Sequence:
#
# PCOD9542503 Si02
#       5
#     4   2   4   4   4
#     4  11  25  42  67 102 137 176 227 281 344 418
#     4  10  26  46  68 100 138 182 228 282 340 404
#     4  11  25  44  68 104 134 178 236 280 347 414
#     4  11  24  45  67 100 135 184 230 278 345 410
#     4  11  25  45  70 102 138 179 229 286 345 411
#
# _framework density 24.222335999999999
#
# number of rings (size 3 to 8) (size 9 to 14) (size 15 to 20)
#    0.000    1.111    0.000    5.333    6.222   12.444 
#    0.000    0.000    0.000    0.000    0.000    0.000 
#    0.000    0.000    0.000    0.000    0.000    0.000 
#
# Total GULP energy -100822.032288 kJ/mol
# GULP energy per Si atom -5601.224016 kJ/mol
# Density = 2.416721 g / cm^3
# Si number density = 24.222336 Si / 1000 Ang^3
#
#
#
# Elastic Constant Matrix: (Units=GPa)
#
#
# Indices 1 2 3 4 5 6 
#
# 1 47.2307 35.8930 9.7513 0.0000 0.0000 15.1443
# 2 35.8930 47.2307 9.7513 0.0000 0.0000 -15.1443
# 3 9.7513 9.7513 107.2591 0.0000 0.0000 0.0000
# 4 0.0000 0.0000 0.0000 25.1414 0.0000 0.0000
# 5 0.0000 0.0000 0.0000 0.0000 25.1414 0.0000
# 6 15.1443 -15.1443 0.0000 0.0000 0.0000 49.1441
#
#
#
# Elastic Compliance Matrix: (Units=1/GPa)
#
#
# Indices 1 2 3 4 5 6 
#
# 1 0.255651 -0.243358 -0.001118 0.000000 0.000000 -0.153775
# 2 -0.243358 0.255651 -0.001118 0.000000 0.000000 0.153775
# 3 -0.001118 -0.001118 0.009526 0.000000 0.000000 0.000000
# 4 0.000000 0.000000 0.000000 0.039775 0.000000 0.000000
# 5 0.000000 0.000000 0.000000 0.000000 0.039775 0.000000
# 6 -0.153775 0.153775 0.000000 0.000000 0.000000 0.115123
#
#
# Mechanical properties :
#
#
# Convention : Reuss Voigt Hill
#
# Bulk Modulus (GPa) = 33.73692 34.72355 34.23023
# Shear Modulus (GPa) = 4.10992 29.64038 16.87515
#
# Velocity S-wave (km/s) = 1.30401 3.50191 2.64233
# Velocity P-wave (km/s) = 4.02809 5.54235 4.84475
#
# Compressibility (1/GPa) = 0.02964112
#
# Stress axis : x y z
#
# Youngs Moduli (GPa) = 3.91159 3.91159 104.97120
#
# Poissons Ratio (x) = 0.95192 0.11731
# Poissons Ratio (y) = 0.95192 0.11731
# Poissons Ratio (z) = 0.00437 0.00437
#
# Static dielectric constant tensor:
#      x y z
#    x 1.949010 0.000000 0.000000 
#    y 0.000000 1.949010 0.000000 
#    z 0.000000 0.000000 1.901480 
# 
# From -- ./inp_files/184.got.cif
#   From: 2010.05.17/outbox.cif.g08.bks.cpg/sg81_cif.got.tgz:184.got - 2010.06.03 18:51:07.
