data_PCOD9542332
_publ_section_title
;
Structure prediction by ZEFSAII (Michael W. Deem and Ramdas Pophale) SiO2 
 PCOD9542332
Probable space group: P -4
;
_chemical_formula_sum "Si O2"
_cell_formula_units_Z 26
_cell_length_a 14.656307
_cell_length_b 14.656307
_cell_length_c 5.057023
_cell_angle_alpha 90.000000
_cell_angle_beta 90.000000
_cell_angle_gamma 90.000000
_cell_volume 1086.285633
_symmetry_space_group_name_H-M "P -4"
_symmetry_group_IT_number 81
_symmetry_cell_setting 'tetragonal'
loop_
_space_group_symop_operation_xyz
x,y,z
y,-x,-z
-x,-y,z
-y,x,-z
loop_
_atom_site_type_symbol
_atom_site_label
_atom_site_fract_x
_atom_site_fract_y
_atom_site_fract_z
Si Si1 0.113164 0.747177 0.417259
Si Si2 0.186805 0.452242 0.702500
Si Si3 0.500000 0.000000 0.101694
Si Si4 0.049561 0.310822 0.790598
Si Si5 0.309803 0.354677 0.092475
Si Si6 0.172210 0.182818 0.089270
Si Si7 0.281514 0.603866 0.406222
O O1 0.111460 0.784757 0.119801
O O2 0.192824 0.670429 0.410992
O O3 0.024788 0.708530 0.567305
O O4 0.144251 0.828622 0.616220
O O5 0.096693 0.513036 0.753002
O O6 0.138961 0.355084 0.641986
O O7 0.247592 0.432785 0.960012
O O8 0.244816 0.505656 0.490280
O O9 0.604661 0.019424 0.011160
O O10 0.083000 0.225530 0.958075
O O11 0.241986 0.267823 0.100766
O O12 0.385023 0.330186 0.872038
O O13 0.359562 0.351599 0.372102
#
# Coordination Sequence:
#
# PCOD9542332 Si02
#       7
#     4   4   2   4   4   4   4
#     4  10  18  35  53  79 106 146 182 221 275 333
#     4   9  17  34  58  85 115 141 184 233 288 314
#     4   8  16  32  56  90 112 142 162 248 272 326
#     4   9  17  34  58  85 115 141 184 233 288 314
#     4   9  20  32  54  76 110 145 181 219 272 341
#     4   9  20  32  54  76 110 145 181 219 272 341
#     4  10  18  35  53  79 106 146 182 221 275 333
#
# _framework density 23.934771999999999
#
# number of rings (size 3 to 8) (size 9 to 14) (size 15 to 20)
#    0.923    1.846    1.538    0.000    0.000    2.462 
#    0.000    4.615    0.000   18.462    0.000    0.000 
#    0.000    0.000    0.000    0.000    0.000    0.000 
#
# Total GULP energy -144895.260189 kJ/mol
# GULP energy per Si atom -5572.894623 kJ/mol
# Density = 2.388030 g / cm^3
# Si number density = 23.934772 Si / 1000 Ang^3
#
#
#
# Elastic Constant Matrix: (Units=GPa)
#
#
# Indices 1 2 3 4 5 6 
#
# 1 65.0773 40.2386 18.6358 0.0000 0.0000 3.0220
# 2 40.2386 65.0773 18.6358 0.0000 0.0000 -3.0220
# 3 18.6358 18.6358 80.7341 0.0000 0.0000 0.0000
# 4 0.0000 0.0000 0.0000 0.7098 0.0000 0.0000
# 5 0.0000 0.0000 0.0000 0.0000 0.7098 0.0000
# 6 3.0220 -3.0220 0.0000 0.0000 0.0000 31.4447
#
#
#
# Elastic Compliance Matrix: (Units=1/GPa)
#
#
# Indices 1 2 3 4 5 6 
#
# 1 0.025782 -0.015442 -0.002387 0.000000 0.000000 -0.003962
# 2 -0.015442 0.025782 -0.002387 0.000000 0.000000 0.003962
# 3 -0.002387 -0.002387 0.013488 0.000000 0.000000 0.000000
# 4 0.000000 0.000000 0.000000 1.408874 0.000000 0.000000
# 5 0.000000 0.000000 0.000000 0.000000 1.408875 0.000000
# 6 -0.003962 0.003962 0.000000 0.000000 0.000000 0.032563
#
#
# Mechanical properties :
#
#
# Convention : Reuss Voigt Hill
#
# Bulk Modulus (GPa) = 40.61570 40.65657 40.63613
# Shear Modulus (GPa) = 1.68691 15.46476 8.57583
#
# Velocity S-wave (km/s) = 0.84043 2.54465 1.89494
# Velocity P-wave (km/s) = 4.23650 5.06527 4.66931
#
# Compressibility (1/GPa) = 0.02462102
#
# Stress axis : x y z
#
# Youngs Moduli (GPa) = 38.78708 38.78708 74.13882
#
# Poissons Ratio (x) = 0.59894 0.17695
# Poissons Ratio (y) = 0.59894 0.17695
# Poissons Ratio (z) = 0.09258 0.09258
#
# Static dielectric constant tensor:
#      x y z
#    x 2.421590 0.000000 0.000000 
#    y 0.000000 2.421590 0.000000 
#    z 0.000000 0.000000 1.946820 
# 
# From -- ./inp_files/355.got.cif
#   From: 2010.05.17/outbox.cif.g08.bks.cpg/sg81_cif.got.tgz:355.got - 2010.06.03 18:51:07.
