data_PCOD9542577
_publ_section_title
;
Structure prediction by ZEFSAII (Michael W. Deem and Ramdas Pophale) SiO2 
 PCOD9542577
Probable space group: P -4
;
_chemical_formula_sum "Si O2"
_cell_formula_units_Z 12
_cell_length_a 5.232104
_cell_length_b 5.232104
_cell_length_c 17.722195
_cell_angle_alpha 90.000000
_cell_angle_beta 90.000000
_cell_angle_gamma 90.000000
_cell_volume 485.143533
_symmetry_space_group_name_H-M "P -4"
_symmetry_group_IT_number 81
_symmetry_cell_setting 'tetragonal'
loop_
_space_group_symop_operation_xyz
x,y,z
y,-x,-z
-x,-y,z
-y,x,-z
loop_
_atom_site_type_symbol
_atom_site_label
_atom_site_fract_x
_atom_site_fract_y
_atom_site_fract_z
Si Si1 0.000000 0.500000 0.087704
Si Si2 0.500000 0.500000 0.000000
Si Si3 0.824169 0.250676 0.381417
Si Si4 0.160210 0.255245 0.785679
Si Si5 0.500000 0.500000 0.500000
O O1 0.764270 0.609243 0.038229
O O2 0.827355 0.338797 0.146320
O O3 0.695429 0.264744 0.298322
O O4 0.614289 0.282973 0.445899
O O5 0.000000 0.500000 0.386616
O O6 0.000000 0.000000 0.390003
O O7 0.000000 0.500000 0.808752
O O8 0.000000 0.000000 0.773480
#
# Coordination Sequence:
#
# PCOD9542577 Si02
#       5
#     2   1   4   4   1
#     4  12  28  54  78 128 160 224 266 344 412 504
#     4  12  32  46  88 116 184 206 272 336 432 490
#     4  11  29  52  77 120 162 220 280 350 414 489
#     4  11  26  50  85 114 162 217 280 340 406 493
#     4  12  32  46  84 112 180 210 288 340 436 462
#
# _framework density 24.734950999999999
#
# number of rings (size 3 to 8) (size 9 to 14) (size 15 to 20)
#    0.000    0.667    1.667    2.000   21.000    1.333 
#    0.000    0.000    0.000    0.000    0.000    0.000 
#    0.000    0.000    0.000    0.000    0.000    0.000 
#
# Total GULP energy -67093.270543 kJ/mol
# GULP energy per Si atom -5591.105879 kJ/mol
# Density = 2.467865 g / cm^3
# Si number density = 24.734951 Si / 1000 Ang^3
#
#
#
# Elastic Constant Matrix: (Units=GPa)
#
#
# Indices 1 2 3 4 5 6 
#
# 1 153.4235 60.1994 41.2139 0.0000 0.0000 12.1453
# 2 60.1994 153.4235 41.2139 0.0000 0.0000 -12.1453
# 3 41.2139 41.2139 93.6573 0.0000 0.0000 0.0000
# 4 0.0000 0.0000 0.0000 53.1374 0.0000 0.0000
# 5 0.0000 0.0000 0.0000 0.0000 53.1374 0.0000
# 6 12.1453 -12.1453 0.0000 0.0000 0.0000 64.2454
#
#
#
# Elastic Compliance Matrix: (Units=1/GPa)
#
#
# Indices 1 2 3 4 5 6 
#
# 1 0.008461 -0.002822 -0.002481 0.000000 0.000000 -0.002133
# 2 -0.002822 0.008461 -0.002481 0.000000 0.000000 0.002133
# 3 -0.002481 -0.002481 0.012861 0.000000 0.000000 0.000000
# 4 0.000000 0.000000 0.000000 0.018819 0.000000 0.000000
# 5 0.000000 0.000000 0.000000 0.000000 0.018819 0.000000
# 6 -0.002133 0.002133 0.000000 0.000000 0.000000 0.016372
#
#
# Mechanical properties :
#
#
# Convention : Reuss Voigt Hill
#
# Bulk Modulus (GPa) = 70.35767 76.19541 73.27654
# Shear Modulus (GPa) = 48.03127 51.29586 49.66356
#
# Velocity S-wave (km/s) = 4.41141 4.55886 4.48574
# Velocity P-wave (km/s) = 7.37928 7.65393 7.51786
#
# Compressibility (1/GPa) = 0.01421309
#
# Stress axis : x y z
#
# Youngs Moduli (GPa) = 118.19532 118.19532 77.75470
#
# Poissons Ratio (x) = 0.33355 0.19293
# Poissons Ratio (y) = 0.33355 0.19293
# Poissons Ratio (z) = 0.29327 0.29327
#
# Static dielectric constant tensor:
#      x y z
#    x 1.966500 0.000000 0.000000 
#    y 0.000000 1.966500 0.000000 
#    z 0.000000 0.000000 2.129280 
# 
# From -- ./inp_files/1701.got.cif
#   From: 2010.05.17/outbox.cif.g08.bks.cpg/sg81_cif.got.tgz:1701.got - 2010.06.03 18:51:07.
