data_PCOD9542703
_publ_section_title
;
Structure prediction by ZEFSAII (Michael W. Deem and Ramdas Pophale) SiO2 
 PCOD9542703
Probable space group: I -4 
;
_chemical_formula_sum "Si O2"
_cell_formula_units_Z 48
_cell_length_a 8.169742
_cell_length_b 8.169742
_cell_length_c 33.565679
_cell_angle_alpha 90.000000
_cell_angle_beta 90.000000
_cell_angle_gamma 90.000000
_cell_volume 2240.330650
_symmetry_space_group_name_H-M "I -4 "
_symmetry_group_IT_number 82
_symmetry_cell_setting 'tetragonal'
loop_
_space_group_symop_operation_xyz
x,y,z
y,-x,-z
-x,-y,z
-y,x,-z
1/2+x,1/2+y,1/2+z
1/2+y,1/2-x,1/2-z
1/2-x,1/2-y,1/2+z
1/2-y,1/2+x,1/2-z
loop_
_atom_site_type_symbol
_atom_site_label
_atom_site_fract_x
_atom_site_fract_y
_atom_site_fract_z
Si Si1 0.250148 0.097146 0.760227
Si Si2 0.752191 0.890200 0.497147
Si Si3 0.413431 0.252014 0.331339
Si Si4 0.756198 0.251642 0.587221
Si Si5 0.500000 0.500000 0.873931
Si Si6 0.749504 0.400696 0.813378
Si Si7 0.500000 0.000000 0.560824
O O1 0.416390 0.201908 0.754216
O O2 0.176906 0.113298 0.804374
O O3 0.120405 0.177726 0.730367
O O4 0.688899 0.803517 0.456982
O O5 0.919821 0.800939 0.510039
O O6 0.622185 0.899339 0.532239
O O7 0.384207 0.269683 0.378444
O O8 0.602447 0.223681 0.321252
O O9 0.322656 0.081687 0.319519
O O10 0.601931 0.131444 0.585245
O O11 0.904545 0.131709 0.600040
O O12 0.602421 0.380934 0.844868
#
# Coordination Sequence:
#
# PCOD9542703 Si02
#       7
#     8   8   8   8   4   8   4
#     4  11  23  38  57  82 116 158 200 238 283 343
#     4   9  18  35  58  84 109 146 189 230 287 353
#     4  10  22  37  58  87 116 149 191 242 291 335
#     4  10  20  36  57  85 115 146 192 240 286 345
#     4  10  20  36  61  86 112 150 190 236 287 336
#     4  10  21  38  58  84 116 152 191 235 286 343
#     4  10  20  34  60  84 113 150 185 236 288 346
#
# _framework density 21.425409999999999
#
# number of rings (size 3 to 8) (size 9 to 14) (size 15 to 20)
#    0.000    2.000    0.000    5.000    0.000    8.667 
#    0.000    0.000    0.000   16.000    0.000    0.000 
#    0.000    0.000    0.000    0.000    0.000    0.000 
#
# Total GULP energy -134163.486979 kJ/mol
# GULP energy per Si atom -5590.145291 kJ/mol
# Density = 2.137664 g / cm^3
# Si number density = 21.425410 Si / 1000 Ang^3
#
#
#
# Elastic Constant Matrix: (Units=GPa)
#
#
# Indices 1 2 3 4 5 6 
#
# 1 52.6185 2.3588 14.3236 0.0000 0.0000 3.1083
# 2 2.3588 52.6185 14.3236 0.0000 0.0000 -3.1083
# 3 14.3236 14.3236 63.8431 0.0000 0.0000 0.0000
# 4 0.0000 0.0000 0.0000 18.1091 0.0000 0.0000
# 5 0.0000 0.0000 0.0000 0.0000 18.1091 0.0000
# 6 3.1083 -3.1083 0.0000 0.0000 0.0000 15.5095
#
#
#
# Elastic Compliance Matrix: (Units=1/GPa)
#
#
# Indices 1 2 3 4 5 6 
#
# 1 0.020500 0.000097 -0.004621 0.000000 0.000000 -0.004089
# 2 0.000097 0.020500 -0.004621 0.000000 0.000000 0.004089
# 3 -0.004621 -0.004621 0.017737 0.000000 0.000000 0.000000
# 4 0.000000 0.000000 0.000000 0.055221 0.000000 0.000000
# 5 0.000000 0.000000 0.000000 0.000000 0.055221 0.000000
# 6 -0.004089 0.004089 0.000000 0.000000 0.000000 0.066116
#
#
# Mechanical properties :
#
#
# Convention : Reuss Voigt Hill
#
# Bulk Modulus (GPa) = 24.72374 25.67692 25.20033
# Shear Modulus (GPa) = 18.72196 19.55047 19.13621
#
# Velocity S-wave (km/s) = 2.95925 3.02402 2.99181
# Velocity P-wave (km/s) = 4.82086 4.91968 4.87052
#
# Compressibility (1/GPa) = 0.04044696
#
# Stress axis : x y z
#
# Youngs Moduli (GPa) = 48.78088 48.78088 56.37941
#
# Poissons Ratio (x) = -0.00475 0.26054
# Poissons Ratio (y) = -0.00475 0.26054
# Poissons Ratio (z) = 0.22542 0.22542
#
# Static dielectric constant tensor:
#      x y z
#    x 1.783560 0.000000 0.000000 
#    y 0.000000 1.783560 0.000000 
#    z 0.000000 0.000000 1.773610 
# 
# From -- ./inp_files/4083.got.cif
#   From: 2010.05.17/outbox.cif.g08.bks.cpg/sg82_3_cif.got.tgz:4083.got - 2010.06.03 18:52:26.
