data_PCOD9542533
_publ_section_title
;
Structure prediction by ZEFSAII (Michael W. Deem and Ramdas Pophale) SiO2 
 PCOD9542533
Probable space group: P -4
;
_chemical_formula_sum "Si O2"
_cell_formula_units_Z 25
_cell_length_a 13.531525
_cell_length_b 13.531525
_cell_length_c 6.874311
_cell_angle_alpha 90.000000
_cell_angle_beta 90.000000
_cell_angle_gamma 90.000000
_cell_volume 1258.701253
_symmetry_space_group_name_H-M "P -4"
_symmetry_group_IT_number 81
_symmetry_cell_setting 'tetragonal'
loop_
_space_group_symop_operation_xyz
x,y,z
y,-x,-z
-x,-y,z
-y,x,-z
loop_
_atom_site_type_symbol
_atom_site_label
_atom_site_fract_x
_atom_site_fract_y
_atom_site_fract_z
Si Si1 0.819492 0.706033 0.000831
Si Si2 0.347361 0.392170 0.756370
Si Si3 0.445775 0.901995 0.685558
Si Si4 0.576069 0.752565 0.440381
Si Si5 0.931621 0.730019 0.608487
Si Si6 0.500000 0.500000 0.000000
Si Si7 0.780804 0.846952 0.334467
O O1 0.849121 0.620414 0.151978
O O2 0.816407 0.806880 0.125007
O O3 0.717328 0.677698 0.894955
O O4 0.896822 0.710398 0.826584
O O5 0.374926 0.338495 0.556135
O O6 0.287190 0.492135 0.705602
O O7 0.447289 0.420474 0.865087
O O8 0.522046 0.824363 0.593748
O O9 0.371616 0.936433 0.513473
O O10 0.500000 0.000000 0.761376
O O11 0.667464 0.810170 0.347056
O O12 0.848567 0.793495 0.496082
O O13 0.037399 0.781740 0.621914
#
# Coordination Sequence:
#
# PCOD9542533 Si02
#       7
#     4   4   4   4   4   1   4
#     4  11  24  42  66 102 134 169 234 284 332 409
#     4  12  23  40  61  97 139 180 225 271 329 405
#     4  11  23  41  68 102 132 181 228 275 347 406
#     4  12  22  42  67  93 140 183 222 272 338 405
#     4  11  24  48  66 100 138 172 228 289 351 411
#     4  12  24  34  56  92 136 182 220 256 322 384
#     4  11  25  44  73  94 134 185 221 285 353 407
#
# _framework density 19.861744999999999
#
# number of rings (size 3 to 8) (size 9 to 14) (size 15 to 20)
#    0.000    0.640    4.800    3.840    0.000    6.080 
#    0.000    0.000    0.000    0.000    0.000    0.000 
#    0.000    0.000    0.000    0.000    0.000    0.000 
#
# Total GULP energy -139799.131040 kJ/mol
# GULP energy per Si atom -5591.965242 kJ/mol
# Density = 1.981654 g / cm^3
# Si number density = 19.861745 Si / 1000 Ang^3
#
#
#
# Elastic Constant Matrix: (Units=GPa)
#
#
# Indices 1 2 3 4 5 6 
#
# 1 67.8633 -4.1994 2.0714 0.0000 0.0000 11.9542
# 2 -4.1994 67.8633 2.0714 0.0000 0.0000 -11.9542
# 3 2.0714 2.0714 70.2008 0.0000 0.0000 0.0000
# 4 0.0000 0.0000 0.0000 9.2759 0.0000 0.0000
# 5 0.0000 0.0000 0.0000 0.0000 9.2759 0.0000
# 6 11.9542 -11.9542 0.0000 0.0000 0.0000 28.6528
#
#
#
# Elastic Compliance Matrix: (Units=1/GPa)
#
#
# Indices 1 2 3 4 5 6 
#
# 1 0.015922 -0.000184 -0.000464 0.000000 0.000000 -0.006720
# 2 -0.000184 0.015922 -0.000464 0.000000 0.000000 0.006720
# 3 -0.000464 -0.000464 0.014272 0.000000 0.000000 0.000000
# 4 0.000000 0.000000 0.000000 0.107807 0.000000 0.000000
# 5 0.000000 0.000000 0.000000 0.000000 0.107807 0.000000
# 6 -0.006720 0.006720 0.000000 0.000000 0.000000 0.040507
#
#
# Mechanical properties :
#
#
# Convention : Reuss Voigt Hill
#
# Bulk Modulus (GPa) = 22.78413 22.86825 22.82619
# Shear Modulus (GPa) = 15.66941 23.17318 19.42130
#
# Velocity S-wave (km/s) = 2.81183 3.41944 3.13041
# Velocity P-wave (km/s) = 4.69447 5.20853 4.95817
#
# Compressibility (1/GPa) = 0.04389020
#
# Stress axis : x y z
#
# Youngs Moduli (GPa) = 62.80635 62.80635 70.06604
#
# Poissons Ratio (x) = 0.01157 0.03254
# Poissons Ratio (y) = 0.01157 0.03254
# Poissons Ratio (z) = 0.02917 0.02917
#
# Static dielectric constant tensor:
#      x y z
#    x 1.699640 0.000000 0.000000 
#    y 0.000000 1.699640 0.000000 
#    z 0.000000 0.000000 1.666510 
# 
# From -- ./inp_files/343.got.cif
#   From: 2010.05.17/outbox.cif.g08.bks.cpg/sg81_cif.got.tgz:343.got - 2010.06.03 18:51:07.
