data_PCOD9542134
_publ_section_title
;
Structure prediction by ZEFSAII (Michael W. Deem and Ramdas Pophale) SiO2 
 PCOD9542134
Probable space group: I 41
;
_chemical_formula_sum "Si O2"
_cell_formula_units_Z 40
_cell_length_a 16.873826
_cell_length_b 16.873826
_cell_length_c 5.522762
_cell_angle_alpha 90.000000
_cell_angle_beta 90.000000
_cell_angle_gamma 90.000000
_cell_volume 1572.473955
_symmetry_space_group_name_H-M "I 41"
_symmetry_group_IT_number 80
_symmetry_cell_setting 'tetragonal'
loop_
_space_group_symop_operation_xyz
x,y,z
-y,1/2+x,1/4+z
-x,-y,z
y,1/2-x,1/4+z
1/2+x,1/2+y,1/2+z
1/2-y,x,3/4+z
1/2-x,1/2-y,1/2+z
1/2+y,-x,3/4+z
loop_
_atom_site_type_symbol
_atom_site_label
_atom_site_fract_x
_atom_site_fract_y
_atom_site_fract_z
Si Si1 0.802672 0.449478 0.630100
Si Si2 0.789680 0.526523 0.115116
Si Si3 0.120833 0.938406 0.584016
Si Si4 0.175504 0.168042 0.116356
Si Si5 0.987099 0.378411 0.345228
O O1 0.822924 0.483806 0.361589
O O2 0.845953 0.373375 0.753783
O O3 0.707432 0.442025 0.609859
O O4 0.824800 0.509439 0.850220
O O5 0.702044 0.488632 0.096856
O O6 0.790677 0.619953 0.162300
O O7 0.077629 0.966969 0.341908
O O8 0.084502 0.958922 0.843639
O O9 0.162917 0.231015 0.326817
O O10 0.143052 0.079282 0.111238
#
# Coordination Sequence:
#
# PCOD9542134 Si02
#       5
#     8   8   8   8   8
#     4  10  20  42  67  93 137 177 214 282 337 406
#     4  10  23  42  64 102 129 173 233 271 338 408
#     4  10  20  42  67  93 137 177 214 282 337 406
#     4  12  26  42  71  96 137 180 230 296 330 412
#     4  10  23  42  64 102 129 173 233 271 338 408
#
# _framework density 25.437621
#
# number of rings (size 3 to 8) (size 9 to 14) (size 15 to 20)
#    0.000    1.600    4.000    1.200    5.600    1.600 
#    0.000    6.000    0.000   38.400    0.000    0.000 
#    0.000    0.000    0.000    0.000    0.000    0.000 
#
# Total GULP energy -111360.796372 kJ/mol
# GULP energy per Si atom -5568.039819 kJ/mol
# Density = 2.537972 g / cm^3
# Si number density = 25.437621 Si / 1000 Ang^3
#
#
#
# Elastic Constant Matrix: (Units=GPa)
#
#
# Indices 1 2 3 4 5 6 
#
# 1 73.7411 25.9337 22.7359 0.0000 0.0000 -28.8383
# 2 25.9337 73.7411 22.7359 0.0000 0.0000 28.8383
# 3 22.7359 22.7359 252.5359 0.0000 0.0000 0.0000
# 4 0.0000 0.0000 0.0000 16.2332 0.0000 0.0000
# 5 0.0000 0.0000 0.0000 0.0000 16.2332 0.0000
# 6 -28.8383 28.8383 0.0000 0.0000 0.0000 34.1248
#
#
#
# Elastic Compliance Matrix: (Units=1/GPa)
#
#
# Indices 1 2 3 4 5 6 
#
# 1 -0.529897 0.540359 -0.000942 0.000000 0.000000 -0.904458
# 2 0.540359 -0.529897 -0.000942 0.000000 0.000000 0.904458
# 3 -0.000942 -0.000942 0.004129 0.000000 0.000000 0.000000
# 4 0.000000 0.000000 0.000000 0.061602 0.000000 0.000000
# 5 0.000000 0.000000 0.000000 0.000000 0.061602 0.000000
# 6 -0.904458 0.904458 0.000000 0.000000 0.000000 -1.499384
#
#
# Mechanical properties :
#
#
# Convention : Reuss Voigt Hill
#
# Bulk Modulus (GPa) = 46.97838 60.31437 53.64637
# Shear Modulus (GPa) = -1.42788 35.22572 16.89892
#
# Velocity S-wave (km/s) = -0.75003 3.72531 2.58025
# Velocity P-wave (km/s) = 4.21404 6.50124 5.47833
#
# Compressibility (1/GPa) = 0.02128639
#
# Stress axis : x y z
#
# Youngs Moduli (GPa) = -1.88716 -1.88716 242.16369
#
# Poissons Ratio (x) = 1.01974 0.22810
# Poissons Ratio (y) = 1.01974 0.22810
# Poissons Ratio (z) = -0.00178 -0.00178
#
# Static dielectric constant tensor:
#      x y z
#    x 2.158520 0.000000 0.000000 
#    y 0.000000 2.158520 0.000000 
#    z 0.000000 0.000000 2.123960 
# 
# From -- ./inp_files/186.got.cif
#   From: 2010.05.17/outbox.cif.g08.bks.cpg/sg80_cif.got.tgz:186.got - 2010.06.03 18:49:13.
