data_PCOD9542197
_publ_section_title
;
Structure prediction by ZEFSAII (Michael W. Deem and Ramdas Pophale) SiO2 
 PCOD9542197
Probable space group: I 41
;
_chemical_formula_sum "Si O2"
_cell_formula_units_Z 40
_cell_length_a 14.464635
_cell_length_b 14.464635
_cell_length_c 8.617455
_cell_angle_alpha 90.000000
_cell_angle_beta 90.000000
_cell_angle_gamma 90.000000
_cell_volume 1802.992759
_symmetry_space_group_name_H-M "I 41"
_symmetry_group_IT_number 80
_symmetry_cell_setting 'tetragonal'
loop_
_space_group_symop_operation_xyz
x,y,z
-y,1/2+x,1/4+z
-x,-y,z
y,1/2-x,1/4+z
1/2+x,1/2+y,1/2+z
1/2-y,x,3/4+z
1/2-x,1/2-y,1/2+z
1/2+y,-x,3/4+z
loop_
_atom_site_type_symbol
_atom_site_label
_atom_site_fract_x
_atom_site_fract_y
_atom_site_fract_z
Si Si1 0.017232 0.215295 0.279600
Si Si2 0.078092 0.423296 0.280296
Si Si3 0.170348 0.165729 0.500456
Si Si4 0.900254 0.980744 0.702639
Si Si5 0.780243 0.142592 0.852115
O O1 0.041150 0.321374 0.314118
O O2 0.062322 0.171252 0.125185
O O3 0.069152 0.164855 0.418685
O O4 0.910584 0.215448 0.228993
O O5 0.000000 0.500000 0.321592
O O6 0.088485 0.424630 0.095182
O O7 0.176501 0.250677 0.621048
O O8 0.171772 0.069174 0.591357
O O9 0.855282 0.069503 0.786476
O O10 0.000000 0.000000 0.628519
O O11 0.723025 0.174356 0.702910
#
# Coordination Sequence:
#
# PCOD9542197 Si02
#       5
#     8   8   8   8   8
#     4  11  22  44  68 104 144 190 239 298 370 433
#     4  10  22  42  71 100 143 187 240 297 374 439
#     4  12  29  43  70 108 147 194 244 306 365 446
#     4  10  25  46  72 105 147 191 240 306 369 440
#     4  11  26  49  79 108 146 197 246 307 364 441
#
# _framework density 22.185333
#
# number of rings (size 3 to 8) (size 9 to 14) (size 15 to 20)
#    0.000    1.200    2.000    3.600   14.000    2.400 
#    3.600    0.000    0.000    0.000    0.000    0.000 
#    0.000    0.000    0.000    0.000    0.000    0.000 
#
# Total GULP energy -111616.479627 kJ/mol
# GULP energy per Si atom -5580.823981 kJ/mol
# Density = 2.213484 g / cm^3
# Si number density = 22.185333 Si / 1000 Ang^3
#
#
#
# Elastic Constant Matrix: (Units=GPa)
#
#
# Indices 1 2 3 4 5 6 
#
# 1 87.1777 31.7786 51.7810 0.0000 0.0000 1.9965
# 2 31.7786 87.1777 51.7810 0.0000 0.0000 -1.9965
# 3 51.7810 51.7810 90.7391 0.0000 0.0000 0.0000
# 4 0.0000 0.0000 0.0000 45.7469 0.0000 0.0000
# 5 0.0000 0.0000 0.0000 0.0000 45.7469 0.0000
# 6 1.9965 -1.9965 0.0000 0.0000 0.0000 30.7114
#
#
#
# Elastic Compliance Matrix: (Units=1/GPa)
#
#
# Indices 1 2 3 4 5 6 
#
# 1 0.017421 -0.000715 -0.009534 0.000000 0.000000 -0.001179
# 2 -0.000715 0.017421 -0.009534 0.000000 0.000000 0.001179
# 3 -0.009534 -0.009534 0.021901 0.000000 0.000000 0.000000
# 4 0.000000 0.000000 0.000000 0.021859 0.000000 0.000000
# 5 0.000000 0.000000 0.000000 0.000000 0.021859 0.000000
# 6 -0.001179 0.001179 0.000000 0.000000 0.000000 0.032714
#
#
# Mechanical properties :
#
#
# Convention : Reuss Voigt Hill
#
# Bulk Modulus (GPa) = 58.20824 59.53060 58.86942
# Shear Modulus (GPa) = 28.01635 33.09129 30.55382
#
# Velocity S-wave (km/s) = 3.55749 3.86629 3.71510
# Velocity P-wave (km/s) = 6.57028 6.84270 6.70787
#
# Compressibility (1/GPa) = 0.01717970
#
# Stress axis : x y z
#
# Youngs Moduli (GPa) = 57.40184 57.40184 45.65913
#
# Poissons Ratio (x) = 0.04103 0.43529
# Poissons Ratio (y) = 0.04103 0.43529
# Poissons Ratio (z) = 0.54724 0.54724
#
# Static dielectric constant tensor:
#      x y z
#    x 1.861820 0.000000 0.000000 
#    y 0.000000 1.861820 0.000000 
#    z 0.000000 0.000000 1.818470 
# 
# From -- ./inp_files/598.got.cif
#   From: 2010.05.17/outbox.cif.g08.bks.cpg/sg80_cif.got.tgz:598.got - 2010.06.03 18:49:13.
