data_PCOD9542394
_publ_section_title
;
Structure prediction by ZEFSAII (Michael W. Deem and Ramdas Pophale) SiO2 
 PCOD9542394
Probable space group: P -4
;
_chemical_formula_sum "Si O2"
_cell_formula_units_Z 17
_cell_length_a 11.434604
_cell_length_b 11.434604
_cell_length_c 5.420695
_cell_angle_alpha 90.000000
_cell_angle_beta 90.000000
_cell_angle_gamma 90.000000
_cell_volume 708.756785
_symmetry_space_group_name_H-M "P -4"
_symmetry_group_IT_number 81
_symmetry_cell_setting 'tetragonal'
loop_
_space_group_symop_operation_xyz
x,y,z
y,-x,-z
-x,-y,z
-y,x,-z
loop_
_atom_site_type_symbol
_atom_site_label
_atom_site_fract_x
_atom_site_fract_y
_atom_site_fract_z
Si Si1 0.060435 0.771339 0.205701
Si Si2 0.814584 0.829808 0.293732
Si Si3 0.500000 0.500000 0.500000
Si Si4 0.483190 0.137759 0.788476
Si Si5 0.252259 0.543260 0.715014
O O1 0.106952 0.837683 0.446204
O O2 0.142243 0.657824 0.209742
O O3 0.923334 0.743391 0.246676
O O4 0.080349 0.823142 0.935470
O O5 0.682809 0.777940 0.287818
O O6 0.388061 0.525198 0.667809
O O7 0.515233 0.186399 0.519981
O O8 0.500000 0.000000 0.820677
O O9 0.516709 0.209209 0.032168
#
# Coordination Sequence:
#
# PCOD9542394 Si02
#       5
#     4   4   1   4   4
#     4  10  21  36  61  88 132 164 215 270 330 398
#     4  10  21  39  58  96 126 171 217 270 331 403
#     4  12  28  50  72 106 148 186 236 298 372 430
#     4  10  22  44  68  95 127 177 233 283 341 411
#     4  10  25  43  66 101 134 176 230 284 354 419
#
# _framework density 23.985659999999999
#
# number of rings (size 3 to 8) (size 9 to 14) (size 15 to 20)
#    0.000    1.882    0.000    2.118    3.294    5.647 
#    8.471    0.000    0.000    0.000    0.000    0.000 
#    0.000    0.000    0.000    0.000    0.000    0.000 
#
# Total GULP energy -94928.020668 kJ/mol
# GULP energy per Si atom -5584.001216 kJ/mol
# Density = 2.393107 g / cm^3
# Si number density = 23.985660 Si / 1000 Ang^3
#
#
#
# Elastic Constant Matrix: (Units=GPa)
#
#
# Indices 1 2 3 4 5 6 
#
# 1 77.0510 17.2842 54.9769 0.0000 0.0000 -2.8973
# 2 17.2842 77.0510 54.9769 0.0000 0.0000 2.8973
# 3 54.9769 54.9769 223.6354 0.0000 0.0000 0.0000
# 4 0.0000 0.0000 0.0000 16.7879 0.0000 0.0000
# 5 0.0000 0.0000 0.0000 0.0000 16.7879 0.0000
# 6 -2.8973 2.8973 0.0000 0.0000 0.0000 30.8114
#
#
#
# Elastic Compliance Matrix: (Units=1/GPa)
#
#
# Indices 1 2 3 4 5 6 
#
# 1 0.015872 -0.001014 -0.003653 0.000000 0.000000 0.001588
# 2 -0.001014 0.015872 -0.003653 0.000000 0.000000 -0.001588
# 3 -0.003653 -0.003653 0.006267 0.000000 0.000000 0.000000
# 4 0.000000 0.000000 0.000000 0.059567 0.000000 0.000000
# 5 0.000000 0.000000 0.000000 0.000000 0.059567 0.000000
# 6 0.001588 -0.001588 0.000000 0.000000 0.000000 0.032754
#
#
# Mechanical properties :
#
#
# Convention : Reuss Voigt Hill
#
# Bulk Modulus (GPa) = 46.78844 70.24594 58.51719
# Shear Modulus (GPa) = 23.40164 29.57742 26.48953
#
# Velocity S-wave (km/s) = 3.12693 3.51540 3.32684
# Velocity P-wave (km/s) = 5.70842 6.76961 6.26154
#
# Compressibility (1/GPa) = 0.02137280
#
# Stress axis : x y z
#
# Youngs Moduli (GPa) = 63.00527 63.00527 159.55626
#
# Poissons Ratio (x) = 0.06388 0.58278
# Poissons Ratio (y) = 0.06388 0.58278
# Poissons Ratio (z) = 0.23013 0.23013
#
# Static dielectric constant tensor:
#      x y z
#    x 1.938090 0.000000 0.000000 
#    y 0.000000 1.938090 0.000000 
#    z 0.000000 0.000000 1.920310 
# 
# From -- ./inp_files/116.got.cif
#   From: 2010.05.17/outbox.cif.g08.bks.cpg/sg81_cif.got.tgz:116.got - 2010.06.03 18:51:07.
