data_PCOD9542401
_publ_section_title
;
Structure prediction by ZEFSAII (Michael W. Deem and Ramdas Pophale) SiO2 
 PCOD9542401
Probable space group: P -4
;
_chemical_formula_sum "Si O2"
_cell_formula_units_Z 28
_cell_length_a 11.928510
_cell_length_b 11.928510
_cell_length_c 10.405199
_cell_angle_alpha 90.000000
_cell_angle_beta 90.000000
_cell_angle_gamma 90.000000
_cell_volume 1480.549011
_symmetry_space_group_name_H-M "P -4"
_symmetry_group_IT_number 81
_symmetry_cell_setting 'tetragonal'
loop_
_space_group_symop_operation_xyz
x,y,z
y,-x,-z
-x,-y,z
-y,x,-z
loop_
_atom_site_type_symbol
_atom_site_label
_atom_site_fract_x
_atom_site_fract_y
_atom_site_fract_z
Si Si1 0.268039 0.220308 0.645238
Si Si2 0.483550 0.365010 0.694345
Si Si3 0.159963 0.579185 0.801235
Si Si4 0.936336 0.647258 0.693611
Si Si5 0.308035 0.740978 0.632195
Si Si6 0.631666 0.013599 0.611039
Si Si7 0.317544 0.510475 0.025495
O O1 0.360729 0.315529 0.674546
O O2 0.151569 0.252965 0.710951
O O3 0.253202 0.230216 0.492367
O O4 0.310022 0.095552 0.669711
O O5 0.500000 0.500000 0.701882
O O6 0.572029 0.314215 0.593587
O O7 0.520663 0.303642 0.826602
O O8 0.133186 0.467093 0.719560
O O9 0.250475 0.657250 0.731812
O O10 0.041065 0.643230 0.790741
O O11 0.212208 0.543095 0.938088
O O12 0.977122 0.648299 0.544878
O O13 0.327411 0.869370 0.670415
O O14 0.500000 0.000000 0.631171
O O15 0.405790 0.614026 0.032889
#
# Coordination Sequence:
#
# PCOD9542401 Si02
#       7
#     4   4   4   4   4   4   4
#     4  11  23  36  59  88 126 162 202 258 318 377
#     4  12  23  34  56  91 127 154 195 259 321 385
#     4  11  20  39  61  83 120 168 207 256 310 375
#     4  10  21  37  61  87 121 159 215 251 310 377
#     4  11  22  34  59  86 119 166 201 247 317 381
#     4  11  19  37  55  85 130 162 191 258 310 374
#     4  11  20  36  55  82 122 156 195 254 314 365
#
# _framework density 18.911902999999999
#
# number of rings (size 3 to 8) (size 9 to 14) (size 15 to 20)
#    0.000    1.000    7.143    1.714    4.000    0.000 
#    0.000    3.571    0.000    0.000    0.000    0.000 
#    0.000    0.000    0.000    0.000    0.000    0.000 
#
# Total GULP energy -156135.669765 kJ/mol
# GULP energy per Si atom -5576.273920 kJ/mol
# Density = 1.886886 g / cm^3
# Si number density = 18.911903 Si / 1000 Ang^3
#
#
#
# Elastic Constant Matrix: (Units=GPa)
#
#
# Indices 1 2 3 4 5 6 
#
# 1 108.7436 53.3690 20.2285 0.0000 0.0000 0.2197
# 2 53.3690 108.7436 20.2285 0.0000 0.0000 -0.2197
# 3 20.2285 20.2285 35.5820 0.0000 0.0000 0.0000
# 4 0.0000 0.0000 0.0000 18.0066 0.0000 0.0000
# 5 0.0000 0.0000 0.0000 0.0000 18.0066 0.0000
# 6 0.2197 -0.2197 0.0000 0.0000 0.0000 32.2977
#
#
#
# Elastic Compliance Matrix: (Units=1/GPa)
#
#
# Indices 1 2 3 4 5 6 
#
# 1 0.012624 -0.005436 -0.004087 0.000000 0.000000 -0.000123
# 2 -0.005436 0.012624 -0.004087 0.000000 0.000000 0.000123
# 3 -0.004087 -0.004087 0.032751 0.000000 0.000000 0.000000
# 4 0.000000 0.000000 0.000000 0.055535 0.000000 0.000000
# 5 0.000000 0.000000 0.000000 0.000000 0.055535 0.000000
# 6 -0.000123 0.000123 0.000000 0.000000 0.000000 0.030964
#
#
# Mechanical properties :
#
#
# Convention : Reuss Voigt Hill
#
# Bulk Modulus (GPa) = 32.48766 48.96903 40.72835
# Shear Modulus (GPa) = 21.05164 24.27839 22.66502
#
# Velocity S-wave (km/s) = 3.34000 3.58685 3.46562
# Velocity P-wave (km/s) = 5.66479 6.56532 6.13161
#
# Compressibility (1/GPa) = 0.03078091
#
# Stress axis : x y z
#
# Youngs Moduli (GPa) = 79.21350 79.21350 30.53374
#
# Poissons Ratio (x) = 0.43058 0.12478
# Poissons Ratio (y) = 0.43058 0.12478
# Poissons Ratio (z) = 0.32372 0.32372
#
# Static dielectric constant tensor:
#      x y z
#    x 1.683050 0.000000 0.000000 
#    y 0.000000 1.683050 0.000000 
#    z 0.000000 0.000000 1.709140 
# 
# From -- ./inp_files/1373.got.cif
#   From: 2010.05.17/outbox.cif.g08.bks.cpg/sg81_cif.got.tgz:1373.got - 2010.06.03 18:51:07.
