data_PCOD9542080
_publ_section_title
;
Structure prediction by ZEFSAII (Michael W. Deem and Ramdas Pophale) SiO2 
 PCOD9542080
Probable space group: I 41
;
_chemical_formula_sum "Si O2"
_cell_formula_units_Z 48
_cell_length_a 8.720692
_cell_length_b 8.720692
_cell_length_c 29.661221
_cell_angle_alpha 90.000000
_cell_angle_beta 90.000000
_cell_angle_gamma 90.000000
_cell_volume 2255.749767
_symmetry_space_group_name_H-M "I 41"
_symmetry_group_IT_number 80
_symmetry_cell_setting 'tetragonal'
loop_
_space_group_symop_operation_xyz
x,y,z
-y,1/2+x,1/4+z
-x,-y,z
y,1/2-x,1/4+z
1/2+x,1/2+y,1/2+z
1/2-y,x,3/4+z
1/2-x,1/2-y,1/2+z
1/2+y,-x,3/4+z
loop_
_atom_site_type_symbol
_atom_site_label
_atom_site_fract_x
_atom_site_fract_y
_atom_site_fract_z
Si Si1 0.000000 0.000000 0.867720
Si Si2 0.238167 0.271453 0.265671
Si Si3 0.850615 0.415202 0.535758
Si Si4 0.764277 0.704586 0.410525
Si Si5 0.675896 0.956286 0.339670
Si Si6 0.500000 0.500000 0.613270
Si Si7 0.277232 0.601496 0.299028
O O1 0.917823 0.119678 0.833481
O O2 0.126710 0.086950 0.897060
O O3 0.232956 0.235904 0.213323
O O4 0.331181 0.149334 0.294785
O O5 0.297791 0.443240 0.272659
O O6 0.067069 0.255830 0.287176
O O7 0.738668 0.281586 0.517073
O O8 0.000000 0.500000 0.514333
O O9 0.922589 0.313218 0.576992
O O10 0.735040 0.855125 0.381080
O O11 0.921125 0.628008 0.394074
O O12 0.500000 0.000000 0.349118
O O13 0.431038 0.636287 0.583184
#
# Coordination Sequence:
#
# PCOD9542080 Si02
#       7
#     4   8   8   8   8   4   8
#     4  10  22  37  66  94 124 182 218 277 332 408
#     4  11  23  42  68 100 129 173 232 283 333 406
#     4  10  21  36  67  94 123 174 217 275 336 390
#     4  11  24  41  66 101 134 173 226 286 339 407
#     4  11  23  46  64  94 143 180 219 279 351 409
#     4  10  18  37  66  90 130 158 218 281 328 390
#     4  11  19  41  66  93 131 176 225 272 332 403
#
# _framework density 21.278955
#
# number of rings (size 3 to 8) (size 9 to 14) (size 15 to 20)
#    0.000    1.333    5.000    2.000    5.833    0.000 
#    1.500    4.167    0.000    0.000    0.000    0.000 
#    0.000    0.000    0.000    0.000    0.000    0.000 
#
# Total GULP energy -133633.166242 kJ/mol
# GULP energy per Si atom -5568.048593 kJ/mol
# Density = 2.123052 g / cm^3
# Si number density = 21.278955 Si / 1000 Ang^3
#
#
#
# Elastic Constant Matrix: (Units=GPa)
#
#
# Indices 1 2 3 4 5 6 
#
# 1 80.7032 10.4902 30.9503 0.0000 0.0000 -1.6398
# 2 10.4902 80.7032 30.9503 0.0000 0.0000 1.6398
# 3 30.9503 30.9503 115.2417 0.0000 0.0000 0.0000
# 4 0.0000 0.0000 0.0000 5.9497 0.0000 0.0000
# 5 0.0000 0.0000 0.0000 0.0000 5.9497 0.0000
# 6 -1.6398 1.6398 0.0000 0.0000 0.0000 49.0412
#
#
#
# Elastic Compliance Matrix: (Units=1/GPa)
#
#
# Indices 1 2 3 4 5 6 
#
# 1 0.013838 -0.000427 -0.003602 0.000000 0.000000 0.000477
# 2 -0.000427 0.013838 -0.003602 0.000000 0.000000 -0.000477
# 3 -0.003602 -0.003602 0.010612 0.000000 0.000000 0.000000
# 4 0.000000 0.000000 0.000000 0.168075 0.000000 0.000000
# 5 0.000000 0.000000 0.000000 0.000000 0.168075 0.000000
# 6 0.000477 -0.000477 0.000000 0.000000 0.000000 0.020423
#
#
# Mechanical properties :
#
#
# Convention : Reuss Voigt Hill
#
# Bulk Modulus (GPa) = 43.42852 46.82555 45.12703
# Shear Modulus (GPa) = 11.96754 25.80527 18.88641
#
# Velocity S-wave (km/s) = 2.37410 3.48618 2.98243
# Velocity P-wave (km/s) = 5.28853 6.18530 5.75441
#
# Compressibility (1/GPa) = 0.02302634
#
# Stress axis : x y z
#
# Youngs Moduli (GPa) = 72.26717 72.26717 94.23308
#
# Poissons Ratio (x) = 0.03087 0.33939
# Poissons Ratio (y) = 0.03087 0.33939
# Poissons Ratio (z) = 0.26028 0.26028
#
# Static dielectric constant tensor:
#      x y z
#    x 1.869370 0.000000 0.000000 
#    y 0.000000 1.869370 0.000000 
#    z 0.000000 0.000000 1.706860 
# 
# From -- ./inp_files/2652.got.cif
#   From: 2010.05.17/outbox.cif.g08.bks.cpg/sg80_cif.got.tgz:2652.got - 2010.06.03 18:49:13.
