data_PCOD9542873
_publ_section_title
;
Structure prediction by ZEFSAII (Michael W. Deem and Ramdas Pophale) SiO2 
 PCOD9542873
Probable space group: I -4 
;
_chemical_formula_sum "Si O2"
_cell_formula_units_Z 48
_cell_length_a 7.986236
_cell_length_b 7.986236
_cell_length_c 29.424134
_cell_angle_alpha 90.000000
_cell_angle_beta 90.000000
_cell_angle_gamma 90.000000
_cell_volume 1876.670250
_symmetry_space_group_name_H-M "I -4 "
_symmetry_group_IT_number 82
_symmetry_cell_setting 'tetragonal'
loop_
_space_group_symop_operation_xyz
x,y,z
y,-x,-z
-x,-y,z
-y,x,-z
1/2+x,1/2+y,1/2+z
1/2+y,1/2-x,1/2-z
1/2-x,1/2-y,1/2+z
1/2-y,1/2+x,1/2-z
loop_
_atom_site_type_symbol
_atom_site_label
_atom_site_fract_x
_atom_site_fract_y
_atom_site_fract_z
Si Si1 0.131041 0.766889 0.015161
Si Si2 0.376298 0.337366 0.215223
Si Si3 0.757275 0.380679 0.933180
Si Si4 0.304129 0.026127 0.633367
Si Si5 0.301527 0.204280 0.310749
Si Si6 0.263214 0.903764 0.099420
O O1 0.144703 0.784512 0.069404
O O2 0.226282 0.619659 0.988066
O O3 0.936309 0.777972 0.002680
O O4 0.500000 0.500000 0.217844
O O5 0.239160 0.351073 0.175836
O O6 0.298105 0.305454 0.264300
O O7 0.510017 0.194785 0.202448
O O8 0.594002 0.305293 0.908976
O O9 0.820466 0.555186 0.911938
O O10 0.910222 0.257075 0.920692
O O11 0.500000 0.000000 0.625071
O O12 0.234670 0.856815 0.656148
O O13 0.436121 0.261044 0.347304
#
# Coordination Sequence:
#
# PCOD9542873 Si02
#       6
#     8   8   8   8   8   8
#     4   9  20  40  63  94 134 172 219 276 335 404
#     4  10  25  45  65  98 136 177 230 278 343 405
#     4  10  22  42  64  98 133 174 224 273 344 406
#     4  11  26  43  65  96 135 175 222 284 341 410
#     4  11  25  42  68  94 134 177 225 282 337 409
#     4  10  22  41  67  97 133 173 225 280 331 411
#
# _framework density 25.577217999999998
#
# number of rings (size 3 to 8) (size 9 to 14) (size 15 to 20)
#    0.000    1.833    1.667    0.000    9.333    1.667 
#    6.000    0.000    0.000    0.000    0.000    0.000 
#    0.000    0.000    0.000    0.000    0.000    0.000 
#
# Total GULP energy -134039.391057 kJ/mol
# GULP energy per Si atom -5584.974627 kJ/mol
# Density = 2.551900 g / cm^3
# Si number density = 25.577218 Si / 1000 Ang^3
#
#
#
# Elastic Constant Matrix: (Units=GPa)
#
#
# Indices 1 2 3 4 5 6 
#
# 1 90.3569 13.5375 15.4994 0.0000 0.0000 -4.8296
# 2 13.5375 90.3569 15.4994 0.0000 0.0000 4.8296
# 3 15.4994 15.4994 123.7474 0.0000 0.0000 0.0000
# 4 0.0000 0.0000 0.0000 34.9407 0.0000 0.0000
# 5 0.0000 0.0000 0.0000 0.0000 34.9407 0.0000
# 6 -4.8296 4.8296 0.0000 0.0000 0.0000 19.8578
#
#
#
# Elastic Compliance Matrix: (Units=1/GPa)
#
#
# Indices 1 2 3 4 5 6 
#
# 1 0.011713 -0.001715 -0.001252 0.000000 0.000000 0.003266
# 2 -0.001715 0.011713 -0.001252 0.000000 0.000000 -0.003266
# 3 -0.001252 -0.001252 0.008395 0.000000 0.000000 0.000000
# 4 0.000000 0.000000 0.000000 0.028620 0.000000 0.000000
# 5 0.000000 0.000000 0.000000 0.000000 0.028620 0.000000
# 6 0.003266 -0.003266 0.000000 0.000000 0.000000 0.051947
#
#
# Mechanical properties :
#
#
# Convention : Reuss Voigt Hill
#
# Bulk Modulus (GPa) = 42.76627 43.72597 43.24612
# Shear Modulus (GPa) = 31.79832 35.27620 33.53726
#
# Velocity S-wave (km/s) = 3.52977 3.71779 3.62500
# Velocity P-wave (km/s) = 5.77660 5.96340 5.87074
#
# Compressibility (1/GPa) = 0.02338291
#
# Stress axis : x y z
#
# Youngs Moduli (GPa) = 85.37162 85.37161 119.12291
#
# Poissons Ratio (x) = 0.14639 0.14918
# Poissons Ratio (y) = 0.14639 0.14918
# Poissons Ratio (z) = 0.10692 0.10692
#
# Static dielectric constant tensor:
#      x y z
#    x 2.120920 0.000000 0.000000 
#    y 0.000000 2.120920 0.000000 
#    z 0.000000 0.000000 2.150600 
# 
# From -- ./inp_files/4027.got.cif
#   From: 2010.05.17/outbox.cif.g08.bks.cpg/sg82_3_cif.got.tgz:4027.got - 2010.06.03 18:52:26.
