data_PCOD9542353
_publ_section_title
;
Structure prediction by ZEFSAII (Michael W. Deem and Ramdas Pophale) SiO2 
 PCOD9542353
Probable space group: P -4
;
_chemical_formula_sum "Si O2"
_cell_formula_units_Z 25
_cell_length_a 11.778990
_cell_length_b 11.778990
_cell_length_c 12.400493
_cell_angle_alpha 90.000000
_cell_angle_beta 90.000000
_cell_angle_gamma 90.000000
_cell_volume 1720.501508
_symmetry_space_group_name_H-M "P -4"
_symmetry_group_IT_number 81
_symmetry_cell_setting 'tetragonal'
loop_
_space_group_symop_operation_xyz
x,y,z
y,-x,-z
-x,-y,z
-y,x,-z
loop_
_atom_site_type_symbol
_atom_site_label
_atom_site_fract_x
_atom_site_fract_y
_atom_site_fract_z
Si Si1 0.004108 0.197825 0.111424
Si Si2 0.001751 0.816563 0.874964
Si Si3 0.814836 0.637506 0.491143
Si Si4 0.002903 0.238289 0.631029
Si Si5 0.367658 0.181895 0.501667
Si Si6 0.365928 0.001840 0.689296
Si Si7 0.000000 0.000000 0.500000
O O1 0.994128 0.288887 0.205493
O O2 0.905092 0.103168 0.118826
O O3 0.115733 0.120793 0.126662
O O4 0.002379 0.247135 0.989833
O O5 0.992187 0.759709 0.759392
O O6 0.693356 0.697348 0.493740
O O7 0.811718 0.502902 0.508403
O O8 0.889419 0.658925 0.382651
O O9 0.887659 0.699976 0.582601
O O10 0.895451 0.309047 0.589111
O O11 0.997296 0.111717 0.577142
O O12 0.343549 0.110354 0.611641
O O13 0.500000 0.000000 0.714310
#
# Coordination Sequence:
#
# PCOD9542353 Si02
#       7
#     4   4   4   4   4   4   1
#     4   9  16  29  41  65  91 123 147 179 216 265
#     4   9  18  25  44  66  94 117 147 180 220 267
#     4  10  20  32  47  67  92 121 152 193 232 272
#     4  11  19  30  44  76  96 119 151 187 226 275
#     4  10  20  32  47  67  92 121 152 193 232 272
#     4   9  18  31  48  66  87 116 154 190 223 267
#     4  12  20  24  52  74  92 132 148 176 226 280
#
# _framework density 14.530646000000001
#
# number of rings (size 3 to 8) (size 9 to 14) (size 15 to 20)
#    0.000    2.240    1.600    5.280    4.480    0.320 
#    0.000    1.600    0.000    0.000    0.000    0.000 
#    0.000    0.000    0.000   16.960    0.000    0.000 
#
# Total GULP energy -139269.488381 kJ/mol
# GULP energy per Si atom -5570.779535 kJ/mol
# Density = 1.449757 g / cm^3
# Si number density = 14.530646 Si / 1000 Ang^3
#
#
#
# Elastic Constant Matrix: (Units=GPa)
#
#
# Indices 1 2 3 4 5 6 
#
# 1 73.0062 29.0170 38.8826 0.0000 0.0000 0.4024
# 2 29.0170 73.0062 38.8826 0.0000 0.0000 -0.4024
# 3 38.8826 38.8826 132.0856 0.0000 0.0000 0.0000
# 4 0.0000 0.0000 0.0000 13.3066 0.0000 0.0000
# 5 0.0000 0.0000 0.0000 0.0000 13.3066 0.0000
# 6 0.4024 -0.4024 0.0000 0.0000 0.0000 19.0021
#
#
#
# Elastic Compliance Matrix: (Units=1/GPa)
#
#
# Indices 1 2 3 4 5 6 
#
# 1 0.017689 -0.005052 -0.003720 0.000000 0.000000 -0.000482
# 2 -0.005052 0.017689 -0.003720 0.000000 0.000000 0.000482
# 3 -0.003720 -0.003720 0.009761 0.000000 0.000000 0.000000
# 4 0.000000 0.000000 0.000000 0.075151 0.000000 0.000000
# 5 0.000000 0.000000 0.000000 0.000000 0.075151 0.000000
# 6 -0.000482 0.000482 0.000000 0.000000 0.000000 0.052646
#
#
# Mechanical properties :
#
#
# Convention : Reuss Voigt Hill
#
# Bulk Modulus (GPa) = 49.61495 54.62917 52.12206
# Shear Modulus (GPa) = 17.87048 20.54409 19.20729
#
# Velocity S-wave (km/s) = 3.51072 3.76419 3.63967
# Velocity P-wave (km/s) = 7.11707 7.52128 7.32197
#
# Compressibility (1/GPa) = 0.02015521
#
# Stress axis : x y z
#
# Youngs Moduli (GPa) = 56.53080 56.53080 102.44805
#
# Poissons Ratio (x) = 0.28561 0.38112
# Poissons Ratio (y) = 0.28561 0.38112
# Poissons Ratio (z) = 0.21030 0.21030
#
# Static dielectric constant tensor:
#      x y z
#    x 1.480110 0.000000 0.000000 
#    y 0.000000 1.480110 0.000000 
#    z 0.000000 0.000000 1.489190 
# 
# From -- ./inp_files/1345.got.cif
#   From: 2010.05.17/outbox.cif.g08.bks.cpg/sg81_cif.got.tgz:1345.got - 2010.06.03 18:51:07.
