data_PCOD9542746
_publ_section_title
;
Structure prediction by ZEFSAII (Michael W. Deem and Ramdas Pophale) SiO2 
 PCOD9542746
Probable space group: I -4 
;
_chemical_formula_sum "Si O2"
_cell_formula_units_Z 40
_cell_length_a 10.593770
_cell_length_b 10.593770
_cell_length_c 15.194429
_cell_angle_alpha 90.000000
_cell_angle_beta 90.000000
_cell_angle_gamma 90.000000
_cell_volume 1705.239813
_symmetry_space_group_name_H-M "I -4 "
_symmetry_group_IT_number 82
_symmetry_cell_setting 'tetragonal'
loop_
_space_group_symop_operation_xyz
x,y,z
y,-x,-z
-x,-y,z
-y,x,-z
1/2+x,1/2+y,1/2+z
1/2+y,1/2-x,1/2-z
1/2-x,1/2-y,1/2+z
1/2-y,1/2+x,1/2-z
loop_
_atom_site_type_symbol
_atom_site_label
_atom_site_fract_x
_atom_site_fract_y
_atom_site_fract_z
Si Si1 0.535268 0.862138 0.965551
Si Si2 0.432120 0.860332 0.363165
Si Si3 0.817824 0.067161 0.263132
Si Si4 0.487347 0.801249 0.776305
Si Si5 0.437304 0.663713 0.056079
O O1 0.544810 0.787546 0.874244
O O2 0.500000 0.000000 0.932798
O O3 0.645773 0.891429 0.035063
O O4 0.420291 0.807171 0.026361
O O5 0.302880 0.865090 0.307657
O O6 0.508037 0.743142 0.323827
O O7 0.500000 0.000000 0.350461
O O8 0.928159 0.168161 0.247111
O O9 0.852864 0.966558 0.341366
O O10 0.599703 0.869709 0.723635
O O11 0.573999 0.643449 0.006751
#
# Coordination Sequence:
#
# PCOD9542746 Si02
#       5
#     8   8   8   8   8
#     4  10  20  40  59  84 127 174 214 264 337 425
#     4  10  20  39  64  92 131 169 221 282 348 410
#     4  11  20  39  64  96 128 170 228 283 339 419
#     4  11  23  42  62  89 135 182 225 275 350 419
#     4  10  21  37  62  98 129 159 217 295 348 387
#
# _framework density 23.457113
#
# number of rings (size 3 to 8) (size 9 to 14) (size 15 to 20)
#    0.000    1.600    6.000    0.000    0.000    1.600 
#    0.000    0.000    0.000    0.000    0.000    0.000 
#   18.000    0.000    0.000    0.000    0.000    0.000 
#
# Total GULP energy -111340.684227 kJ/mol
# GULP energy per Si atom -5567.034211 kJ/mol
# Density = 2.340372 g / cm^3
# Si number density = 23.457113 Si / 1000 Ang^3
#
#
#
# Elastic Constant Matrix: (Units=GPa)
#
#
# Indices 1 2 3 4 5 6 
#
# 1 71.9126 21.4500 33.1899 0.0000 0.0000 -4.1216
# 2 21.4500 71.9126 33.1899 0.0000 0.0000 4.1216
# 3 33.1899 33.1899 147.1914 0.0000 0.0000 0.0000
# 4 0.0000 0.0000 0.0000 32.5290 0.0000 0.0000
# 5 0.0000 0.0000 0.0000 0.0000 32.5290 0.0000
# 6 -4.1216 4.1216 0.0000 0.0000 0.0000 48.3611
#
#
#
# Elastic Compliance Matrix: (Units=1/GPa)
#
#
# Indices 1 2 3 4 5 6 
#
# 1 0.016426 -0.003670 -0.002876 0.000000 0.000000 0.001713
# 2 -0.003670 0.016426 -0.002876 0.000000 0.000000 -0.001713
# 3 -0.002876 -0.002876 0.008091 0.000000 0.000000 0.000000
# 4 0.000000 0.000000 0.000000 0.030742 0.000000 0.000000
# 5 0.000000 0.000000 0.000000 0.000000 0.030742 0.000000
# 6 0.001713 -0.001713 0.000000 0.000000 0.000000 0.020970
#
#
# Mechanical properties :
#
#
# Convention : Reuss Voigt Hill
#
# Bulk Modulus (GPa) = 45.25362 51.85290 48.55326
# Shear Modulus (GPa) = 33.42060 36.22961 34.82510
#
# Velocity S-wave (km/s) = 3.77869 3.93428 3.85727
# Velocity P-wave (km/s) = 6.19451 6.54152 6.37038
#
# Compressibility (1/GPa) = 0.02209768
#
# Stress axis : x y z
#
# Youngs Moduli (GPa) = 60.87838 60.87837 123.59372
#
# Poissons Ratio (x) = 0.22344 0.35549
# Poissons Ratio (y) = 0.22344 0.35549
# Poissons Ratio (z) = 0.17511 0.17511
#
# Static dielectric constant tensor:
#      x y z
#    x 2.348920 0.000000 0.000000 
#    y 0.000000 2.348920 0.000000 
#    z 0.000000 0.000000 2.011090 
# 
# From -- ./inp_files/2204.got.cif
#   From: 2010.05.17/outbox.cif.g08.bks.cpg/sg82_2_cif.got.tgz:2204.got - 2010.06.03 18:52:26.
