data_PCOD9542188
_publ_section_title
;
Structure prediction by ZEFSAII (Michael W. Deem and Ramdas Pophale) SiO2 
 PCOD9542188
Probable space group: I 41
;
_chemical_formula_sum "Si O2"
_cell_formula_units_Z 40
_cell_length_a 12.092019
_cell_length_b 12.092019
_cell_length_c 10.053336
_cell_angle_alpha 90.000000
_cell_angle_beta 90.000000
_cell_angle_gamma 90.000000
_cell_volume 1469.967861
_symmetry_space_group_name_H-M "I 41"
_symmetry_group_IT_number 80
_symmetry_cell_setting 'tetragonal'
loop_
_space_group_symop_operation_xyz
x,y,z
-y,1/2+x,1/4+z
-x,-y,z
y,1/2-x,1/4+z
1/2+x,1/2+y,1/2+z
1/2-y,x,3/4+z
1/2-x,1/2-y,1/2+z
1/2+y,-x,3/4+z
loop_
_atom_site_type_symbol
_atom_site_label
_atom_site_fract_x
_atom_site_fract_y
_atom_site_fract_z
Si Si1 0.823706 0.517998 0.899470
Si Si2 0.219571 0.860690 0.706827
Si Si3 0.072142 0.594976 0.586771
Si Si4 0.438504 0.379965 0.432685
Si Si5 0.773701 0.955197 0.131344
O O1 0.622336 0.483925 0.697138
O O2 0.895735 0.404705 0.906696
O O3 0.796975 0.583208 0.762095
O O4 0.850765 0.586076 0.028985
O O5 0.205089 0.787478 0.841254
O O6 0.207293 0.950628 0.412747
O O7 0.193601 0.548674 0.573659
O O8 0.000000 0.500000 0.651898
O O9 0.500000 0.500000 0.433080
O O10 0.327371 0.380122 0.520429
O O11 0.529363 0.291320 0.481204
#
# Coordination Sequence:
#
# PCOD9542188 Si02
#       5
#     8   8   8   8   8
#     4   9  23  45  71 118 161 217 282 358 435 518
#     4  10  22  40  73 118 164 217 293 361 424 512
#     4  10  23  46  80 113 160 221 288 353 434 519
#     4  11  24  41  71 127 167 211 286 372 439 505
#     4  10  23  44  79 113 165 220 282 358 437 518
#
# _framework density 27.211476999999999
#
# number of rings (size 3 to 8) (size 9 to 14) (size 15 to 20)
#    1.200    0.800    0.000    3.000    5.600    0.800 
#    7.200    0.000    4.400    0.000    0.000    0.000 
#    0.000    0.000    0.000    0.000    0.000    0.000 
#
# Total GULP energy -111740.840109 kJ/mol
# GULP energy per Si atom -5587.042005 kJ/mol
# Density = 2.714954 g / cm^3
# Si number density = 27.211477 Si / 1000 Ang^3
#
#
#
# Elastic Constant Matrix: (Units=GPa)
#
#
# Indices 1 2 3 4 5 6 
#
# 1 80.0490 50.1628 44.9677 0.0000 0.0000 1.3984
# 2 50.1628 80.0490 44.9677 0.0000 0.0000 -1.3984
# 3 44.9677 44.9677 210.5934 0.0000 0.0000 0.0000
# 4 0.0000 0.0000 0.0000 50.0845 0.0000 0.0000
# 5 0.0000 0.0000 0.0000 0.0000 50.0845 0.0000
# 6 1.3984 -1.3984 0.0000 0.0000 0.0000 21.4290
#
#
#
# Elastic Compliance Matrix: (Units=1/GPa)
#
#
# Indices 1 2 3 4 5 6 
#
# 1 0.021337 -0.012329 -0.001924 0.000000 0.000000 -0.002197
# 2 -0.012329 0.021337 -0.001924 0.000000 0.000000 0.002197
# 3 -0.001924 -0.001924 0.005570 0.000000 0.000000 0.000000
# 4 0.000000 0.000000 0.000000 0.019966 0.000000 0.000000
# 5 0.000000 0.000000 0.000000 0.000000 0.019966 0.000000
# 6 -0.002197 0.002197 0.000000 0.000000 0.000000 0.046953
#
#
# Mechanical properties :
#
#
# Convention : Reuss Voigt Hill
#
# Bulk Modulus (GPa) = 62.92274 72.32083 67.62178
# Shear Modulus (GPa) = 28.93882 39.69249 34.31566
#
# Velocity S-wave (km/s) = 3.26464 3.82339 3.55501
# Velocity P-wave (km/s) = 6.11427 6.79162 6.46183
#
# Compressibility (1/GPa) = 0.01589251
#
# Stress axis : x y z
#
# Youngs Moduli (GPa) = 46.86671 46.86671 179.53490
#
# Poissons Ratio (x) = 0.57781 0.34534
# Poissons Ratio (y) = 0.57781 0.34534
# Poissons Ratio (z) = 0.09015 0.09015
#
# Static dielectric constant tensor:
#      x y z
#    x 2.173410 0.000000 0.000000 
#    y 0.000000 2.173410 0.000000 
#    z 0.000000 0.000000 2.215280 
# 
# From -- ./inp_files/611.got.cif
#   From: 2010.05.17/outbox.cif.g08.bks.cpg/sg80_cif.got.tgz:611.got - 2010.06.03 18:49:13.
