data_PCOD9542416
_publ_section_title
;
Structure prediction by ZEFSAII (Michael W. Deem and Ramdas Pophale) SiO2 
 PCOD9542416
Probable space group: P -4
;
_chemical_formula_sum "Si O2"
_cell_formula_units_Z 16
_cell_length_a 9.727464
_cell_length_b 9.727464
_cell_length_c 7.277884
_cell_angle_alpha 90.000000
_cell_angle_beta 90.000000
_cell_angle_gamma 90.000000
_cell_volume 688.659263
_symmetry_space_group_name_H-M "P -4"
_symmetry_group_IT_number 81
_symmetry_cell_setting 'tetragonal'
loop_
_space_group_symop_operation_xyz
x,y,z
y,-x,-z
-x,-y,z
-y,x,-z
loop_
_atom_site_type_symbol
_atom_site_label
_atom_site_fract_x
_atom_site_fract_y
_atom_site_fract_z
Si Si1 0.000000 0.000000 0.500000
Si Si2 0.236145 0.068948 0.273141
Si Si3 0.500000 0.500000 0.000000
Si Si4 0.264637 0.794225 0.069719
Si Si5 0.500000 0.000000 0.516753
Si Si6 0.773126 0.509390 0.181144
O O1 0.900574 0.101524 0.608731
O O2 0.206597 0.921818 0.179465
O O3 0.373567 0.052089 0.392310
O O4 0.238844 0.179728 0.113186
O O5 0.557976 0.383867 0.862223
O O6 0.249430 0.654499 0.184077
O O7 0.417510 0.837307 0.000113
O O8 0.543545 0.127985 0.649263
#
# Coordination Sequence:
#
# PCOD9542416 Si02
#       6
#     1   4   1   4   2   4
#     4  12  24  38  56  92 124 154 204 260 304 350
#     4  12  24  40  62  88 122 162 204 254 306 360
#     4   8  20  40  68  90 124 170 204 232 292 378
#     4  11  22  42  64  87 120 168 206 241 300 378
#     4  12  24  40  62  96 126 154 200 264 308 344
#     4  10  21  40  64  92 123 158 204 248 297 362
#
# _framework density 23.233550000000001
#
# number of rings (size 3 to 8) (size 9 to 14) (size 15 to 20)
#    0.000    1.000    0.000    7.500    0.000    0.000 
#    0.000    2.500    0.000    0.000    0.000    0.000 
#    0.000    0.000    0.000    0.000    0.000    0.000 
#
# Total GULP energy -89267.411315 kJ/mol
# GULP energy per Si atom -5579.213207 kJ/mol
# Density = 2.318067 g / cm^3
# Si number density = 23.233550 Si / 1000 Ang^3
#
#
#
# Elastic Constant Matrix: (Units=GPa)
#
#
# Indices 1 2 3 4 5 6 
#
# 1 90.9713 1.0294 26.8628 0.0000 0.0000 -2.5159
# 2 1.0294 90.9713 26.8628 0.0000 0.0000 2.5159
# 3 26.8628 26.8628 74.8727 0.0000 0.0000 0.0000
# 4 0.0000 0.0000 0.0000 50.4637 0.0000 0.0000
# 5 0.0000 0.0000 0.0000 0.0000 50.4637 0.0000
# 6 -2.5159 2.5159 0.0000 0.0000 0.0000 27.3776
#
#
#
# Elastic Compliance Matrix: (Units=1/GPa)
#
#
# Indices 1 2 3 4 5 6 
#
# 1 0.012463 0.001287 -0.004933 0.000000 0.000000 0.001027
# 2 0.001287 0.012463 -0.004933 0.000000 0.000000 -0.001027
# 3 -0.004933 -0.004933 0.016896 0.000000 0.000000 0.000000
# 4 0.000000 0.000000 0.000000 0.019816 0.000000 0.000000
# 5 0.000000 0.000000 0.000000 0.000000 0.019816 0.000000
# 6 0.001027 -0.001027 0.000000 0.000000 0.000000 0.036715
#
#
# Mechanical properties :
#
#
# Convention : Reuss Voigt Hill
#
# Bulk Modulus (GPa) = 40.54602 40.70284 40.62443
# Shear Modulus (GPa) = 34.83120 39.13170 36.98145
#
# Velocity S-wave (km/s) = 3.87612 4.10845 3.99397
# Velocity P-wave (km/s) = 6.12550 6.32952 6.22835
#
# Compressibility (1/GPa) = 0.02466333
#
# Stress axis : x y z
#
# Youngs Moduli (GPa) = 80.23698 80.23698 59.18562
#
# Poissons Ratio (x) = -0.10329 0.29199
# Poissons Ratio (y) = -0.10329 0.29199
# Poissons Ratio (z) = 0.39584 0.39584
#
# Static dielectric constant tensor:
#      x y z
#    x 1.941380 0.000000 0.000000 
#    y 0.000000 1.941380 0.000000 
#    z 0.000000 0.000000 1.872110 
# 
# From -- ./inp_files/138.got.cif
#   From: 2010.05.17/outbox.cif.g08.bks.cpg/sg81_cif.got.tgz:138.got - 2010.06.03 18:51:07.
