data_PCOD9542041
_publ_section_title
;
Structure prediction by ZEFSAII (Michael W. Deem and Ramdas Pophale) SiO2 
 PCOD9542041
Probable space group: I 4
;
_chemical_formula_sum "Si O2"
_cell_formula_units_Z 34
_cell_length_a 9.436492
_cell_length_b 9.436492
_cell_length_c 17.550543
_cell_angle_alpha 90.000000
_cell_angle_beta 90.000000
_cell_angle_gamma 90.000000
_cell_volume 1562.829894
_symmetry_space_group_name_H-M "I 4"
_symmetry_group_IT_number 79
_symmetry_cell_setting 'tetragonal'
loop_
_space_group_symop_operation_xyz
x,y,z
-y,x,z
-x,-y,z
y,-x,z
1/2+x,1/2+y,1/2+z
1/2-y,1/2+x,1/2+z
1/2-x,1/2-y,1/2+z
1/2+y,1/2-x,1/2+z
loop_
_atom_site_type_symbol
_atom_site_label
_atom_site_fract_x
_atom_site_fract_y
_atom_site_fract_z
Si Si1 0.399252 0.288519 0.392790
Si Si2 0.991035 0.340858 0.150239
Si Si3 0.235332 0.752319 0.551090
Si Si4 0.784347 0.923648 0.308721
Si Si5 0.500000 0.500000 0.028698
O O1 0.563430 0.318788 0.375891
O O2 0.351313 0.261862 0.479621
O O3 0.347899 0.153634 0.345517
O O4 0.878129 0.327709 0.081538
O O5 0.940480 0.240118 0.218601
O O6 0.000000 0.500000 0.180698
O O7 0.146350 0.308180 0.118773
O O8 0.116641 0.867872 0.532114
O O9 0.918198 0.826767 0.332849
#
# Coordination Sequence:
#
# PCOD9542041 Si02
#       5
#     8   8   8   8   2
#     4  11  27  48  73 107 148 201 247 309 378 456
#     4  12  25  45  76 111 144 199 251 317 379 447
#     4  12  25  47  77 107 147 195 254 311 381 457
#     4  11  27  45  71 106 146 194 250 308 372 448
#     4  12  28  44  64 120 148 184 240 318 384 456
#
# _framework density 21.755406000000001
#
# number of rings (size 3 to 8) (size 9 to 14) (size 15 to 20)
#    0.000    0.471    7.059    0.000    6.588    0.471 
#    0.000    0.000    0.000    0.000    0.000    0.000 
#    0.000    0.000    0.000    0.000    0.000    0.000 
#
# Total GULP energy -94724.738265 kJ/mol
# GULP energy per Si atom -5572.043427 kJ/mol
# Density = 2.170589 g / cm^3
# Si number density = 21.755406 Si / 1000 Ang^3
#
#
#
# Elastic Constant Matrix: (Units=GPa)
#
#
# Indices 1 2 3 4 5 6 
#
# 1 77.7011 34.4656 -4.1071 0.0000 0.0000 -2.9074
# 2 34.4656 77.7011 -4.1071 0.0000 0.0000 2.9074
# 3 -4.1071 -4.1071 36.7247 0.0000 0.0000 0.0000
# 4 0.0000 0.0000 0.0000 17.5043 0.0000 0.0000
# 5 0.0000 0.0000 0.0000 0.0000 17.5043 0.0000
# 6 -2.9074 2.9074 0.0000 0.0000 0.0000 39.1341
#
#
#
# Elastic Compliance Matrix: (Units=1/GPa)
#
#
# Indices 1 2 3 4 5 6 
#
# 1 0.016176 -0.007187 0.001005 0.000000 0.000000 0.001736
# 2 -0.007187 0.016176 0.001005 0.000000 0.000000 -0.001736
# 3 0.001005 0.001005 0.027454 0.000000 0.000000 0.000000
# 4 0.000000 0.000000 0.000000 0.057129 0.000000 0.000000
# 5 0.000000 0.000000 0.000000 0.000000 0.057129 0.000000
# 6 0.001736 -0.001736 0.000000 0.000000 0.000000 0.025811
#
#
# Mechanical properties :
#
#
# Convention : Reuss Voigt Hill
#
# Bulk Modulus (GPa) = 20.22107 27.18109 23.70108
# Shear Modulus (GPa) = 22.05442 25.88689 23.97065
#
# Velocity S-wave (km/s) = 3.18739 3.45324 3.32298
# Velocity P-wave (km/s) = 4.78130 5.33113 5.06368
#
# Compressibility (1/GPa) = 0.04945337
#
# Stress axis : x y z
#
# Youngs Moduli (GPa) = 61.82094 61.82094 36.42397
#
# Poissons Ratio (x) = 0.44430 -0.03662
# Poissons Ratio (y) = 0.44430 -0.03662
# Poissons Ratio (z) = -0.06215 -0.06215
#
# Static dielectric constant tensor:
#      x y z
#    x 1.774090 0.000000 0.000000 
#    y 0.000000 1.774090 0.000000 
#    z 0.000000 0.000000 1.802850 
# 
# From -- ./inp_files/1709.got.cif
#   From: 2010.05.17/outbox.cif.g08.bks.cpg/sg79_cif.got.tgz:1709.got - 2010.06.03 18:47:27.
