data_PCOD9542687
_publ_section_title
;
Structure prediction by ZEFSAII (Michael W. Deem and Ramdas Pophale) SiO2 
 PCOD9542687
Probable space group: I -4 
;
_chemical_formula_sum "Si O2"
_cell_formula_units_Z 32
_cell_length_a 8.566560
_cell_length_b 8.566560
_cell_length_c 23.584970
_cell_angle_alpha 90.000000
_cell_angle_beta 90.000000
_cell_angle_gamma 90.000000
_cell_volume 1730.805435
_symmetry_space_group_name_H-M "I -4 "
_symmetry_group_IT_number 82
_symmetry_cell_setting 'tetragonal'
loop_
_space_group_symop_operation_xyz
x,y,z
y,-x,-z
-x,-y,z
-y,x,-z
1/2+x,1/2+y,1/2+z
1/2+y,1/2-x,1/2-z
1/2-x,1/2-y,1/2+z
1/2-y,1/2+x,1/2-z
loop_
_atom_site_type_symbol
_atom_site_label
_atom_site_fract_x
_atom_site_fract_y
_atom_site_fract_z
Si Si1 0.500000 0.000000 0.079678
Si Si2 0.246166 0.774287 0.375979
Si Si3 0.500000 0.500000 0.182980
Si Si4 0.902338 0.237749 0.494152
Si Si5 0.761639 0.413929 0.263950
O O1 0.625760 0.902416 0.115081
O O2 0.412360 0.874800 0.039692
O O3 0.112490 0.893814 0.354660
O O4 0.184682 0.713500 0.436549
O O5 0.264794 0.645574 0.327465
O O6 0.611907 0.400246 0.224040
O O7 0.081892 0.184714 0.483523
O O8 0.815512 0.593921 0.261395
#
# Coordination Sequence:
#
# PCOD9542687 Si02
#       5
#     4   8   4   8   8
#     4  10  20  32  55  84 105 134 180 224 262 310
#     4  10  20  36  56  78 108 143 171 221 271 305
#     4  10  20  36  57  78 105 142 182 212 260 328
#     4   9  18  35  55  78 105 140 182 212 255 324
#     4   9  20  37  56  81 107 139 182 219 261 320
#
# _framework density 18.488499999999998
#
# number of rings (size 3 to 8) (size 9 to 14) (size 15 to 20)
#    0.000    2.500    0.000    3.000    0.000    8.000 
#    0.000    7.500    0.000    6.750    0.000    0.000 
#    0.000    0.000    0.000    0.000    0.000    0.000 
#
# Total GULP energy -89279.621399 kJ/mol
# GULP energy per Si atom -5579.976337 kJ/mol
# Density = 1.844642 g / cm^3
# Si number density = 18.488500 Si / 1000 Ang^3
#
#
#
# Elastic Constant Matrix: (Units=GPa)
#
#
# Indices 1 2 3 4 5 6 
#
# 1 52.9039 7.5346 35.7509 0.0000 0.0000 9.2405
# 2 7.5346 52.9039 35.7509 0.0000 0.0000 -9.2405
# 3 35.7509 35.7509 92.9325 0.0000 0.0000 0.0000
# 4 0.0000 0.0000 0.0000 28.1239 0.0000 0.0000
# 5 0.0000 0.0000 0.0000 0.0000 28.1239 0.0000
# 6 9.2405 -9.2405 0.0000 0.0000 0.0000 11.7473
#
#
#
# Elastic Compliance Matrix: (Units=1/GPa)
#
#
# Indices 1 2 3 4 5 6 
#
# 1 0.031400 -0.001034 -0.011682 0.000000 0.000000 -0.025513
# 2 -0.001034 0.031400 -0.011682 0.000000 0.000000 0.025513
# 3 -0.011682 -0.011682 0.019748 0.000000 0.000000 0.000000
# 4 0.000000 0.000000 0.000000 0.035557 0.000000 0.000000
# 5 0.000000 0.000000 0.000000 0.000000 0.035557 0.000000
# 6 -0.025513 0.025513 0.000000 0.000000 0.000000 0.125264
#
#
# Mechanical properties :
#
#
# Convention : Reuss Voigt Hill
#
# Bulk Modulus (GPa) = 29.62683 39.64593 34.63638
# Shear Modulus (GPa) = 14.75049 21.57928 18.16488
#
# Velocity S-wave (km/s) = 2.82763 3.42010 3.13788
# Velocity P-wave (km/s) = 5.16913 6.08984 5.64828
#
# Compressibility (1/GPa) = 0.03375319
#
# Stress axis : x y z
#
# Youngs Moduli (GPa) = 31.84727 31.84727 50.63735
#
# Poissons Ratio (x) = 0.03294 0.59153
# Poissons Ratio (y) = 0.03294 0.59153
# Poissons Ratio (z) = 0.37203 0.37203
#
# Static dielectric constant tensor:
#      x y z
#    x 1.635150 0.000000 0.000000 
#    y 0.000000 1.635150 0.000000 
#    z 0.000000 0.000000 1.636140 
# 
# From -- ./inp_files/2892.got.cif
#   From: 2010.05.17/outbox.cif.g08.bks.cpg/sg82_2_cif.got.tgz:2892.got - 2010.06.03 18:52:26.
