data_PCOD9542191
_publ_section_title
;
Structure prediction by ZEFSAII (Michael W. Deem and Ramdas Pophale) SiO2 
 PCOD9542191
Probable space group: I 41
;
_chemical_formula_sum "Si O2"
_cell_formula_units_Z 60
_cell_length_a 18.130326
_cell_length_b 18.130326
_cell_length_c 9.144988
_cell_angle_alpha 90.000000
_cell_angle_beta 90.000000
_cell_angle_gamma 90.000000
_cell_volume 3006.037308
_symmetry_space_group_name_H-M "I 41"
_symmetry_group_IT_number 80
_symmetry_cell_setting 'tetragonal'
loop_
_space_group_symop_operation_xyz
x,y,z
-y,1/2+x,1/4+z
-x,-y,z
y,1/2-x,1/4+z
1/2+x,1/2+y,1/2+z
1/2-y,x,3/4+z
1/2-x,1/2-y,1/2+z
1/2+y,-x,3/4+z
loop_
_atom_site_type_symbol
_atom_site_label
_atom_site_fract_x
_atom_site_fract_y
_atom_site_fract_z
Si Si1 0.500000 0.000000 0.643050
Si Si2 0.887283 0.976951 0.347059
Si Si3 0.502245 0.276442 0.005214
Si Si4 0.738722 0.335569 0.674800
Si Si5 0.059160 0.176787 0.205877
Si Si6 0.165874 0.269381 0.998864
Si Si7 0.400111 0.917669 0.869670
Si Si8 0.080726 0.089592 0.648601
O O1 0.454159 0.943729 0.742486
O O2 0.553061 0.953101 0.540674
O O3 0.909842 0.902806 0.258711
O O4 0.912816 0.966519 0.512663
O O5 0.799449 0.985911 0.337672
O O6 0.918449 0.049096 0.265913
O O7 0.589524 0.280696 0.972332
O O8 0.456947 0.276602 0.852403
O O9 0.472127 0.344832 0.095581
O O10 0.711921 0.287494 0.813150
O O11 0.663085 0.366084 0.601798
O O12 0.112565 0.216031 0.092062
O O13 0.979594 0.161769 0.135337
O O14 0.226612 0.298060 0.113559
O O15 0.122001 0.339230 0.935801
#
# Coordination Sequence:
#
# PCOD9542191 Si02
#       8
#     4   8   8   8   8   8   8   8
#     4  12  26  40  68 102 138 172 238 294 346 394
#     4  10  22  41  69  94 133 175 230 276 336 408
#     4  10  23  42  69  95 131 179 229 272 342 407
#     4  11  25  45  70 100 132 175 224 282 347 413
#     4  11  21  40  73  95 130 177 231 278 333 414
#     4  12  28  43  65 100 147 186 230 281 353 420
#     4  11  23  43  70 100 129 178 232 283 342 416
#     4  11  27  42  64 102 138 180 227 291 342 403
#
# _framework density 19.959833
#
# number of rings (size 3 to 8) (size 9 to 14) (size 15 to 20)
#    0.000    1.067    2.667    2.400   13.067    1.067 
#    0.000    1.333    0.000    0.000    0.000    0.000 
#    0.000    0.000    0.000    0.000    0.000    0.000 
#
# Total GULP energy -167859.882261 kJ/mol
# GULP energy per Si atom -5595.329409 kJ/mol
# Density = 1.991440 g / cm^3
# Si number density = 19.959833 Si / 1000 Ang^3
#
#
#
# Elastic Constant Matrix: (Units=GPa)
#
#
# Indices 1 2 3 4 5 6 
#
# 1 36.4269 51.4832 25.8244 0.0000 0.0000 -35.3391
# 2 51.4832 36.4269 25.8244 0.0000 0.0000 35.3391
# 3 25.8244 25.8244 82.3441 0.0000 0.0000 0.0000
# 4 0.0000 0.0000 0.0000 15.8873 0.0000 0.0000
# 5 0.0000 0.0000 0.0000 0.0000 15.8873 0.0000
# 6 -35.3391 35.3391 0.0000 0.0000 0.0000 -12.2757
#
#
#
# Elastic Compliance Matrix: (Units=1/GPa)
#
#
# Indices 1 2 3 4 5 6 
#
# 1 0.009626 0.004319 -0.004373 0.000000 0.000000 -0.015279
# 2 0.004319 0.009626 -0.004373 0.000000 0.000000 0.015279
# 3 -0.004373 -0.004373 0.014887 0.000000 0.000000 0.000000
# 4 0.000000 0.000000 0.000000 0.062943 0.000000 0.000000
# 5 0.000000 0.000000 0.000000 0.000000 0.062943 0.000000
# 6 -0.015279 0.015279 0.000000 0.000000 0.000000 0.006510
#
#
# Mechanical properties :
#
#
# Convention : Reuss Voigt Hill
#
# Bulk Modulus (GPa) = 39.55159 40.16244 39.85701
# Shear Modulus (GPa) = 27.20063 7.37085 17.28574
#
# Velocity S-wave (km/s) = 3.69557 1.92376 2.94603
# Velocity P-wave (km/s) = 6.16995 5.00997 5.61997
#
# Compressibility (1/GPa) = 0.02528344
#
# Stress axis : x y z
#
# Youngs Moduli (GPa) = 103.88436 103.88436 67.17174
#
# Poissons Ratio (x) = -0.44863 0.29376
# Poissons Ratio (y) = -0.44863 0.29376
# Poissons Ratio (z) = 0.45431 0.45431
#
# Static dielectric constant tensor:
#      x y z
#    x 1.699450 0.000000 0.000000 
#    y 0.000000 1.699450 0.000000 
#    z 0.000000 0.000000 1.685180 
# 
# From -- ./inp_files/732.got.cif
#   From: 2010.05.17/outbox.cif.g08.bks.cpg/sg80_cif.got.tgz:732.got - 2010.06.03 18:49:13.
