data_PCOD9542865
_publ_section_title
;
Structure prediction by ZEFSAII (Michael W. Deem and Ramdas Pophale) SiO2 
 PCOD9542865
Probable space group: I -4 
;
_chemical_formula_sum "Si O2"
_cell_formula_units_Z 56
_cell_length_a 14.764255
_cell_length_b 14.764255
_cell_length_c 11.589974
_cell_angle_alpha 90.000000
_cell_angle_beta 90.000000
_cell_angle_gamma 90.000000
_cell_volume 2526.419918
_symmetry_space_group_name_H-M "I -4 "
_symmetry_group_IT_number 82
_symmetry_cell_setting 'tetragonal'
loop_
_space_group_symop_operation_xyz
x,y,z
y,-x,-z
-x,-y,z
-y,x,-z
1/2+x,1/2+y,1/2+z
1/2+y,1/2-x,1/2-z
1/2-x,1/2-y,1/2+z
1/2-y,1/2+x,1/2-z
loop_
_atom_site_type_symbol
_atom_site_label
_atom_site_fract_x
_atom_site_fract_y
_atom_site_fract_z
Si Si1 0.757442 0.684638 0.576121
Si Si2 0.335904 0.882078 0.626766
Si Si3 0.070637 0.627891 0.750368
Si Si4 0.132642 0.035963 0.009238
Si Si5 0.492996 0.765353 0.688004
Si Si6 0.259370 0.494098 0.940148
Si Si7 0.632457 0.330784 0.871559
O O1 0.790496 0.691884 0.442316
O O2 0.834760 0.632510 0.648118
O O3 0.673889 0.615956 0.585843
O O4 0.757279 0.786478 0.620168
O O5 0.438297 0.858663 0.663876
O O6 0.283865 0.917098 0.739274
O O7 0.309653 0.959105 0.532685
O O8 0.109285 0.531925 0.708064
O O9 0.062692 0.701178 0.650091
O O10 0.214515 0.999064 0.932722
O O11 0.051998 0.084945 0.937131
O O12 0.429655 0.699516 0.765721
O O13 0.317563 0.572278 0.876550
O O14 0.323143 0.429088 0.014565
#
# Coordination Sequence:
#
# PCOD9542865 Si02
#       7
#     8   8   8   8   8   8   8
#     4  10  22  41  66  93 128 168 225 265 327 403
#     4   9  20  43  57  96 127 166 218 273 323 396
#     4  11  22  40  65  99 132 167 211 277 345 395
#     4  10  24  43  61  95 132 170 217 271 328 400
#     4  10  22  40  68  90 134 171 223 272 334 399
#     4  10  22  43  62  98 134 166 225 270 333 404
#     4  10  22  42  64  96 127 171 222 274 331 398
#
# _framework density 22.165754
#
# number of rings (size 3 to 8) (size 9 to 14) (size 15 to 20)
#    0.000    2.000    2.857    0.000    4.000    5.143 
#   12.857    0.000    0.000    0.000    0.000    0.000 
#    0.000    0.000    0.000    0.000    0.000    0.000 
#
# Total GULP energy -156096.631976 kJ/mol
# GULP energy per Si atom -5574.879713 kJ/mol
# Density = 2.211530 g / cm^3
# Si number density = 22.165754 Si / 1000 Ang^3
#
#
#
# Elastic Constant Matrix: (Units=GPa)
#
#
# Indices 1 2 3 4 5 6 
#
# 1 66.3717 15.2088 6.3641 0.0000 0.0000 3.7069
# 2 15.2088 66.3717 6.3641 0.0000 0.0000 -3.7069
# 3 6.3641 6.3641 25.0207 0.0000 0.0000 0.0000
# 4 0.0000 0.0000 0.0000 23.8162 0.0000 0.0000
# 5 0.0000 0.0000 0.0000 0.0000 23.8162 0.0000
# 6 3.7069 -3.7069 0.0000 0.0000 0.0000 32.4764
#
#
#
# Elastic Compliance Matrix: (Units=1/GPa)
#
#
# Indices 1 2 3 4 5 6 
#
# 1 0.016319 -0.003555 -0.003247 0.000000 0.000000 -0.002268
# 2 -0.003555 0.016319 -0.003247 0.000000 0.000000 0.002268
# 3 -0.003247 -0.003247 0.041619 0.000000 0.000000 0.000000
# 4 0.000000 0.000000 0.000000 0.041988 0.000000 0.000000
# 5 0.000000 0.000000 0.000000 0.000000 0.041988 0.000000
# 6 -0.002268 0.002268 0.000000 0.000000 0.000000 0.031309
#
#
# Mechanical properties :
#
#
# Convention : Reuss Voigt Hill
#
# Bulk Modulus (GPa) = 18.46359 23.73755 21.10057
# Shear Modulus (GPa) = 21.95942 24.67691 23.31816
#
# Velocity S-wave (km/s) = 3.15094 3.34022 3.24696
# Velocity P-wave (km/s) = 4.64605 5.06048 4.85769
#
# Compressibility (1/GPa) = 0.05416065
#
# Stress axis : x y z
#
# Youngs Moduli (GPa) = 61.27729 61.27729 24.02775
#
# Poissons Ratio (x) = 0.21783 0.07801
# Poissons Ratio (y) = 0.21783 0.07801
# Poissons Ratio (z) = 0.19895 0.19895
#
# Static dielectric constant tensor:
#      x y z
#    x 1.851570 0.000000 0.000000 
#    y 0.000000 1.851570 0.000000 
#    z 0.000000 0.000000 1.803060 
# 
# From -- ./inp_files/1838.got.cif
#   From: 2010.05.17/outbox.cif.g08.bks.cpg/sg82_1_cif.got.tgz:1838.got - 2010.06.03 18:52:26.
