data_PCOD9542564
_publ_section_title
;
Structure prediction by ZEFSAII (Michael W. Deem and Ramdas Pophale) SiO2 
 PCOD9542564
Probable space group: P -4
;
_chemical_formula_sum "Si O2"
_cell_formula_units_Z 15
_cell_length_a 8.696703
_cell_length_b 8.696703
_cell_length_c 9.378983
_cell_angle_alpha 90.000000
_cell_angle_beta 90.000000
_cell_angle_gamma 90.000000
_cell_volume 709.357274
_symmetry_space_group_name_H-M "P -4"
_symmetry_group_IT_number 81
_symmetry_cell_setting 'tetragonal'
loop_
_space_group_symop_operation_xyz
x,y,z
y,-x,-z
-x,-y,z
-y,x,-z
loop_
_atom_site_type_symbol
_atom_site_label
_atom_site_fract_x
_atom_site_fract_y
_atom_site_fract_z
Si Si1 0.173964 0.532323 0.321650
Si Si2 0.000000 0.500000 0.775440
Si Si3 0.505851 0.250475 0.993199
Si Si4 0.269546 0.203913 0.414183
Si Si5 0.000000 0.000000 0.500000
O O1 0.177697 0.556508 0.152889
O O2 0.265196 0.375763 0.353959
O O3 0.224844 0.670308 0.423556
O O4 0.000000 0.500000 0.364834
O O5 0.910360 0.379143 0.675369
O O6 0.869121 0.558195 0.886243
O O7 0.365792 0.356373 0.046052
O O8 0.102092 0.124108 0.414769
#
# Coordination Sequence:
#
# PCOD9542564 Si02
#       5
#     4   2   4   4   1
#     4  12  25  44  69 103 136 181 230 288 346 415
#     4  12  24  46  68 102 138 182 230 288 350 416
#     4  11  26  43  67  97 138 180 230 285 348 412
#     4  12  26  44  71 102 139 180 232 290 349 416
#     4  12  24  44  68 102 140 172 228 298 344 404
#
# _framework density 21.145904000000002
#
# number of rings (size 3 to 8) (size 9 to 14) (size 15 to 20)
#    0.000    0.267    8.000    0.000    7.467    0.533 
#    0.000    0.000    0.000    1.600    0.000    0.000 
#    0.000    0.000    0.000    0.000    0.000    0.000 
#
# Total GULP energy -83757.699707 kJ/mol
# GULP energy per Si atom -5583.846647 kJ/mol
# Density = 2.109778 g / cm^3
# Si number density = 21.145904 Si / 1000 Ang^3
#
#
#
# Elastic Constant Matrix: (Units=GPa)
#
#
# Indices 1 2 3 4 5 6 
#
# 1 66.1491 8.4497 14.8622 0.0000 0.0000 4.6064
# 2 8.4497 66.1491 14.8622 0.0000 0.0000 -4.6064
# 3 14.8622 14.8622 122.1685 0.0000 0.0000 0.0000
# 4 0.0000 0.0000 0.0000 29.1844 0.0000 0.0000
# 5 0.0000 0.0000 0.0000 0.0000 29.1844 0.0000
# 6 4.6064 -4.6064 0.0000 0.0000 0.0000 28.7771
#
#
#
# Elastic Compliance Matrix: (Units=1/GPa)
#
#
# Indices 1 2 3 4 5 6 
#
# 1 0.015937 -0.001849 -0.001714 0.000000 0.000000 -0.002847
# 2 -0.001849 0.015937 -0.001714 0.000000 0.000000 0.002847
# 3 -0.001714 -0.001714 0.008602 0.000000 0.000000 0.000000
# 4 0.000000 0.000000 0.000000 0.034265 0.000000 0.000000
# 5 0.000000 0.000000 0.000000 0.000000 0.034265 0.000000
# 6 -0.002847 0.002847 0.000000 0.000000 0.000000 0.035661
#
#
# Mechanical properties :
#
#
# Convention : Reuss Voigt Hill
#
# Bulk Modulus (GPa) = 33.41922 36.75721 35.08822
# Shear Modulus (GPa) = 30.26731 31.84868 31.05800
#
# Velocity S-wave (km/s) = 3.78743 3.88511 3.83658
# Velocity P-wave (km/s) = 5.91309 6.12747 6.02123
#
# Compressibility (1/GPa) = 0.02992290
#
# Stress axis : x y z
#
# Youngs Moduli (GPa) = 62.74764 62.74764 116.24651
#
# Poissons Ratio (x) = 0.11602 0.19923
# Poissons Ratio (y) = 0.11602 0.19923
# Poissons Ratio (z) = 0.10754 0.10754
#
# Static dielectric constant tensor:
#      x y z
#    x 1.777710 0.000000 0.000000 
#    y 0.000000 1.777710 0.000000 
#    z 0.000000 0.000000 1.766760 
# 
# From -- ./inp_files/506.got.cif
#   From: 2010.05.17/outbox.cif.g08.bks.cpg/sg81_cif.got.tgz:506.got - 2010.06.03 18:51:07.
