data_PCOD9542813
_publ_section_title
;
Structure prediction by ZEFSAII (Michael W. Deem and Ramdas Pophale) SiO2 
 PCOD9542813
Probable space group: I -4 
;
_chemical_formula_sum "Si O2"
_cell_formula_units_Z 50
_cell_length_a 9.101037
_cell_length_b 9.101037
_cell_length_c 29.287702
_cell_angle_alpha 90.000000
_cell_angle_beta 90.000000
_cell_angle_gamma 90.000000
_cell_volume 2425.867393
_symmetry_space_group_name_H-M "I -4 "
_symmetry_group_IT_number 82
_symmetry_cell_setting 'tetragonal'
loop_
_space_group_symop_operation_xyz
x,y,z
y,-x,-z
-x,-y,z
-y,x,-z
1/2+x,1/2+y,1/2+z
1/2+y,1/2-x,1/2-z
1/2-x,1/2-y,1/2+z
1/2-y,1/2+x,1/2-z
loop_
_atom_site_type_symbol
_atom_site_label
_atom_site_fract_x
_atom_site_fract_y
_atom_site_fract_z
Si Si1 0.840362 0.080367 0.714092
Si Si2 0.395436 0.254717 0.063182
Si Si3 0.792280 0.315981 0.309144
Si Si4 0.153382 0.576317 0.401522
Si Si5 0.768683 0.942051 0.992973
Si Si6 0.500000 0.500000 0.000000
Si Si7 0.172736 0.503514 0.837691
O O1 0.770652 0.117368 0.762961
O O2 0.876292 0.226827 0.684803
O O3 0.725337 0.965772 0.691942
O O4 0.000000 0.000000 0.718517
O O5 0.245712 0.340055 0.079731
O O6 0.343325 0.125305 0.029456
O O7 0.494105 0.360473 0.032676
O O8 0.479843 0.205080 0.108395
O O9 0.760189 0.413215 0.353799
O O10 0.720924 0.157099 0.315630
O O11 0.213218 0.478285 0.442738
O O12 0.000000 0.500000 0.391103
O O13 0.904498 0.831190 0.988645
O O14 0.000000 0.500000 0.830031
#
# Coordination Sequence:
#
# PCOD9542813 Si02
#       7
#     8   8   8   8   8   2   8
#     4  10  24  44  68  96 138 174 224 289 338 407
#     4  10  23  40  60  99 125 172 225 267 334 406
#     4  10  24  42  65  99 131 174 225 271 348 405
#     4  10  21  39  62  90 129 166 216 268 331 406
#     4   9  19  40  63  88 127 170 214 279 324 390
#     4  12  24  36  68  84 136 176 208 268 340 392
#     4  10  24  43  70  95 133 172 226 282 333 405
#
# _framework density 20.611184000000002
#
# number of rings (size 3 to 8) (size 9 to 14) (size 15 to 20)
#    0.000    2.080    0.000    0.960   12.320    3.200 
#   11.520    0.000    0.000    0.000    0.000    0.000 
#    0.000    0.000    0.000    0.000    0.000    0.000 
#
# Total GULP energy -139552.582052 kJ/mol
# GULP energy per Si atom -5582.103282 kJ/mol
# Density = 2.056427 g / cm^3
# Si number density = 20.611184 Si / 1000 Ang^3
#
#
#
# Elastic Constant Matrix: (Units=GPa)
#
#
# Indices 1 2 3 4 5 6 
#
# 1 43.8564 16.4937 27.7887 0.0000 0.0000 5.5880
# 2 16.4937 43.8564 27.7887 0.0000 0.0000 -5.5880
# 3 27.7887 27.7887 100.5031 0.0000 0.0000 0.0000
# 4 0.0000 0.0000 0.0000 38.8340 0.0000 0.0000
# 5 0.0000 0.0000 0.0000 0.0000 38.8340 0.0000
# 6 5.5880 -5.5880 0.0000 0.0000 0.0000 16.1623
#
#
#
# Elastic Compliance Matrix: (Units=1/GPa)
#
#
# Indices 1 2 3 4 5 6 
#
# 1 0.032393 -0.010162 -0.006147 0.000000 0.000000 -0.014713
# 2 -0.010162 0.032393 -0.006147 0.000000 0.000000 0.014713
# 3 -0.006147 -0.006147 0.013349 0.000000 0.000000 0.000000
# 4 0.000000 0.000000 0.000000 0.025751 0.000000 0.000000
# 5 0.000000 0.000000 0.000000 0.000000 0.025751 0.000000
# 6 -0.014713 0.014713 0.000000 0.000000 0.000000 0.072046
#
#
# Mechanical properties :
#
#
# Convention : Reuss Voigt Hill
#
# Bulk Modulus (GPa) = 30.09921 36.92868 33.51394
# Shear Modulus (GPa) = 19.40476 26.50903 22.95690
#
# Velocity S-wave (km/s) = 3.07166 3.59018 3.34100
# Velocity P-wave (km/s) = 5.21682 5.92803 5.58376
#
# Compressibility (1/GPa) = 0.03322346
#
# Stress axis : x y z
#
# Youngs Moduli (GPa) = 30.87083 30.87083 74.91195
#
# Poissons Ratio (x) = 0.31372 0.46046
# Poissons Ratio (y) = 0.31372 0.46046
# Poissons Ratio (z) = 0.18975 0.18975
#
# Static dielectric constant tensor:
#      x y z
#    x 1.754100 0.000000 0.000000 
#    y 0.000000 1.754100 0.000000 
#    z 0.000000 0.000000 1.742210 
# 
# From -- ./inp_files/4079.got.cif
#   From: 2010.05.17/outbox.cif.g08.bks.cpg/sg82_3_cif.got.tgz:4079.got - 2010.06.03 18:52:26.
