data_PCOD9542304
_publ_section_title
;
Structure prediction by ZEFSAII (Michael W. Deem and Ramdas Pophale) SiO2 
 PCOD9542304
Probable space group: I 41
;
_chemical_formula_sum "Si O2"
_cell_formula_units_Z 36
_cell_length_a 8.209339
_cell_length_b 8.209339
_cell_length_c 19.860929
_cell_angle_alpha 90.000000
_cell_angle_beta 90.000000
_cell_angle_gamma 90.000000
_cell_volume 1338.492490
_symmetry_space_group_name_H-M "I 41"
_symmetry_group_IT_number 80
_symmetry_cell_setting 'tetragonal'
loop_
_space_group_symop_operation_xyz
x,y,z
-y,1/2+x,1/4+z
-x,-y,z
y,1/2-x,1/4+z
1/2+x,1/2+y,1/2+z
1/2-y,x,3/4+z
1/2-x,1/2-y,1/2+z
1/2+y,-x,3/4+z
loop_
_atom_site_type_symbol
_atom_site_label
_atom_site_fract_x
_atom_site_fract_y
_atom_site_fract_z
Si Si1 0.306209 0.783625 0.958480
Si Si2 0.669797 0.595325 0.504532
Si Si3 0.169797 0.595325 0.077403
Si Si4 0.500000 0.000000 0.165967
Si Si5 0.693790 0.716375 0.123455
O O1 0.229857 0.816809 0.885416
O O2 0.465053 0.670743 0.953451
O O3 0.186656 0.676292 0.005060
O O4 0.309256 0.959652 0.993230
O O5 0.500000 0.500000 0.497733
O O6 0.683191 0.729857 0.446519
O O7 0.686656 0.676292 0.576875
O O8 0.309256 0.459652 0.088705
O O9 0.000000 0.500000 0.084202
O O10 0.465053 0.170743 0.128484
#
# Coordination Sequence:
#
# PCOD9542304 Si02
#       5
#     8   8   8   4   8
#     4  12  27  50  78 118 160 203 271 314 403 461
#     4  12  26  49  85 120 152 210 261 332 392 473
#     4  12  26  49  85 120 152 210 261 332 392 473
#     4  12  32  48  72 120 160 220 252 338 380 476
#     4  12  27  50  78 118 160 203 271 314 403 461
#
# _framework density 26.895928000000001
#
# number of rings (size 3 to 8) (size 9 to 14) (size 15 to 20)
#    0.000    0.000    4.444    4.000    6.222    7.111 
#    0.000    0.000    0.000    0.000    0.000    0.000 
#    0.000    0.000    0.000    0.000    0.000    0.000 
#
# Total GULP energy -101002.197341 kJ/mol
# GULP energy per Si atom -5611.233186 kJ/mol
# Density = 2.683471 g / cm^3
# Si number density = 26.895928 Si / 1000 Ang^3
#
#
#
# Elastic Constant Matrix: (Units=GPa)
#
#
# Indices 1 2 3 4 5 6 
#
# 1 107.0393 9.0950 14.9676 0.0000 0.0000 19.6157
# 2 9.0950 107.0393 14.9676 0.0000 0.0000 -19.6157
# 3 14.9676 14.9676 118.2695 0.0000 0.0000 0.0000
# 4 0.0000 0.0000 0.0000 34.1686 0.0000 0.0000
# 5 0.0000 0.0000 0.0000 0.0000 34.1686 0.0000
# 6 19.6157 -19.6157 0.0000 0.0000 0.0000 74.6427
#
#
#
# Elastic Compliance Matrix: (Units=1/GPa)
#
#
# Indices 1 2 3 4 5 6 
#
# 1 0.010156 -0.001255 -0.001126 0.000000 0.000000 -0.002999
# 2 -0.001255 0.010156 -0.001126 0.000000 0.000000 0.002999
# 3 -0.001126 -0.001126 0.008740 0.000000 0.000000 0.000000
# 4 0.000000 0.000000 0.000000 0.029267 0.000000 0.000000
# 5 0.000000 0.000000 0.000000 0.000000 0.029267 0.000000
# 6 -0.002999 0.002999 0.000000 0.000000 0.000000 0.014973
#
#
# Mechanical properties :
#
#
# Convention : Reuss Voigt Hill
#
# Bulk Modulus (GPa) = 45.37896 45.60096 45.48996
# Shear Modulus (GPa) = 42.76415 48.15053 45.45734
#
# Velocity S-wave (km/s) = 3.99179 4.23573 4.11557
# Velocity P-wave (km/s) = 6.17693 6.39635 6.28760
#
# Compressibility (1/GPa) = 0.02203664
#
# Stress axis : x y z
#
# Youngs Moduli (GPa) = 98.46347 98.46347 114.41136
#
# Poissons Ratio (x) = 0.12357 0.12888
# Poissons Ratio (y) = 0.12357 0.12888
# Poissons Ratio (z) = 0.11092 0.11092
#
# Static dielectric constant tensor:
#      x y z
#    x 2.153280 0.000000 0.000000 
#    y 0.000000 2.153280 0.000000 
#    z 0.000000 0.000000 2.063510 
# 
# From -- ./inp_files/1736.got.cif
#   From: 2010.05.17/outbox.cif.g08.bks.cpg/sg80_cif.got.tgz:1736.got - 2010.06.03 18:49:13.
