data_PCOD9542096
_publ_section_title
;
Structure prediction by ZEFSAII (Michael W. Deem and Ramdas Pophale) SiO2 
 PCOD9542096
Probable space group: I 41
;
_chemical_formula_sum "Si O2"
_cell_formula_units_Z 44
_cell_length_a 17.532075
_cell_length_b 17.532075
_cell_length_c 6.686808
_cell_angle_alpha 90.000000
_cell_angle_beta 90.000000
_cell_angle_gamma 90.000000
_cell_volume 2055.348607
_symmetry_space_group_name_H-M "I 41"
_symmetry_group_IT_number 80
_symmetry_cell_setting 'tetragonal'
loop_
_space_group_symop_operation_xyz
x,y,z
-y,1/2+x,1/4+z
-x,-y,z
y,1/2-x,1/4+z
1/2+x,1/2+y,1/2+z
1/2-y,x,3/4+z
1/2-x,1/2-y,1/2+z
1/2+y,-x,3/4+z
loop_
_atom_site_type_symbol
_atom_site_label
_atom_site_fract_x
_atom_site_fract_y
_atom_site_fract_z
Si Si1 0.651822 0.086981 0.740240
Si Si2 0.509004 0.732406 0.835086
Si Si3 0.896080 0.968794 0.990709
Si Si4 0.655380 0.230713 0.985687
Si Si5 0.488458 0.374144 0.155456
Si Si6 0.000000 0.000000 0.354902
O O1 0.560131 0.094097 0.709233
O O2 0.680589 0.168311 0.815622
O O3 0.673729 0.050069 0.531478
O O4 0.680857 0.027445 0.908651
O O5 0.550261 0.806938 0.751609
O O6 0.434197 0.765032 0.949233
O O7 0.552596 0.682573 0.000286
O O8 0.937166 0.919910 0.816902
O O9 0.937066 0.963748 0.207406
O O10 0.694019 0.311241 0.935465
O O11 0.528512 0.434593 0.005597
#
# Coordination Sequence:
#
# PCOD9542096 Si02
#       6
#     8   8   8   8   8   4
#     4  10  19  38  54  86 127 163 218 257 311 396
#     4  10  23  37  57  88 131 163 215 279 320 391
#     4  11  21  39  60  92 132 166 218 279 323 398
#     4   9  20  34  48  76 124 178 207 245 299 376
#     4  12  21  37  64  87 122 175 212 272 332 376
#     4  12  20  38  64  88 126 164 216 262 328 378
#
# _framework density 21.40756
#
# number of rings (size 3 to 8) (size 9 to 14) (size 15 to 20)
#    0.000    1.455    5.455    0.000    2.545    1.455 
#    3.273    0.000    0.000    0.000    0.000    0.000 
#   76.364    0.000    0.000    0.000    0.000    0.000 
#
# Total GULP energy -122564.132377 kJ/mol
# GULP energy per Si atom -5571.096926 kJ/mol
# Density = 2.135884 g / cm^3
# Si number density = 21.407560 Si / 1000 Ang^3
#
#
#
# Elastic Constant Matrix: (Units=GPa)
#
#
# Indices 1 2 3 4 5 6 
#
# 1 56.3787 14.4809 36.4000 0.0000 0.0000 1.9229
# 2 14.4809 56.3787 36.4000 0.0000 0.0000 -1.9229
# 3 36.4000 36.4000 125.8884 0.0000 0.0000 0.0000
# 4 0.0000 0.0000 0.0000 23.6437 0.0000 0.0000
# 5 0.0000 0.0000 0.0000 0.0000 23.6437 0.0000
# 6 1.9229 -1.9229 0.0000 0.0000 0.0000 19.1519
#
#
#
# Elastic Compliance Matrix: (Units=1/GPa)
#
#
# Indices 1 2 3 4 5 6 
#
# 1 0.022083 -0.002007 -0.005805 0.000000 0.000000 -0.002419
# 2 -0.002007 0.022083 -0.005805 0.000000 0.000000 0.002419
# 3 -0.005805 -0.005805 0.011301 0.000000 0.000000 0.000000
# 4 0.000000 0.000000 0.000000 0.042295 0.000000 0.000000
# 5 0.000000 0.000000 0.000000 0.000000 0.042295 0.000000
# 6 -0.002419 0.002419 0.000000 0.000000 0.000000 0.052700
#
#
# Mechanical properties :
#
#
# Convention : Reuss Voigt Hill
#
# Bulk Modulus (GPa) = 35.41915 45.91196 40.66556
# Shear Modulus (GPa) = 21.79598 23.37882 22.58740
#
# Velocity S-wave (km/s) = 3.19430 3.30825 3.25177
# Velocity P-wave (km/s) = 5.49416 6.00715 5.75637
#
# Compressibility (1/GPa) = 0.02823331
#
# Stress axis : x y z
#
# Youngs Moduli (GPa) = 45.28367 45.28367 88.49155
#
# Poissons Ratio (x) = 0.09087 0.51369
# Poissons Ratio (y) = 0.09087 0.51369
# Poissons Ratio (z) = 0.26287 0.26287
#
# Static dielectric constant tensor:
#      x y z
#    x 1.835730 0.000000 0.000000 
#    y 0.000000 1.835730 0.000000 
#    z 0.000000 0.000000 1.820420 
# 
# From -- ./inp_files/262.got.cif
#   From: 2010.05.17/outbox.cif.g08.bks.cpg/sg80_cif.got.tgz:262.got - 2010.06.03 18:49:13.
