data_PCOD9542972
_publ_section_title
;
Structure prediction by ZEFSAII (Michael W. Deem and Ramdas Pophale) SiO2 
 PCOD9542972
Probable space group: I -4 
;
_chemical_formula_sum "Si O2"
_cell_formula_units_Z 42
_cell_length_a 8.457267
_cell_length_b 8.457267
_cell_length_c 28.378241
_cell_angle_alpha 90.000000
_cell_angle_beta 90.000000
_cell_angle_gamma 90.000000
_cell_volume 2029.764049
_symmetry_space_group_name_H-M "I -4 "
_symmetry_group_IT_number 82
_symmetry_cell_setting 'tetragonal'
loop_
_space_group_symop_operation_xyz
x,y,z
y,-x,-z
-x,-y,z
-y,x,-z
1/2+x,1/2+y,1/2+z
1/2+y,1/2-x,1/2-z
1/2-x,1/2-y,1/2+z
1/2-y,1/2+x,1/2-z
loop_
_atom_site_type_symbol
_atom_site_label
_atom_site_fract_x
_atom_site_fract_y
_atom_site_fract_z
Si Si1 0.759861 0.601266 0.746114
Si Si2 0.815564 0.543605 0.562580
Si Si3 0.295832 0.227368 0.965121
Si Si4 0.500000 0.000000 0.900616
Si Si5 0.270284 0.766951 0.852121
Si Si6 0.000000 0.000000 0.500000
Si Si7 0.000000 0.000000 0.318193
O O1 0.811489 0.419469 0.736320
O O2 0.711012 0.688034 0.698331
O O3 0.621312 0.595426 0.784474
O O4 0.780383 0.650312 0.516802
O O5 0.728225 0.376199 0.557945
O O6 0.771556 0.639448 0.608945
O O7 0.000000 0.500000 0.562639
O O8 0.417497 0.127171 0.934407
O O9 0.369727 0.402225 0.970862
O O10 0.630956 0.083198 0.868863
O O11 0.392638 0.620419 0.847602
#
# Coordination Sequence:
#
# PCOD9542972 Si02
#       7
#     8   8   8   4   8   2   4
#     4   9  21  44  70  99 136 177 231 295 367 429
#     4  12  26  42  72 101 137 181 233 287 341 408
#     4  12  25  46  66 100 142 188 230 281 355 404
#     4  12  28  44  63 104 144 184 235 280 350 428
#     4  11  27  43  69 105 133 185 237 292 350 427
#     4  12  20  42  72  88 128 180 244 272 328 426
#     4  10  24  45  72  97 138 181 232 294 362 431
#
# _framework density 20.692062
#
# number of rings (size 3 to 8) (size 9 to 14) (size 15 to 20)
#    0.000    0.952    2.857    2.286    8.000    8.000 
#    0.000    0.000    0.000    0.000    0.000    0.000 
#    0.000    0.000    0.000    0.000    0.000    0.000 
#
# Total GULP energy -117565.720098 kJ/mol
# GULP energy per Si atom -5598.367624 kJ/mol
# Density = 2.064497 g / cm^3
# Si number density = 20.692062 Si / 1000 Ang^3
#
#
#
# Elastic Constant Matrix: (Units=GPa)
#
#
# Indices 1 2 3 4 5 6 
#
# 1 86.8302 21.9989 25.6412 0.0000 0.0000 -10.2138
# 2 21.9989 86.8302 25.6412 0.0000 0.0000 10.2138
# 3 25.6412 25.6412 59.4237 0.0000 0.0000 0.0000
# 4 0.0000 0.0000 0.0000 15.0110 0.0000 0.0000
# 5 0.0000 0.0000 0.0000 0.0000 15.0110 0.0000
# 6 -10.2138 10.2138 0.0000 0.0000 0.0000 35.7244
#
#
#
# Elastic Compliance Matrix: (Units=1/GPa)
#
#
# Indices 1 2 3 4 5 6 
#
# 1 0.014243 -0.002709 -0.004977 0.000000 0.000000 0.004847
# 2 -0.002709 0.014243 -0.004977 0.000000 0.000000 -0.004847
# 3 -0.004977 -0.004977 0.021123 0.000000 0.000000 0.000000
# 4 0.000000 0.000000 0.000000 0.066618 0.000000 0.000000
# 5 0.000000 0.000000 0.000000 0.000000 0.066618 0.000000
# 6 0.004847 -0.004847 0.000000 0.000000 0.000000 0.030763
#
#
# Mechanical properties :
#
#
# Convention : Reuss Voigt Hill
#
# Bulk Modulus (GPa) = 41.17988 42.18295 41.68142
# Shear Modulus (GPa) = 20.24061 23.80278 22.02169
#
# Velocity S-wave (km/s) = 3.13098 3.39534 3.26584
# Velocity P-wave (km/s) = 5.74589 5.98343 5.86586
#
# Compressibility (1/GPa) = 0.02428371
#
# Stress axis : x y z
#
# Youngs Moduli (GPa) = 70.21077 70.21077 47.34105
#
# Poissons Ratio (x) = 0.19019 0.23561
# Poissons Ratio (y) = 0.19019 0.23561
# Poissons Ratio (z) = 0.34943 0.34943
#
# Static dielectric constant tensor:
#      x y z
#    x 1.734350 0.000000 0.000000 
#    y 0.000000 1.734350 0.000000 
#    z 0.000000 0.000000 1.701670 
# 
# From -- ./inp_files/3738.got.cif
#   From: 2010.05.17/outbox.cif.g08.bks.cpg/sg82_2_cif.got.tgz:3738.got - 2010.06.03 18:52:26.
