data_PCOD9542345
_publ_section_title
;
Structure prediction by ZEFSAII (Michael W. Deem and Ramdas Pophale) SiO2 
 PCOD9542345
Probable space group: P -4
;
_chemical_formula_sum "Si O2"
_cell_formula_units_Z 32
_cell_length_a 11.556805
_cell_length_b 11.556805
_cell_length_c 12.079500
_cell_angle_alpha 90.000000
_cell_angle_beta 90.000000
_cell_angle_gamma 90.000000
_cell_volume 1613.334901
_symmetry_space_group_name_H-M "P -4"
_symmetry_group_IT_number 81
_symmetry_cell_setting 'tetragonal'
loop_
_space_group_symop_operation_xyz
x,y,z
y,-x,-z
-x,-y,z
-y,x,-z
loop_
_atom_site_type_symbol
_atom_site_label
_atom_site_fract_x
_atom_site_fract_y
_atom_site_fract_z
Si Si1 0.677716 0.818712 0.834088
Si Si2 0.315855 0.476946 0.531919
Si Si3 0.814319 0.614930 0.744293
Si Si4 0.039991 0.807959 0.000311
Si Si5 0.672025 0.424502 0.989239
Si Si6 0.639674 0.973349 0.388975
Si Si7 0.366249 0.148486 0.174457
Si Si8 0.576166 0.891574 0.605115
O O1 0.765046 0.711360 0.824318
O O2 0.738798 0.928902 0.887983
O O3 0.581522 0.772435 0.919284
O O4 0.632452 0.838030 0.712089
O O5 0.384436 0.598379 0.524328
O O6 0.278685 0.437666 0.655759
O O7 0.201524 0.497614 0.459584
O O8 0.867077 0.506734 0.813664
O O9 0.908791 0.679451 0.667235
O O10 0.066407 0.715178 0.901570
O O11 0.914246 0.867224 0.004906
O O12 0.555884 0.363858 0.032009
O O13 0.725583 0.361076 0.882225
O O14 0.668405 0.872758 0.301677
O O15 0.667202 0.936834 0.512776
O O16 0.500000 0.000000 0.393012
O O17 0.500000 0.000000 0.640761
#
# Coordination Sequence:
#
# PCOD9542345 Si02
#       8
#     4   4   4   4   4   4   4   4
#     4  11  23  40  64  91 122 172 204 266 321 371
#     4  11  22  37  59  91 127 174 206 240 308 388
#     4  11  19  38  62  91 122 159 214 253 309 383
#     4  10  23  46  67  90 123 161 216 270 322 380
#     4  10  21  38  55  82 126 162 198 255 314 369
#     4   9  18  34  62  85 118 160 206 256 302 361
#     4  10  19  36  63  91 112 165 210 250 317 379
#     4  11  21  41  57  90 135 163 210 264 312 367
#
# _framework density 19.834690999999999
#
# number of rings (size 3 to 8) (size 9 to 14) (size 15 to 20)
#    0.000    1.625    6.250    0.750    0.000    1.000 
#    6.750    5.000    0.000    0.000    0.000    1.750 
#    0.000    0.000    0.000    0.000    0.000    0.000 
#
# Total GULP energy -178204.083957 kJ/mol
# GULP energy per Si atom -5568.877624 kJ/mol
# Density = 1.978955 g / cm^3
# Si number density = 19.834691 Si / 1000 Ang^3
#
#
#
# Elastic Constant Matrix: (Units=GPa)
#
#
# Indices 1 2 3 4 5 6 
#
# 1 58.0939 17.5692 15.3849 0.0000 0.0000 1.0488
# 2 17.5692 58.0939 15.3849 0.0000 0.0000 -1.0488
# 3 15.3849 15.3849 87.3297 0.0000 0.0000 0.0000
# 4 0.0000 0.0000 0.0000 22.8282 0.0000 0.0000
# 5 0.0000 0.0000 0.0000 0.0000 22.8282 0.0000
# 6 1.0488 -1.0488 0.0000 0.0000 0.0000 16.9444
#
#
#
# Elastic Compliance Matrix: (Units=1/GPa)
#
#
# Indices 1 2 3 4 5 6 
#
# 1 0.019496 -0.005260 -0.002508 0.000000 0.000000 -0.001532
# 2 -0.005260 0.019496 -0.002508 0.000000 0.000000 0.001532
# 3 -0.002508 -0.002508 0.012335 0.000000 0.000000 0.000000
# 4 0.000000 0.000000 0.000000 0.043805 0.000000 0.000000
# 5 0.000000 0.000000 0.000000 0.000000 0.043805 0.000000
# 6 -0.001532 0.001532 0.000000 0.000000 0.000000 0.059206
#
#
# Mechanical properties :
#
#
# Convention : Reuss Voigt Hill
#
# Bulk Modulus (GPa) = 32.49365 33.35506 32.92435
# Shear Modulus (GPa) = 21.83849 22.86538 22.35194
#
# Velocity S-wave (km/s) = 3.32177 3.39897 3.36059
# Velocity P-wave (km/s) = 5.57943 5.67953 5.62970
#
# Compressibility (1/GPa) = 0.03077525
#
# Stress axis : x y z
#
# Youngs Moduli (GPa) = 51.29246 51.29246 81.07308
#
# Poissons Ratio (x) = 0.26978 0.20333
# Poissons Ratio (y) = 0.26978 0.20333
# Poissons Ratio (z) = 0.12864 0.12864
#
# Static dielectric constant tensor:
#      x y z
#    x 1.752670 0.000000 0.000000 
#    y 0.000000 1.752670 0.000000 
#    z 0.000000 0.000000 1.718290 
# 
# From -- ./inp_files/1446.got.cif
#   From: 2010.05.17/outbox.cif.g08.bks.cpg/sg81_cif.got.tgz:1446.got - 2010.06.03 18:51:07.
