data_PCOD9542985
_publ_section_title
;
Structure prediction by ZEFSAII (Michael W. Deem and Ramdas Pophale) SiO2 
 PCOD9542985
Probable space group: I -4 
;
_chemical_formula_sum "Si O2"
_cell_formula_units_Z 48
_cell_length_a 8.128799
_cell_length_b 8.128799
_cell_length_c 29.648510
_cell_angle_alpha 90.000000
_cell_angle_beta 90.000000
_cell_angle_gamma 90.000000
_cell_volume 1959.095660
_symmetry_space_group_name_H-M "I -4 "
_symmetry_group_IT_number 82
_symmetry_cell_setting 'tetragonal'
loop_
_space_group_symop_operation_xyz
x,y,z
y,-x,-z
-x,-y,z
-y,x,-z
1/2+x,1/2+y,1/2+z
1/2+y,1/2-x,1/2-z
1/2-x,1/2-y,1/2+z
1/2-y,1/2+x,1/2-z
loop_
_atom_site_type_symbol
_atom_site_label
_atom_site_fract_x
_atom_site_fract_y
_atom_site_fract_z
Si Si1 0.200132 0.172639 0.571916
Si Si2 0.343453 0.630035 0.274335
Si Si3 0.171416 0.329573 0.312285
Si Si4 0.552101 0.314159 0.596105
Si Si5 0.163304 0.611424 0.018921
Si Si6 0.139511 0.135037 0.667256
O O1 0.382618 0.211399 0.591422
O O2 0.154219 0.294039 0.531886
O O3 0.091425 0.181913 0.616510
O O4 0.205681 0.998143 0.546477
O O5 0.500000 0.500000 0.279191
O O6 0.312703 0.708859 0.224889
O O7 0.274043 0.349440 0.358294
O O8 0.295715 0.784334 0.307135
O O9 0.205135 0.492362 0.283415
O O10 0.991097 0.292816 0.330786
O O11 0.500000 0.500000 0.598313
O O12 0.644119 0.271725 0.549819
O O13 0.000000 0.500000 0.018593
O O14 0.000000 0.000000 0.681636
#
# Coordination Sequence:
#
# PCOD9542985 Si02
#       6
#     8   8   8   8   8   8
#     4  11  25  44  73 105 156 205 274 336 412 495
#     4  12  27  48  82 120 158 210 275 340 421 510
#     4  12  24  46  78 112 152 208 275 325 407 527
#     4  11  25  44  75 115 153 209 276 342 411 506
#     4  10  25  44  68 108 152 208 269 336 410 495
#     4  12  27  47  75 116 154 208 275 339 415 506
#
# _framework density 24.501103000000001
#
# number of rings (size 3 to 8) (size 9 to 14) (size 15 to 20)
#    0.000    0.667    5.000    1.500    7.000    0.667 
#    0.000    0.833    0.000    0.000    0.000    0.000 
#    0.000    0.000    0.000    0.000    0.000    0.000 
#
# Total GULP energy -133720.396340 kJ/mol
# GULP energy per Si atom -5571.683181 kJ/mol
# Density = 2.444534 g / cm^3
# Si number density = 24.501103 Si / 1000 Ang^3
#
#
#
# Elastic Constant Matrix: (Units=GPa)
#
#
# Indices 1 2 3 4 5 6 
#
# 1 103.6362 32.1310 54.5809 0.0000 0.0000 2.3441
# 2 32.1310 103.6362 54.5810 0.0000 0.0000 -2.3441
# 3 54.5809 54.5810 209.7209 0.0000 0.0000 0.0000
# 4 0.0000 0.0000 0.0000 20.4477 0.0000 0.0000
# 5 0.0000 0.0000 0.0000 0.0000 20.4477 0.0000
# 6 2.3441 -2.3441 0.0000 0.0000 0.0000 35.8259
#
#
#
# Elastic Compliance Matrix: (Units=1/GPa)
#
#
# Indices 1 2 3 4 5 6 
#
# 1 0.011680 -0.002365 -0.002424 0.000000 0.000000 -0.000919
# 2 -0.002365 0.011680 -0.002424 0.000000 0.000000 0.000919
# 3 -0.002424 -0.002424 0.006030 0.000000 0.000000 0.000000
# 4 0.000000 0.000000 0.000000 0.048905 0.000000 0.000000
# 5 0.000000 0.000000 0.000000 0.000000 0.048905 0.000000
# 6 -0.000919 0.000919 0.000000 0.000000 0.000000 0.028033
#
#
# Mechanical properties :
#
#
# Convention : Reuss Voigt Hill
#
# Bulk Modulus (GPa) = 66.83304 77.73102 72.28203
# Shear Modulus (GPa) = 28.62894 33.72428 31.17661
#
# Velocity S-wave (km/s) = 3.42201 3.71406 3.57102
# Velocity P-wave (km/s) = 6.55365 7.08426 6.82411
#
# Compressibility (1/GPa) = 0.01496266
#
# Stress axis : x y z
#
# Youngs Moduli (GPa) = 85.61660 85.61661 165.83577
#
# Poissons Ratio (x) = 0.20251 0.40202
# Poissons Ratio (y) = 0.20251 0.40202
# Poissons Ratio (z) = 0.20755 0.20755
#
# Static dielectric constant tensor:
#      x y z
#    x 2.067260 0.000000 0.000000 
#    y 0.000000 2.067260 0.000000 
#    z 0.000000 0.000000 2.005570 
# 
# From -- ./inp_files/3999.got.cif
#   From: 2010.05.17/outbox.cif.g08.bks.cpg/sg82_2_cif.got.tgz:3999.got - 2010.06.03 18:52:26.
