data_PCOD9542161
_publ_section_title
;
Structure prediction by ZEFSAII (Michael W. Deem and Ramdas Pophale) SiO2 
 PCOD9542161
Probable space group: I 41
;
_chemical_formula_sum "Si O2"
_cell_formula_units_Z 48
_cell_length_a 17.383840
_cell_length_b 17.383840
_cell_length_c 7.506049
_cell_angle_alpha 90.000000
_cell_angle_beta 90.000000
_cell_angle_gamma 90.000000
_cell_volume 2268.312194
_symmetry_space_group_name_H-M "I 41"
_symmetry_group_IT_number 80
_symmetry_cell_setting 'tetragonal'
loop_
_space_group_symop_operation_xyz
x,y,z
-y,1/2+x,1/4+z
-x,-y,z
y,1/2-x,1/4+z
1/2+x,1/2+y,1/2+z
1/2-y,x,3/4+z
1/2-x,1/2-y,1/2+z
1/2+y,-x,3/4+z
loop_
_atom_site_type_symbol
_atom_site_label
_atom_site_fract_x
_atom_site_fract_y
_atom_site_fract_z
Si Si1 0.071824 0.685765 0.540640
Si Si2 0.721503 0.937317 0.417229
Si Si3 0.146271 0.586196 0.820048
Si Si4 0.886536 0.561276 0.239717
Si Si5 0.692136 0.677694 0.683652
Si Si6 0.944168 0.393419 0.178746
O O1 0.109326 0.615099 0.640140
O O2 0.115861 0.765762 0.576689
O O3 0.064083 0.671034 0.330636
O O4 0.990945 0.703789 0.638421
O O5 0.688174 0.930121 0.614037
O O6 0.746054 0.860037 0.319500
O O7 0.656992 0.993434 0.327130
O O8 0.098950 0.615546 0.990989
O O9 0.868423 0.612805 0.411375
O O10 0.906756 0.471647 0.260694
O O11 0.964774 0.594091 0.151510
O O12 0.736889 0.674861 0.497626
#
# Coordination Sequence:
#
# PCOD9542161 Si02
#       6
#     8   8   8   8   8   8
#     4  10  21  42  62  99 124 170 221 266 328 400
#     4   9  22  43  60  96 126 164 218 267 324 387
#     4   9  22  40  62  94 128 163 216 273 322 381
#     4  10  21  42  64  94 129 170 216 275 327 386
#     4  12  25  40  61  94 128 172 213 266 332 397
#     4  10  21  41  69  94 128 174 222 267 329 396
#
# _framework density 21.161107000000001
#
# number of rings (size 3 to 8) (size 9 to 14) (size 15 to 20)
#    1.000    1.000    1.667    1.000    2.333    4.000 
#    3.000    1.667    0.000    0.000    0.000    0.000 
#    0.000    0.000    0.000    0.000    0.000    0.000 
#
# Total GULP energy -133627.697044 kJ/mol
# GULP energy per Si atom -5567.820710 kJ/mol
# Density = 2.111294 g / cm^3
# Si number density = 21.161107 Si / 1000 Ang^3
#
#
#
# Elastic Constant Matrix: (Units=GPa)
#
#
# Indices 1 2 3 4 5 6 
#
# 1 39.6861 -5.4991 11.3710 0.0000 0.0000 -0.4505
# 2 -5.4991 39.6861 11.3710 0.0000 0.0000 0.4505
# 3 11.3710 11.3710 60.9512 0.0000 0.0000 0.0000
# 4 0.0000 0.0000 0.0000 34.8803 0.0000 0.0000
# 5 0.0000 0.0000 0.0000 0.0000 34.8803 0.0000
# 6 -0.4505 0.4505 0.0000 0.0000 0.0000 12.8106
#
#
#
# Elastic Compliance Matrix: (Units=1/GPa)
#
#
# Indices 1 2 3 4 5 6 
#
# 1 0.027771 0.005624 -0.006230 0.000000 0.000000 0.000779
# 2 0.005624 0.027771 -0.006230 0.000000 0.000000 -0.000779
# 3 -0.006230 -0.006230 0.018731 0.000000 0.000000 0.000000
# 4 0.000000 0.000000 0.000000 0.028670 0.000000 0.000000
# 5 0.000000 0.000000 0.000000 0.000000 0.028670 0.000000
# 6 0.000779 -0.000779 0.000000 0.000000 0.000000 0.078115
#
#
# Mechanical properties :
#
#
# Convention : Reuss Voigt Hill
#
# Bulk Modulus (GPa) = 16.50138 19.42326 17.96232
# Shear Modulus (GPa) = 20.52547 24.71959 22.62253
#
# Velocity S-wave (km/s) = 3.11780 3.42155 3.27320
# Velocity P-wave (km/s) = 4.55805 4.98076 4.77409
#
# Compressibility (1/GPa) = 0.06060098
#
# Stress axis : x y z
#
# Youngs Moduli (GPa) = 36.00880 36.00880 53.38692
#
# Poissons Ratio (x) = -0.20252 0.33261
# Poissons Ratio (y) = -0.20252 0.33261
# Poissons Ratio (z) = 0.22434 0.22434
#
# Static dielectric constant tensor:
#      x y z
#    x 1.778420 0.000000 0.000000 
#    y 0.000000 1.778420 0.000000 
#    z 0.000000 0.000000 1.767200 
# 
# From -- ./inp_files/672.got.cif
#   From: 2010.05.17/outbox.cif.g08.bks.cpg/sg80_cif.got.tgz:672.got - 2010.06.03 18:49:13.
