data_PCOD9542925
_publ_section_title
;
Structure prediction by ZEFSAII (Michael W. Deem and Ramdas Pophale) SiO2 
 PCOD9542925
Probable space group: I -4 
;
_chemical_formula_sum "Si O2"
_cell_formula_units_Z 34
_cell_length_a 8.581909
_cell_length_b 8.581909
_cell_length_c 23.570499
_cell_angle_alpha 90.000000
_cell_angle_beta 90.000000
_cell_angle_gamma 90.000000
_cell_volume 1735.947501
_symmetry_space_group_name_H-M "I -4 "
_symmetry_group_IT_number 82
_symmetry_cell_setting 'tetragonal'
loop_
_space_group_symop_operation_xyz
x,y,z
y,-x,-z
-x,-y,z
-y,x,-z
1/2+x,1/2+y,1/2+z
1/2+y,1/2-x,1/2-z
1/2-x,1/2-y,1/2+z
1/2-y,1/2+x,1/2-z
loop_
_atom_site_type_symbol
_atom_site_label
_atom_site_fract_x
_atom_site_fract_y
_atom_site_fract_z
Si Si1 0.734759 0.789026 0.124650
Si Si2 0.000000 0.500000 0.556715
Si Si3 0.000000 0.000000 0.166497
Si Si4 0.500000 0.000000 0.750000
Si Si5 0.233815 0.085301 0.518292
Si Si6 0.659177 0.581035 0.223149
O O1 0.602429 0.890860 0.095923
O O2 0.752424 0.641497 0.082741
O O3 0.686714 0.735403 0.187285
O O4 0.889178 0.891030 0.130265
O O5 0.895257 0.392362 0.516205
O O6 0.905291 0.111224 0.210690
O O7 0.495550 0.171454 0.780008
O O8 0.094416 0.182355 0.488711
O O9 0.500000 0.500000 0.199157
#
# Coordination Sequence:
#
# PCOD9542925 Si02
#       6
#     8   4   4   2   8   8
#     4  11  23  43  65  92 131 178 214 286 350 400
#     4  10  24  39  63  96 123 166 223 290 346 394
#     4  10  24  40  61 100 137 166 224 280 336 416
#     4  12  20  46  68  92 148 188 218 288 344 400
#     4   9  21  41  63  91 123 168 226 274 335 429
#     4  10  23  41  65  99 133 175 233 274 328 429
#
# _framework density 19.585844999999999
#
# number of rings (size 3 to 8) (size 9 to 14) (size 15 to 20)
#    0.706    1.176    2.353    0.000    6.588    8.471 
#    0.000    0.000    0.000    0.000    0.000    0.000 
#    0.000    0.000    0.000    0.000    0.000    0.000 
#
# Total GULP energy -94636.666160 kJ/mol
# GULP energy per Si atom -5566.862715 kJ/mol
# Density = 1.954127 g / cm^3
# Si number density = 19.585845 Si / 1000 Ang^3
#
#
#
# Elastic Constant Matrix: (Units=GPa)
#
#
# Indices 1 2 3 4 5 6 
#
# 1 91.7425 13.6688 21.3919 0.0000 0.0000 4.2838
# 2 13.6688 91.7425 21.3919 0.0000 0.0000 -4.2838
# 3 21.3919 21.3919 67.1612 0.0000 0.0000 0.0000
# 4 0.0000 0.0000 0.0000 10.6170 0.0000 0.0000
# 5 0.0000 0.0000 0.0000 0.0000 10.6170 0.0000
# 6 4.2838 -4.2838 0.0000 0.0000 0.0000 20.3848
#
#
#
# Elastic Compliance Matrix: (Units=1/GPa)
#
#
# Indices 1 2 3 4 5 6 
#
# 1 0.012003 -0.001108 -0.003470 0.000000 0.000000 -0.002755
# 2 -0.001108 0.012003 -0.003470 0.000000 0.000000 0.002755
# 3 -0.003470 -0.003470 0.017100 0.000000 0.000000 0.000000
# 4 0.000000 0.000000 0.000000 0.094189 0.000000 0.000000
# 5 0.000000 0.000000 0.000000 0.000000 0.094189 0.000000
# 6 -0.002755 0.002755 0.000000 0.000000 0.000000 0.050214
#
#
# Mechanical properties :
#
#
# Convention : Reuss Voigt Hill
#
# Bulk Modulus (GPa) = 39.98495 40.39461 40.18978
# Shear Modulus (GPa) = 16.44026 21.26999 18.85512
#
# Velocity S-wave (km/s) = 2.90037 3.29901 3.10609
# Velocity P-wave (km/s) = 5.62812 5.93131 5.78170
#
# Compressibility (1/GPa) = 0.02500941
#
# Stress axis : x y z
#
# Youngs Moduli (GPa) = 83.31283 83.31283 58.47870
#
# Poissons Ratio (x) = 0.09229 0.20294
# Poissons Ratio (y) = 0.09229 0.20294
# Poissons Ratio (z) = 0.28912 0.28912
#
# Static dielectric constant tensor:
#      x y z
#    x 1.719140 0.000000 0.000000 
#    y 0.000000 1.719140 0.000000 
#    z 0.000000 0.000000 1.667820 
# 
# From -- ./inp_files/2994.got.cif
#   From: 2010.05.17/outbox.cif.g08.bks.cpg/sg82_2_cif.got.tgz:2994.got - 2010.06.03 18:52:26.
