data_PCOD9542414
_publ_section_title
;
Structure prediction by ZEFSAII (Michael W. Deem and Ramdas Pophale) SiO2 
 PCOD9542414
Probable space group: P -4
;
_chemical_formula_sum "Si O2"
_cell_formula_units_Z 17
_cell_length_a 11.314294
_cell_length_b 11.314294
_cell_length_c 7.205146
_cell_angle_alpha 90.000000
_cell_angle_beta 90.000000
_cell_angle_gamma 90.000000
_cell_volume 922.354147
_symmetry_space_group_name_H-M "P -4"
_symmetry_group_IT_number 81
_symmetry_cell_setting 'tetragonal'
loop_
_space_group_symop_operation_xyz
x,y,z
y,-x,-z
-x,-y,z
-y,x,-z
loop_
_atom_site_type_symbol
_atom_site_label
_atom_site_fract_x
_atom_site_fract_y
_atom_site_fract_z
Si Si1 0.107507 0.695208 0.650579
Si Si2 0.070018 0.624183 0.070824
Si Si3 0.712160 0.102221 0.627109
Si Si4 0.500000 0.500000 0.500000
Si Si5 0.468527 0.242773 0.633217
O O1 0.171205 0.820020 0.618100
O O2 0.186751 0.596478 0.546316
O O3 0.980825 0.694160 0.550989
O O4 0.096785 0.670919 0.867790
O O5 0.187949 0.599679 0.190562
O O6 0.000000 0.500000 0.055819
O O7 0.985208 0.706385 0.196034
O O8 0.600772 0.190774 0.639988
O O9 0.470092 0.383436 0.618812
#
# Coordination Sequence:
#
# PCOD9542414 Si02
#       5
#     4   4   4   1   4
#     4  11  21  40  63  84 119 163 195 251 299 348
#     4   9  20  39  60  85 119 160 201 237 298 371
#     4  10  22  38  60  89 116 155 208 240 297 362
#     4  12  20  40  66  96 128 146 188 264 302 352
#     4  10  21  40  60  90 122 155 193 241 307 369
#
# _framework density 18.431099
#
# number of rings (size 3 to 8) (size 9 to 14) (size 15 to 20)
#    0.000    1.882    2.353    3.529    0.000    4.235 
#    8.471    1.176    0.000    0.000    0.000    0.000 
#    0.000    0.000    0.000    0.000    0.000    0.000 
#
# Total GULP energy -94919.170902 kJ/mol
# GULP energy per Si atom -5583.480641 kJ/mol
# Density = 1.838915 g / cm^3
# Si number density = 18.431099 Si / 1000 Ang^3
#
#
#
# Elastic Constant Matrix: (Units=GPa)
#
#
# Indices 1 2 3 4 5 6 
#
# 1 63.1119 -1.9678 20.2778 0.0000 0.0000 -0.3127
# 2 -1.9678 63.1119 20.2778 0.0000 0.0000 0.3127
# 3 20.2778 20.2778 123.4149 0.0000 0.0000 0.0000
# 4 0.0000 0.0000 0.0000 6.0063 0.0000 0.0000
# 5 0.0000 0.0000 0.0000 0.0000 6.0063 0.0000
# 6 -0.3127 0.3127 0.0000 0.0000 0.0000 11.9409
#
#
#
# Elastic Compliance Matrix: (Units=1/GPa)
#
#
# Indices 1 2 3 4 5 6 
#
# 1 0.016862 0.001493 -0.003016 0.000000 0.000000 0.000402
# 2 0.001493 0.016862 -0.003016 0.000000 0.000000 -0.000402
# 3 -0.003016 -0.003016 0.009094 0.000000 0.000000 0.000000
# 4 0.000000 0.000000 0.000000 0.166492 0.000000 0.000000
# 5 0.000000 0.000000 0.000000 0.000000 0.166492 0.000000
# 6 0.000402 -0.000402 0.000000 0.000000 0.000000 0.083767
#
#
# Mechanical properties :
#
#
# Convention : Reuss Voigt Hill
#
# Bulk Modulus (GPa) = 29.63781 36.31270 32.97526
# Shear Modulus (GPa) = 10.41898 18.86076 14.63987
#
# Velocity S-wave (km/s) = 2.38017 3.20239 2.82140
# Velocity P-wave (km/s) = 4.86506 5.78087 5.34262
#
# Compressibility (1/GPa) = 0.03374068
#
# Stress axis : x y z
#
# Youngs Moduli (GPa) = 59.30349 59.30349 109.96506
#
# Poissons Ratio (x) = -0.08853 0.33164
# Poissons Ratio (y) = -0.08853 0.33164
# Poissons Ratio (z) = 0.17885 0.17885
#
# Static dielectric constant tensor:
#      x y z
#    x 1.629810 0.000000 0.000000 
#    y 0.000000 1.629810 0.000000 
#    z 0.000000 0.000000 1.609990 
# 
# From -- ./inp_files/105.got.cif
#   From: 2010.05.17/outbox.cif.g08.bks.cpg/sg81_cif.got.tgz:105.got - 2010.06.03 18:51:07.
