data_PCOD9542301
_publ_section_title
;
Structure prediction by ZEFSAII (Michael W. Deem and Ramdas Pophale) SiO2 
 PCOD9542301
Probable space group: I 41
;
_chemical_formula_sum "Si O2"
_cell_formula_units_Z 40
_cell_length_a 13.173291
_cell_length_b 13.173291
_cell_length_c 9.760099
_cell_angle_alpha 90.000000
_cell_angle_beta 90.000000
_cell_angle_gamma 90.000000
_cell_volume 1693.724595
_symmetry_space_group_name_H-M "I 41"
_symmetry_group_IT_number 80
_symmetry_cell_setting 'tetragonal'
loop_
_space_group_symop_operation_xyz
x,y,z
-y,1/2+x,1/4+z
-x,-y,z
y,1/2-x,1/4+z
1/2+x,1/2+y,1/2+z
1/2-y,x,3/4+z
1/2-x,1/2-y,1/2+z
1/2+y,-x,3/4+z
loop_
_atom_site_type_symbol
_atom_site_label
_atom_site_fract_x
_atom_site_fract_y
_atom_site_fract_z
Si Si1 0.022126 0.773977 0.076890
Si Si2 0.386818 0.034118 0.088532
Si Si3 0.093145 0.422152 0.086181
Si Si4 0.775258 0.330688 0.950910
Si Si5 0.450676 0.261175 0.106244
O O1 0.027830 0.850963 0.204736
O O2 0.953499 0.683280 0.135627
O O3 0.972169 0.838172 0.953967
O O4 0.119802 0.713802 0.015476
O O5 0.394761 0.156515 0.073727
O O6 0.312796 0.017900 0.215100
O O7 0.500000 0.000000 0.125371
O O8 0.000000 0.500000 0.053356
O O9 0.156057 0.392716 0.949298
O O10 0.773112 0.303870 0.793237
O O11 0.750305 0.449145 0.951300
#
# Coordination Sequence:
#
# PCOD9542301 Si02
#       5
#     8   8   8   8   8
#     4  12  26  47  73 109 151 200 249 320 387 465
#     4  12  29  47  77 112 160 193 258 323 389 465
#     4  12  24  47  74 104 152 196 261 310 386 468
#     4  12  27  47  76 109 145 203 260 314 381 462
#     4  12  26  49  76 109 150 206 249 320 389 459
#
# _framework density 23.616589999999999
#
# number of rings (size 3 to 8) (size 9 to 14) (size 15 to 20)
#    0.000    0.000    4.000    4.800    5.600    4.800 
#    0.000    0.000    0.000    0.000    0.000    0.000 
#    0.000    0.000    0.000    0.000    0.000    0.000 
#
# Total GULP energy -111804.092977 kJ/mol
# GULP energy per Si atom -5590.204649 kJ/mol
# Density = 2.356284 g / cm^3
# Si number density = 23.616590 Si / 1000 Ang^3
#
#
#
# Elastic Constant Matrix: (Units=GPa)
#
#
# Indices 1 2 3 4 5 6 
#
# 1 95.7076 5.3964 7.1461 0.0000 0.0000 -12.8941
# 2 5.3964 95.7076 7.1461 0.0000 0.0000 12.8941
# 3 7.1461 7.1461 111.1832 0.0000 0.0000 0.0000
# 4 0.0000 0.0000 0.0000 35.0892 0.0000 0.0000
# 5 0.0000 0.0000 0.0000 0.0000 35.0892 0.0000
# 6 -12.8941 12.8941 0.0000 0.0000 0.0000 27.7077
#
#
#
# Elastic Compliance Matrix: (Units=1/GPa)
#
#
# Indices 1 2 3 4 5 6 
#
# 1 0.011376 -0.001394 -0.000642 0.000000 0.000000 0.005943
# 2 -0.001394 0.011376 -0.000642 0.000000 0.000000 -0.005943
# 3 -0.000642 -0.000642 0.009077 0.000000 0.000000 0.000000
# 4 0.000000 0.000000 0.000000 0.028499 0.000000 0.000000
# 5 0.000000 0.000000 0.000000 0.000000 0.028499 0.000000
# 6 0.005943 -0.005943 0.000000 0.000000 0.000000 0.041622
#
#
# Mechanical properties :
#
#
# Convention : Reuss Voigt Hill
#
# Bulk Modulus (GPa) = 37.77368 37.99728 37.88548
# Shear Modulus (GPa) = 34.57192 38.43790 36.50491
#
# Velocity S-wave (km/s) = 3.83022 4.03870 3.93584
# Velocity P-wave (km/s) = 5.96574 6.15405 6.06063
#
# Compressibility (1/GPa) = 0.02647346
#
# Stress axis : x y z
#
# Youngs Moduli (GPa) = 87.90751 87.90751 110.17300
#
# Poissons Ratio (x) = 0.12255 0.07068
# Poissons Ratio (y) = 0.12255 0.07068
# Poissons Ratio (z) = 0.05640 0.05640
#
# Static dielectric constant tensor:
#      x y z
#    x 1.961240 0.000000 0.000000 
#    y 0.000000 1.961240 0.000000 
#    z 0.000000 0.000000 1.865320 
# 
# From -- ./inp_files/616.got.cif
#   From: 2010.05.17/outbox.cif.g08.bks.cpg/sg80_cif.got.tgz:616.got - 2010.06.03 18:49:13.
