data_PCOD9542059
_publ_section_title
;
Structure prediction by ZEFSAII (Michael W. Deem and Ramdas Pophale) SiO2 
 PCOD9542059
Probable space group: I 41
;
_chemical_formula_sum "Si O2"
_cell_formula_units_Z 40
_cell_length_a 15.370644
_cell_length_b 15.370644
_cell_length_c 8.865318
_cell_angle_alpha 90.000000
_cell_angle_beta 90.000000
_cell_angle_gamma 90.000000
_cell_volume 2094.490748
_symmetry_space_group_name_H-M "I 41"
_symmetry_group_IT_number 80
_symmetry_cell_setting 'tetragonal'
loop_
_space_group_symop_operation_xyz
x,y,z
-y,1/2+x,1/4+z
-x,-y,z
y,1/2-x,1/4+z
1/2+x,1/2+y,1/2+z
1/2-y,x,3/4+z
1/2-x,1/2-y,1/2+z
1/2+y,-x,3/4+z
loop_
_atom_site_type_symbol
_atom_site_label
_atom_site_fract_x
_atom_site_fract_y
_atom_site_fract_z
Si Si1 0.868142 0.523326 0.493080
Si Si2 0.724559 0.646356 0.371653
Si Si3 0.023326 0.631858 0.013481
Si Si4 0.353644 0.724559 0.634908
Si Si5 0.000000 0.500000 0.753280
Si Si6 0.000000 0.000000 0.003280
O O1 0.786559 0.586123 0.476361
O O2 0.842793 0.423541 0.455135
O O3 0.919509 0.526530 0.648289
O O4 0.935491 0.550992 0.362362
O O5 0.684712 0.719930 0.480916
O O6 0.657207 0.576459 0.301426
O O7 0.026530 0.580491 0.858272
O O8 0.050992 0.564509 0.144199
O O9 0.086123 0.713441 0.030199
O O10 0.315288 0.780070 0.775645
#
# Coordination Sequence:
#
# PCOD9542059 Si02
#       6
#     8   8   8   8   4   4
#     4  10  22  41  60  90 116 167 197 252 298 366
#     4  11  24  40  62  89 126 158 202 255 308 352
#     4  10  22  41  60  90 116 167 197 252 298 366
#     4  11  24  40  62  89 126 158 202 255 308 352
#     4  10  24  38  68  86 120 162 212 242 288 394
#     4  10  16  42  60  74 120 162 200 230 308 370
#
# _framework density 19.097721
#
# number of rings (size 3 to 8) (size 9 to 14) (size 15 to 20)
#    0.000    1.600    4.000    0.000    5.600    0.000 
#    0.000    4.000    0.000    0.000    0.000    0.000 
#    0.000    0.000    0.000    0.000    0.000    0.000 
#
# Total GULP energy -111580.831674 kJ/mol
# GULP energy per Si atom -5579.041584 kJ/mol
# Density = 1.905425 g / cm^3
# Si number density = 19.097721 Si / 1000 Ang^3
#
#
#
# Elastic Constant Matrix: (Units=GPa)
#
#
# Indices 1 2 3 4 5 6 
#
# 1 32.2272 -13.7794 14.3276 0.0000 0.0000 0.9830
# 2 -13.7794 32.2272 14.3276 0.0000 0.0000 -0.9830
# 3 14.3276 14.3276 99.4955 0.0000 0.0000 0.0000
# 4 0.0000 0.0000 0.0000 24.6119 0.0000 0.0000
# 5 0.0000 0.0000 0.0000 0.0000 24.6119 0.0000
# 6 0.9830 -0.9830 0.0000 0.0000 0.0000 35.4979
#
#
#
# Elastic Compliance Matrix: (Units=1/GPa)
#
#
# Indices 1 2 3 4 5 6 
#
# 1 0.045794 0.024032 -0.010055 0.000000 0.000000 -0.000603
# 2 0.024032 0.045794 -0.010055 0.000000 0.000000 0.000603
# 3 -0.010055 -0.010055 0.012947 0.000000 0.000000 0.000000
# 4 0.000000 0.000000 0.000000 0.040631 0.000000 0.000000
# 5 0.000000 0.000000 0.000000 0.000000 0.040631 0.000000
# 6 -0.000603 0.000603 0.000000 0.000000 0.000000 0.028204
#
#
# Mechanical properties :
#
#
# Convention : Reuss Voigt Hill
#
# Bulk Modulus (GPa) = 8.89853 21.52239 15.21046
# Shear Modulus (GPa) = 20.52415 26.88262 23.70338
#
# Velocity S-wave (km/s) = 3.28180 3.75592 3.52684
# Velocity P-wave (km/s) = 4.36233 5.48665 4.95647
#
# Compressibility (1/GPa) = 0.11237807
#
# Stress axis : x y z
#
# Youngs Moduli (GPa) = 21.83699 21.83699 77.24015
#
# Poissons Ratio (x) = -0.52479 0.77666
# Poissons Ratio (y) = -0.52479 0.77666
# Poissons Ratio (z) = 0.21957 0.21957
#
# Static dielectric constant tensor:
#      x y z
#    x 1.683450 0.000000 0.000000 
#    y 0.000000 1.683450 0.000000 
#    z 0.000000 0.000000 1.635360 
# 
# From -- ./inp_files/587.got.cif
#   From: 2010.05.17/outbox.cif.g08.bks.cpg/sg80_cif.got.tgz:587.got - 2010.06.03 18:49:13.
