data_PCOD9542488
_publ_section_title
;
Structure prediction by ZEFSAII (Michael W. Deem and Ramdas Pophale) SiO2 
 PCOD9542488
Probable space group: P -4
;
_chemical_formula_sum "Si O2"
_cell_formula_units_Z 16
_cell_length_a 11.190164
_cell_length_b 11.190164
_cell_length_c 4.837808
_cell_angle_alpha 90.000000
_cell_angle_beta 90.000000
_cell_angle_gamma 90.000000
_cell_volume 605.789207
_symmetry_space_group_name_H-M "P -4"
_symmetry_group_IT_number 81
_symmetry_cell_setting 'tetragonal'
loop_
_space_group_symop_operation_xyz
x,y,z
y,-x,-z
-x,-y,z
-y,x,-z
loop_
_atom_site_type_symbol
_atom_site_label
_atom_site_fract_x
_atom_site_fract_y
_atom_site_fract_z
Si Si1 0.742940 0.524593 0.624374
Si Si2 0.500000 0.500000 0.000000
Si Si3 0.302920 0.215647 0.679447
Si Si4 0.747868 0.931457 0.164559
Si Si5 0.000000 0.000000 0.000000
Si Si6 0.000000 0.500000 0.903777
O O1 0.620607 0.499104 0.802170
O O2 0.752029 0.663587 0.561673
O O3 0.752870 0.443472 0.350643
O O4 0.868266 0.493846 0.769227
O O5 0.275085 0.105424 0.479349
O O6 0.255039 0.189161 0.981362
O O7 0.875126 0.994253 0.159577
O O8 0.639893 0.002122 0.009173
#
# Coordination Sequence:
#
# PCOD9542488 Si02
#       6
#     4   1   4   4   1   2
#     4  11  23  43  72 105 144 188 239 297 360 430
#     4  12  24  46  76 114 148 190 244 306 364 426
#     4  11  25  45  70 105 143 189 238 296 360 429
#     4  11  27  45  71 103 143 188 239 295 360 430
#     4  12  28  50  76 110 148 190 244 306 364 430
#     4  10  24  46  70 102 140 188 236 290 356 430
#
# _framework density 26.411826999999999
#
# number of rings (size 3 to 8) (size 9 to 14) (size 15 to 20)
#    0.000    1.000    0.000    6.000    0.000   17.000 
#    0.000    0.000    0.000    0.000    0.000    0.000 
#    0.000    0.000    0.000    0.000    0.000    0.000 
#
# Total GULP energy -89202.722739 kJ/mol
# GULP energy per Si atom -5575.170171 kJ/mol
# Density = 2.635171 g / cm^3
# Si number density = 26.411827 Si / 1000 Ang^3
#
#
#
# Elastic Constant Matrix: (Units=GPa)
#
#
# Indices 1 2 3 4 5 6 
#
# 1 156.0200 18.0007 26.4637 0.0000 0.0000 2.3749
# 2 18.0007 156.0200 26.4637 0.0000 0.0000 -2.3749
# 3 26.4637 26.4637 107.1526 0.0000 0.0000 0.0000
# 4 0.0000 0.0000 0.0000 10.1098 0.0000 0.0000
# 5 0.0000 0.0000 0.0000 0.0000 10.1098 0.0000
# 6 2.3749 -2.3749 0.0000 0.0000 0.0000 33.4272
#
#
#
# Elastic Compliance Matrix: (Units=1/GPa)
#
#
# Indices 1 2 3 4 5 6 
#
# 1 0.006738 -0.000525 -0.001534 0.000000 0.000000 -0.000516
# 2 -0.000525 0.006738 -0.001534 0.000000 0.000000 0.000516
# 3 -0.001534 -0.001534 0.010090 0.000000 0.000000 0.000000
# 4 0.000000 0.000000 0.000000 0.098914 0.000000 0.000000
# 5 0.000000 0.000000 0.000000 0.000000 0.098914 0.000000
# 6 -0.000516 0.000516 0.000000 0.000000 0.000000 0.029989
#
#
# Mechanical properties :
#
#
# Convention : Reuss Voigt Hill
#
# Bulk Modulus (GPa) = 61.05441 62.33873 61.69657
# Shear Modulus (GPa) = 18.93717 33.94700 26.44208
#
# Velocity S-wave (km/s) = 2.68058 3.58899 3.16752
# Velocity P-wave (km/s) = 5.72252 6.38970 6.06529
#
# Compressibility (1/GPa) = 0.01637883
#
# Stress axis : x y z
#
# Youngs Moduli (GPa) = 148.40903 148.40903 99.10378
#
# Poissons Ratio (x) = 0.07791 0.15207
# Poissons Ratio (y) = 0.07791 0.15207
# Poissons Ratio (z) = 0.22773 0.22773
#
# Static dielectric constant tensor:
#      x y z
#    x 2.178960 0.000000 0.000000 
#    y 0.000000 2.178960 0.000000 
#    z 0.000000 0.000000 2.024400 
# 
# From -- ./inp_files/141.got.cif
#   From: 2010.05.17/outbox.cif.g08.bks.cpg/sg81_cif.got.tgz:141.got - 2010.06.03 18:51:07.
