data_PCOD9542646
_publ_section_title
;
Structure prediction by ZEFSAII (Michael W. Deem and Ramdas Pophale) SiO2 
 PCOD9542646
Probable space group: I -4 
;
_chemical_formula_sum "Si O2"
_cell_formula_units_Z 56
_cell_length_a 23.008489
_cell_length_b 23.008489
_cell_length_c 6.051048
_cell_angle_alpha 90.000000
_cell_angle_beta 90.000000
_cell_angle_gamma 90.000000
_cell_volume 3203.367726
_symmetry_space_group_name_H-M "I -4 "
_symmetry_group_IT_number 82
_symmetry_cell_setting 'tetragonal'
loop_
_space_group_symop_operation_xyz
x,y,z
y,-x,-z
-x,-y,z
-y,x,-z
1/2+x,1/2+y,1/2+z
1/2+y,1/2-x,1/2-z
1/2-x,1/2-y,1/2+z
1/2-y,1/2+x,1/2-z
loop_
_atom_site_type_symbol
_atom_site_label
_atom_site_fract_x
_atom_site_fract_y
_atom_site_fract_z
Si Si1 0.140788 0.528174 0.780097
Si Si2 0.765050 0.668554 0.273054
Si Si3 0.451518 0.801258 0.598747
Si Si4 0.028655 0.581789 0.346999
Si Si5 0.731670 0.059561 0.667519
Si Si6 0.672086 0.135081 0.051824
Si Si7 0.666427 0.737265 0.065766
O O1 0.173769 0.483393 0.618473
O O2 0.127643 0.590255 0.665655
O O3 0.088881 0.498556 0.911666
O O4 0.186089 0.544840 0.974603
O O5 0.772225 0.611512 0.425174
O O6 0.702581 0.685529 0.176465
O O7 0.791980 0.724565 0.401892
O O8 0.804949 0.654761 0.059769
O O9 0.444479 0.858816 0.753180
O O10 0.497298 0.757497 0.718027
O O11 0.069329 0.526867 0.311202
O O12 0.776433 0.106012 0.562114
O O13 0.699827 0.096842 0.856347
O O14 0.719892 0.149752 0.234795
#
# Coordination Sequence:
#
# PCOD9542646 Si02
#       7
#     8   8   8   8   8   8   8
#     4   9  19  37  52  68  90 143 177 234 291 324
#     4  11  21  33  52  85 107 143 183 237 284 359
#     4  10  22  34  54  74 104 139 188 231 284 339
#     4  10  23  38  48  67  97 135 197 250 280 317
#     4   8  18  36  51  72  99 139 176 222 273 333
#     4   9  18  33  54  71 104 132 181 224 284 339
#     4  10  19  33  53  78 108 142 181 228 293 332
#
# _framework density 17.481603
#
# number of rings (size 3 to 8) (size 9 to 14) (size 15 to 20)
#    0.000    2.429    1.429    0.000   12.000    3.429 
#    0.000    1.429    0.000    0.000    0.000    0.000 
#    0.000    0.571    0.000    0.571    0.000    0.143 
#
# Total GULP energy -156061.520842 kJ/mol
# GULP energy per Si atom -5573.625744 kJ/mol
# Density = 1.744181 g / cm^3
# Si number density = 17.481603 Si / 1000 Ang^3
#
#
#
# Elastic Constant Matrix: (Units=GPa)
#
#
# Indices 1 2 3 4 5 6 
#
# 1 61.1512 34.1483 10.7434 0.0000 0.0000 -2.9300
# 2 34.1483 61.1512 10.7434 0.0000 0.0000 2.9300
# 3 10.7434 10.7434 64.7165 0.0000 0.0000 0.0000
# 4 0.0000 0.0000 0.0000 22.3248 0.0000 0.0000
# 5 0.0000 0.0000 0.0000 0.0000 22.3248 0.0000
# 6 -2.9300 2.9300 0.0000 0.0000 0.0000 34.5531
#
#
#
# Elastic Compliance Matrix: (Units=1/GPa)
#
#
# Indices 1 2 3 4 5 6 
#
# 1 0.024314 -0.013413 -0.001810 0.000000 0.000000 0.003199
# 2 -0.013413 0.024314 -0.001810 0.000000 0.000000 -0.003199
# 3 -0.001810 -0.001810 0.016053 0.000000 0.000000 0.000000
# 4 0.000000 0.000000 0.000000 0.044793 0.000000 0.000000
# 5 0.000000 0.000000 0.000000 0.000000 0.044793 0.000000
# 6 0.003199 -0.003199 0.000000 0.000000 0.000000 0.029484
#
#
# Mechanical properties :
#
#
# Convention : Reuss Voigt Hill
#
# Bulk Modulus (GPa) = 32.66199 33.14322 32.90261
# Shear Modulus (GPa) = 21.92776 24.59948 23.26362
#
# Velocity S-wave (km/s) = 3.54550 3.75529 3.65190
# Velocity P-wave (km/s) = 5.95692 6.14841 6.05343
#
# Compressibility (1/GPa) = 0.03061662
#
# Stress axis : x y z
#
# Youngs Moduli (GPa) = 41.12812 41.12812 62.29428
#
# Poissons Ratio (x) = 0.55165 0.11273
# Poissons Ratio (y) = 0.55165 0.11273
# Poissons Ratio (z) = 0.07443 0.07443
#
# Static dielectric constant tensor:
#      x y z
#    x 1.620690 0.000000 0.000000 
#    y 0.000000 1.620690 0.000000 
#    z 0.000000 0.000000 1.671490 
# 
# From -- ./inp_files/464.got.cif
#   From: 2010.05.17/outbox.cif.g08.bks.cpg/sg82_1_cif.got.tgz:464.got - 2010.06.03 18:52:26.
