data_PCOD9542595
_publ_section_title
;
Structure prediction by ZEFSAII (Michael W. Deem and Ramdas Pophale) SiO2 
 PCOD9542595
Probable space group: P -4
;
_chemical_formula_sum "Si O2"
_cell_formula_units_Z 20
_cell_length_a 10.454980
_cell_length_b 10.454980
_cell_length_c 6.995840
_cell_angle_alpha 90.000000
_cell_angle_beta 90.000000
_cell_angle_gamma 90.000000
_cell_volume 764.691532
_symmetry_space_group_name_H-M "P -4"
_symmetry_group_IT_number 81
_symmetry_cell_setting 'tetragonal'
loop_
_space_group_symop_operation_xyz
x,y,z
y,-x,-z
-x,-y,z
-y,x,-z
loop_
_atom_site_type_symbol
_atom_site_label
_atom_site_fract_x
_atom_site_fract_y
_atom_site_fract_z
Si Si1 0.067636 0.795768 0.263469
Si Si2 0.843774 0.209072 0.849798
Si Si3 0.318604 0.409882 0.755683
Si Si4 0.685630 0.580123 0.216802
Si Si5 0.061178 0.302152 0.595684
O O1 0.941688 0.864009 0.180074
O O2 0.016101 0.682355 0.398971
O O3 0.157115 0.882579 0.396655
O O4 0.706668 0.231349 0.749960
O O5 0.952788 0.297829 0.759452
O O6 0.848166 0.235314 0.076617
O O7 0.432535 0.307016 0.718474
O O8 0.374012 0.548495 0.706864
O O9 0.183677 0.385747 0.653237
O O10 0.306005 0.424570 0.985398
#
# Coordination Sequence:
#
# PCOD9542595 Si02
#       5
#     4   4   4   4   4
#     4  12  24  38  64 101 139 187 236 294 366 447
#     4  12  23  39  67 101 141 186 237 295 367 448
#     4   9  19  41  71 101 137 188 247 309 370 453
#     4   9  19  40  72 102 135 189 251 303 374 449
#     4  12  24  40  67 101 145 186 236 297 370 449
#
# _framework density 26.154336000000001
#
# number of rings (size 3 to 8) (size 9 to 14) (size 15 to 20)
#    0.000    1.200    6.000    1.800    0.000    0.800 
#    0.000    3.000    4.400    2.400    0.000    5.600 
#    0.000    0.000    0.000    0.000    0.000    0.000 
#
# Total GULP energy -111720.817859 kJ/mol
# GULP energy per Si atom -5586.040893 kJ/mol
# Density = 2.609481 g / cm^3
# Si number density = 26.154336 Si / 1000 Ang^3
#
#
#
# Elastic Constant Matrix: (Units=GPa)
#
#
# Indices 1 2 3 4 5 6 
#
# 1 46.7335 -1.4105 -5.2193 0.0000 0.0000 10.6809
# 2 -1.4105 46.7335 -5.2193 0.0000 0.0000 -10.6809
# 3 -5.2193 -5.2193 145.9969 0.0000 0.0000 0.0000
# 4 0.0000 0.0000 0.0000 13.2887 0.0000 0.0000
# 5 0.0000 0.0000 0.0000 0.0000 13.2887 0.0000
# 6 10.6809 -10.6809 0.0000 0.0000 0.0000 45.9272
#
#
#
# Elastic Compliance Matrix: (Units=1/GPa)
#
#
# Indices 1 2 3 4 5 6 
#
# 1 0.022704 -0.000457 0.000795 0.000000 0.000000 -0.005386
# 2 -0.000457 0.022704 0.000795 0.000000 0.000000 0.005386
# 3 0.000795 0.000795 0.006906 0.000000 0.000000 0.000000
# 4 0.000000 0.000000 0.000000 0.075252 0.000000 0.000000
# 5 0.000000 0.000000 0.000000 0.000000 0.075252 0.000000
# 6 -0.005386 0.005386 0.000000 0.000000 0.000000 0.024279
#
#
# Mechanical properties :
#
#
# Convention : Reuss Voigt Hill
#
# Bulk Modulus (GPa) = 18.32118 23.97397 21.14757
# Shear Modulus (GPa) = 20.57409 31.25510 25.91460
#
# Velocity S-wave (km/s) = 2.80776 3.46066 3.15117
# Velocity P-wave (km/s) = 4.18707 5.01543 4.61985
#
# Compressibility (1/GPa) = 0.05458164
#
# Stress axis : x y z
#
# Youngs Moduli (GPa) = 44.04508 44.04508 144.79483
#
# Poissons Ratio (x) = 0.02013 -0.11516
# Poissons Ratio (y) = 0.02013 -0.11516
# Poissons Ratio (z) = -0.03503 -0.03503
#
# Static dielectric constant tensor:
#      x y z
#    x 2.076230 0.000000 0.000000 
#    y 0.000000 2.076230 0.000000 
#    z 0.000000 0.000000 2.098810 
# 
# From -- ./inp_files/762.got.cif
#   From: 2010.05.17/outbox.cif.g08.bks.cpg/sg81_cif.got.tgz:762.got - 2010.06.03 18:51:07.
