data_PCOD9542298
_publ_section_title
;
Structure prediction by ZEFSAII (Michael W. Deem and Ramdas Pophale) SiO2 
 PCOD9542298
Probable space group: I 41
;
_chemical_formula_sum "Si O2"
_cell_formula_units_Z 52
_cell_length_a 21.363690
_cell_length_b 21.363690
_cell_length_c 4.929462
_cell_angle_alpha 90.000000
_cell_angle_beta 90.000000
_cell_angle_gamma 90.000000
_cell_volume 2249.842197
_symmetry_space_group_name_H-M "I 41"
_symmetry_group_IT_number 80
_symmetry_cell_setting 'tetragonal'
loop_
_space_group_symop_operation_xyz
x,y,z
-y,1/2+x,1/4+z
-x,-y,z
y,1/2-x,1/4+z
1/2+x,1/2+y,1/2+z
1/2-y,x,3/4+z
1/2-x,1/2-y,1/2+z
1/2+y,-x,3/4+z
loop_
_atom_site_type_symbol
_atom_site_label
_atom_site_fract_x
_atom_site_fract_y
_atom_site_fract_z
Si Si1 0.900319 0.665719 0.778070
Si Si2 0.854603 0.500247 0.591189
Si Si3 0.260329 0.576992 0.433900
Si Si4 0.526589 0.866071 0.756636
Si Si5 0.500000 0.500000 0.755761
Si Si6 0.921486 0.810376 0.828790
Si Si7 0.844591 0.264952 0.672802
O O1 0.918634 0.656346 0.464960
O O2 0.909637 0.737274 0.859972
O O3 0.837801 0.638262 0.913711
O O4 0.950835 0.626287 0.948789
O O5 0.811118 0.441600 0.508910
O O6 0.929443 0.494444 0.631560
O O7 0.825033 0.523397 0.869789
O O8 0.840092 0.552814 0.358801
O O9 0.308794 0.521634 0.495566
O O10 0.259032 0.596633 0.121607
O O11 0.286034 0.631771 0.628707
O O12 0.503201 0.933945 0.846482
O O13 0.808439 0.202246 0.589671
#
# Coordination Sequence:
#
# PCOD9542298 Si02
#       7
#     8   8   8   8   4   8   8
#     4  12  23  47  72 102 146 199 246 309 382 464
#     4  12  26  46  71 108 151 195 248 308 392 465
#     4  12  25  48  74 108 142 205 244 312 388 484
#     4  12  26  46  71 108 151 195 248 308 392 465
#     4  12  28  46  76 118 156 190 260 322 384 454
#     4  12  23  47  72 102 146 199 246 309 382 464
#     4  12  27  48  72 102 146 189 254 316 380 456
#
# _framework density 23.112732999999999
#
# number of rings (size 3 to 8) (size 9 to 14) (size 15 to 20)
#    0.000    0.000    6.154    3.692    4.308    2.462 
#    0.000    3.077    0.000    0.000    0.000    0.000 
#    0.000    0.000    0.000    0.000    0.000    0.000 
#
# Total GULP energy -145174.044409 kJ/mol
# GULP energy per Si atom -5583.617093 kJ/mol
# Density = 2.306013 g / cm^3
# Si number density = 23.112733 Si / 1000 Ang^3
#
#
#
# Elastic Constant Matrix: (Units=GPa)
#
#
# Indices 1 2 3 4 5 6 
#
# 1 53.2785 67.3197 15.0142 0.0000 0.0000 50.8162
# 2 67.3197 53.2785 15.0142 0.0000 0.0000 -50.8162
# 3 15.0142 15.0142 103.3635 0.0000 0.0000 0.0000
# 4 0.0000 0.0000 0.0000 30.0844 0.0000 0.0000
# 5 0.0000 0.0000 0.0000 0.0000 30.0844 0.0000
# 6 50.8162 -50.8162 0.0000 0.0000 0.0000 -43.4691
#
#
#
# Elastic Compliance Matrix: (Units=1/GPa)
#
#
# Indices 1 2 3 4 5 6 
#
# 1 0.009074 -0.000471 -0.001250 0.000000 0.000000 0.011158
# 2 -0.000471 0.009074 -0.001250 0.000000 0.000000 -0.011158
# 3 -0.001250 -0.001250 0.010038 0.000000 0.000000 0.000000
# 4 0.000000 0.000000 0.000000 0.033240 0.000000 0.000000
# 5 0.000000 0.000000 0.000000 0.000000 0.033240 0.000000
# 6 0.011158 -0.011158 0.000000 0.000000 0.000000 0.003083
#
#
# Mechanical properties :
#
#
# Convention : Reuss Voigt Hill
#
# Bulk Modulus (GPa) = 44.95330 44.95739 44.95535
# Shear Modulus (GPa) = 45.00297 10.84475 27.92386
#
# Velocity S-wave (km/s) = 4.41739 2.16848 3.47963
# Velocity P-wave (km/s) = 6.74608 5.07576 5.96963
#
# Compressibility (1/GPa) = 0.02224531
#
# Stress axis : x y z
#
# Youngs Moduli (GPa) = 110.20523 110.20523 99.62504
#
# Poissons Ratio (x) = 0.05189 0.12450
# Poissons Ratio (y) = 0.05189 0.12450
# Poissons Ratio (z) = 0.13772 0.13772
#
# Static dielectric constant tensor:
#      x y z
#    x 1.916420 0.000000 0.000000 
#    y 0.000000 1.916420 0.000000 
#    z 0.000000 0.000000 1.834710 
# 
# From -- ./inp_files/324.got.cif
#   From: 2010.05.17/outbox.cif.g08.bks.cpg/sg80_cif.got.tgz:324.got - 2010.06.03 18:49:13.
