data_PCOD9542546
_publ_section_title
;
Structure prediction by ZEFSAII (Michael W. Deem and Ramdas Pophale) SiO2 
 PCOD9542546
Probable space group: P -4
;
_chemical_formula_sum "Si O2"
_cell_formula_units_Z 13
_cell_length_a 8.682760
_cell_length_b 8.682760
_cell_length_c 7.551042
_cell_angle_alpha 90.000000
_cell_angle_beta 90.000000
_cell_angle_gamma 90.000000
_cell_volume 569.275482
_symmetry_space_group_name_H-M "P -4"
_symmetry_group_IT_number 81
_symmetry_cell_setting 'tetragonal'
loop_
_space_group_symop_operation_xyz
x,y,z
y,-x,-z
-x,-y,z
-y,x,-z
loop_
_atom_site_type_symbol
_atom_site_label
_atom_site_fract_x
_atom_site_fract_y
_atom_site_fract_z
Si Si1 0.674330 0.017058 0.436345
Si Si2 0.500000 0.500000 0.000000
Si Si3 0.154848 0.901596 0.784297
Si Si4 0.395820 0.842405 0.099519
O O1 0.767217 0.017758 0.616149
O O2 0.674746 0.159081 0.298138
O O3 0.500000 0.000000 0.490906
O O4 0.739024 0.886700 0.306107
O O5 0.476315 0.676152 0.075522
O O6 0.263695 0.872375 0.951530
O O7 0.000000 0.000000 0.817337
O O8 0.500000 0.000000 0.085534
#
# Coordination Sequence:
#
# PCOD9542546 Si02
#       4
#     4   1   4   4
#     4  11  24  43  68 108 147 195 257 313 397 476
#     4  12  28  56  74 124 156 202 292 320 406 504
#     4  12  25  44  73 109 150 200 260 321 394 479
#     4  11  27  48  77 108 153 209 256 332 405 468
#
# _framework density 22.836046
#
# number of rings (size 3 to 8) (size 9 to 14) (size 15 to 20)
#    0.000    0.615    3.077    4.615    8.615    3.692 
#    0.000    1.538    0.000    0.000    0.000    0.000 
#    0.000    0.000    0.000    0.000    0.000    0.000 
#
# Total GULP energy -72434.121261 kJ/mol
# GULP energy per Si atom -5571.855482 kJ/mol
# Density = 2.278407 g / cm^3
# Si number density = 22.836046 Si / 1000 Ang^3
#
#
#
# Elastic Constant Matrix: (Units=GPa)
#
#
# Indices 1 2 3 4 5 6 
#
# 1 137.0891 62.2317 55.2296 0.0000 0.0000 1.5592
# 2 62.2317 137.0891 55.2296 0.0000 0.0000 -1.5592
# 3 55.2296 55.2296 153.8445 0.0000 0.0000 0.0000
# 4 0.0000 0.0000 0.0000 15.4227 0.0000 0.0000
# 5 0.0000 0.0000 0.0000 0.0000 15.4227 0.0000
# 6 1.5592 -1.5592 0.0000 0.0000 0.0000 46.4605
#
#
#
# Elastic Compliance Matrix: (Units=1/GPa)
#
#
# Indices 1 2 3 4 5 6 
#
# 1 0.009820 -0.003557 -0.002248 0.000000 0.000000 -0.000449
# 2 -0.003557 0.009820 -0.002248 0.000000 0.000000 0.000449
# 3 -0.002248 -0.002248 0.008114 0.000000 0.000000 0.000000
# 4 0.000000 0.000000 0.000000 0.064839 0.000000 0.000000
# 5 0.000000 0.000000 0.000000 0.000000 0.064839 0.000000
# 6 -0.000449 0.000449 0.000000 0.000000 0.000000 0.021554
#
#
# Mechanical properties :
#
#
# Convention : Reuss Voigt Hill
#
# Bulk Modulus (GPa) = 85.85995 85.93384 85.89689
# Shear Modulus (GPa) = 25.12845 32.48331 28.80588
#
# Velocity S-wave (km/s) = 3.32080 3.77564 3.55550
# Velocity P-wave (km/s) = 7.23766 7.53125 7.38591
#
# Compressibility (1/GPa) = 0.01164687
#
# Stress axis : x y z
#
# Youngs Moduli (GPa) = 101.83043 101.83043 123.23749
#
# Poissons Ratio (x) = 0.36223 0.27709
# Poissons Ratio (y) = 0.36223 0.27709
# Poissons Ratio (z) = 0.22896 0.22896
#
# Static dielectric constant tensor:
#      x y z
#    x 1.966240 0.000000 0.000000 
#    y 0.000000 1.966240 0.000000 
#    z 0.000000 0.000000 1.845600 
# 
# From -- ./inp_files/485.got.cif
#   From: 2010.05.17/outbox.cif.g08.bks.cpg/sg81_cif.got.tgz:485.got - 2010.06.03 18:51:07.
