data_PCOD9542212
_publ_section_title
;
Structure prediction by ZEFSAII (Michael W. Deem and Ramdas Pophale) SiO2 
 PCOD9542212
Probable space group: I 41
;
_chemical_formula_sum "Si O2"
_cell_formula_units_Z 56
_cell_length_a 11.331580
_cell_length_b 11.331580
_cell_length_c 18.923639
_cell_angle_alpha 90.000000
_cell_angle_beta 90.000000
_cell_angle_gamma 90.000000
_cell_volume 2429.884289
_symmetry_space_group_name_H-M "I 41"
_symmetry_group_IT_number 80
_symmetry_cell_setting 'tetragonal'
loop_
_space_group_symop_operation_xyz
x,y,z
-y,1/2+x,1/4+z
-x,-y,z
y,1/2-x,1/4+z
1/2+x,1/2+y,1/2+z
1/2-y,x,3/4+z
1/2-x,1/2-y,1/2+z
1/2+y,-x,3/4+z
loop_
_atom_site_type_symbol
_atom_site_label
_atom_site_fract_x
_atom_site_fract_y
_atom_site_fract_z
Si Si1 0.234109 0.375963 0.778330
Si Si2 0.258408 0.637333 0.764958
Si Si3 0.632900 0.496103 0.083661
Si Si4 0.634566 0.050978 0.663485
Si Si5 0.223525 0.919786 0.114557
Si Si6 0.713934 0.696763 0.636968
Si Si7 0.535122 0.271438 0.573520
O O1 0.294797 0.501116 0.771241
O O2 0.245358 0.330953 0.857179
O O3 0.293284 0.290729 0.721014
O O4 0.092367 0.380883 0.770512
O O5 0.137321 0.647202 0.807126
O O6 0.228746 0.650554 0.682631
O O7 0.362340 0.715594 0.796451
O O8 0.500000 0.500000 0.119591
O O9 0.759045 0.517059 0.122560
O O10 0.603612 0.163086 0.612006
O O11 0.699048 0.059620 0.740874
O O12 0.500000 0.000000 0.674983
O O13 0.086500 0.886654 0.111939
O O14 0.235740 0.058132 0.122004
O O15 0.600950 0.740186 0.594171
#
# Coordination Sequence:
#
# PCOD9542212 Si02
#       7
#     8   8   8   8   8   8   8
#     4  10  25  44  69 101 135 193 235 305 379 453
#     4  10  23  42  70  98 134 178 240 296 368 443
#     4  10  23  47  73 105 146 188 254 318 383 466
#     4  12  27  48  76 116 153 213 262 329 405 481
#     4  11  23  42  68  99 135 181 231 297 361 444
#     4  11  26  44  69 100 147 185 240 305 378 459
#     4  12  27  45  73 106 152 196 256 314 384 472
#
# _framework density 23.046365999999999
#
# number of rings (size 3 to 8) (size 9 to 14) (size 15 to 20)
#    0.000    1.143    1.429    3.000   10.000    1.143 
#    2.571    0.000    0.000    0.000    0.000    0.000 
#    0.000    0.000    0.000    0.000    0.000    0.000 
#
# Total GULP energy -155921.787719 kJ/mol
# GULP energy per Si atom -5568.635276 kJ/mol
# Density = 2.299391 g / cm^3
# Si number density = 23.046366 Si / 1000 Ang^3
#
#
#
# Elastic Constant Matrix: (Units=GPa)
#
#
# Indices 1 2 3 4 5 6 
#
# 1 74.3424 30.4920 27.8237 0.0000 0.0000 -11.6505
# 2 30.4920 74.3424 27.8237 0.0000 0.0000 11.6505
# 3 27.8237 27.8237 84.8006 0.0000 0.0000 0.0000
# 4 0.0000 0.0000 0.0000 27.6572 0.0000 0.0000
# 5 0.0000 0.0000 0.0000 0.0000 27.6572 0.0000
# 6 -11.6505 11.6505 0.0000 0.0000 0.0000 27.3802
#
#
#
# Elastic Compliance Matrix: (Units=1/GPa)
#
#
# Indices 1 2 3 4 5 6 
#
# 1 0.020509 -0.008959 -0.003790 0.000000 0.000000 0.012539
# 2 -0.008959 0.020509 -0.003790 0.000000 0.000000 -0.012539
# 3 -0.003790 -0.003790 0.014279 0.000000 0.000000 0.000000
# 4 0.000000 0.000000 0.000000 0.036157 0.000000 0.000000
# 5 0.000000 0.000000 0.000000 0.000000 0.036157 0.000000
# 6 0.012539 -0.012539 0.000000 0.000000 0.000000 0.047193
#
#
# Mechanical properties :
#
#
# Convention : Reuss Voigt Hill
#
# Bulk Modulus (GPa) = 45.00228 45.08494 45.04361
# Shear Modulus (GPa) = 23.22471 26.36198 24.79335
#
# Velocity S-wave (km/s) = 3.17793 3.38578 3.28350
# Velocity P-wave (km/s) = 5.74760 5.90676 5.82773
#
# Compressibility (1/GPa) = 0.02222109
#
# Stress axis : x y z
#
# Youngs Moduli (GPa) = 48.75900 48.75900 70.03142
#
# Poissons Ratio (x) = 0.43681 0.26541
# Poissons Ratio (y) = 0.43681 0.26541
# Poissons Ratio (z) = 0.18479 0.18479
#
# Static dielectric constant tensor:
#      x y z
#    x 1.904560 0.000000 0.000000 
#    y 0.000000 1.904560 0.000000 
#    z 0.000000 0.000000 1.891100 
# 
# From -- ./inp_files/1815.got.cif
#   From: 2010.05.17/outbox.cif.g08.bks.cpg/sg80_cif.got.tgz:1815.got - 2010.06.03 18:49:13.
