data_PCOD9542904
_publ_section_title
;
Structure prediction by ZEFSAII (Michael W. Deem and Ramdas Pophale) SiO2 
 PCOD9542904
Probable space group: I -4 
;
_chemical_formula_sum "Si O2"
_cell_formula_units_Z 36
_cell_length_a 8.224056
_cell_length_b 8.224056
_cell_length_c 21.627696
_cell_angle_alpha 90.000000
_cell_angle_beta 90.000000
_cell_angle_gamma 90.000000
_cell_volume 1462.791319
_symmetry_space_group_name_H-M "I -4 "
_symmetry_group_IT_number 82
_symmetry_cell_setting 'tetragonal'
loop_
_space_group_symop_operation_xyz
x,y,z
y,-x,-z
-x,-y,z
-y,x,-z
1/2+x,1/2+y,1/2+z
1/2+y,1/2-x,1/2-z
1/2-x,1/2-y,1/2+z
1/2-y,1/2+x,1/2-z
loop_
_atom_site_type_symbol
_atom_site_label
_atom_site_fract_x
_atom_site_fract_y
_atom_site_fract_z
Si Si1 0.526358 0.248467 0.000310
Si Si2 0.260824 0.104934 0.269122
Si Si3 0.500000 0.000000 0.900378
Si Si4 0.617207 0.756847 0.392034
Si Si5 0.106103 0.190953 0.152942
O O1 0.441494 0.136248 0.949380
O O2 0.382236 0.353578 0.030335
O O3 0.642530 0.146699 0.045885
O O4 0.415575 0.200648 0.239702
O O5 0.272879 0.155813 0.339978
O O6 0.110325 0.152840 0.225861
O O7 0.381201 0.893449 0.858512
O O8 0.653969 0.565087 0.381870
O O9 0.424350 0.747137 0.375257
#
# Coordination Sequence:
#
# PCOD9542904 Si02
#       5
#     8   8   4   8   8
#     4  11  26  47  68 103 145 199 253 306 382 450
#     4   9  20  39  69 103 137 186 239 302 374 444
#     4  12  26  42  69 108 141 204 244 316 372 458
#     4  10  22  44  68 100 145 195 244 309 375 450
#     4  10  23  42  66 104 148 186 249 304 378 448
#
# _framework density 24.610482999999999
#
# number of rings (size 3 to 8) (size 9 to 14) (size 15 to 20)
#    0.000    1.778    2.222    0.000    6.222    3.556 
#    0.000    4.444    0.000    0.000    0.000    0.000 
#    0.000    0.000    0.000    0.000    0.000    0.000 
#
# Total GULP energy -100334.464145 kJ/mol
# GULP energy per Si atom -5574.136897 kJ/mol
# Density = 2.455447 g / cm^3
# Si number density = 24.610483 Si / 1000 Ang^3
#
#
#
# Elastic Constant Matrix: (Units=GPa)
#
#
# Indices 1 2 3 4 5 6 
#
# 1 81.3143 21.6405 47.8037 0.0000 0.0000 -1.9953
# 2 21.6405 81.3143 47.8037 0.0000 0.0000 1.9953
# 3 47.8037 47.8037 83.7402 0.0000 0.0000 0.0000
# 4 0.0000 0.0000 0.0000 30.4272 0.0000 0.0000
# 5 0.0000 0.0000 0.0000 0.0000 30.4272 0.0000
# 6 -1.9953 1.9953 0.0000 0.0000 0.0000 31.1743
#
#
#
# Elastic Compliance Matrix: (Units=1/GPa)
#
#
# Indices 1 2 3 4 5 6 
#
# 1 0.018750 0.001921 -0.011800 0.000000 0.000000 0.001077
# 2 0.001921 0.018750 -0.011800 0.000000 0.000000 -0.001077
# 3 -0.011800 -0.011800 0.025414 0.000000 0.000000 0.000000
# 4 0.000000 0.000000 0.000000 0.032865 0.000000 0.000000
# 5 0.000000 0.000000 0.000000 0.000000 0.032865 0.000000
# 6 0.001077 -0.001077 0.000000 0.000000 0.000000 0.032216
#
#
# Mechanical properties :
#
#
# Convention : Reuss Voigt Hill
#
# Bulk Modulus (GPa) = 51.13669 53.42942 52.28305
# Shear Modulus (GPa) = 23.72593 27.01379 25.36986
#
# Velocity S-wave (km/s) = 3.10830 3.31668 3.21418
# Velocity P-wave (km/s) = 5.80565 6.03526 5.92156
#
# Compressibility (1/GPa) = 0.01955543
#
# Stress axis : x y z
#
# Youngs Moduli (GPa) = 53.33194 53.33194 39.34795
#
# Poissons Ratio (x) = -0.10243 0.46432
# Poissons Ratio (y) = -0.10243 0.46432
# Poissons Ratio (z) = 0.62933 0.62933
#
# Static dielectric constant tensor:
#      x y z
#    x 2.130840 0.000000 0.000000 
#    y 0.000000 2.130840 0.000000 
#    z 0.000000 0.000000 1.929010 
# 
# From -- ./inp_files/2948.got.cif
#   From: 2010.05.17/outbox.cif.g08.bks.cpg/sg82_2_cif.got.tgz:2948.got - 2010.06.03 18:52:26.
