data_PCOD9542624
_publ_section_title
;
Structure prediction by ZEFSAII (Michael W. Deem and Ramdas Pophale) SiO2 
 PCOD9542624
Probable space group: I -4 
;
_chemical_formula_sum "Si O2"
_cell_formula_units_Z 52
_cell_length_a 16.264352
_cell_length_b 16.264352
_cell_length_c 9.845731
_cell_angle_alpha 90.000000
_cell_angle_beta 90.000000
_cell_angle_gamma 90.000000
_cell_volume 2604.482813
_symmetry_space_group_name_H-M "I -4 "
_symmetry_group_IT_number 82
_symmetry_cell_setting 'tetragonal'
loop_
_space_group_symop_operation_xyz
x,y,z
y,-x,-z
-x,-y,z
-y,x,-z
1/2+x,1/2+y,1/2+z
1/2+y,1/2-x,1/2-z
1/2-x,1/2-y,1/2+z
1/2-y,1/2+x,1/2-z
loop_
_atom_site_type_symbol
_atom_site_label
_atom_site_fract_x
_atom_site_fract_y
_atom_site_fract_z
Si Si1 0.000000 0.500000 0.041944
Si Si2 0.530059 0.838746 0.104743
Si Si3 0.311140 0.311077 0.288151
Si Si4 0.167439 0.724479 0.921789
Si Si5 0.982176 0.743035 0.873446
Si Si6 0.774227 0.554230 0.131564
Si Si7 0.342378 0.940680 0.848410
O O1 0.921426 0.508875 0.949664
O O2 0.003918 0.582024 0.129514
O O3 0.625656 0.841861 0.063854
O O4 0.520886 0.830648 0.264512
O O5 0.477508 0.769457 0.023246
O O6 0.273440 0.237393 0.194923
O O7 0.265101 0.310171 0.433694
O O8 0.408696 0.299507 0.315337
O O9 0.297115 0.395283 0.204771
O O10 0.079049 0.763820 0.881128
O O11 0.953855 0.715522 0.022112
O O12 0.850806 0.617890 0.149237
O O13 0.796539 0.472029 0.215437
#
# Coordination Sequence:
#
# PCOD9542624 Si02
#       7
#     4   8   8   8   8   8   8
#     4  10  18  28  50  82 124 160 186 230 318 380
#     4  10  23  33  59  91 131 163 197 258 313 400
#     4  11  24  40  64  89 127 175 209 267 313 396
#     4  11  23  43  60  96 126 163 220 254 333 385
#     4  11  24  38  57  89 125 163 211 261 322 378
#     4  11  21  37  58  92 126 166 211 247 325 377
#     4  11  20  33  55  86 126 164 202 258 306 395
#
# _framework density 19.965574
#
# number of rings (size 3 to 8) (size 9 to 14) (size 15 to 20)
#    0.000    1.231    3.077    3.692   10.769    1.231 
#    0.000    0.000    0.000    0.462    0.000    0.000 
#    0.000    0.000    0.000    0.000    0.000    0.000 
#
# Total GULP energy -145030.218130 kJ/mol
# GULP energy per Si atom -5578.085313 kJ/mol
# Density = 1.992013 g / cm^3
# Si number density = 19.965574 Si / 1000 Ang^3
#
#
#
# Elastic Constant Matrix: (Units=GPa)
#
#
# Indices 1 2 3 4 5 6 
#
# 1 59.3578 17.7704 17.3646 0.0000 0.0000 2.9427
# 2 17.7704 59.3578 17.3646 0.0000 0.0000 -2.9427
# 3 17.3646 17.3646 77.7405 0.0000 0.0000 0.0000
# 4 0.0000 0.0000 0.0000 27.7046 0.0000 0.0000
# 5 0.0000 0.0000 0.0000 0.0000 27.7046 0.0000
# 6 2.9427 -2.9427 0.0000 0.0000 0.0000 25.5574
#
#
#
# Elastic Compliance Matrix: (Units=1/GPa)
#
#
# Indices 1 2 3 4 5 6 
#
# 1 0.019430 -0.005014 -0.003220 0.000000 0.000000 -0.002815
# 2 -0.005014 0.019430 -0.003220 0.000000 0.000000 0.002815
# 3 -0.003220 -0.003220 0.014302 0.000000 0.000000 0.000000
# 4 0.000000 0.000000 0.000000 0.036095 0.000000 0.000000
# 5 0.000000 0.000000 0.000000 0.000000 0.036095 0.000000
# 6 -0.002815 0.002815 0.000000 0.000000 0.000000 0.039776
#
#
# Mechanical properties :
#
#
# Convention : Reuss Voigt Hill
#
# Bulk Modulus (GPa) = 33.05484 33.49501 33.27493
# Shear Modulus (GPa) = 25.23727 25.79040 25.51383
#
# Velocity S-wave (km/s) = 3.55919 3.59798 3.57864
# Velocity P-wave (km/s) = 5.78639 5.83725 5.81187
#
# Compressibility (1/GPa) = 0.03025276
#
# Stress axis : x y z
#
# Youngs Moduli (GPa) = 51.46765 51.46765 69.92157
#
# Poissons Ratio (x) = 0.25808 0.22514
# Poissons Ratio (y) = 0.25808 0.22514
# Poissons Ratio (z) = 0.16572 0.16572
#
# Static dielectric constant tensor:
#      x y z
#    x 1.752630 0.000000 0.000000 
#    y 0.000000 1.752630 0.000000 
#    z 0.000000 0.000000 1.732580 
# 
# From -- ./inp_files/1094.got.cif
#   From: 2010.05.17/outbox.cif.g08.bks.cpg/sg82_1_cif.got.tgz:1094.got - 2010.06.03 18:52:26.
