data_PCOD9542602
_publ_section_title
;
Structure prediction by ZEFSAII (Michael W. Deem and Ramdas Pophale) SiO2 
 PCOD9542602
Probable space group: P -4
;
_chemical_formula_sum "Si O2"
_cell_formula_units_Z 16
_cell_length_a 10.160845
_cell_length_b 10.160845
_cell_length_c 6.469689
_cell_angle_alpha 90.000000
_cell_angle_beta 90.000000
_cell_angle_gamma 90.000000
_cell_volume 667.948621
_symmetry_space_group_name_H-M "P -4"
_symmetry_group_IT_number 81
_symmetry_cell_setting 'tetragonal'
loop_
_space_group_symop_operation_xyz
x,y,z
y,-x,-z
-x,-y,z
-y,x,-z
loop_
_atom_site_type_symbol
_atom_site_label
_atom_site_fract_x
_atom_site_fract_y
_atom_site_fract_z
Si Si1 0.000000 0.500000 0.956330
Si Si2 0.516219 0.316387 0.617151
Si Si3 0.000000 0.000000 0.000000
Si Si4 0.500000 0.500000 0.000000
Si Si5 0.664888 0.087186 0.664431
Si Si6 0.254109 0.081656 0.276206
O O1 0.954625 0.615186 0.111807
O O2 0.912853 0.402426 0.816788
O O3 0.382372 0.375517 0.530778
O O4 0.526271 0.376063 0.848272
O O5 0.533425 0.162705 0.591467
O O6 0.012677 0.866179 0.858760
O O7 0.773366 0.198476 0.698985
O O8 0.727409 0.990826 0.496792
#
# Coordination Sequence:
#
# PCOD9542602 Si02
#       6
#     2   4   1   1   4   4
#     4  12  30  50  76 126 154 210 272 336 408 482
#     4   9  22  40  66 102 141 196 244 305 401 466
#     4  12  24  58  80 112 150 228 272 334 400 488
#     4   8  18  40  60  98 136 188 238 300 380 482
#     4  12  28  47  79 112 161 206 266 338 405 480
#     4  12  28  51  79 117 162 209 278 331 409 488
#
# _framework density 23.953935999999999
#
# number of rings (size 3 to 8) (size 9 to 14) (size 15 to 20)
#    0.000    1.250    2.500    2.250   10.500    2.000 
#    0.000    0.000    0.000    0.000    0.000    0.000 
#    0.000    0.000    0.000    0.000    0.000    0.000 
#
# Total GULP energy -89165.238591 kJ/mol
# GULP energy per Si atom -5572.827412 kJ/mol
# Density = 2.389942 g / cm^3
# Si number density = 23.953936 Si / 1000 Ang^3
#
#
#
# Elastic Constant Matrix: (Units=GPa)
#
#
# Indices 1 2 3 4 5 6 
#
# 1 91.2118 12.1471 58.0004 0.0000 0.0000 13.2186
# 2 12.1471 91.2118 58.0004 0.0000 0.0000 -13.2186
# 3 58.0004 58.0004 132.2262 0.0000 0.0000 0.0000
# 4 0.0000 0.0000 0.0000 39.7590 0.0000 0.0000
# 5 0.0000 0.0000 0.0000 0.0000 39.7590 0.0000
# 6 13.2186 -13.2186 0.0000 0.0000 0.0000 51.8230
#
#
#
# Elastic Compliance Matrix: (Units=1/GPa)
#
#
# Indices 1 2 3 4 5 6 
#
# 1 0.016442 0.002615 -0.008359 0.000000 0.000000 -0.003527
# 2 0.002615 0.016442 -0.008359 0.000000 0.000000 0.003527
# 3 -0.008359 -0.008359 0.014896 0.000000 0.000000 0.000000
# 4 0.000000 0.000000 0.000000 0.025152 0.000000 0.000000
# 5 0.000000 0.000000 0.000000 0.000000 0.025152 0.000000
# 6 -0.003527 0.003527 0.000000 0.000000 0.000000 0.021096
#
#
# Mechanical properties :
#
#
# Convention : Reuss Voigt Hill
#
# Bulk Modulus (GPa) = 51.09109 63.43843 57.26476
# Shear Modulus (GPa) = 32.48660 38.70165 35.59412
#
# Velocity S-wave (km/s) = 3.68667 4.02390 3.85897
# Velocity P-wave (km/s) = 6.28469 6.93758 6.61919
#
# Compressibility (1/GPa) = 0.01957288
#
# Stress axis : x y z
#
# Youngs Moduli (GPa) = 60.82057 60.82057 67.13168
#
# Poissons Ratio (x) = -0.15902 0.56116
# Poissons Ratio (y) = -0.15902 0.56116
# Poissons Ratio (z) = 0.50840 0.50840
#
# Static dielectric constant tensor:
#      x y z
#    x 1.966260 0.000000 0.000000 
#    y 0.000000 1.966260 0.000000 
#    z 0.000000 0.000000 2.136660 
# 
# From -- ./inp_files/152.got.cif
#   From: 2010.05.17/outbox.cif.g08.bks.cpg/sg81_cif.got.tgz:152.got - 2010.06.03 18:51:07.
