data_PCOD9542754
_publ_section_title
;
Structure prediction by ZEFSAII (Michael W. Deem and Ramdas Pophale) SiO2 
 PCOD9542754
Probable space group: I -4 
;
_chemical_formula_sum "Si O2"
_cell_formula_units_Z 36
_cell_length_a 11.029125
_cell_length_b 11.029125
_cell_length_c 13.951127
_cell_angle_alpha 90.000000
_cell_angle_beta 90.000000
_cell_angle_gamma 90.000000
_cell_volume 1697.037386
_symmetry_space_group_name_H-M "I -4 "
_symmetry_group_IT_number 82
_symmetry_cell_setting 'tetragonal'
loop_
_space_group_symop_operation_xyz
x,y,z
y,-x,-z
-x,-y,z
-y,x,-z
1/2+x,1/2+y,1/2+z
1/2+y,1/2-x,1/2-z
1/2-x,1/2-y,1/2+z
1/2-y,1/2+x,1/2-z
loop_
_atom_site_type_symbol
_atom_site_label
_atom_site_fract_x
_atom_site_fract_y
_atom_site_fract_z
Si Si1 0.739513 0.179662 0.655199
Si Si2 0.791845 0.603162 0.144748
Si Si3 0.067381 0.690949 0.759700
Si Si4 0.694885 0.831295 0.048716
Si Si5 0.500000 0.000000 0.530207
O O1 0.655707 0.200380 0.748244
O O2 0.873032 0.227766 0.678344
O O3 0.681067 0.239809 0.560704
O O4 0.748087 0.035597 0.641347
O O5 0.705911 0.694344 0.086709
O O6 0.925931 0.594945 0.096014
O O7 0.149728 0.569036 0.755687
O O8 0.090916 0.751784 0.863963
O O9 0.567657 0.901089 0.034054
#
# Coordination Sequence:
#
# PCOD9542754 Si02
#       5
#     8   8   8   8   4
#     4  10  21  38  62  91 129 160 213 270 317 386
#     4  10  21  39  63  99 123 168 219 268 319 385
#     4  10  22  39  62  92 124 167 216 266 323 390
#     4  10  22  35  63  96 122 167 217 258 325 386
#     4  10  20  39  69  90 130 174 217 266 327 390
#
# _framework density 21.213439999999999
#
# number of rings (size 3 to 8) (size 9 to 14) (size 15 to 20)
#    0.000    2.000    0.000    4.000    9.333    0.889 
#    0.000    4.444    0.000    0.667    0.000    0.000 
#    0.000    0.000    0.000    0.000    0.000    0.000 
#
# Total GULP energy -100314.222200 kJ/mol
# GULP energy per Si atom -5573.012344 kJ/mol
# Density = 2.116516 g / cm^3
# Si number density = 21.213440 Si / 1000 Ang^3
#
#
#
# Elastic Constant Matrix: (Units=GPa)
#
#
# Indices 1 2 3 4 5 6 
#
# 1 69.4122 49.7530 22.7344 0.0000 0.0000 8.8893
# 2 49.7530 69.4122 22.7344 0.0000 0.0000 -8.8893
# 3 22.7344 22.7344 138.5909 0.0000 0.0000 0.0000
# 4 0.0000 0.0000 0.0000 28.4032 0.0000 0.0000
# 5 0.0000 0.0000 0.0000 0.0000 28.4032 0.0000
# 6 8.8893 -8.8893 0.0000 0.0000 0.0000 43.9860
#
#
#
# Elastic Compliance Matrix: (Units=1/GPa)
#
#
# Indices 1 2 3 4 5 6 
#
# 1 0.035597 -0.026645 -0.001468 0.000000 0.000000 -0.012579
# 2 -0.026645 0.035597 -0.001468 0.000000 0.000000 0.012579
# 3 -0.001468 -0.001468 0.007697 0.000000 0.000000 0.000000
# 4 0.000000 0.000000 0.000000 0.035207 0.000000 0.000000
# 5 0.000000 0.000000 0.000000 0.000000 0.035207 0.000000
# 6 -0.012579 0.012579 0.000000 0.000000 0.000000 0.027819
#
#
# Mechanical properties :
#
#
# Convention : Reuss Voigt Hill
#
# Bulk Modulus (GPa) = 50.69098 51.98430 51.33764
# Shear Modulus (GPa) = 20.58756 32.30472 26.44614
#
# Velocity S-wave (km/s) = 3.11866 3.90659 3.53465
# Velocity P-wave (km/s) = 6.07582 6.70128 6.39620
#
# Compressibility (1/GPa) = 0.01972738
#
# Stress axis : x y z
#
# Youngs Moduli (GPa) = 28.09208 28.09208 129.91642
#
# Poissons Ratio (x) = 0.74852 0.19078
# Poissons Ratio (y) = 0.74852 0.19078
# Poissons Ratio (z) = 0.04125 0.04125
#
# Static dielectric constant tensor:
#      x y z
#    x 1.769360 0.000000 0.000000 
#    y 0.000000 1.769360 0.000000 
#    z 0.000000 0.000000 1.856230 
# 
# From -- ./inp_files/2145.got.cif
#   From: 2010.05.17/outbox.cif.g08.bks.cpg/sg82_2_cif.got.tgz:2145.got - 2010.06.03 18:52:26.
