data_PCOD9542217
_publ_section_title
;
Structure prediction by ZEFSAII (Michael W. Deem and Ramdas Pophale) SiO2 
 PCOD9542217
Probable space group: I 41
;
_chemical_formula_sum "Si O2"
_cell_formula_units_Z 56
_cell_length_a 14.125314
_cell_length_b 14.125314
_cell_length_c 14.123589
_cell_angle_alpha 90.000000
_cell_angle_beta 90.000000
_cell_angle_gamma 90.000000
_cell_volume 2818.001971
_symmetry_space_group_name_H-M "I 41"
_symmetry_group_IT_number 80
_symmetry_cell_setting 'tetragonal'
loop_
_space_group_symop_operation_xyz
x,y,z
-y,1/2+x,1/4+z
-x,-y,z
y,1/2-x,1/4+z
1/2+x,1/2+y,1/2+z
1/2-y,x,3/4+z
1/2-x,1/2-y,1/2+z
1/2+y,-x,3/4+z
loop_
_atom_site_type_symbol
_atom_site_label
_atom_site_fract_x
_atom_site_fract_y
_atom_site_fract_z
Si Si1 0.500000 0.500000 0.226151
Si Si2 0.500000 0.000000 0.976151
Si Si3 0.673896 0.548109 0.862753
Si Si4 0.846114 0.180352 0.899811
Si Si5 0.846114 0.680352 0.802490
Si Si6 0.099036 0.318367 0.013296
Si Si7 0.099036 0.818367 0.689005
Si Si8 0.548109 0.326104 0.589549
O O1 0.584907 0.544159 0.288225
O O2 0.544159 0.415093 0.164076
O O3 0.471791 0.088066 0.042844
O O4 0.588066 0.028209 0.909457
O O5 0.751991 0.618628 0.817535
O O6 0.644338 0.596685 0.961697
O O7 0.730927 0.453510 0.891663
O O8 0.906080 0.180911 0.803198
O O9 0.751991 0.118628 0.884766
O O10 0.821116 0.290450 0.916374
O O11 0.903315 0.144338 0.990605
O O12 0.821116 0.790450 0.785927
O O13 0.906080 0.680911 0.899103
O O14 0.046490 0.230927 0.060638
#
# Coordination Sequence:
#
# PCOD9542217 Si02
#       8
#     4   4   8   8   8   8   8   8
#     4  12  20  38  68 108 128 158 236 288 354 388
#     4  12  32  46  64 108 138 212 216 256 366 448
#     4  11  26  45  67  99 143 176 238 277 345 428
#     4  10  23  44  69  99 132 180 225 300 346 384
#     4  10  23  44  69  99 132 180 225 300 346 384
#     4  11  23  40  71 104 133 173 233 296 347 400
#     4  11  23  40  71 104 133 173 233 296 347 400
#     4  11  26  45  67  99 143 176 238 277 345 428
#
# _framework density 19.872236000000001
#
# number of rings (size 3 to 8) (size 9 to 14) (size 15 to 20)
#    0.000    1.143    5.714    0.857    8.000    4.571 
#    0.000    0.000    0.000    0.000    0.000    0.000 
#    0.000    0.000    0.000    0.000    0.000    0.000 
#
# Total GULP energy -156481.971690 kJ/mol
# GULP energy per Si atom -5588.641846 kJ/mol
# Density = 1.982701 g / cm^3
# Si number density = 19.872236 Si / 1000 Ang^3
#
#
#
# Elastic Constant Matrix: (Units=GPa)
#
#
# Indices 1 2 3 4 5 6 
#
# 1 108.6602 56.4524 68.3266 0.0000 0.0000 -4.7782
# 2 56.4524 108.6602 68.3266 0.0000 0.0000 4.7782
# 3 68.3266 68.3266 130.9382 0.0000 0.0000 0.0000
# 4 0.0000 0.0000 0.0000 27.4023 0.0000 0.0000
# 5 0.0000 0.0000 0.0000 0.0000 27.4023 0.0000
# 6 -4.7782 4.7782 0.0000 0.0000 0.0000 29.3121
#
#
#
# Elastic Compliance Matrix: (Units=1/GPa)
#
#
# Indices 1 2 3 4 5 6 
#
# 1 0.015202 -0.004541 -0.005563 0.000000 0.000000 0.003218
# 2 -0.004541 0.015202 -0.005563 0.000000 0.000000 -0.003218
# 3 -0.005563 -0.005563 0.013443 0.000000 0.000000 0.000000
# 4 0.000000 0.000000 0.000000 0.036493 0.000000 0.000000
# 5 0.000000 0.000000 0.000000 0.000000 0.036493 0.000000
# 6 0.003218 -0.003218 0.000000 0.000000 0.000000 0.035165
#
#
# Mechanical properties :
#
#
# Convention : Reuss Voigt Hill
#
# Bulk Modulus (GPa) = 79.92122 81.60778 80.76450
# Shear Modulus (GPa) = 26.66615 27.16686 26.91651
#
# Velocity S-wave (km/s) = 3.66714 3.70141 3.68432
# Velocity P-wave (km/s) = 7.63121 7.70861 7.67001
#
# Compressibility (1/GPa) = 0.01251232
#
# Stress axis : x y z
#
# Youngs Moduli (GPa) = 65.78106 65.78106 74.38856
#
# Poissons Ratio (x) = 0.29874 0.41382
# Poissons Ratio (y) = 0.29874 0.41382
# Poissons Ratio (z) = 0.36594 0.36594
#
# Static dielectric constant tensor:
#      x y z
#    x 1.709590 0.000000 0.000000 
#    y 0.000000 1.709590 0.000000 
#    z 0.000000 0.000000 1.712200 
# 
# From -- ./inp_files/1352.got.cif
#   From: 2010.05.17/outbox.cif.g08.bks.cpg/sg80_cif.got.tgz:1352.got - 2010.06.03 18:49:13.
