data_PCOD9542036
_publ_section_title
;
Structure prediction by ZEFSAII (Michael W. Deem and Ramdas Pophale) SiO2 
 PCOD9542036
Probable space group: I 4
;
_chemical_formula_sum "Si O2"
_cell_formula_units_Z 32
_cell_length_a 8.307192
_cell_length_b 8.307192
_cell_length_c 18.926119
_cell_angle_alpha 90.000000
_cell_angle_beta 90.000000
_cell_angle_gamma 90.000000
_cell_volume 1306.080853
_symmetry_space_group_name_H-M "I 4"
_symmetry_group_IT_number 79
_symmetry_cell_setting 'tetragonal'
loop_
_space_group_symop_operation_xyz
x,y,z
-y,x,z
-x,-y,z
y,-x,z
1/2+x,1/2+y,1/2+z
1/2-y,1/2+x,1/2+z
1/2-x,1/2-y,1/2+z
1/2+y,1/2-x,1/2+z
loop_
_atom_site_type_symbol
_atom_site_label
_atom_site_fract_x
_atom_site_fract_y
_atom_site_fract_z
Si Si1 0.753016 0.096727 0.053800
Si Si2 0.243616 0.583917 0.385128
Si Si3 0.740094 0.927908 0.675530
Si Si4 0.770443 0.488917 0.784703
O O1 0.607292 0.170944 0.097507
O O2 0.913100 0.200321 0.072196
O O3 0.728691 0.098033 0.969744
O O4 0.302975 0.400947 0.366614
O O5 0.924660 0.361928 0.350902
O O6 0.596173 0.885430 0.727811
O O7 0.894000 0.810080 0.685954
O O8 0.652146 0.639463 0.778174
#
# Coordination Sequence:
#
# PCOD9542036 Si02
#       4
#     8   8   8   8
#     4   9  19  41  74 109 144 188 241 297 362 438
#     4   9  21  44  74 108 150 198 245 295 359 436
#     4  11  26  46  69 101 145 196 252 311 371 438
#     4  11  26  43  65 100 143 191 244 304 364 430
#
# _framework density 24.500782999999998
#
# number of rings (size 3 to 8) (size 9 to 14) (size 15 to 20)
#    0.000    2.000    0.000    3.000    0.000   15.000 
#    0.000   10.000    0.000    0.000    0.000    0.000 
#    0.000    0.000    0.000    0.000    0.000    0.000 
#
# Total GULP energy -89181.851562 kJ/mol
# GULP energy per Si atom -5573.865723 kJ/mol
# Density = 2.444502 g / cm^3
# Si number density = 24.500783 Si / 1000 Ang^3
#
#
#
# Elastic Constant Matrix: (Units=GPa)
#
#
# Indices 1 2 3 4 5 6 
#
# 1 386.9467 -126.9595 75.7893 0.0000 0.0000 -10.9881
# 2 -126.9595 386.9467 75.7893 0.0000 0.0000 10.9881
# 3 75.7893 75.7893 102.1801 0.0000 0.0000 0.0000
# 4 0.0000 0.0000 0.0000 54.5289 0.0000 0.0000
# 5 0.0000 0.0000 0.0000 0.0000 54.5289 0.0000
# 6 -10.9881 10.9881 0.0000 0.0000 0.0000 64.0985
#
#
#
# Elastic Compliance Matrix: (Units=1/GPa)
#
#
# Indices 1 2 3 4 5 6 
#
# 1 0.004369 0.002408 -0.005027 0.000000 0.000000 0.000336
# 2 0.002408 0.004369 -0.005027 0.000000 0.000000 -0.000336
# 3 -0.005027 -0.005027 0.017243 0.000000 0.000000 0.000000
# 4 0.000000 0.000000 0.000000 0.018339 0.000000 0.000000
# 5 0.000000 0.000000 0.000000 0.000000 0.018339 0.000000
# 6 0.000336 -0.000336 0.000000 0.000000 0.000000 0.015716
#
#
# Mechanical properties :
#
#
# Convention : Reuss Voigt Hill
#
# Bulk Modulus (GPa) = 93.53845 102.81241 98.17543
# Shear Modulus (GPa) = 51.42548 91.39489 71.41019
#
# Velocity S-wave (km/s) = 4.58638 6.11423 5.40457
# Velocity P-wave (km/s) = 8.14292 9.58640 8.89399
#
# Compressibility (1/GPa) = 0.01069079
#
# Stress axis : x y z
#
# Youngs Moduli (GPa) = 228.90526 228.90526 57.99327
#
# Poissons Ratio (x) = -0.55129 0.29151
# Poissons Ratio (y) = -0.55129 0.29151
# Poissons Ratio (z) = 1.15062 1.15062
#
# Static dielectric constant tensor:
#      x y z
#    x 1.861500 0.000000 0.000000 
#    y 0.000000 1.861500 0.000000 
#    z 0.000000 0.000000 1.983860 
# 
# From -- ./inp_files/1694.got.cif
#   From: 2010.05.17/outbox.cif.g08.bks.cpg/sg79_cif.got.tgz:1694.got - 2010.06.03 18:47:27.
