data_PCOD9542580
_publ_section_title
;
Structure prediction by ZEFSAII (Michael W. Deem and Ramdas Pophale) SiO2 
 PCOD9542580
Probable space group: P -4
;
_chemical_formula_sum "Si O2"
_cell_formula_units_Z 20
_cell_length_a 9.452534
_cell_length_b 9.452534
_cell_length_c 10.970511
_cell_angle_alpha 90.000000
_cell_angle_beta 90.000000
_cell_angle_gamma 90.000000
_cell_volume 980.219535
_symmetry_space_group_name_H-M "P -4"
_symmetry_group_IT_number 81
_symmetry_cell_setting 'tetragonal'
loop_
_space_group_symop_operation_xyz
x,y,z
y,-x,-z
-x,-y,z
-y,x,-z
loop_
_atom_site_type_symbol
_atom_site_label
_atom_site_fract_x
_atom_site_fract_y
_atom_site_fract_z
Si Si1 0.814851 0.869098 0.991296
Si Si2 0.500000 0.000000 0.563608
Si Si3 0.538924 0.221547 0.358912
Si Si4 0.680689 0.336741 0.822511
Si Si5 0.500000 0.500000 0.000000
Si Si6 0.199068 0.627159 0.240975
Si Si7 0.500000 0.500000 0.500000
O O1 0.698094 0.858076 0.883477
O O2 0.776134 0.759254 0.096042
O O3 0.973644 0.826454 0.952806
O O4 0.563209 0.112986 0.468043
O O5 0.393625 0.080584 0.654766
O O6 0.409905 0.201808 0.264632
O O7 0.680955 0.267141 0.291003
O O8 0.481246 0.364148 0.419776
O O9 0.628932 0.461800 0.912734
O O10 0.530954 0.268933 0.775811
#
# Coordination Sequence:
#
# PCOD9542580 Si02
#       7
#     4   2   4   4   1   4   1
#     4  11  27  47  67 101 147 186 225 280 357 425
#     4  12  28  42  66 106 138 186 232 290 352 412
#     4  12  23  41  69 102 136 177 233 289 347 407
#     4  12  21  42  72 103 136 178 227 293 351 413
#     4  12  18  40  68 114 132 166 220 292 370 400
#     4  12  24  45  69 100 140 182 233 291 344 417
#     4  12  18  44  68  90 136 174 224 296 334 388
#
# _framework density 20.403593999999998
#
# number of rings (size 3 to 8) (size 9 to 14) (size 15 to 20)
#    0.000    0.200    8.000    1.200    2.800    0.000 
#    0.000    0.000    0.000    0.000    0.000    0.000 
#    0.000    0.000    0.000    0.000    0.000    0.000 
#
# Total GULP energy -111528.802509 kJ/mol
# GULP energy per Si atom -5576.440125 kJ/mol
# Density = 2.035715 g / cm^3
# Si number density = 20.403594 Si / 1000 Ang^3
#
#
#
# Elastic Constant Matrix: (Units=GPa)
#
#
# Indices 1 2 3 4 5 6 
#
# 1 66.0639 33.1649 27.4259 0.0000 0.0000 4.4775
# 2 33.1649 66.0639 27.4259 0.0000 0.0000 -4.4775
# 3 27.4259 27.4259 67.5023 0.0000 0.0000 0.0000
# 4 0.0000 0.0000 0.0000 49.1825 0.0000 0.0000
# 5 0.0000 0.0000 0.0000 0.0000 49.1825 0.0000
# 6 4.4775 -4.4775 0.0000 0.0000 0.0000 18.5911
#
#
#
# Elastic Compliance Matrix: (Units=1/GPa)
#
#
# Indices 1 2 3 4 5 6 
#
# 1 0.022763 -0.009766 -0.005280 0.000000 0.000000 -0.007834
# 2 -0.009766 0.022763 -0.005280 0.000000 0.000000 0.007834
# 3 -0.005280 -0.005280 0.019105 0.000000 0.000000 0.000000
# 4 0.000000 0.000000 0.000000 0.020332 0.000000 0.000000
# 5 0.000000 0.000000 0.000000 0.000000 0.020332 0.000000
# 6 -0.007834 0.007834 0.000000 0.000000 0.000000 0.057563
#
#
# Mechanical properties :
#
#
# Convention : Reuss Voigt Hill
#
# Bulk Modulus (GPa) = 41.70739 41.74039 41.72389
# Shear Modulus (GPa) = 23.64023 30.83214 27.23618
#
# Velocity S-wave (km/s) = 3.40756 3.89152 3.65755
# Velocity P-wave (km/s) = 5.99729 6.37916 6.19117
#
# Compressibility (1/GPa) = 0.02397657
#
# Stress axis : x y z
#
# Youngs Moduli (GPa) = 43.93174 43.93174 52.34185
#
# Poissons Ratio (x) = 0.42903 0.27639
# Poissons Ratio (y) = 0.42903 0.27639
# Poissons Ratio (z) = 0.23198 0.23198
#
# Static dielectric constant tensor:
#      x y z
#    x 1.727300 0.000000 0.000000 
#    y 0.000000 1.727300 0.000000 
#    z 0.000000 0.000000 1.872010 
# 
# From -- ./inp_files/1299.got.cif
#   From: 2010.05.17/outbox.cif.g08.bks.cpg/sg81_cif.got.tgz:1299.got - 2010.06.03 18:51:07.
