data_PCOD9542762
_publ_section_title
;
Structure prediction by ZEFSAII (Michael W. Deem and Ramdas Pophale) SiO2 
 PCOD9542762
Probable space group: I -4 
;
_chemical_formula_sum "Si O2"
_cell_formula_units_Z 24
_cell_length_a 12.622698
_cell_length_b 12.622698
_cell_length_c 4.934114
_cell_angle_alpha 90.000000
_cell_angle_beta 90.000000
_cell_angle_gamma 90.000000
_cell_volume 786.164743
_symmetry_space_group_name_H-M "I -4 "
_symmetry_group_IT_number 82
_symmetry_cell_setting 'tetragonal'
loop_
_space_group_symop_operation_xyz
x,y,z
y,-x,-z
-x,-y,z
-y,x,-z
1/2+x,1/2+y,1/2+z
1/2+y,1/2-x,1/2-z
1/2-x,1/2-y,1/2+z
1/2-y,1/2+x,1/2-z
loop_
_atom_site_type_symbol
_atom_site_label
_atom_site_fract_x
_atom_site_fract_y
_atom_site_fract_z
Si Si1 0.128651 0.914450 0.582830
Si Si2 0.841833 0.471681 0.350667
Si Si3 0.287726 0.233966 0.337427
O O1 0.223819 0.974497 0.736559
O O2 0.185688 0.812850 0.430468
O O3 0.007047 0.889086 0.652148
O O4 0.900097 0.583132 0.346908
O O5 0.834116 0.393785 0.607385
O O6 0.209645 0.181267 0.098510
#
# Coordination Sequence:
#
# PCOD9542762 Si02
#       3
#     8   8   8
#     4  10  20  40  67 100 137 183 234 291 353 422
#     4  10  20  40  67 100 137 183 234 291 353 422
#     4  10  22  44  66  98 136 180 230 288 350 418
#
# _framework density 30.527951999999999
#
# number of rings (size 3 to 8) (size 9 to 14) (size 15 to 20)
#    0.000    2.000    3.333    0.000    0.000    0.000 
#   24.000    0.000    0.000   32.000    0.000    0.000 
#    0.000    0.000    0.000    0.000    0.000    0.000 
#
# Total GULP energy -66807.831283 kJ/mol
# GULP energy per Si atom -5567.319274 kJ/mol
# Density = 3.045847 g / cm^3
# Si number density = 30.527952 Si / 1000 Ang^3
#
#
#
# Elastic Constant Matrix: (Units=GPa)
#
#
# Indices 1 2 3 4 5 6 
#
# 1 -98.6995 252.6710 23.9225 0.0000 0.0000 -98.5546
# 2 252.6710 -98.6995 23.9225 0.0000 0.0000 98.5546
# 3 23.9225 23.9225 287.6169 0.0000 0.0000 0.0000
# 4 0.0000 0.0000 0.0000 26.7855 0.0000 0.0000
# 5 0.0000 0.0000 0.0000 0.0000 26.7855 0.0000
# 6 -98.5546 98.5546 0.0000 0.0000 0.0000 18.2102
#
#
#
# Elastic Compliance Matrix: (Units=1/GPa)
#
#
# Indices 1 2 3 4 5 6 
#
# 1 0.002981 0.003686 -0.000555 0.000000 0.000000 -0.003816
# 2 0.003686 0.002981 -0.000555 0.000000 0.000000 0.003816
# 3 -0.000555 -0.000555 0.003569 0.000000 0.000000 0.000000
# 4 0.000000 0.000000 0.000000 0.037334 0.000000 0.000000
# 5 0.000000 0.000000 0.000000 0.000000 0.037334 0.000000
# 6 -0.003816 0.003816 0.000000 0.000000 0.000000 0.013606
#
#
# Mechanical properties :
#
#
# Convention : Reuss Voigt Hill
#
# Bulk Modulus (GPa) = 68.09659 76.80555 72.45107
# Shear Modulus (GPa) = 51.25822 0.33637 25.79729
#
# Velocity S-wave (km/s) = 4.10208 0.33230 2.91011
# Velocity P-wave (km/s) = 6.69259 5.03596 5.92249
#
# Compressibility (1/GPa) = 0.01468502
#
# Stress axis : x y z
#
# Youngs Moduli (GPa) = 335.46521 335.46521 280.18324
#
# Poissons Ratio (x) = -1.23655 0.15537
# Poissons Ratio (y) = -1.23655 0.15537
# Poissons Ratio (z) = 0.18603 0.18603
#
# Static dielectric constant tensor:
#      x y z
#    x 2.659980 0.000000 0.000000 
#    y 0.000000 2.659980 0.000000 
#    z 0.000000 0.000000 8.330860 
# 
# From -- ./inp_files/82.got.cif
#   From: 2010.05.17/outbox.cif.g08.bks.cpg/sg82_1_cif.got.tgz:82.got - 2010.06.03 18:52:26.
