data_PCOD9542247
_publ_section_title
;
Structure prediction by ZEFSAII (Michael W. Deem and Ramdas Pophale) SiO2 
 PCOD9542247
Probable space group: I 41
;
_chemical_formula_sum "Si O2"
_cell_formula_units_Z 52
_cell_length_a 20.519293
_cell_length_b 20.519293
_cell_length_c 6.501267
_cell_angle_alpha 90.000000
_cell_angle_beta 90.000000
_cell_angle_gamma 90.000000
_cell_volume 2737.302463
_symmetry_space_group_name_H-M "I 41"
_symmetry_group_IT_number 80
_symmetry_cell_setting 'tetragonal'
loop_
_space_group_symop_operation_xyz
x,y,z
-y,1/2+x,1/4+z
-x,-y,z
y,1/2-x,1/4+z
1/2+x,1/2+y,1/2+z
1/2-y,x,3/4+z
1/2-x,1/2-y,1/2+z
1/2+y,-x,3/4+z
loop_
_atom_site_type_symbol
_atom_site_label
_atom_site_fract_x
_atom_site_fract_y
_atom_site_fract_z
Si Si1 0.468482 0.227201 0.236650
Si Si2 0.935748 0.933779 0.813477
Si Si3 0.000000 0.000000 0.161980
Si Si4 0.543264 0.099259 0.256043
Si Si5 0.676812 0.910200 0.827911
Si Si6 0.501348 0.347768 0.967304
Si Si7 0.175706 0.298243 0.634478
O O1 0.526014 0.174880 0.252942
O O2 0.445396 0.269255 0.434880
O O3 0.401142 0.191335 0.172209
O O4 0.493989 0.277781 0.068679
O O5 0.961666 0.895316 0.618360
O O6 0.919150 0.003923 0.716171
O O7 0.888014 0.883687 0.930381
O O8 0.986604 0.943376 0.998539
O O9 0.061067 0.989553 0.312426
O O10 0.617025 0.072150 0.231924
O O11 0.698279 0.845994 0.950906
O O12 0.657462 0.962724 0.003999
O O13 0.222985 0.315245 0.822318
#
# Coordination Sequence:
#
# PCOD9542247 Si02
#       7
#     8   8   4   8   8   8   8
#     4  11  27  40  61  95 129 170 220 273 325 396
#     4  11  20  34  63  90 123 160 209 268 329 385
#     4  12  18  34  62  98 120 166 206 266 336 392
#     4  12  23  38  65  95 126 165 216 279 340 390
#     4  11  24  41  61  87 133 172 220 269 316 383
#     4  11  21  44  57  92 125 158 216 274 321 400
#     4  12  24  40  58  86 132 186 225 259 308 387
#
# _framework density 18.996803
#
# number of rings (size 3 to 8) (size 9 to 14) (size 15 to 20)
#    0.000    0.615    6.154    2.769    4.308    1.231 
#    0.000    0.000    0.000    0.000    4.000    0.000 
#    0.000    0.000    0.000    0.000    0.000    0.000 
#
# Total GULP energy -144764.911521 kJ/mol
# GULP energy per Si atom -5567.881212 kJ/mol
# Density = 1.895357 g / cm^3
# Si number density = 18.996803 Si / 1000 Ang^3
#
#
#
# Elastic Constant Matrix: (Units=GPa)
#
#
# Indices 1 2 3 4 5 6 
#
# 1 66.2487 33.5922 27.9909 0.0000 0.0000 3.6866
# 2 33.5922 66.2487 27.9909 0.0000 0.0000 -3.6866
# 3 27.9909 27.9909 95.2656 0.0000 0.0000 0.0000
# 4 0.0000 0.0000 0.0000 24.9700 0.0000 0.0000
# 5 0.0000 0.0000 0.0000 0.0000 24.9700 0.0000
# 6 3.6866 -3.6866 0.0000 0.0000 0.0000 30.2848
#
#
#
# Elastic Compliance Matrix: (Units=1/GPa)
#
#
# Indices 1 2 3 4 5 6 
#
# 1 0.021739 -0.009748 -0.003523 0.000000 0.000000 -0.003833
# 2 -0.009748 0.021739 -0.003523 0.000000 0.000000 0.003833
# 3 -0.003523 -0.003523 0.012567 0.000000 0.000000 0.000000
# 4 0.000000 0.000000 0.000000 0.040048 0.000000 0.000000
# 5 0.000000 0.000000 0.000000 0.000000 0.040048 0.000000
# 6 -0.003833 0.003833 0.000000 0.000000 0.000000 0.033953
#
#
# Mechanical properties :
#
#
# Convention : Reuss Voigt Hill
#
# Bulk Modulus (GPa) = 44.52938 45.21232 44.87085
# Shear Modulus (GPa) = 23.67760 25.25757 24.46758
#
# Velocity S-wave (km/s) = 3.53427 3.65028 3.59274
# Velocity P-wave (km/s) = 6.33609 6.45118 6.39389
#
# Compressibility (1/GPa) = 0.02245708
#
# Stress axis : x y z
#
# Youngs Moduli (GPa) = 45.99947 45.99947 79.57084
#
# Poissons Ratio (x) = 0.44840 0.28035
# Poissons Ratio (y) = 0.44840 0.28035
# Poissons Ratio (z) = 0.16207 0.16207
#
# Static dielectric constant tensor:
#      x y z
#    x 1.736210 0.000000 0.000000 
#    y 0.000000 1.736210 0.000000 
#    z 0.000000 0.000000 1.689130 
# 
# From -- ./inp_files/345.got.cif
#   From: 2010.05.17/outbox.cif.g08.bks.cpg/sg80_cif.got.tgz:345.got - 2010.06.03 18:49:13.
