data_PCOD9542929
_publ_section_title
;
Structure prediction by ZEFSAII (Michael W. Deem and Ramdas Pophale) SiO2 
 PCOD9542929
Probable space group: I -4 
;
_chemical_formula_sum "Si O2"
_cell_formula_units_Z 40
_cell_length_a 8.491506
_cell_length_b 8.491506
_cell_length_c 23.309153
_cell_angle_alpha 90.000000
_cell_angle_beta 90.000000
_cell_angle_gamma 90.000000
_cell_volume 1680.722191
_symmetry_space_group_name_H-M "I -4 "
_symmetry_group_IT_number 82
_symmetry_cell_setting 'tetragonal'
loop_
_space_group_symop_operation_xyz
x,y,z
y,-x,-z
-x,-y,z
-y,x,-z
1/2+x,1/2+y,1/2+z
1/2+y,1/2-x,1/2-z
1/2-x,1/2-y,1/2+z
1/2-y,1/2+x,1/2-z
loop_
_atom_site_type_symbol
_atom_site_label
_atom_site_fract_x
_atom_site_fract_y
_atom_site_fract_z
Si Si1 0.345281 0.680564 0.321071
Si Si2 0.197041 0.720852 0.436960
Si Si3 0.416857 0.330746 0.863440
Si Si4 0.823493 0.185988 0.221892
Si Si5 0.337361 0.055243 0.449311
O O1 0.328242 0.677401 0.389952
O O2 0.217673 0.791512 0.288954
O O3 0.516773 0.736387 0.300172
O O4 0.315610 0.504230 0.298055
O O5 0.237218 0.895757 0.460892
O O6 0.041948 0.725371 0.397330
O O7 0.154440 0.624127 0.493524
O O8 0.500000 0.500000 0.854522
O O9 0.335373 0.258383 0.808002
O O10 0.269855 0.350419 0.906127
O O11 0.500000 0.000000 0.422157
#
# Coordination Sequence:
#
# PCOD9542929 Si02
#       5
#     8   8   8   8   8
#     4  11  27  45  72 102 148 183 241 292 363 425
#     4  11  23  42  66 104 134 189 231 293 347 424
#     4  10  23  41  71  96 144 181 235 289 347 421
#     4  11  26  48  70 108 141 191 233 300 356 434
#     4  11  23  40  68 102 142 180 236 290 359 420
#
# _framework density 23.799291
#
# number of rings (size 3 to 8) (size 9 to 14) (size 15 to 20)
#    0.000    1.200    2.000    2.400   11.200    2.400 
#    0.000    0.000    0.000    2.400    0.000    0.000 
#    0.000    0.000    0.000    0.000    0.000    0.000 
#
# Total GULP energy -111847.679112 kJ/mol
# GULP energy per Si atom -5592.383956 kJ/mol
# Density = 2.374512 g / cm^3
# Si number density = 23.799291 Si / 1000 Ang^3
#
#
#
# Elastic Constant Matrix: (Units=GPa)
#
#
# Indices 1 2 3 4 5 6 
#
# 1 66.1259 -9.8071 25.2418 0.0000 0.0000 1.6332
# 2 -9.8071 66.1259 25.2418 0.0000 0.0000 -1.6332
# 3 25.2418 25.2418 119.1062 0.0000 0.0000 0.0000
# 4 0.0000 0.0000 0.0000 34.9461 0.0000 0.0000
# 5 0.0000 0.0000 0.0000 0.0000 34.9461 0.0000
# 6 1.6332 -1.6332 0.0000 0.0000 0.0000 29.9936
#
#
#
# Elastic Compliance Matrix: (Units=1/GPa)
#
#
# Indices 1 2 3 4 5 6 
#
# 1 0.017560 0.004360 -0.004645 0.000000 0.000000 -0.000719
# 2 0.004360 0.017560 -0.004645 0.000000 0.000000 0.000719
# 3 -0.004645 -0.004645 0.010365 0.000000 0.000000 0.000000
# 4 0.000000 0.000000 0.000000 0.028615 0.000000 0.000000
# 5 0.000000 0.000000 0.000000 0.000000 0.028615 0.000000
# 6 -0.000719 0.000719 0.000000 0.000000 0.000000 0.033419
#
#
# Mechanical properties :
#
#
# Convention : Reuss Voigt Hill
#
# Bulk Modulus (GPa) = 28.07145 36.96791 32.51968
# Shear Modulus (GPa) = 31.67125 34.02259 32.84692
#
# Velocity S-wave (km/s) = 3.65192 3.78506 3.71909
# Velocity P-wave (km/s) = 5.44084 5.88805 5.66886
#
# Compressibility (1/GPa) = 0.03562338
#
# Stress axis : x y z
#
# Youngs Moduli (GPa) = 56.94652 56.94652 96.47969
#
# Poissons Ratio (x) = -0.24828 0.44820
# Poissons Ratio (y) = -0.24828 0.44820
# Poissons Ratio (z) = 0.26454 0.26454
#
# Static dielectric constant tensor:
#      x y z
#    x 1.908810 0.000000 0.000000 
#    y 0.000000 1.908810 0.000000 
#    z 0.000000 0.000000 1.915880 
# 
# From -- ./inp_files/3373.got.cif
#   From: 2010.05.17/outbox.cif.g08.bks.cpg/sg82_2_cif.got.tgz:3373.got - 2010.06.03 18:52:26.
