data_PCOD9542152
_publ_section_title
;
Structure prediction by ZEFSAII (Michael W. Deem and Ramdas Pophale) SiO2 
 PCOD9542152
Probable space group: I 41
;
_chemical_formula_sum "Si O2"
_cell_formula_units_Z 48
_cell_length_a 9.309955
_cell_length_b 9.309955
_cell_length_c 24.547896
_cell_angle_alpha 90.000000
_cell_angle_beta 90.000000
_cell_angle_gamma 90.000000
_cell_volume 2127.695320
_symmetry_space_group_name_H-M "I 41"
_symmetry_group_IT_number 80
_symmetry_cell_setting 'tetragonal'
loop_
_space_group_symop_operation_xyz
x,y,z
-y,1/2+x,1/4+z
-x,-y,z
y,1/2-x,1/4+z
1/2+x,1/2+y,1/2+z
1/2-y,x,3/4+z
1/2-x,1/2-y,1/2+z
1/2+y,-x,3/4+z
loop_
_atom_site_type_symbol
_atom_site_label
_atom_site_fract_x
_atom_site_fract_y
_atom_site_fract_z
Si Si1 0.322597 0.317381 0.497030
Si Si2 0.484337 0.339087 0.824430
Si Si3 0.620560 0.260953 0.551737
Si Si4 0.926644 0.138540 0.442405
Si Si5 0.006327 0.838936 0.717779
Si Si6 0.949669 0.160865 0.171775
O O1 0.235217 0.343940 0.552015
O O2 0.490300 0.323269 0.514231
O O3 0.252247 0.434698 0.456455
O O4 0.295282 0.156126 0.478595
O O5 0.500000 0.500000 0.803544
O O6 0.619758 0.243668 0.806690
O O7 0.479019 0.342827 0.889139
O O8 0.661646 0.110903 0.521662
O O9 0.575357 0.251329 0.615444
O O10 0.770932 0.076680 0.426564
O O11 0.879948 0.302890 0.455363
O O12 0.000000 0.000000 0.473816
O O13 0.000000 0.000000 0.697153
O O14 0.000000 0.000000 0.155341
#
# Coordination Sequence:
#
# PCOD9542152 Si02
#       6
#     8   8   8   8   8   8
#     4  11  22  40  66  94 129 171 217 269 324 385
#     4  10  21  39  62  92 124 162 210 264 318 380
#     4  10  22  43  66  94 133 169 215 271 324 389
#     4  10  21  39  63  91 126 163 205 261 320 382
#     4  10  23  42  61  89 130 172 212 261 323 387
#     4  11  22  39  68 100 126 171 225 270 327 391
#
# _framework density 22.559619000000001
#
# number of rings (size 3 to 8) (size 9 to 14) (size 15 to 20)
#    0.000    1.667    0.000    5.000    0.000    4.000 
#    0.000   31.667    0.000    1.000    0.000    0.000 
#    0.000    0.000    0.000    0.000    0.000    0.000 
#
# Total GULP energy -133699.591325 kJ/mol
# GULP energy per Si atom -5570.816305 kJ/mol
# Density = 2.250827 g / cm^3
# Si number density = 22.559619 Si / 1000 Ang^3
#
#
#
# Elastic Constant Matrix: (Units=GPa)
#
#
# Indices 1 2 3 4 5 6 
#
# 1 124.6413 45.8903 16.3754 0.0000 0.0000 26.1072
# 2 45.8903 124.6413 16.3754 0.0000 0.0000 -26.1072
# 3 16.3754 16.3754 72.2325 0.0000 0.0000 0.0000
# 4 0.0000 0.0000 0.0000 25.5703 0.0000 0.0000
# 5 0.0000 0.0000 0.0000 0.0000 25.5703 0.0000
# 6 26.1072 -26.1072 0.0000 0.0000 0.0000 48.5128
#
#
#
# Elastic Compliance Matrix: (Units=1/GPa)
#
#
# Indices 1 2 3 4 5 6 
#
# 1 0.012937 -0.006806 -0.001390 0.000000 0.000000 -0.010624
# 2 -0.006806 0.012937 -0.001390 0.000000 0.000000 0.010624
# 3 -0.001390 -0.001390 0.014474 0.000000 0.000000 0.000000
# 4 0.000000 0.000000 0.000000 0.039108 0.000000 0.000000
# 5 0.000000 0.000000 0.000000 0.000000 0.039108 0.000000
# 6 -0.010624 0.010624 0.000000 0.000000 0.000000 0.032048
#
#
# Mechanical properties :
#
#
# Convention : Reuss Voigt Hill
#
# Bulk Modulus (GPa) = 47.22185 53.19970 50.21078
# Shear Modulus (GPa) = 28.27381 36.12228 32.19804
#
# Velocity S-wave (km/s) = 3.54403 4.00583 3.78198
# Velocity P-wave (km/s) = 6.14201 6.71033 6.43245
#
# Compressibility (1/GPa) = 0.02117664
#
# Stress axis : x y z
#
# Youngs Moduli (GPa) = 77.29897 77.29897 69.08763
#
# Poissons Ratio (x) = 0.52608 0.09603
# Poissons Ratio (y) = 0.52608 0.09603
# Poissons Ratio (z) = 0.10744 0.10744
#
# Static dielectric constant tensor:
#      x y z
#    x 1.903080 0.000000 0.000000 
#    y 0.000000 1.903080 0.000000 
#    z 0.000000 0.000000 1.877180 
# 
# From -- ./inp_files/2620.got.cif
#   From: 2010.05.17/outbox.cif.g08.bks.cpg/sg80_cif.got.tgz:2620.got - 2010.06.03 18:49:13.
