data_PCOD9542172
_publ_section_title
;
Structure prediction by ZEFSAII (Michael W. Deem and Ramdas Pophale) SiO2 
 PCOD9542172
Probable space group: I 41
;
_chemical_formula_sum "Si O2"
_cell_formula_units_Z 40
_cell_length_a 7.309399
_cell_length_b 7.309399
_cell_length_c 27.839420
_cell_angle_alpha 90.000000
_cell_angle_beta 90.000000
_cell_angle_gamma 90.000000
_cell_volume 1487.385427
_symmetry_space_group_name_H-M "I 41"
_symmetry_group_IT_number 80
_symmetry_cell_setting 'tetragonal'
loop_
_space_group_symop_operation_xyz
x,y,z
-y,1/2+x,1/4+z
-x,-y,z
y,1/2-x,1/4+z
1/2+x,1/2+y,1/2+z
1/2-y,x,3/4+z
1/2-x,1/2-y,1/2+z
1/2+y,-x,3/4+z
loop_
_atom_site_type_symbol
_atom_site_label
_atom_site_fract_x
_atom_site_fract_y
_atom_site_fract_z
Si Si1 0.156504 0.239130 0.500000
Si Si2 0.029059 0.715884 0.184027
Si Si3 0.709543 0.446243 0.919208
Si Si4 0.225057 0.074020 0.824451
Si Si5 0.341322 0.813699 0.316239
O O1 0.153665 0.404126 0.464248
O O2 0.282888 0.325055 0.541585
O O3 0.252123 0.083261 0.464486
O O4 0.000000 0.000000 0.408798
O O5 0.952715 0.748849 0.130343
O O6 0.000000 0.500000 0.193863
O O7 0.241467 0.760089 0.187165
O O8 0.806005 0.423543 0.866448
O O9 0.532112 0.319975 0.025587
O O10 0.029031 0.190330 0.820544
O O11 0.274329 0.869232 0.806201
#
# Coordination Sequence:
#
# PCOD9542172 Si02
#       5
#     8   8   8   8   8
#     4  12  26  44  83 121 155 213 282 340 408 501
#     4  11  25  52  77 118 168 219 277 345 421 508
#     4  11  25  50  77 113 165 215 268 347 420 490
#     4  10  21  49  82 110 162 219 275 332 421 502
#     4  10  22  48  75 115 161 216 268 340 416 499
#
# _framework density 26.892828999999999
#
# number of rings (size 3 to 8) (size 9 to 14) (size 15 to 20)
#    0.000    1.200    4.000    3.000    0.000    6.400 
#   14.400    0.000    0.000    0.000    0.000    0.000 
#    0.000    0.000    0.000    0.000    0.000    0.000 
#
# Total GULP energy -111473.817600 kJ/mol
# GULP energy per Si atom -5573.690880 kJ/mol
# Density = 2.683162 g / cm^3
# Si number density = 26.892829 Si / 1000 Ang^3
#
#
#
# Elastic Constant Matrix: (Units=GPa)
#
#
# Indices 1 2 3 4 5 6 
#
# 1 163.1402 118.4184 91.0249 0.0000 0.0000 -15.8863
# 2 118.4184 163.1402 91.0249 0.0000 0.0000 15.8863
# 3 91.0249 91.0249 147.5883 0.0000 0.0000 0.0000
# 4 0.0000 0.0000 0.0000 -91.9148 0.0000 0.0000
# 5 0.0000 0.0000 0.0000 0.0000 -91.9148 0.0000
# 6 -15.8863 15.8863 0.0000 0.0000 0.0000 24.3320
#
#
#
# Elastic Compliance Matrix: (Units=1/GPa)
#
#
# Indices 1 2 3 4 5 6 
#
# 1 0.023806 -0.017899 -0.003643 0.000000 0.000000 0.027229
# 2 -0.017899 0.023806 -0.003643 0.000000 0.000000 -0.027229
# 3 -0.003643 -0.003643 0.011270 0.000000 0.000000 0.000000
# 4 0.000000 0.000000 0.000000 -0.010880 0.000000 0.000000
# 5 0.000000 0.000000 0.000000 0.000000 -0.010880 0.000000
# 6 0.027229 -0.027229 0.000000 0.000000 0.000000 0.076654
#
#
# Mechanical properties :
#
#
# Convention : Reuss Voigt Hill
#
# Bulk Modulus (GPa) = 117.49533 119.42278 118.45906
# Shear Modulus (GPa) = 29.94260 -20.33947 4.80157
#
# Velocity S-wave (km/s) = 3.34039 -2.75310 1.33766
# Velocity P-wave (km/s) = 7.65916 5.86491 6.82129
#
# Compressibility (1/GPa) = 0.00851098
#
# Stress axis : x y z
#
# Youngs Moduli (GPa) = 42.00539 42.00539 88.73359
#
# Poissons Ratio (x) = 0.75186 0.32329
# Poissons Ratio (y) = 0.75186 0.32329
# Poissons Ratio (z) = 0.15304 0.15304
#
# Static dielectric constant tensor:
#      x y z
#    x 2.515680 0.000000 0.000000 
#    y 0.000000 2.515680 0.000000 
#    z 0.000000 0.000000 2.256230 
# 
# From -- ./inp_files/2301.got.cif
#   From: 2010.05.17/outbox.cif.g08.bks.cpg/sg80_cif.got.tgz:2301.got - 2010.06.03 18:49:13.
