data_PCOD9542921
_publ_section_title
;
Structure prediction by ZEFSAII (Michael W. Deem and Ramdas Pophale) SiO2 
 PCOD9542921
Probable space group: I -4 
;
_chemical_formula_sum "Si O2"
_cell_formula_units_Z 26
_cell_length_a 10.130341
_cell_length_b 10.130341
_cell_length_c 12.666907
_cell_angle_alpha 90.000000
_cell_angle_beta 90.000000
_cell_angle_gamma 90.000000
_cell_volume 1299.926242
_symmetry_space_group_name_H-M "I -4 "
_symmetry_group_IT_number 82
_symmetry_cell_setting 'tetragonal'
loop_
_space_group_symop_operation_xyz
x,y,z
y,-x,-z
-x,-y,z
-y,x,-z
1/2+x,1/2+y,1/2+z
1/2+y,1/2-x,1/2-z
1/2-x,1/2-y,1/2+z
1/2-y,1/2+x,1/2-z
loop_
_atom_site_type_symbol
_atom_site_label
_atom_site_fract_x
_atom_site_fract_y
_atom_site_fract_z
Si Si1 0.950967 0.858886 0.758240
Si Si2 0.728049 0.953753 0.601451
Si Si3 0.748833 0.819490 0.378864
Si Si4 0.000000 0.500000 0.250000
O O1 0.863774 0.779210 0.840837
O O2 0.857497 0.894179 0.657920
O O3 0.074601 0.777332 0.713727
O O4 0.000000 0.000000 0.800539
O O5 0.712126 0.895473 0.485715
O O6 0.746771 0.111783 0.600041
O O7 0.603317 0.924759 0.675781
#
# Coordination Sequence:
#
# PCOD9542921 Si02
#       4
#     8   8   8   2
#     4  10  23  40  69 102 136 169 223 285 325 391
#     4  11  22  41  70  97 128 181 224 267 333 401
#     4  11  22  43  71  96 134 179 225 271 334 399
#     4  12  24  40  68  98 136 172 220 280 332 394
#
# _framework density 20.001135000000001
#
# number of rings (size 3 to 8) (size 9 to 14) (size 15 to 20)
#    0.000    1.231    6.154    0.000    0.000    3.077 
#    0.000    0.000    6.769    0.000    0.000    0.000 
#    0.000    0.000    0.000    0.000    0.000    0.000 
#
# Total GULP energy -72701.765864 kJ/mol
# GULP energy per Si atom -5592.443528 kJ/mol
# Density = 1.995561 g / cm^3
# Si number density = 20.001135 Si / 1000 Ang^3
#
#
#
# Elastic Constant Matrix: (Units=GPa)
#
#
# Indices 1 2 3 4 5 6 
#
# 1 100.9495 63.0539 62.7211 0.0000 0.0000 -0.8264
# 2 63.0539 100.9495 62.7211 0.0000 0.0000 0.8264
# 3 62.7211 62.7211 108.5885 0.0000 0.0000 0.0000
# 4 0.0000 0.0000 0.0000 29.7613 0.0000 0.0000
# 5 0.0000 0.0000 0.0000 0.0000 29.7613 0.0000
# 6 -0.8264 0.8264 0.0000 0.0000 0.0000 45.3840
#
#
#
# Elastic Compliance Matrix: (Units=1/GPa)
#
#
# Indices 1 2 3 4 5 6 
#
# 1 0.018666 -0.007743 -0.006309 0.000000 0.000000 0.000481
# 2 -0.007743 0.018666 -0.006309 0.000000 0.000000 -0.000481
# 3 -0.006309 -0.006309 0.016498 0.000000 0.000000 0.000000
# 4 0.000000 0.000000 0.000000 0.033601 0.000000 0.000000
# 5 0.000000 0.000000 0.000000 0.000000 0.033601 0.000000
# 6 0.000481 -0.000481 0.000000 0.000000 0.000000 0.022052
#
#
# Mechanical properties :
#
#
# Convention : Reuss Voigt Hill
#
# Bulk Modulus (GPa) = 76.29561 76.38665 76.34113
# Shear Modulus (GPa) = 26.57093 29.11407 27.84250
#
# Velocity S-wave (km/s) = 3.64877 3.81940 3.73506
# Velocity P-wave (km/s) = 7.48197 7.59766 7.54004
#
# Compressibility (1/GPa) = 0.01310691
#
# Stress axis : x y z
#
# Youngs Moduli (GPa) = 53.57262 53.57262 60.61458
#
# Poissons Ratio (x) = 0.41481 0.38244
# Poissons Ratio (y) = 0.41481 0.38244
# Poissons Ratio (z) = 0.33801 0.33801
#
# Static dielectric constant tensor:
#      x y z
#    x 1.708750 0.000000 0.000000 
#    y 0.000000 1.708750 0.000000 
#    z 0.000000 0.000000 1.669080 
# 
# From -- ./inp_files/2063.got.cif
#   From: 2010.05.17/outbox.cif.g08.bks.cpg/sg82_2_cif.got.tgz:2063.got - 2010.06.03 18:52:26.
