data_PCOD9542065
_publ_section_title
;
Structure prediction by ZEFSAII (Michael W. Deem and Ramdas Pophale) SiO2 
 PCOD9542065
Probable space group: I 41
;
_chemical_formula_sum "Si O2"
_cell_formula_units_Z 40
_cell_length_a 8.769824
_cell_length_b 8.769824
_cell_length_c 25.161005
_cell_angle_alpha 90.000000
_cell_angle_beta 90.000000
_cell_angle_gamma 90.000000
_cell_volume 1935.128189
_symmetry_space_group_name_H-M "I 41"
_symmetry_group_IT_number 80
_symmetry_cell_setting 'tetragonal'
loop_
_space_group_symop_operation_xyz
x,y,z
-y,1/2+x,1/4+z
-x,-y,z
y,1/2-x,1/4+z
1/2+x,1/2+y,1/2+z
1/2-y,x,3/4+z
1/2-x,1/2-y,1/2+z
1/2+y,-x,3/4+z
loop_
_atom_site_type_symbol
_atom_site_label
_atom_site_fract_x
_atom_site_fract_y
_atom_site_fract_z
Si Si1 0.833104 0.009973 0.220380
Si Si2 0.753122 0.897345 0.457143
Si Si3 0.000000 0.500000 0.887756
Si Si4 0.000000 0.000000 0.372930
Si Si5 0.867045 0.286477 0.797863
Si Si6 0.158613 0.915278 0.099208
O O1 0.487694 0.141603 0.164046
O O2 0.722812 0.103101 0.257937
O O3 0.849973 0.091608 0.163327
O O4 0.000000 0.000000 0.243443
O O5 0.595193 0.891843 0.426791
O O6 0.843259 0.740516 0.464059
O O7 0.737744 0.987497 0.512699
O O8 0.088307 0.611825 0.848203
O O9 0.011931 0.832625 0.344133
O O10 0.746093 0.163861 0.819076
O O11 0.000000 0.000000 0.083101
#
# Coordination Sequence:
#
# PCOD9542065 Si02
#       6
#     8   8   4   4   8   8
#     4  10  21  39  66  95 130 172 249 293 341 440
#     4  11  21  41  62 101 133 178 237 291 349 444
#     4  12  23  38  70 104 146 182 238 295 366 440
#     4  10  17  40  68  84 128 174 236 285 342 420
#     4  12  20  40  67  96 136 189 233 287 365 436
#     4  10  22  39  64 101 133 171 235 304 351 422
#
# _framework density 20.670463000000002
#
# number of rings (size 3 to 8) (size 9 to 14) (size 15 to 20)
#    0.000    1.200    8.000    0.000    1.400    0.000 
#    3.600    2.000    0.000    0.000    0.000    0.000 
#    0.000    0.000    0.000    0.000    0.000    0.000 
#
# Total GULP energy -111441.312351 kJ/mol
# GULP energy per Si atom -5572.065618 kJ/mol
# Density = 2.062342 g / cm^3
# Si number density = 20.670463 Si / 1000 Ang^3
#
#
#
# Elastic Constant Matrix: (Units=GPa)
#
#
# Indices 1 2 3 4 5 6 
#
# 1 87.7281 33.6932 33.2464 0.0000 0.0000 0.0251
# 2 33.6932 87.7281 33.2463 0.0000 0.0000 -0.0251
# 3 33.2464 33.2463 89.5504 0.0000 0.0000 0.0000
# 4 0.0000 0.0000 0.0000 32.0912 0.0000 0.0000
# 5 0.0000 0.0000 0.0000 0.0000 32.0912 0.0000
# 6 0.0251 -0.0251 0.0000 0.0000 0.0000 26.6116
#
#
#
# Elastic Compliance Matrix: (Units=1/GPa)
#
#
# Indices 1 2 3 4 5 6 
#
# 1 0.014422 -0.004085 -0.003838 0.000000 0.000000 -0.000017
# 2 -0.004085 0.014422 -0.003838 0.000000 0.000000 0.000017
# 3 -0.003838 -0.003838 0.014017 0.000000 0.000000 0.000000
# 4 0.000000 0.000000 0.000000 0.031161 0.000000 0.000000
# 5 0.000000 0.000000 0.000000 0.000000 0.031161 0.000000
# 6 -0.000017 0.000017 0.000000 0.000000 0.000000 0.037578
#
#
# Mechanical properties :
#
#
# Convention : Reuss Voigt Hill
#
# Bulk Modulus (GPa) = 51.70620 51.70871 51.70746
# Shear Modulus (GPa) = 28.94727 29.14686 29.04707
#
# Velocity S-wave (km/s) = 3.74627 3.75917 3.75273
# Velocity P-wave (km/s) = 6.61677 6.62660 6.62169
#
# Compressibility (1/GPa) = 0.01934004
#
# Stress axis : x y z
#
# Youngs Moduli (GPa) = 69.33841 69.33840 71.34405
#
# Poissons Ratio (x) = 0.28322 0.27381
# Poissons Ratio (y) = 0.28322 0.27381
# Poissons Ratio (z) = 0.26611 0.26611
#
# Static dielectric constant tensor:
#      x y z
#    x 1.796370 0.000000 0.000000 
#    y 0.000000 1.796370 0.000000 
#    z 0.000000 0.000000 1.744010 
# 
# From -- ./inp_files/2521.got.cif
#   From: 2010.05.17/outbox.cif.g08.bks.cpg/sg80_cif.got.tgz:2521.got - 2010.06.03 18:49:13.
