data_PCOD9542443
_publ_section_title
;
Structure prediction by ZEFSAII (Michael W. Deem and Ramdas Pophale) SiO2 
 PCOD9542443
Probable space group: P -4
;
_chemical_formula_sum "Si O2"
_cell_formula_units_Z 18
_cell_length_a 10.647098
_cell_length_b 10.647098
_cell_length_c 6.093389
_cell_angle_alpha 90.000000
_cell_angle_beta 90.000000
_cell_angle_gamma 90.000000
_cell_volume 690.750817
_symmetry_space_group_name_H-M "P -4"
_symmetry_group_IT_number 81
_symmetry_cell_setting 'tetragonal'
loop_
_space_group_symop_operation_xyz
x,y,z
y,-x,-z
-x,-y,z
-y,x,-z
loop_
_atom_site_type_symbol
_atom_site_label
_atom_site_fract_x
_atom_site_fract_y
_atom_site_fract_z
Si Si1 0.337496 0.864416 0.348403
Si Si2 0.199333 0.553857 0.007207
Si Si3 0.500000 0.000000 0.619771
Si Si4 0.878973 0.165502 0.039732
Si Si5 0.446602 0.659761 0.624236
O O1 0.198987 0.848526 0.263543
O O2 0.361753 0.774860 0.554289
O O3 0.382616 0.993332 0.453191
O O4 0.439453 0.834366 0.156463
O O5 0.106632 0.539482 0.213283
O O6 0.174230 0.700661 0.942738
O O7 0.325537 0.517732 0.146002
O O8 0.030382 0.161052 0.069332
O O9 0.541054 0.641692 0.416583
#
# Coordination Sequence:
#
# PCOD9542443 Si02
#       5
#     4   4   2   4   4
#     4  11  23  43  71 103 144 194 242 303 366 436
#     4  11  23  43  71 103 144 194 242 303 366 436
#     4  10  22  42  68  98 144 198 256 286 358 448
#     4  11  24  44  69 104 144 186 243 294 364 437
#     4  10  22  40  66 106 146 186 245 305 366 438
#
# _framework density 26.058599999999998
#
# number of rings (size 3 to 8) (size 9 to 14) (size 15 to 20)
#    0.000    1.333    2.222    3.333    3.111    0.000 
#    0.000    6.667    0.000    2.667    0.000    0.000 
#    0.000    0.000    0.000    0.000    0.000    0.000 
#
# Total GULP energy -100263.882248 kJ/mol
# GULP energy per Si atom -5570.215680 kJ/mol
# Density = 2.599929 g / cm^3
# Si number density = 26.058600 Si / 1000 Ang^3
#
#
#
# Elastic Constant Matrix: (Units=GPa)
#
#
# Indices 1 2 3 4 5 6 
#
# 1 107.7862 34.1123 56.1426 0.0000 0.0000 14.2097
# 2 34.1123 107.7862 56.1426 0.0000 0.0000 -14.2097
# 3 56.1426 56.1426 93.2053 0.0000 0.0000 0.0000
# 4 0.0000 0.0000 0.0000 5.6742 0.0000 0.0000
# 5 0.0000 0.0000 0.0000 0.0000 5.6742 0.0000
# 6 14.2097 -14.2097 0.0000 0.0000 0.0000 25.3242
#
#
#
# Elastic Compliance Matrix: (Units=1/GPa)
#
#
# Indices 1 2 3 4 5 6 
#
# 1 0.015394 -0.001929 -0.008111 0.000000 0.000000 -0.009720
# 2 -0.001929 0.015394 -0.008111 0.000000 0.000000 0.009720
# 3 -0.008111 -0.008111 0.020501 0.000000 0.000000 0.000000
# 4 0.000000 0.000000 0.000000 0.176237 0.000000 0.000000
# 5 0.000000 0.000000 0.000000 0.000000 0.176237 0.000000
# 6 -0.009720 0.009720 0.000000 0.000000 0.000000 0.050396
#
#
# Mechanical properties :
#
#
# Convention : Reuss Voigt Hill
#
# Bulk Modulus (GPa) = 66.72255 66.84142 66.78199
# Shear Modulus (GPa) = 10.09170 18.15985 14.12578
#
# Velocity S-wave (km/s) = 1.97005 2.64272 2.33078
# Velocity P-wave (km/s) = 5.55295 5.91761 5.73817
#
# Compressibility (1/GPa) = 0.01498744
#
# Stress axis : x y z
#
# Youngs Moduli (GPa) = 64.95942 64.95942 48.77928
#
# Poissons Ratio (x) = 0.12528 0.39565
# Poissons Ratio (y) = 0.12528 0.39565
# Poissons Ratio (z) = 0.52689 0.52689
#
# Static dielectric constant tensor:
#      x y z
#    x 2.776130 0.000000 0.000000 
#    y 0.000000 2.776130 0.000000 
#    z 0.000000 0.000000 2.200470 
# 
# From -- ./inp_files/188.got.cif
#   From: 2010.05.17/outbox.cif.g08.bks.cpg/sg81_cif.got.tgz:188.got - 2010.06.03 18:51:07.
