data_PCOD9542461
_publ_section_title
;
Structure prediction by ZEFSAII (Michael W. Deem and Ramdas Pophale) SiO2 
 PCOD9542461
Probable space group: P -4
;
_chemical_formula_sum "Si O2"
_cell_formula_units_Z 16
_cell_length_a 5.187889
_cell_length_b 5.187889
_cell_length_c 23.490192
_cell_angle_alpha 90.000000
_cell_angle_beta 90.000000
_cell_angle_gamma 90.000000
_cell_volume 632.219544
_symmetry_space_group_name_H-M "P -4"
_symmetry_group_IT_number 81
_symmetry_cell_setting 'tetragonal'
loop_
_space_group_symop_operation_xyz
x,y,z
y,-x,-z
-x,-y,z
-y,x,-z
loop_
_atom_site_type_symbol
_atom_site_label
_atom_site_fract_x
_atom_site_fract_y
_atom_site_fract_z
Si Si1 0.741913 0.170409 0.413941
Si Si2 0.177481 0.751964 0.165815
Si Si3 0.500000 0.000000 0.066626
Si Si4 0.500000 0.500000 0.000000
Si Si5 0.500000 0.500000 0.500000
Si Si6 0.251717 0.180181 0.712639
O O1 0.722934 0.406825 0.457021
O O2 0.686966 0.252485 0.348473
O O3 0.500000 0.000000 0.430791
O O4 0.000000 0.000000 0.416954
O O5 0.336951 0.821143 0.110227
O O6 0.326511 0.739722 0.226651
O O7 0.000000 0.500000 0.158613
O O8 0.000000 0.000000 0.172187
O O9 0.613401 0.763953 0.029260
O O10 0.500000 0.000000 0.713807
O O11 0.000000 0.000000 0.711456
#
# Coordination Sequence:
#
# PCOD9542461 Si02
#       6
#     4   4   2   1   1   4
#     4  11  29  50  77 108 156 204 264 329 399 478
#     4  10  22  44  77 111 152 198 257 328 395 471
#     4  12  28  48  76 114 154 212 270 318 396 462
#     4  12  32  48  78 112 160 220 264 330 376 480
#     4  12  32  48  78 112 156 216 272 326 400 480
#     4   9  21  44  73 111 148 194 254 321 402 467
#
# _framework density 25.307663000000002
#
# number of rings (size 3 to 8) (size 9 to 14) (size 15 to 20)
#    0.000    1.500    0.000    1.500   17.500    0.000 
#    0.000    1.250    0.000    0.000    0.000    0.000 
#    0.000    0.000    0.000    0.000    0.000    0.000 
#
# Total GULP energy -89364.038671 kJ/mol
# GULP energy per Si atom -5585.252417 kJ/mol
# Density = 2.525006 g / cm^3
# Si number density = 25.307663 Si / 1000 Ang^3
#
#
#
# Elastic Constant Matrix: (Units=GPa)
#
#
# Indices 1 2 3 4 5 6 
#
# 1 137.7088 36.5782 33.0228 0.0000 0.0000 -6.2770
# 2 36.5782 137.7088 33.0228 0.0000 0.0000 6.2770
# 3 33.0228 33.0228 124.2170 0.0000 0.0000 0.0000
# 4 0.0000 0.0000 0.0000 31.4985 0.0000 0.0000
# 5 0.0000 0.0000 0.0000 0.0000 31.4985 0.0000
# 6 -6.2770 6.2770 0.0000 0.0000 0.0000 52.9669
#
#
#
# Elastic Compliance Matrix: (Units=1/GPa)
#
#
# Indices 1 2 3 4 5 6 
#
# 1 0.008208 -0.001828 -0.001696 0.000000 0.000000 0.001189
# 2 -0.001828 0.008208 -0.001696 0.000000 0.000000 -0.001189
# 3 -0.001696 -0.001696 0.008952 0.000000 0.000000 0.000000
# 4 0.000000 0.000000 0.000000 0.031748 0.000000 0.000000
# 5 0.000000 0.000000 0.000000 0.000000 0.031748 0.000000
# 6 0.001189 -0.001189 0.000000 0.000000 0.000000 0.019162
#
#
# Mechanical properties :
#
#
# Convention : Reuss Voigt Hill
#
# Bulk Modulus (GPa) = 66.98692 67.20912 67.09802
# Shear Modulus (GPa) = 40.50498 42.99351 41.74924
#
# Velocity S-wave (km/s) = 4.00497 4.12616 4.06602
# Velocity P-wave (km/s) = 6.92191 7.02245 6.97236
#
# Compressibility (1/GPa) = 0.01492829
#
# Stress axis : x y z
#
# Youngs Moduli (GPa) = 121.83020 121.83020 111.70307
#
# Poissons Ratio (x) = 0.22267 0.18947
# Poissons Ratio (y) = 0.22267 0.18947
# Poissons Ratio (z) = 0.20665 0.20665
#
# Static dielectric constant tensor:
#      x y z
#    x 2.260050 0.000000 0.000000 
#    y 0.000000 2.260050 0.000000 
#    z 0.000000 0.000000 2.143100 
# 
# From -- ./inp_files/1825.got.cif
#   From: 2010.05.17/outbox.cif.g08.bks.cpg/sg81_cif.got.tgz:1825.got - 2010.06.03 18:51:07.
