data_PCOD9542162
_publ_section_title
;
Structure prediction by ZEFSAII (Michael W. Deem and Ramdas Pophale) SiO2 
 PCOD9542162
Probable space group: I 41
;
_chemical_formula_sum "Si O2"
_cell_formula_units_Z 48
_cell_length_a 8.080232
_cell_length_b 8.080232
_cell_length_c 28.571932
_cell_angle_alpha 90.000000
_cell_angle_beta 90.000000
_cell_angle_gamma 90.000000
_cell_volume 1865.465702
_symmetry_space_group_name_H-M "I 41"
_symmetry_group_IT_number 80
_symmetry_cell_setting 'tetragonal'
loop_
_space_group_symop_operation_xyz
x,y,z
-y,1/2+x,1/4+z
-x,-y,z
y,1/2-x,1/4+z
1/2+x,1/2+y,1/2+z
1/2-y,x,3/4+z
1/2-x,1/2-y,1/2+z
1/2+y,-x,3/4+z
loop_
_atom_site_type_symbol
_atom_site_label
_atom_site_fract_x
_atom_site_fract_y
_atom_site_fract_z
Si Si1 0.940870 0.320513 0.360610
Si Si2 0.241028 0.609783 0.790606
Si Si3 0.944140 0.690335 0.999006
Si Si4 0.770381 0.888285 0.576680
Si Si5 0.244321 0.762833 0.443764
Si Si6 0.239862 0.151602 0.416720
O O1 0.882480 0.208988 0.317561
O O2 0.793526 0.344553 0.398476
O O3 0.000000 0.500000 0.346042
O O4 0.079986 0.223258 0.390828
O O5 0.219636 0.428018 0.810987
O O6 0.251897 0.608502 0.734838
O O7 0.068708 0.702800 0.804309
O O8 0.782307 0.720621 0.967760
O O9 0.000000 0.500000 0.990939
O O10 0.094340 0.783674 0.974427
O O11 0.890611 0.692005 0.052923
O O12 0.789274 0.888397 0.632294
O O13 0.239728 0.952470 0.423737
#
# Coordination Sequence:
#
# PCOD9542162 Si02
#       6
#     8   8   8   8   8   8
#     4  12  28  48  68 106 158 204 254 323 392 479
#     4  11  24  43  72 108 150 194 258 318 391 472
#     4  10  21  41  72 110 140 186 254 322 382 461
#     4  11  22  39  75 110 139 192 256 325 385 453
#     4  11  23  47  73 102 146 196 259 316 382 475
#     4  11  23  43  74 102 144 193 257 307 388 467
#
# _framework density 25.730840000000001
#
# number of rings (size 3 to 8) (size 9 to 14) (size 15 to 20)
#    0.000    1.000    5.000    2.500    9.333    0.000 
#    6.000    2.500    0.000    0.000    0.000    0.000 
#    0.000    0.000    0.000    0.000    0.000    0.000 
#
# Total GULP energy -134303.466980 kJ/mol
# GULP energy per Si atom -5595.977791 kJ/mol
# Density = 2.567228 g / cm^3
# Si number density = 25.730840 Si / 1000 Ang^3
#
#
#
# Elastic Constant Matrix: (Units=GPa)
#
#
# Indices 1 2 3 4 5 6 
#
# 1 91.5701 18.1710 5.7075 0.0000 0.0000 -5.0684
# 2 18.1710 91.5701 5.7075 0.0000 0.0000 5.0684
# 3 5.7075 5.7075 106.1749 0.0000 0.0000 0.0000
# 4 0.0000 0.0000 0.0000 38.3180 0.0000 0.0000
# 5 0.0000 0.0000 0.0000 0.0000 38.3180 0.0000
# 6 -5.0684 5.0684 0.0000 0.0000 0.0000 17.9598
#
#
#
# Elastic Compliance Matrix: (Units=1/GPa)
#
#
# Indices 1 2 3 4 5 6 
#
# 1 0.011670 -0.002507 -0.000493 0.000000 0.000000 0.004001
# 2 -0.002507 0.011670 -0.000493 0.000000 0.000000 -0.004001
# 3 -0.000493 -0.000493 0.009471 0.000000 0.000000 0.000000
# 4 0.000000 0.000000 0.000000 0.026097 0.000000 0.000000
# 5 0.000000 0.000000 0.000000 0.000000 0.026097 0.000000
# 6 0.004001 -0.004001 0.000000 0.000000 0.000000 0.057938
#
#
# Mechanical properties :
#
#
# Convention : Reuss Voigt Hill
#
# Bulk Modulus (GPa) = 38.71738 38.72079 38.71908
# Shear Modulus (GPa) = 31.53832 36.23444 33.88638
#
# Velocity S-wave (km/s) = 3.50480 3.75668 3.63293
# Velocity P-wave (km/s) = 5.60873 5.82220 5.71646
#
# Compressibility (1/GPa) = 0.02582819
#
# Stress axis : x y z
#
# Youngs Moduli (GPa) = 85.68881 85.68880 105.58125
#
# Poissons Ratio (x) = 0.21478 0.05201
# Poissons Ratio (y) = 0.21478 0.05201
# Poissons Ratio (z) = 0.04221 0.04221
#
# Static dielectric constant tensor:
#      x y z
#    x 2.103260 0.000000 0.000000 
#    y 0.000000 2.103260 0.000000 
#    z 0.000000 0.000000 1.983290 
# 
# From -- ./inp_files/2634.got.cif
#   From: 2010.05.17/outbox.cif.g08.bks.cpg/sg80_cif.got.tgz:2634.got - 2010.06.03 18:49:13.
