data_PCOD9542841
_publ_section_title
;
Structure prediction by ZEFSAII (Michael W. Deem and Ramdas Pophale) SiO2 
 PCOD9542841
Probable space group: I -4 
;
_chemical_formula_sum "Si O2"
_cell_formula_units_Z 20
_cell_length_a 5.452794
_cell_length_b 5.452794
_cell_length_c 27.833472
_cell_angle_alpha 90.000000
_cell_angle_beta 90.000000
_cell_angle_gamma 90.000000
_cell_volume 827.571577
_symmetry_space_group_name_H-M "I -4 "
_symmetry_group_IT_number 82
_symmetry_cell_setting 'tetragonal'
loop_
_space_group_symop_operation_xyz
x,y,z
y,-x,-z
-x,-y,z
-y,x,-z
1/2+x,1/2+y,1/2+z
1/2+y,1/2-x,1/2-z
1/2-x,1/2-y,1/2+z
1/2-y,1/2+x,1/2-z
loop_
_atom_site_type_symbol
_atom_site_label
_atom_site_fract_x
_atom_site_fract_y
_atom_site_fract_z
Si Si1 0.000000 0.000000 0.000000
Si Si2 0.000000 0.500000 0.250000
Si Si3 0.866436 0.749322 0.562781
Si Si4 0.742051 0.142473 0.840941
O O1 0.106620 0.205643 0.036506
O O2 0.170226 0.338271 0.214637
O O3 0.856260 0.740060 0.620856
O O4 0.000000 0.500000 0.548547
O O5 0.000000 0.000000 0.550018
O O6 0.500000 0.000000 0.860146
O O7 0.000000 0.000000 0.842398
#
# Coordination Sequence:
#
# PCOD9542841 Si02
#       4
#     2   2   8   8
#     4  12  32  52  72 120 176 204 296 336 424 486
#     4   8  24  40  80 104 168 196 276 320 420 478
#     4  12  29  49  83 114 162 221 273 344 418 495
#     4  10  21  48  73 108 154 208 260 338 399 487
#
# _framework density 24.167090999999999
#
# number of rings (size 3 to 8) (size 9 to 14) (size 15 to 20)
#    1.200    0.000    2.000    2.400    5.600    1.600 
#    0.000    0.000    0.000    0.000    0.000    0.000 
#    0.000    0.000    0.000    0.000    0.000    0.000 
#
# Total GULP energy -55736.709233 kJ/mol
# GULP energy per Si atom -5573.670923 kJ/mol
# Density = 2.411209 g / cm^3
# Si number density = 24.167091 Si / 1000 Ang^3
#
#
#
# Elastic Constant Matrix: (Units=GPa)
#
#
# Indices 1 2 3 4 5 6 
#
# 1 128.4426 44.9257 45.8889 0.0000 0.0000 -6.5009
# 2 44.9257 128.4426 45.8889 0.0000 0.0000 6.5009
# 3 45.8889 45.8889 191.5376 0.0000 0.0000 0.0000
# 4 0.0000 0.0000 0.0000 15.5197 0.0000 0.0000
# 5 0.0000 0.0000 0.0000 0.0000 15.5197 0.0000
# 6 -6.5009 6.5009 0.0000 0.0000 0.0000 53.6179
#
#
#
# Elastic Compliance Matrix: (Units=1/GPa)
#
#
# Indices 1 2 3 4 5 6 
#
# 1 0.009405 -0.002799 -0.001583 0.000000 0.000000 0.001480
# 2 -0.002799 0.009405 -0.001583 0.000000 0.000000 -0.001480
# 3 -0.001583 -0.001583 0.005979 0.000000 0.000000 0.000000
# 4 0.000000 0.000000 0.000000 0.064434 0.000000 0.000000
# 5 0.000000 0.000000 0.000000 0.000000 0.064434 0.000000
# 6 0.001480 -0.001480 0.000000 0.000000 0.000000 0.019009
#
#
# Mechanical properties :
#
#
# Convention : Reuss Voigt Hill
#
# Bulk Modulus (GPa) = 77.75785 80.20330 78.98057
# Shear Modulus (GPa) = 26.47155 37.71276 32.09216
#
# Velocity S-wave (km/s) = 3.31321 3.95460 3.64803
# Velocity P-wave (km/s) = 6.84700 7.35601 7.10606
#
# Compressibility (1/GPa) = 0.01286044
#
# Stress axis : x y z
#
# Youngs Moduli (GPa) = 106.32721 106.32721 167.24490
#
# Poissons Ratio (x) = 0.29761 0.26469
# Poissons Ratio (y) = 0.29761 0.26469
# Poissons Ratio (z) = 0.16828 0.16828
#
# Static dielectric constant tensor:
#      x y z
#    x 1.930840 0.000000 0.000000 
#    y 0.000000 1.930840 0.000000 
#    z 0.000000 0.000000 1.922640 
# 
# From -- ./inp_files/3596.got.cif
#   From: 2010.05.17/outbox.cif.g08.bks.cpg/sg82_2_cif.got.tgz:3596.got - 2010.06.03 18:52:26.
