data_PCOD9542081
_publ_section_title
;
Structure prediction by ZEFSAII (Michael W. Deem and Ramdas Pophale) SiO2 
 PCOD9542081
Probable space group: I 41
;
_chemical_formula_sum "Si O2"
_cell_formula_units_Z 48
_cell_length_a 8.978361
_cell_length_b 8.978361
_cell_length_c 29.750793
_cell_angle_alpha 90.000000
_cell_angle_beta 90.000000
_cell_angle_gamma 90.000000
_cell_volume 2398.240170
_symmetry_space_group_name_H-M "I 41"
_symmetry_group_IT_number 80
_symmetry_cell_setting 'tetragonal'
loop_
_space_group_symop_operation_xyz
x,y,z
-y,1/2+x,1/4+z
-x,-y,z
y,1/2-x,1/4+z
1/2+x,1/2+y,1/2+z
1/2-y,x,3/4+z
1/2-x,1/2-y,1/2+z
1/2+y,-x,3/4+z
loop_
_atom_site_type_symbol
_atom_site_label
_atom_site_fract_x
_atom_site_fract_y
_atom_site_fract_z
Si Si1 0.773023 0.910630 0.192460
Si Si2 0.597005 0.673709 0.226678
Si Si3 0.500000 0.500000 0.877490
Si Si4 0.588325 0.278468 0.685715
Si Si5 0.774341 0.127753 0.755824
Si Si6 0.704976 0.259459 0.098735
Si Si7 0.000000 0.000000 0.640115
O O1 0.693988 0.819583 0.231509
O O2 0.637507 0.938072 0.157634
O O3 0.913999 0.809041 0.177408
O O4 0.842615 0.068112 0.205169
O O5 0.424867 0.704678 0.236769
O O6 0.671812 0.543489 0.255987
O O7 0.588545 0.607212 0.175561
O O8 0.369173 0.579909 0.850307
O O9 0.638497 0.154093 0.721456
O O10 0.678067 0.255756 0.639726
O O11 0.747628 0.200893 0.803579
O O12 0.615159 0.409918 0.109696
#
# Coordination Sequence:
#
# PCOD9542081 Si02
#       7
#     8   8   4   8   8   8   4
#     4  10  20  37  66  83 115 167 199 250 313 368
#     4  10  19  42  60  88 121 166 205 249 318 370
#     4  10  20  38  63  92 116 162 212 253 302 392
#     4  10  21  39  59  91 120 156 206 256 312 365
#     4  10  22  39  61  88 125 160 200 261 304 376
#     4  11  21  40  62  91 124 161 206 259 313 373
#     4  10  18  38  65  86 118 158 210 253 302 380
#
# _framework density 20.014676999999999
#
# number of rings (size 3 to 8) (size 9 to 14) (size 15 to 20)
#    0.000    2.000    5.000    1.000    0.000    3.333 
#    6.000    8.333    0.000    0.000    0.000    0.000 
#    0.000    0.000    0.000    0.000    0.000    0.000 
#
# Total GULP energy -133745.817475 kJ/mol
# GULP energy per Si atom -5572.742395 kJ/mol
# Density = 1.996912 g / cm^3
# Si number density = 20.014677 Si / 1000 Ang^3
#
#
#
# Elastic Constant Matrix: (Units=GPa)
#
#
# Indices 1 2 3 4 5 6 
#
# 1 74.3828 25.6199 16.4177 0.0000 0.0000 -6.1748
# 2 25.6199 74.3828 16.4177 0.0000 0.0000 6.1748
# 3 16.4177 16.4177 75.4681 0.0000 0.0000 0.0000
# 4 0.0000 0.0000 0.0000 12.7349 0.0000 0.0000
# 5 0.0000 0.0000 0.0000 0.0000 12.7349 0.0000
# 6 -6.1748 6.1748 0.0000 0.0000 0.0000 32.5277
#
#
#
# Elastic Compliance Matrix: (Units=1/GPa)
#
#
# Indices 1 2 3 4 5 6 
#
# 1 0.016156 -0.005387 -0.002343 0.000000 0.000000 0.004090
# 2 -0.005387 0.016156 -0.002343 0.000000 0.000000 -0.004090
# 3 -0.002343 -0.002343 0.014270 0.000000 0.000000 0.000000
# 4 0.000000 0.000000 0.000000 0.078524 0.000000 0.000000
# 5 0.000000 0.000000 0.000000 0.000000 0.078524 0.000000
# 6 0.004090 -0.004090 0.000000 0.000000 0.000000 0.032296
#
#
# Mechanical properties :
#
#
# Convention : Reuss Voigt Hill
#
# Bulk Modulus (GPa) = 37.82587 37.90490 37.86539
# Shear Modulus (GPa) = 18.87624 22.65141 20.76383
#
# Velocity S-wave (km/s) = 3.07436 3.36778 3.22441
# Velocity P-wave (km/s) = 5.61626 5.83972 5.72908
#
# Compressibility (1/GPa) = 0.02643693
#
# Stress axis : x y z
#
# Youngs Moduli (GPa) = 61.89637 61.89637 70.07743
#
# Poissons Ratio (x) = 0.33344 0.16417
# Poissons Ratio (y) = 0.33344 0.16417
# Poissons Ratio (z) = 0.14501 0.14501
#
# Static dielectric constant tensor:
#      x y z
#    x 1.752900 0.000000 0.000000 
#    y 0.000000 1.752900 0.000000 
#    z 0.000000 0.000000 1.698040 
# 
# From -- ./inp_files/2651.got.cif
#   From: 2010.05.17/outbox.cif.g08.bks.cpg/sg80_cif.got.tgz:2651.got - 2010.06.03 18:49:13.
