data_PCOD9542937
_publ_section_title
;
Structure prediction by ZEFSAII (Michael W. Deem and Ramdas Pophale) SiO2 
 PCOD9542937
Probable space group: I -4 
;
_chemical_formula_sum "Si O2"
_cell_formula_units_Z 40
_cell_length_a 10.139731
_cell_length_b 10.139731
_cell_length_c 19.577885
_cell_angle_alpha 90.000000
_cell_angle_beta 90.000000
_cell_angle_gamma 90.000000
_cell_volume 2012.883502
_symmetry_space_group_name_H-M "I -4 "
_symmetry_group_IT_number 82
_symmetry_cell_setting 'tetragonal'
loop_
_space_group_symop_operation_xyz
x,y,z
y,-x,-z
-x,-y,z
-y,x,-z
1/2+x,1/2+y,1/2+z
1/2+y,1/2-x,1/2-z
1/2-x,1/2-y,1/2+z
1/2-y,1/2+x,1/2-z
loop_
_atom_site_type_symbol
_atom_site_label
_atom_site_fract_x
_atom_site_fract_y
_atom_site_fract_z
Si Si1 0.873978 0.167871 0.484907
Si Si2 0.592693 0.249458 0.331119
Si Si3 0.000000 0.500000 0.750000
Si Si4 0.831282 0.875828 0.014939
Si Si5 0.598660 0.251473 0.830528
Si Si6 0.500000 0.500000 0.749999
Si Si7 0.000000 0.500000 0.250000
O O1 0.748965 0.249354 0.514366
O O2 0.906544 0.234500 0.412206
O O3 0.013417 0.165779 0.524987
O O4 0.589500 0.264286 0.412735
O O5 0.746897 0.244706 0.311977
O O6 0.526596 0.375970 0.297736
O O7 0.523562 0.123190 0.299385
O O8 0.985263 0.834987 0.025575
O O9 0.526283 0.375056 0.797358
O O10 0.537204 0.120947 0.798864
#
# Coordination Sequence:
#
# PCOD9542937 Si02
#       7
#     8   8   2   8   8   4   2
#     4  10  23  44  65  97 131 171 223 270 324 385
#     4  11  24  41  66  99 134 171 220 267 330 390
#     4  12  24  44  64 106 136 172 212 270 336 400
#     4  10  23  44  65  97 131 171 223 270 324 385
#     4  11  24  41  66  99 134 171 220 267 330 390
#     4  12  20  40  66  92 136 172 208 274 316 392
#     4  12  24  44  64 106 136 172 212 270 336 400
#
# _framework density 19.871991000000001
#
# number of rings (size 3 to 8) (size 9 to 14) (size 15 to 20)
#    0.000    1.200    4.000    2.400    0.000    7.200 
#    7.200    0.000    0.000    0.000    0.000    0.000 
#    0.000    0.000    0.000    0.000    0.000    0.000 
#
# Total GULP energy -111705.436652 kJ/mol
# GULP energy per Si atom -5585.271833 kJ/mol
# Density = 1.982676 g / cm^3
# Si number density = 19.871991 Si / 1000 Ang^3
#
#
#
# Elastic Constant Matrix: (Units=GPa)
#
#
# Indices 1 2 3 4 5 6 
#
# 1 74.3231 1.0298 5.6488 0.0000 0.0000 2.9310
# 2 1.0298 74.3231 5.6488 0.0000 0.0000 -2.9310
# 3 5.6488 5.6488 56.4619 0.0000 0.0000 0.0000
# 4 0.0000 0.0000 0.0000 -5.6988 0.0000 0.0000
# 5 0.0000 0.0000 0.0000 0.0000 -5.6988 0.0000
# 6 2.9310 -2.9310 0.0000 0.0000 0.0000 32.2037
#
#
#
# Elastic Compliance Matrix: (Units=1/GPa)
#
#
# Indices 1 2 3 4 5 6 
#
# 1 0.013608 -0.000135 -0.001348 0.000000 0.000000 -0.001251
# 2 -0.000135 0.013608 -0.001348 0.000000 0.000000 0.001251
# 3 -0.001348 -0.001348 0.017981 0.000000 0.000000 0.000000
# 4 0.000000 0.000000 0.000000 -0.175476 0.000000 0.000000
# 5 0.000000 0.000000 0.000000 0.000000 -0.175476 0.000000
# 6 -0.001251 0.001251 0.000000 0.000000 0.000000 0.031280
#
#
# Mechanical properties :
#
#
# Convention : Reuss Voigt Hill
#
# Bulk Modulus (GPa) = 25.29403 25.52922 25.41162
# Shear Modulus (GPa) = -19.55928 17.01325 -1.27301
#
# Velocity S-wave (km/s) = -3.14070 2.92916 -0.80125
# Velocity P-wave (km/s) = 0.62920 4.93100 3.45824
#
# Compressibility (1/GPa) = 0.03953503
#
# Stress axis : x y z
#
# Youngs Moduli (GPa) = 73.48388 73.48388 55.61492
#
# Poissons Ratio (x) = 0.00995 0.07497
# Poissons Ratio (y) = 0.00995 0.07497
# Poissons Ratio (z) = 0.09905 0.09905
#
# Static dielectric constant tensor:
#      x y z
#    x 1.702300 0.000000 0.000000 
#    y 0.000000 1.702300 0.000000 
#    z 0.000000 0.000000 1.681750 
# 
# From -- ./inp_files/3430.got.cif
#   From: 2010.05.17/outbox.cif.g08.bks.cpg/sg82_2_cif.got.tgz:3430.got - 2010.06.03 18:52:26.
