data_PCOD9542023
_publ_section_title
;
Structure prediction by ZEFSAII (Michael W. Deem and Ramdas Pophale) SiO2 
 PCOD9542023
Probable space group: I 4
;
_chemical_formula_sum "Si O2"
_cell_formula_units_Z 48
_cell_length_a 11.609824
_cell_length_b 11.609824
_cell_length_c 16.762034
_cell_angle_alpha 90.000000
_cell_angle_beta 90.000000
_cell_angle_gamma 90.000000
_cell_volume 2259.321262
_symmetry_space_group_name_H-M "I 4"
_symmetry_group_IT_number 79
_symmetry_cell_setting 'tetragonal'
loop_
_space_group_symop_operation_xyz
x,y,z
-y,x,z
-x,-y,z
y,-x,z
1/2+x,1/2+y,1/2+z
1/2-y,1/2+x,1/2+z
1/2-x,1/2-y,1/2+z
1/2+y,1/2-x,1/2+z
loop_
_atom_site_type_symbol
_atom_site_label
_atom_site_fract_x
_atom_site_fract_y
_atom_site_fract_z
Si Si1 0.040713 0.813993 0.705370
Si Si2 0.435192 0.119855 0.918512
Si Si3 0.054008 0.183425 0.098902
Si Si4 0.945991 0.183424 0.895170
Si Si5 0.880146 0.564809 0.075561
Si Si6 0.040712 0.186008 0.288702
O O1 0.052436 0.791595 0.799739
O O2 0.057975 0.705798 0.649333
O O3 0.914961 0.867473 0.688949
O O4 0.301529 0.093184 0.934640
O O5 0.442027 0.205798 0.844740
O O6 0.500000 0.000000 0.899998
O O7 0.500000 0.167238 0.997036
O O8 0.093183 0.301530 0.059432
O O9 0.052435 0.208405 0.194333
O O10 0.924938 0.137508 0.082182
O O11 0.075061 0.137508 0.911890
O O12 0.000000 0.500000 0.094075
O O13 0.914960 0.132526 0.305123
#
# Coordination Sequence:
#
# PCOD9542023 Si02
#       6
#     8   8   8   8   8   8
#     4   9  20  40  67  98 126 166 221 274 329 388
#     4  11  25  41  57  95 136 174 213 265 329 398
#     4   9  20  42  71  97 124 167 225 277 322 383
#     4   9  20  42  71  97 124 167 225 277 322 383
#     4  11  25  41  57  95 136 174 213 265 329 398
#     4   9  20  40  67  98 126 166 221 274 329 388
#
# _framework density 21.245318999999999
#
# number of rings (size 3 to 8) (size 9 to 14) (size 15 to 20)
#    0.000    2.333    0.000    3.000    4.667    4.000 
#    6.000    1.667    0.000    8.000    0.000    0.000 
#    0.000    0.000    0.000    0.000    0.000    0.000 
#
# Total GULP energy -134249.787287 kJ/mol
# GULP energy per Si atom -5593.741137 kJ/mol
# Density = 2.119696 g / cm^3
# Si number density = 21.245319 Si / 1000 Ang^3
#
#
#
# Elastic Constant Matrix: (Units=GPa)
#
#
# Indices 1 2 3 4 5 6 
#
# 1 120.0281 29.6749 49.9391 0.0000 0.0000 0.0007
# 2 29.6749 120.0281 49.9391 0.0000 0.0000 -0.0007
# 3 49.9391 49.9391 106.4940 0.0000 0.0000 0.0000
# 4 0.0000 0.0000 0.0000 42.0074 0.0000 0.0000
# 5 0.0000 0.0000 0.0000 0.0000 42.0074 0.0000
# 6 0.0007 -0.0007 0.0000 0.0000 0.0000 -12.6333
#
#
#
# Elastic Compliance Matrix: (Units=1/GPa)
#
#
# Indices 1 2 3 4 5 6 
#
# 1 0.010395 -0.000673 -0.004559 0.000000 0.000000 0.000001
# 2 -0.000673 0.010395 -0.004559 0.000000 0.000000 -0.000001
# 3 -0.004559 -0.004559 0.013666 0.000000 0.000000 0.000000
# 4 0.000000 0.000000 0.000000 0.023805 0.000000 0.000000
# 5 0.000000 0.000000 0.000000 0.000000 0.023805 0.000000
# 6 0.000001 -0.000001 0.000000 0.000000 0.000000 -0.079156
#
#
# Mechanical properties :
#
#
# Convention : Reuss Voigt Hill
#
# Bulk Modulus (GPa) = 67.23339 67.29517 67.26428
# Shear Modulus (GPa) = 182.16014 28.74280 105.45147
#
# Velocity S-wave (km/s) = 9.26971 3.68217 7.05287
# Velocity P-wave (km/s) = 12.09483 7.05846 9.90219
#
# Compressibility (1/GPa) = 0.01487356
#
# Stress axis : x y z
#
# Youngs Moduli (GPa) = 96.20458 96.20458 73.17587
#
# Poissons Ratio (x) = 0.06476 0.33359
# Poissons Ratio (y) = 0.06476 0.33359
# Poissons Ratio (z) = 0.43857 0.43857
#
# Static dielectric constant tensor:
#      x y z
#    x 1.735180 0.000000 0.000000 
#    y 0.000000 1.735180 0.000000 
#    z 0.000000 0.000000 1.803580 
# 
# From -- ./inp_files/1562.got.cif
#   From: 2010.05.17/outbox.cif.g08.bks.cpg/sg79_cif.got.tgz:1562.got - 2010.06.03 18:47:27.
