data_PCOD9542869
_publ_section_title
;
Structure prediction by ZEFSAII (Michael W. Deem and Ramdas Pophale) SiO2 
 PCOD9542869
Probable space group: I -4 
;
_chemical_formula_sum "Si O2"
_cell_formula_units_Z 48
_cell_length_a 8.733708
_cell_length_b 8.733708
_cell_length_c 25.756792
_cell_angle_alpha 90.000000
_cell_angle_beta 90.000000
_cell_angle_gamma 90.000000
_cell_volume 1964.667705
_symmetry_space_group_name_H-M "I -4 "
_symmetry_group_IT_number 82
_symmetry_cell_setting 'tetragonal'
loop_
_space_group_symop_operation_xyz
x,y,z
y,-x,-z
-x,-y,z
-y,x,-z
1/2+x,1/2+y,1/2+z
1/2+y,1/2-x,1/2-z
1/2-x,1/2-y,1/2+z
1/2-y,1/2+x,1/2-z
loop_
_atom_site_type_symbol
_atom_site_label
_atom_site_fract_x
_atom_site_fract_y
_atom_site_fract_z
Si Si1 0.092292 0.215150 0.475394
Si Si2 0.428948 0.656663 0.131178
Si Si3 0.297925 0.106888 0.725153
Si Si4 0.884321 0.788824 0.810631
Si Si5 0.320988 0.623564 0.356027
Si Si6 0.863935 0.620871 0.567059
O O1 0.113371 0.192617 0.414656
O O2 0.144848 0.365945 0.504926
O O3 0.919824 0.186652 0.495256
O O4 0.500000 0.500000 0.154124
O O5 0.349108 0.781979 0.167694
O O6 0.564626 0.734792 0.098132
O O7 0.429434 0.183222 0.761981
O O8 0.146143 0.170408 0.751063
O O9 0.335221 0.154569 0.666905
O O10 0.064713 0.777625 0.819043
O O11 0.842352 0.944011 0.843771
O O12 0.377996 0.692002 0.410365
O O13 0.000000 0.500000 0.578313
#
# Coordination Sequence:
#
# PCOD9542869 Si02
#       6
#     8   8   8   8   8   8
#     4   9  17  36  58  81 116 154 197 257 303 361
#     4  11  21  39  63  88 120 162 212 258 312 378
#     4   9  20  38  61  85 118 159 210 258 310 380
#     4  10  22  41  59  88 126 165 204 260 325 378
#     4  10  22  41  58  87 129 162 203 264 319 384
#     4  11  21  38  62  89 121 160 205 256 317 374
#
# _framework density 24.431612999999999
#
# number of rings (size 3 to 8) (size 9 to 14) (size 15 to 20)
#    0.000    2.000    5.000    0.000    2.333    1.333 
#    9.000    0.000    0.000    2.000    0.000    0.000 
#    0.000    0.000    0.000    0.000    0.000    0.000 
#
# Total GULP energy -133764.717097 kJ/mol
# GULP energy per Si atom -5573.529879 kJ/mol
# Density = 2.437601 g / cm^3
# Si number density = 24.431613 Si / 1000 Ang^3
#
#
#
# Elastic Constant Matrix: (Units=GPa)
#
#
# Indices 1 2 3 4 5 6 
#
# 1 57.0626 2.5935 13.6594 0.0000 0.0000 -6.9868
# 2 2.5935 57.0626 13.6594 0.0000 0.0000 6.9868
# 3 13.6594 13.6594 41.4442 0.0000 0.0000 0.0000
# 4 0.0000 0.0000 0.0000 29.0309 0.0000 0.0000
# 5 0.0000 0.0000 0.0000 0.0000 29.0309 0.0000
# 6 -6.9868 6.9868 0.0000 0.0000 0.0000 19.5084
#
#
#
# Elastic Compliance Matrix: (Units=1/GPa)
#
#
# Indices 1 2 3 4 5 6 
#
# 1 0.019979 -0.000237 -0.006507 0.000000 0.000000 0.007240
# 2 -0.000237 0.019979 -0.006507 0.000000 0.000000 -0.007240
# 3 -0.006507 -0.006507 0.028418 0.000000 0.000000 0.000000
# 4 0.000000 0.000000 0.000000 0.034446 0.000000 0.000000
# 5 0.000000 0.000000 0.000000 0.000000 0.034446 0.000000
# 6 0.007240 -0.007240 0.000000 0.000000 0.000000 0.056446
#
#
# Mechanical properties :
#
#
# Convention : Reuss Voigt Hill
#
# Bulk Modulus (GPa) = 23.88028 23.93267 23.90648
# Shear Modulus (GPa) = 21.35157 23.89119 22.62138
#
# Velocity S-wave (km/s) = 2.95944 3.13050 3.04617
# Velocity P-wave (km/s) = 4.63393 4.78370 4.70941
#
# Compressibility (1/GPa) = 0.04187556
#
# Stress axis : x y z
#
# Youngs Moduli (GPa) = 50.05138 50.05138 35.18907
#
# Poissons Ratio (x) = 0.01186 0.22897
# Poissons Ratio (y) = 0.01186 0.22897
# Poissons Ratio (z) = 0.32567 0.32567
#
# Static dielectric constant tensor:
#      x y z
#    x 2.012940 0.000000 0.000000 
#    y 0.000000 2.012940 0.000000 
#    z 0.000000 0.000000 1.988510 
# 
# From -- ./inp_files/4025.got.cif
#   From: 2010.05.17/outbox.cif.g08.bks.cpg/sg82_3_cif.got.tgz:4025.got - 2010.06.03 18:52:26.
