data_PCOD9542232
_publ_section_title
;
Structure prediction by ZEFSAII (Michael W. Deem and Ramdas Pophale) SiO2 
 PCOD9542232
Probable space group: I 41
;
_chemical_formula_sum "Si O2"
_cell_formula_units_Z 60
_cell_length_a 16.737295
_cell_length_b 16.737295
_cell_length_c 8.966545
_cell_angle_alpha 90.000000
_cell_angle_beta 90.000000
_cell_angle_gamma 90.000000
_cell_volume 2511.861410
_symmetry_space_group_name_H-M "I 41"
_symmetry_group_IT_number 80
_symmetry_cell_setting 'tetragonal'
loop_
_space_group_symop_operation_xyz
x,y,z
-y,1/2+x,1/4+z
-x,-y,z
y,1/2-x,1/4+z
1/2+x,1/2+y,1/2+z
1/2-y,x,3/4+z
1/2-x,1/2-y,1/2+z
1/2+y,-x,3/4+z
loop_
_atom_site_type_symbol
_atom_site_label
_atom_site_fract_x
_atom_site_fract_y
_atom_site_fract_z
Si Si1 0.676981 0.728018 0.642700
Si Si2 0.757826 0.158191 0.250106
Si Si3 0.683279 0.436683 0.213977
Si Si4 0.127257 0.105147 0.740809
Si Si5 0.000000 0.000000 0.306409
Si Si6 0.864124 0.469909 0.797860
Si Si7 0.618772 0.355517 0.493155
Si Si8 0.593228 0.940736 0.808811
O O1 0.682768 0.749756 0.815191
O O2 0.670827 0.809526 0.545451
O O3 0.599946 0.675014 0.611171
O O4 0.785095 0.196237 0.407186
O O5 0.721148 0.068996 0.259420
O O6 0.834837 0.157139 0.145794
O O7 0.676609 0.530414 0.176073
O O8 0.603444 0.400679 0.142175
O O9 0.671691 0.410618 0.385868
O O10 0.768921 0.400985 0.170558
O O11 0.053034 0.133130 0.639993
O O12 0.093992 0.071520 0.898215
O O13 0.931638 0.968531 0.193828
O O14 0.020535 0.924296 0.408819
O O15 0.533240 0.392425 0.527846
#
# Coordination Sequence:
#
# PCOD9542232 Si02
#       8
#     8   8   8   8   4   8   8   8
#     4  10  24  48  76 108 141 186 246 305 381 445
#     4  12  27  47  69 110 156 205 252 310 396 469
#     4  12  24  43  73 106 140 196 243 306 363 462
#     4  11  23  48  77 103 140 197 255 300 369 456
#     4  12  26  44  66 106 146 184 244 318 380 434
#     4  12  27  45  67 106 154 193 253 316 373 452
#     4  12  24  43  74 106 147 193 251 303 376 462
#     4  11  24  46  75 105 142 193 247 314 371 452
#
# _framework density 23.886668
#
# number of rings (size 3 to 8) (size 9 to 14) (size 15 to 20)
#    0.000    0.533    5.333    2.400    1.867    1.067 
#    0.000    4.000    0.000    0.000    0.000    0.000 
#    0.000    0.000    0.000    0.000    0.000    0.000 
#
# Total GULP energy -167782.168440 kJ/mol
# GULP energy per Si atom -5592.738948 kJ/mol
# Density = 2.383230 g / cm^3
# Si number density = 23.886668 Si / 1000 Ang^3
#
#
#
# Elastic Constant Matrix: (Units=GPa)
#
#
# Indices 1 2 3 4 5 6 
#
# 1 69.4147 13.3813 7.5901 0.0000 0.0000 -3.9735
# 2 13.3813 69.4147 7.5901 0.0000 0.0000 3.9735
# 3 7.5901 7.5901 76.7440 0.0000 0.0000 0.0000
# 4 0.0000 0.0000 0.0000 32.2863 0.0000 0.0000
# 5 0.0000 0.0000 0.0000 0.0000 32.2863 0.0000
# 6 -3.9735 3.9735 0.0000 0.0000 0.0000 30.9493
#
#
#
# Elastic Compliance Matrix: (Units=1/GPa)
#
#
# Indices 1 2 3 4 5 6 
#
# 1 0.015239 -0.002938 -0.001217 0.000000 0.000000 0.002334
# 2 -0.002938 0.015239 -0.001217 0.000000 0.000000 -0.002334
# 3 -0.001217 -0.001217 0.013271 0.000000 0.000000 0.000000
# 4 0.000000 0.000000 0.000000 0.030973 0.000000 0.000000
# 5 0.000000 0.000000 0.000000 0.000000 0.030973 0.000000
# 6 0.002334 -0.002334 0.000000 0.000000 0.000000 0.032910
#
#
# Mechanical properties :
#
#
# Convention : Reuss Voigt Hill
#
# Bulk Modulus (GPa) = 30.29704 30.29959 30.29832
# Shear Modulus (GPa) = 31.18170 31.57183 31.37677
#
# Velocity S-wave (km/s) = 3.61695 3.63951 3.62825
# Velocity P-wave (km/s) = 5.49130 5.51123 5.50127
#
# Compressibility (1/GPa) = 0.03300652
#
# Stress axis : x y z
#
# Youngs Moduli (GPa) = 65.62017 65.62017 75.35234
#
# Poissons Ratio (x) = 0.19281 0.09167
# Poissons Ratio (y) = 0.19281 0.09167
# Poissons Ratio (z) = 0.07983 0.07983
#
# Static dielectric constant tensor:
#      x y z
#    x 1.930940 0.000000 0.000000 
#    y 0.000000 1.930940 0.000000 
#    z 0.000000 0.000000 1.920400 
# 
# From -- ./inp_files/758.got.cif
#   From: 2010.05.17/outbox.cif.g08.bks.cpg/sg80_cif.got.tgz:758.got - 2010.06.03 18:49:13.
