data_PCOD9542637
_publ_section_title
;
Structure prediction by ZEFSAII (Michael W. Deem and Ramdas Pophale) SiO2 
 PCOD9542637
Probable space group: I -4 
;
_chemical_formula_sum "Si O2"
_cell_formula_units_Z 56
_cell_length_a 15.190062
_cell_length_b 15.190062
_cell_length_c 14.264911
_cell_angle_alpha 90.000000
_cell_angle_beta 90.000000
_cell_angle_gamma 90.000000
_cell_volume 3291.456800
_symmetry_space_group_name_H-M "I -4 "
_symmetry_group_IT_number 82
_symmetry_cell_setting 'tetragonal'
loop_
_space_group_symop_operation_xyz
x,y,z
y,-x,-z
-x,-y,z
-y,x,-z
1/2+x,1/2+y,1/2+z
1/2+y,1/2-x,1/2-z
1/2-x,1/2-y,1/2+z
1/2-y,1/2+x,1/2-z
loop_
_atom_site_type_symbol
_atom_site_label
_atom_site_fract_x
_atom_site_fract_y
_atom_site_fract_z
Si Si1 0.336205 0.323086 0.083608
Si Si2 0.904759 0.108540 0.228256
Si Si3 0.906114 0.106225 0.738095
Si Si4 0.760323 0.850494 0.127013
Si Si5 0.540229 0.276877 0.067917
Si Si6 0.368029 0.441703 0.479895
Si Si7 0.945060 0.368281 0.728169
O O1 0.346846 0.344817 0.194167
O O2 0.277677 0.235961 0.079185
O O3 0.437633 0.303011 0.052564
O O4 0.289447 0.401509 0.025543
O O5 0.907546 0.147377 0.124889
O O6 0.003572 0.111036 0.268406
O O7 0.882162 0.004693 0.218510
O O8 0.837946 0.154557 0.806115
O O9 0.915783 0.152254 0.638488
O O10 0.691927 0.893045 0.198775
O O11 0.788276 0.918196 0.046665
O O12 0.544842 0.185710 0.129673
O O13 0.393048 0.544377 0.480825
O O14 0.891995 0.460024 0.727067
#
# Coordination Sequence:
#
# PCOD9542637 Si02
#       7
#     8   8   8   8   8   8   8
#     4  11  23  36  53  84 117 149 196 231 297 361
#     4  10  18  34  54  78 109 149 176 224 299 364
#     4   9  17  33  57  78 106 141 181 228 289 347
#     4  11  21  33  54  87 111 139 197 241 283 353
#     4  10  21  37  57  84 118 151 190 243 290 358
#     4  11  19  32  55  84 114 145 182 240 307 352
#     4  10  21  40  63  83 114 157 199 247 293 344
#
# _framework density 17.013743000000002
#
# number of rings (size 3 to 8) (size 9 to 14) (size 15 to 20)
#    0.000    1.714    4.286    1.714    0.000    4.857 
#    0.000    0.000    0.000    0.000    0.000    0.000 
#    0.000    0.000    0.000    0.000    0.000    0.000 
#
# Total GULP energy -156027.717163 kJ/mol
# GULP energy per Si atom -5572.418470 kJ/mol
# Density = 1.697502 g / cm^3
# Si number density = 17.013743 Si / 1000 Ang^3
#
#
#
# Elastic Constant Matrix: (Units=GPa)
#
#
# Indices 1 2 3 4 5 6 
#
# 1 45.6760 24.4670 17.3952 0.0000 0.0000 3.5906
# 2 24.4670 45.6760 17.3952 0.0000 0.0000 -3.5906
# 3 17.3952 17.3952 52.8980 0.0000 0.0000 0.0000
# 4 0.0000 0.0000 0.0000 22.5719 0.0000 0.0000
# 5 0.0000 0.0000 0.0000 0.0000 22.5719 0.0000
# 6 3.5906 -3.5906 0.0000 0.0000 0.0000 20.2244
#
#
#
# Elastic Compliance Matrix: (Units=1/GPa)
#
#
# Indices 1 2 3 4 5 6 
#
# 1 0.033600 -0.016565 -0.005602 0.000000 0.000000 -0.008906
# 2 -0.016565 0.033600 -0.005602 0.000000 0.000000 0.008906
# 3 -0.005602 -0.005602 0.022589 0.000000 0.000000 0.000000
# 4 0.000000 0.000000 0.000000 0.044303 0.000000 0.000000
# 5 0.000000 0.000000 0.000000 0.000000 0.044303 0.000000
# 6 -0.008906 0.008906 0.000000 0.000000 0.000000 0.052608
#
#
# Mechanical properties :
#
#
# Convention : Reuss Voigt Hill
#
# Bulk Modulus (GPa) = 29.19604 29.19608 29.19606
# Shear Modulus (GPa) = 16.78092 18.73979 17.76036
#
# Velocity S-wave (km/s) = 3.14397 3.32241 3.23442
# Velocity P-wave (km/s) = 5.51153 5.64937 5.58088
#
# Compressibility (1/GPa) = 0.03425123
#
# Stress axis : x y z
#
# Youngs Moduli (GPa) = 29.76173 29.76173 44.27007
#
# Poissons Ratio (x) = 0.49301 0.24800
# Poissons Ratio (y) = 0.49301 0.24800
# Poissons Ratio (z) = 0.16672 0.16672
#
# Static dielectric constant tensor:
#      x y z
#    x 1.581210 0.000000 0.000000 
#    y 0.000000 1.581210 0.000000 
#    z 0.000000 0.000000 1.603280 
# 
# From -- ./inp_files/2325.got.cif
#   From: 2010.05.17/outbox.cif.g08.bks.cpg/sg82_2_cif.got.tgz:2325.got - 2010.06.03 18:52:26.
