data_PCOD9542619
_publ_section_title
;
Structure prediction by ZEFSAII (Michael W. Deem and Ramdas Pophale) SiO2 
 PCOD9542619
Probable space group: I -4 
;
_chemical_formula_sum "Si O2"
_cell_formula_units_Z 56
_cell_length_a 12.035153
_cell_length_b 12.035153
_cell_length_c 21.032775
_cell_angle_alpha 90.000000
_cell_angle_beta 90.000000
_cell_angle_gamma 90.000000
_cell_volume 3046.490354
_symmetry_space_group_name_H-M "I -4 "
_symmetry_group_IT_number 82
_symmetry_cell_setting 'tetragonal'
loop_
_space_group_symop_operation_xyz
x,y,z
y,-x,-z
-x,-y,z
-y,x,-z
1/2+x,1/2+y,1/2+z
1/2+y,1/2-x,1/2-z
1/2-x,1/2-y,1/2+z
1/2-y,1/2+x,1/2-z
loop_
_atom_site_type_symbol
_atom_site_label
_atom_site_fract_x
_atom_site_fract_y
_atom_site_fract_z
Si Si1 0.626515 0.962036 0.506864
Si Si2 0.123666 0.033908 0.154852
Si Si3 0.669227 0.643314 0.435741
Si Si4 0.052378 0.149571 0.470158
Si Si5 0.108070 0.239089 0.070629
Si Si6 0.749109 0.637213 0.885329
Si Si7 0.527554 0.180028 0.245032
O O1 0.635866 0.868884 0.562379
O O2 0.667689 0.910743 0.439683
O O3 0.500000 0.000000 0.502478
O O4 0.718948 0.055685 0.519764
O O5 0.135315 0.161435 0.130947
O O6 0.221958 0.010080 0.204237
O O7 0.133921 0.955317 0.092643
O O8 0.000000 0.000000 0.179731
O O9 0.662508 0.685864 0.507628
O O10 0.726308 0.524475 0.434883
O O11 0.728592 0.731601 0.389776
O O12 0.123617 0.118550 0.409047
O O13 0.111291 0.075607 0.525296
O O14 0.772770 0.580423 0.819204
O O15 0.413512 0.114378 0.230800
#
# Coordination Sequence:
#
# PCOD9542619 Si02
#       7
#     8   8   8   8   8   8   8
#     4  10  21  35  58  93 117 150 194 244 301 354
#     4  10  21  38  57  85 118 147 196 239 294 360
#     4  10  17  32  57  88 118 149 182 245 307 351
#     4   9  19  40  56  82 119 154 198 238 284 355
#     4  10  19  31  58  89 116 147 189 245 303 351
#     4  10  21  37  59  83 118 162 191 240 294 347
#     4  11  24  42  59  85 119 156 199 243 288 350
#
# _framework density 18.381809000000001
#
# number of rings (size 3 to 8) (size 9 to 14) (size 15 to 20)
#    0.000    2.000    2.857    0.857    2.000    0.000 
#   23.143    0.000    0.000    0.000    0.000    0.000 
#    0.000    0.000    0.000    0.000    0.000    0.000 
#
# Total GULP energy -156018.219196 kJ/mol
# GULP energy per Si atom -5572.079257 kJ/mol
# Density = 1.833997 g / cm^3
# Si number density = 18.381809 Si / 1000 Ang^3
#
#
#
# Elastic Constant Matrix: (Units=GPa)
#
#
# Indices 1 2 3 4 5 6 
#
# 1 87.8294 30.4355 22.4956 0.0000 0.0000 1.2921
# 2 30.4355 87.8294 22.4956 0.0000 0.0000 -1.2921
# 3 22.4956 22.4956 41.2581 0.0000 0.0000 0.0000
# 4 0.0000 0.0000 0.0000 22.9457 0.0000 0.0000
# 5 0.0000 0.0000 0.0000 0.0000 22.9457 0.0000
# 6 1.2921 -1.2921 0.0000 0.0000 0.0000 24.2961
#
#
#
# Elastic Compliance Matrix: (Units=1/GPa)
#
#
# Indices 1 2 3 4 5 6 
#
# 1 0.014067 -0.003398 -0.005817 0.000000 0.000000 -0.000929
# 2 -0.003398 0.014067 -0.005817 0.000000 0.000000 0.000929
# 3 -0.005817 -0.005817 0.030581 0.000000 0.000000 0.000000
# 4 0.000000 0.000000 0.000000 0.043581 0.000000 0.000000
# 5 0.000000 0.000000 0.000000 0.000000 0.043581 0.000000
# 6 -0.000929 0.000929 0.000000 0.000000 0.000000 0.041258
#
#
# Mechanical properties :
#
#
# Convention : Reuss Voigt Hill
#
# Bulk Modulus (GPa) = 34.90368 40.86337 37.88352
# Shear Modulus (GPa) = 22.05079 23.47016 22.76048
#
# Velocity S-wave (km/s) = 3.46728 3.57713 3.52263
# Velocity P-wave (km/s) = 5.92104 6.27214 6.09912
#
# Compressibility (1/GPa) = 0.02865028
#
# Stress axis : x y z
#
# Youngs Moduli (GPa) = 71.08888 71.08888 32.70020
#
# Poissons Ratio (x) = 0.24159 0.19021
# Poissons Ratio (y) = 0.24159 0.19021
# Poissons Ratio (z) = 0.41352 0.41352
#
# Static dielectric constant tensor:
#      x y z
#    x 1.685700 0.000000 0.000000 
#    y 0.000000 1.685700 0.000000 
#    z 0.000000 0.000000 1.590550 
# 
# From -- ./inp_files/3121.got.cif
#   From: 2010.05.17/outbox.cif.g08.bks.cpg/sg82_2_cif.got.tgz:3121.got - 2010.06.03 18:52:26.
