data_PCOD9542970
_publ_section_title
;
Structure prediction by ZEFSAII (Michael W. Deem and Ramdas Pophale) SiO2 
 PCOD9542970
Probable space group: I -4 
;
_chemical_formula_sum "Si O2"
_cell_formula_units_Z 34
_cell_length_a 10.416650
_cell_length_b 10.416650
_cell_length_c 13.512296
_cell_angle_alpha 90.000000
_cell_angle_beta 90.000000
_cell_angle_gamma 90.000000
_cell_volume 1466.173260
_symmetry_space_group_name_H-M "I -4 "
_symmetry_group_IT_number 82
_symmetry_cell_setting 'tetragonal'
loop_
_space_group_symop_operation_xyz
x,y,z
y,-x,-z
-x,-y,z
-y,x,-z
1/2+x,1/2+y,1/2+z
1/2+y,1/2-x,1/2-z
1/2-x,1/2-y,1/2+z
1/2-y,1/2+x,1/2-z
loop_
_atom_site_type_symbol
_atom_site_label
_atom_site_fract_x
_atom_site_fract_y
_atom_site_fract_z
Si Si1 0.500000 0.500000 0.000000
Si Si2 0.301078 0.280058 0.743415
Si Si3 0.367458 0.751316 0.064480
Si Si4 0.123723 0.841755 0.962164
Si Si5 0.523500 0.151407 0.870969
O O1 0.616819 0.556250 0.936606
O O2 0.204082 0.340161 0.823399
O O3 0.331419 0.379914 0.656257
O O4 0.412625 0.231257 0.817448
O O5 0.285735 0.150034 0.680048
O O6 0.227364 0.748429 0.011792
O O7 0.451823 0.834248 0.987969
O O8 0.984922 0.827446 0.010742
O O9 0.500000 0.000000 0.852945
#
# Coordination Sequence:
#
# PCOD9542970 Si02
#       5
#     2   8   8   8   8
#     4  12  24  40  60  96 134 176 220 304 348 420
#     4  11  20  40  67  99 128 183 233 287 357 416
#     4  11  25  40  64 103 139 172 236 299 354 415
#     4  10  24  45  69 100 137 179 236 294 351 438
#     4  11  21  39  72 100 130 184 247 288 339 443
#
# _framework density 23.189622
#
# number of rings (size 3 to 8) (size 9 to 14) (size 15 to 20)
#    0.000    1.176    4.706    1.412    3.294    1.882 
#    8.471    0.000    0.000    0.000    0.000    0.000 
#    0.000    0.000    0.000    0.000    0.000    0.000 
#
# Total GULP energy -94744.924481 kJ/mol
# GULP energy per Si atom -5573.230852 kJ/mol
# Density = 2.313684 g / cm^3
# Si number density = 23.189622 Si / 1000 Ang^3
#
#
#
# Elastic Constant Matrix: (Units=GPa)
#
#
# Indices 1 2 3 4 5 6 
#
# 1 45.0293 20.0432 28.6446 0.0000 0.0000 -2.6397
# 2 20.0432 45.0293 28.6446 0.0000 0.0000 2.6397
# 3 28.6446 28.6446 214.5733 0.0000 0.0000 0.0000
# 4 0.0000 0.0000 0.0000 31.1063 0.0000 0.0000
# 5 0.0000 0.0000 0.0000 0.0000 31.1063 0.0000
# 6 -2.6397 2.6397 0.0000 0.0000 0.0000 25.1774
#
#
#
# Elastic Compliance Matrix: (Units=1/GPa)
#
#
# Indices 1 2 3 4 5 6 
#
# 1 0.029172 -0.011757 -0.002325 0.000000 0.000000 0.004291
# 2 -0.011757 0.029172 -0.002325 0.000000 0.000000 -0.004291
# 3 -0.002325 -0.002325 0.005281 0.000000 0.000000 0.000000
# 4 0.000000 0.000000 0.000000 0.032148 0.000000 0.000000
# 5 0.000000 0.000000 0.000000 0.000000 0.032148 0.000000
# 6 0.004291 -0.004291 0.000000 0.000000 0.000000 0.040618
#
#
# Mechanical properties :
#
#
# Convention : Reuss Voigt Hill
#
# Bulk Modulus (GPa) = 32.45647 51.03296 41.74472
# Shear Modulus (GPa) = 23.62703 32.63129 28.12916
#
# Velocity S-wave (km/s) = 3.19543 3.75527 3.48660
# Velocity P-wave (km/s) = 5.25745 6.39197 5.85227
#
# Compressibility (1/GPa) = 0.03081050
#
# Stress axis : x y z
#
# Youngs Moduli (GPa) = 34.27990 34.27990 189.35494
#
# Poissons Ratio (x) = 0.40305 0.44019
# Poissons Ratio (y) = 0.40305 0.44019
# Poissons Ratio (z) = 0.07969 0.07969
#
# Static dielectric constant tensor:
#      x y z
#    x 1.944990 0.000000 0.000000 
#    y 0.000000 1.944990 0.000000 
#    z 0.000000 0.000000 1.924610 
# 
# From -- ./inp_files/1536.got.cif
#   From: 2010.05.17/outbox.cif.g08.bks.cpg/sg82_1_cif.got.tgz:1536.got - 2010.06.03 18:52:26.
