data_PCOD9542259
_publ_section_title
;
Structure prediction by ZEFSAII (Michael W. Deem and Ramdas Pophale) SiO2 
 PCOD9542259
Probable space group: I 41
;
_chemical_formula_sum "Si O2"
_cell_formula_units_Z 60
_cell_length_a 18.221071
_cell_length_b 18.221071
_cell_length_c 7.984361
_cell_angle_alpha 90.000000
_cell_angle_beta 90.000000
_cell_angle_gamma 90.000000
_cell_volume 2650.867163
_symmetry_space_group_name_H-M "I 41"
_symmetry_group_IT_number 80
_symmetry_cell_setting 'tetragonal'
loop_
_space_group_symop_operation_xyz
x,y,z
-y,1/2+x,1/4+z
-x,-y,z
y,1/2-x,1/4+z
1/2+x,1/2+y,1/2+z
1/2-y,x,3/4+z
1/2-x,1/2-y,1/2+z
1/2+y,-x,3/4+z
loop_
_atom_site_type_symbol
_atom_site_label
_atom_site_fract_x
_atom_site_fract_y
_atom_site_fract_z
Si Si1 0.500000 0.000000 0.741791
Si Si2 0.892638 0.116501 0.160065
Si Si3 0.892085 0.979579 0.721902
Si Si4 0.733699 0.473609 0.731807
Si Si5 0.390888 0.962832 0.252332
Si Si6 0.373809 0.413307 0.897082
Si Si7 0.238998 0.498785 0.361442
Si Si8 0.662542 0.708507 0.623390
O O1 0.451003 0.942871 0.844121
O O2 0.545904 0.946623 0.618122
O O3 0.806763 0.097885 0.153421
O O4 0.905487 0.125452 0.357168
O O5 0.932842 0.185948 0.077942
O O6 0.933497 0.044314 0.619072
O O7 0.820038 0.014354 0.799027
O O8 0.865569 0.914899 0.598434
O O9 0.809952 0.471132 0.833763
O O10 0.670572 0.515742 0.833045
O O11 0.755525 0.515596 0.561850
O O12 0.414061 0.037152 0.151414
O O13 0.343470 0.351567 0.773831
O O14 0.213333 0.419515 0.297786
O O15 0.718393 0.687028 0.474843
#
# Coordination Sequence:
#
# PCOD9542259 Si02
#       8
#     4   8   8   8   8   8   8   8
#     4  12  24  38  70 100 130 172 232 288 332 392
#     4  11  23  42  72  93 131 183 229 276 339 410
#     4  12  26  41  66 104 141 173 229 294 343 398
#     4  11  22  42  74  95 129 177 234 273 338 412
#     4  11  23  42  68 102 132 173 229 283 340 404
#     4  12  21  43  68  97 133 181 225 280 329 411
#     4  11  26  45  67 100 139 176 231 284 346 407
#     4  12  27  46  66 101 144 192 230 277 349 423
#
# _framework density 22.634101999999999
#
# number of rings (size 3 to 8) (size 9 to 14) (size 15 to 20)
#    0.000    0.533    8.000    0.800    3.733    1.067 
#    2.400    0.000   11.733    0.000    0.000    0.000 
#    0.000    0.000    0.000    0.000    0.000    0.000 
#
# Total GULP energy -167237.584380 kJ/mol
# GULP energy per Si atom -5574.586146 kJ/mol
# Density = 2.258259 g / cm^3
# Si number density = 22.634102 Si / 1000 Ang^3
#
#
#
# Elastic Constant Matrix: (Units=GPa)
#
#
# Indices 1 2 3 4 5 6 
#
# 1 99.1619 37.7935 7.4580 0.0000 0.0000 -1.2404
# 2 37.7935 99.1619 7.4580 0.0000 0.0000 1.2404
# 3 7.4580 7.4580 33.2600 0.0000 0.0000 0.0000
# 4 0.0000 0.0000 0.0000 28.1002 0.0000 0.0000
# 5 0.0000 0.0000 0.0000 0.0000 28.1002 0.0000
# 6 -1.2404 1.2404 0.0000 0.0000 0.0000 27.0737
#
#
#
# Elastic Compliance Matrix: (Units=1/GPa)
#
#
# Indices 1 2 3 4 5 6 
#
# 1 0.011905 -0.004420 -0.001678 0.000000 0.000000 0.000748
# 2 -0.004420 0.011905 -0.001678 0.000000 0.000000 -0.000748
# 3 -0.001678 -0.001678 0.030819 0.000000 0.000000 0.000000
# 4 0.000000 0.000000 0.000000 0.035587 0.000000 0.000000
# 5 0.000000 0.000000 0.000000 0.000000 0.035587 0.000000
# 6 0.000748 -0.000748 0.000000 0.000000 0.000000 0.037005
#
#
# Mechanical properties :
#
#
# Convention : Reuss Voigt Hill
#
# Bulk Modulus (GPa) = 25.59210 37.44477 31.51843
# Shear Modulus (GPa) = 26.12522 28.57975 27.35249
#
# Velocity S-wave (km/s) = 3.40110 3.55728 3.48007
# Velocity P-wave (km/s) = 5.17250 5.78375 5.48664
#
# Compressibility (1/GPa) = 0.03907456
#
# Stress axis : x y z
#
# Youngs Moduli (GPa) = 83.99937 83.99937 32.44777
#
# Poissons Ratio (x) = 0.37131 0.05446
# Poissons Ratio (y) = 0.37131 0.05446
# Poissons Ratio (z) = 0.14097 0.14097
#
# Static dielectric constant tensor:
#      x y z
#    x 1.910400 0.000000 0.000000 
#    y 0.000000 1.910400 0.000000 
#    z 0.000000 0.000000 1.902440 
# 
# From -- ./inp_files/750.got.cif
#   From: 2010.05.17/outbox.cif.g08.bks.cpg/sg80_cif.got.tgz:750.got - 2010.06.03 18:49:13.
