data_PCOD9542142
_publ_section_title
;
Structure prediction by ZEFSAII (Michael W. Deem and Ramdas Pophale) SiO2 
 PCOD9542142
Probable space group: I 41
;
_chemical_formula_sum "Si O2"
_cell_formula_units_Z 48
_cell_length_a 14.131395
_cell_length_b 14.131395
_cell_length_c 15.163035
_cell_angle_alpha 90.000000
_cell_angle_beta 90.000000
_cell_angle_gamma 90.000000
_cell_volume 3028.002360
_symmetry_space_group_name_H-M "I 41"
_symmetry_group_IT_number 80
_symmetry_cell_setting 'tetragonal'
loop_
_space_group_symop_operation_xyz
x,y,z
-y,1/2+x,1/4+z
-x,-y,z
y,1/2-x,1/4+z
1/2+x,1/2+y,1/2+z
1/2-y,x,3/4+z
1/2-x,1/2-y,1/2+z
1/2+y,-x,3/4+z
loop_
_atom_site_type_symbol
_atom_site_label
_atom_site_fract_x
_atom_site_fract_y
_atom_site_fract_z
Si Si1 0.671998 0.405126 0.711040
Si Si2 0.130260 0.489977 0.723337
Si Si3 0.194495 0.805505 0.027037
Si Si4 0.171998 0.594873 0.093035
Si Si5 0.000000 0.500000 0.558301
Si Si6 0.000000 0.500000 0.995773
Si Si7 0.510023 0.869740 0.330737
O O1 0.764774 0.470269 0.719377
O O2 0.662717 0.365017 0.611974
O O3 0.681008 0.307485 0.766340
O O4 0.585515 0.465391 0.748054
O O5 0.085727 0.478353 0.626310
O O6 0.069797 0.569798 0.777037
O O7 0.105841 0.394160 0.777037
O O8 0.181008 0.692515 0.037735
O O9 0.134983 0.837282 0.942101
O O10 0.085515 0.534609 0.056021
O O11 0.264774 0.529731 0.084698
O O12 0.978353 0.585727 0.927765
#
# Coordination Sequence:
#
# PCOD9542142 Si02
#       7
#     8   8   8   8   4   4   8
#     4  11  19  36  54  86 114 142 193 230 284 329
#     4   9  19  31  52  85 115 144 178 229 290 332
#     4  10  22  31  59  82 110 152 180 242 270 325
#     4  11  19  36  54  86 114 142 193 230 284 329
#     4  10  21  33  56  82 114 150 178 233 287 332
#     4  10  21  33  56  82 114 150 178 233 287 332
#     4   9  19  31  52  85 115 144 178 229 290 332
#
# _framework density 15.852034
#
# number of rings (size 3 to 8) (size 9 to 14) (size 15 to 20)
#    0.000    2.333    5.000    0.000    0.000    6.000 
#    0.000    0.000    0.000    8.000    0.000    0.000 
#    0.000    0.000    0.000    0.000    0.000    0.000 
#
# Total GULP energy -133645.110867 kJ/mol
# GULP energy per Si atom -5568.546286 kJ/mol
# Density = 1.581595 g / cm^3
# Si number density = 15.852034 Si / 1000 Ang^3
#
#
#
# Elastic Constant Matrix: (Units=GPa)
#
#
# Indices 1 2 3 4 5 6 
#
# 1 116.7519 81.1829 62.2833 0.0000 0.0000 0.0001
# 2 81.1829 116.7519 62.2833 0.0000 0.0000 -0.0001
# 3 62.2833 62.2833 90.9562 0.0000 0.0000 0.0000
# 4 0.0000 0.0000 0.0000 13.2724 0.0000 0.0000
# 5 0.0000 0.0000 0.0000 0.0000 13.2724 0.0000
# 6 0.0001 -0.0001 0.0000 0.0000 0.0000 25.1574
#
#
#
# Elastic Compliance Matrix: (Units=1/GPa)
#
#
# Indices 1 2 3 4 5 6 
#
# 1 0.018496 -0.009618 -0.006079 0.000000 0.000000 0.000000
# 2 -0.009618 0.018496 -0.006079 0.000000 0.000000 0.000000
# 3 -0.006079 -0.006079 0.019320 0.000000 0.000000 0.000000
# 4 0.000000 0.000000 0.000000 0.075344 0.000000 0.000000
# 5 0.000000 0.000000 0.000000 0.000000 0.075344 0.000000
# 6 0.000000 0.000000 0.000000 0.000000 0.000000 0.039750
#
#
# Mechanical properties :
#
#
# Convention : Reuss Voigt Hill
#
# Bulk Modulus (GPa) = 78.37707 81.77323 80.07515
# Shear Modulus (GPa) = 16.97460 18.25448 17.61454
#
# Velocity S-wave (km/s) = 3.27588 3.39714 3.33706
# Velocity P-wave (km/s) = 7.99117 8.19053 8.09146
#
# Compressibility (1/GPa) = 0.01275883
#
# Stress axis : x y z
#
# Youngs Moduli (GPa) = 54.06509 54.06509 51.75934
#
# Poissons Ratio (x) = 0.52000 0.31467
# Poissons Ratio (y) = 0.52000 0.31467
# Poissons Ratio (z) = 0.32868 0.32868
#
# Static dielectric constant tensor:
#      x y z
#    x 1.517310 0.000000 0.000000 
#    y 0.000000 1.517310 0.000000 
#    z 0.000000 0.000000 1.553140 
# 
# From -- ./inp_files/1312.got.cif
#   From: 2010.05.17/outbox.cif.g08.bks.cpg/sg80_cif.got.tgz:1312.got - 2010.06.03 18:49:13.
