data_PCOD9542620
_publ_section_title
;
Structure prediction by ZEFSAII (Michael W. Deem and Ramdas Pophale) SiO2 
 PCOD9542620
Probable space group: I -4 
;
_chemical_formula_sum "Si O2"
_cell_formula_units_Z 48
_cell_length_a 16.991109
_cell_length_b 16.991109
_cell_length_c 7.373215
_cell_angle_alpha 90.000000
_cell_angle_beta 90.000000
_cell_angle_gamma 90.000000
_cell_volume 2128.630839
_symmetry_space_group_name_H-M "I -4 "
_symmetry_group_IT_number 82
_symmetry_cell_setting 'tetragonal'
loop_
_space_group_symop_operation_xyz
x,y,z
y,-x,-z
-x,-y,z
-y,x,-z
1/2+x,1/2+y,1/2+z
1/2+y,1/2-x,1/2-z
1/2-x,1/2-y,1/2+z
1/2-y,1/2+x,1/2-z
loop_
_atom_site_type_symbol
_atom_site_label
_atom_site_fract_x
_atom_site_fract_y
_atom_site_fract_z
Si Si1 0.214611 0.946228 0.355693
Si Si2 0.329541 0.723127 0.890617
Si Si3 0.818718 0.669724 0.753143
Si Si4 0.459672 0.225455 0.766214
Si Si5 0.673118 0.895090 0.888193
Si Si6 0.869432 0.015273 0.011750
O O1 0.164811 0.869907 0.426340
O O2 0.242602 0.987483 0.537678
O O3 0.064587 0.916501 0.032022
O O4 0.200382 0.958416 0.872302
O O5 0.236753 0.734440 0.844529
O O6 0.213773 0.596945 0.747059
O O7 0.348374 0.780612 0.055938
O O8 0.840382 0.518949 0.310394
O O9 0.824824 0.602433 0.604100
O O10 0.668316 0.495786 0.710346
O O11 0.676209 0.118430 0.681587
O O12 0.625902 0.255901 0.706378
#
# Coordination Sequence:
#
# PCOD9542620 Si02
#       6
#     8   8   8   8   8   8
#     4   9  21  38  60  96 129 164 220 273 332 394
#     4  10  17  33  62  90 123 160 219 275 324 385
#     4   9  17  33  59  92 124 162 215 276 325 380
#     4  11  25  43  65  96 134 173 228 280 340 409
#     4  11  23  39  62  95 127 176 220 277 342 401
#     4  11  25  44  66  95 138 183 219 271 348 420
#
# _framework density 22.549707000000001
#
# number of rings (size 3 to 8) (size 9 to 14) (size 15 to 20)
#    1.000    0.833    1.667    2.000    0.000    8.333 
#    0.000    1.667    0.000    0.000    0.000    4.667 
#    0.000    0.000    0.000    0.000    0.000    0.000 
#
# Total GULP energy -133802.642814 kJ/mol
# GULP energy per Si atom -5575.110117 kJ/mol
# Density = 2.249838 g / cm^3
# Si number density = 22.549707 Si / 1000 Ang^3
#
#
#
# Elastic Constant Matrix: (Units=GPa)
#
#
# Indices 1 2 3 4 5 6 
#
# 1 66.0942 10.3741 19.6340 0.0000 0.0000 -8.4304
# 2 10.3741 66.0942 19.6340 0.0000 0.0000 8.4304
# 3 19.6340 19.6340 91.4506 0.0000 0.0000 0.0000
# 4 0.0000 0.0000 0.0000 30.4528 0.0000 0.0000
# 5 0.0000 0.0000 0.0000 0.0000 30.4528 0.0000
# 6 -8.4304 8.4304 0.0000 0.0000 0.0000 27.5325
#
#
#
# Elastic Compliance Matrix: (Units=1/GPa)
#
#
# Indices 1 2 3 4 5 6 
#
# 1 0.017239 -0.002541 -0.003156 0.000000 0.000000 0.006056
# 2 -0.002541 0.017239 -0.003156 0.000000 0.000000 -0.006056
# 3 -0.003156 -0.003156 0.012290 0.000000 0.000000 0.000000
# 4 0.000000 0.000000 0.000000 0.032838 0.000000 0.000000
# 5 0.000000 0.000000 0.000000 0.000000 0.032838 0.000000
# 6 0.006056 -0.006056 0.000000 0.000000 0.000000 0.040030
#
#
# Mechanical properties :
#
#
# Convention : Reuss Voigt Hill
#
# Bulk Modulus (GPa) = 34.40781 35.88036 35.14408
# Shear Modulus (GPa) = 27.79882 29.28740 28.54311
#
# Velocity S-wave (km/s) = 3.51491 3.60779 3.56165
# Velocity P-wave (km/s) = 5.63600 5.77071 5.70375
#
# Compressibility (1/GPa) = 0.02906317
#
# Stress axis : x y z
#
# Youngs Moduli (GPa) = 58.00933 58.00933 81.36809
#
# Poissons Ratio (x) = 0.14739 0.25676
# Poissons Ratio (y) = 0.14739 0.25676
# Poissons Ratio (z) = 0.18305 0.18305
#
# Static dielectric constant tensor:
#      x y z
#    x 1.913460 0.000000 0.000000 
#    y 0.000000 1.913460 0.000000 
#    z 0.000000 0.000000 1.813850 
# 
# From -- ./inp_files/1200.got.cif
#   From: 2010.05.17/outbox.cif.g08.bks.cpg/sg82_1_cif.got.tgz:1200.got - 2010.06.03 18:52:26.
