data_PCOD9542448
_publ_section_title
;
Structure prediction by ZEFSAII (Michael W. Deem and Ramdas Pophale) SiO2 
 PCOD9542448
Probable space group: P -4
;
_chemical_formula_sum "Si O2"
_cell_formula_units_Z 24
_cell_length_a 13.427134
_cell_length_b 13.427134
_cell_length_c 5.903857
_cell_angle_alpha 90.000000
_cell_angle_beta 90.000000
_cell_angle_gamma 90.000000
_cell_volume 1064.394143
_symmetry_space_group_name_H-M "P -4"
_symmetry_group_IT_number 81
_symmetry_cell_setting 'tetragonal'
loop_
_space_group_symop_operation_xyz
x,y,z
y,-x,-z
-x,-y,z
-y,x,-z
loop_
_atom_site_type_symbol
_atom_site_label
_atom_site_fract_x
_atom_site_fract_y
_atom_site_fract_z
Si Si1 0.500000 0.000000 0.975871
Si Si2 0.242266 0.268376 0.414696
Si Si3 0.548000 0.182444 0.308504
Si Si4 0.390712 0.138691 0.674121
Si Si5 0.394020 0.309586 0.036888
Si Si6 0.500000 0.500000 0.000000
Si Si7 0.000000 0.000000 0.000000
Si Si8 0.922715 0.880026 0.379274
O O1 0.540059 0.089461 0.135965
O O2 0.409184 0.038859 0.817636
O O3 0.224017 0.345126 0.619436
O O4 0.308518 0.171603 0.488820
O O5 0.299175 0.321900 0.204887
O O6 0.135173 0.221718 0.361960
O O7 0.494247 0.150925 0.540707
O O8 0.480431 0.268879 0.202372
O O9 0.374891 0.221930 0.863657
O O10 0.441766 0.403389 0.904323
O O11 0.061198 0.921475 0.854510
O O12 0.039645 0.875601 0.445043
#
# Coordination Sequence:
#
# PCOD9542448 Si02
#       8
#     2   4   4   4   4   1   1   4
#     4  10  22  42  68  90 122 168 204 250 320 366
#     4  11  23  40  64  93 123 159 205 256 308 365
#     4  10  22  41  62  91 126 162 207 256 306 364
#     4  10  22  42  61  91 128 159 208 258 298 371
#     4  10  23  38  61  91 122 165 209 249 306 361
#     4  12  20  40  62  84 124 166 204 252 298 360
#     4   8  18  44  64  86 124 156 198 252 304 370
#     4   9  21  40  61  87 118 156 200 250 308 365
#
# _framework density 22.548041000000001
#
# number of rings (size 3 to 8) (size 9 to 14) (size 15 to 20)
#    0.000    2.167    0.000    2.500    0.000   10.667 
#    0.000   10.000    0.000    0.000    0.000    0.000 
#    0.000    0.000    0.000    0.000    0.000    0.000 
#
# Total GULP energy -133686.745165 kJ/mol
# GULP energy per Si atom -5570.281049 kJ/mol
# Density = 2.249672 g / cm^3
# Si number density = 22.548041 Si / 1000 Ang^3
#
#
#
# Elastic Constant Matrix: (Units=GPa)
#
#
# Indices 1 2 3 4 5 6 
#
# 1 60.0933 32.1717 6.2676 0.0000 0.0000 3.8714
# 2 32.1717 60.0933 6.2676 0.0000 0.0000 -3.8714
# 3 6.2676 6.2676 64.0964 0.0000 0.0000 0.0000
# 4 0.0000 0.0000 0.0000 13.0962 0.0000 0.0000
# 5 0.0000 0.0000 0.0000 0.0000 13.0962 0.0000
# 6 3.8714 -3.8714 0.0000 0.0000 0.0000 35.0784
#
#
#
# Elastic Compliance Matrix: (Units=1/GPa)
#
#
# Indices 1 2 3 4 5 6 
#
# 1 0.023965 -0.012980 -0.001074 0.000000 0.000000 -0.004077
# 2 -0.012980 0.023965 -0.001074 0.000000 0.000000 0.004077
# 3 -0.001074 -0.001074 0.015812 0.000000 0.000000 0.000000
# 4 0.000000 0.000000 0.000000 0.076358 0.000000 0.000000
# 5 0.000000 0.000000 0.000000 0.000000 0.076358 0.000000
# 6 -0.004077 0.004077 0.000000 0.000000 0.000000 0.029408
#
#
# Mechanical properties :
#
#
# Convention : Reuss Voigt Hill
#
# Bulk Modulus (GPa) = 29.86523 30.41076 30.13800
# Shear Modulus (GPa) = 17.40443 21.55924 19.48183
#
# Velocity S-wave (km/s) = 2.78129 3.09552 2.94260
# Velocity P-wave (km/s) = 4.85675 5.12764 4.99403
#
# Compressibility (1/GPa) = 0.03348375
#
# Stress axis : x y z
#
# Youngs Moduli (GPa) = 41.72795 41.72795 63.24490
#
# Poissons Ratio (x) = 0.54165 0.06793
# Poissons Ratio (y) = 0.54165 0.06793
# Poissons Ratio (z) = 0.04482 0.04482
#
# Static dielectric constant tensor:
#      x y z
#    x 1.875180 0.000000 0.000000 
#    y 0.000000 1.875180 0.000000 
#    z 0.000000 0.000000 1.841420 
# 
# From -- ./inp_files/318.got.cif
#   From: 2010.05.17/outbox.cif.g08.bks.cpg/sg81_cif.got.tgz:318.got - 2010.06.03 18:51:07.
