data_PCOD9542660
_publ_section_title
;
Structure prediction by ZEFSAII (Michael W. Deem and Ramdas Pophale) SiO2 
 PCOD9542660
Probable space group: I -4 
;
_chemical_formula_sum "Si O2"
_cell_formula_units_Z 64
_cell_length_a 16.566228
_cell_length_b 16.566228
_cell_length_c 12.209862
_cell_angle_alpha 90.000000
_cell_angle_beta 90.000000
_cell_angle_gamma 90.000000
_cell_volume 3350.873430
_symmetry_space_group_name_H-M "I -4 "
_symmetry_group_IT_number 82
_symmetry_cell_setting 'tetragonal'
loop_
_space_group_symop_operation_xyz
x,y,z
y,-x,-z
-x,-y,z
-y,x,-z
1/2+x,1/2+y,1/2+z
1/2+y,1/2-x,1/2-z
1/2-x,1/2-y,1/2+z
1/2-y,1/2+x,1/2-z
loop_
_atom_site_type_symbol
_atom_site_label
_atom_site_fract_x
_atom_site_fract_y
_atom_site_fract_z
Si Si1 0.081101 0.095293 0.021934
Si Si2 0.013650 0.336307 0.785429
Si Si3 0.354316 0.282658 0.352041
Si Si4 0.870159 0.210362 0.796690
Si Si5 0.237714 0.142964 0.437149
Si Si6 0.564113 0.091693 0.816161
Si Si7 0.246463 0.319812 0.170363
Si Si8 0.958715 0.395711 0.566102
O O1 0.100442 0.170868 0.946527
O O2 0.141157 0.097412 0.124144
O O3 0.986424 0.096115 0.046821
O O4 0.081718 0.267128 0.780601
O O5 0.043064 0.390348 0.888053
O O6 0.928260 0.289805 0.801887
O O7 0.016566 0.388197 0.672714
O O8 0.292137 0.220691 0.407243
O O9 0.301607 0.338842 0.274197
O O10 0.870476 0.183479 0.669125
O O11 0.777014 0.230292 0.826931
O O12 0.207399 0.157289 0.558688
O O13 0.303634 0.072246 0.440755
O O14 0.490383 0.104767 0.730541
O O15 0.629636 0.163382 0.822485
O O16 0.526768 0.083559 0.939137
#
# Coordination Sequence:
#
# PCOD9542660 Si02
#       8
#     8   8   8   8   8   8   8   8
#     4  11  22  35  57  86 119 158 196 251 316 360
#     4  10  20  38  60  88 118 157 201 259 309 362
#     4  10  19  35  57  87 115 148 204 252 293 370
#     4  10  19  35  60  85 120 156 195 253 307 359
#     4   8  17  35  55  81 112 148 191 245 292 354
#     4  10  23  42  57  85 128 163 199 254 311 383
#     4  10  20  37  59  86 115 158 207 244 298 370
#     4   9  20  36  58  82 119 152 193 244 305 363
#
# _framework density 19.099499000000002
#
# number of rings (size 3 to 8) (size 9 to 14) (size 15 to 20)
#    0.000    2.250    2.500    0.750    0.000    4.250 
#    4.500    0.000    2.750    0.000    0.000    1.750 
#    0.000    0.000    0.000    0.000    0.000    0.000 
#
# Total GULP energy -178156.818024 kJ/mol
# GULP energy per Si atom -5567.400563 kJ/mol
# Density = 1.905603 g / cm^3
# Si number density = 19.099499 Si / 1000 Ang^3
#
#
#
# Elastic Constant Matrix: (Units=GPa)
#
#
# Indices 1 2 3 4 5 6 
#
# 1 54.3125 12.3362 11.2361 0.0000 0.0000 2.1366
# 2 12.3362 54.3125 11.2361 0.0000 0.0000 -2.1366
# 3 11.2361 11.2361 95.9255 0.0000 0.0000 0.0000
# 4 0.0000 0.0000 0.0000 24.8625 0.0000 0.0000
# 5 0.0000 0.0000 0.0000 0.0000 24.8625 0.0000
# 6 2.1366 -2.1366 0.0000 0.0000 0.0000 30.3559
#
#
#
# Elastic Compliance Matrix: (Units=1/GPa)
#
#
# Indices 1 2 3 4 5 6 
#
# 1 0.019808 -0.004187 -0.001830 0.000000 0.000000 -0.001689
# 2 -0.004187 0.019808 -0.001830 0.000000 0.000000 0.001689
# 3 -0.001830 -0.001830 0.010853 0.000000 0.000000 0.000000
# 4 0.000000 0.000000 0.000000 0.040221 0.000000 0.000000
# 5 0.000000 0.000000 0.000000 0.000000 0.040221 0.000000
# 6 -0.001689 0.001689 0.000000 0.000000 0.000000 0.033180
#
#
# Mechanical properties :
#
#
# Convention : Reuss Voigt Hill
#
# Bulk Modulus (GPa) = 28.75512 30.46302 29.60907
# Shear Modulus (GPa) = 26.12646 27.33234 26.72940
#
# Velocity S-wave (km/s) = 3.70254 3.78703 3.74502
# Velocity P-wave (km/s) = 5.77638 5.92506 5.85119
#
# Compressibility (1/GPa) = 0.03477641
#
# Stress axis : x y z
#
# Youngs Moduli (GPa) = 50.48479 50.48479 92.13693
#
# Poissons Ratio (x) = 0.21138 0.16859
# Poissons Ratio (y) = 0.21138 0.16859
# Poissons Ratio (z) = 0.09237 0.09237
#
# Static dielectric constant tensor:
#      x y z
#    x 1.680360 0.000000 0.000000 
#    y 0.000000 1.680360 0.000000 
#    z 0.000000 0.000000 1.701580 
# 
# From -- ./inp_files/1915.got.cif
#   From: 2010.05.17/outbox.cif.g08.bks.cpg/sg82_1_cif.got.tgz:1915.got - 2010.06.03 18:52:26.
