data_PCOD9542138
_publ_section_title
;
Structure prediction by ZEFSAII (Michael W. Deem and Ramdas Pophale) SiO2 
 PCOD9542138
Probable space group: I 41
;
_chemical_formula_sum "Si O2"
_cell_formula_units_Z 60
_cell_length_a 11.728562
_cell_length_b 11.728562
_cell_length_c 19.326335
_cell_angle_alpha 90.000000
_cell_angle_beta 90.000000
_cell_angle_gamma 90.000000
_cell_volume 2658.514536
_symmetry_space_group_name_H-M "I 41"
_symmetry_group_IT_number 80
_symmetry_cell_setting 'tetragonal'
loop_
_space_group_symop_operation_xyz
x,y,z
-y,1/2+x,1/4+z
-x,-y,z
y,1/2-x,1/4+z
1/2+x,1/2+y,1/2+z
1/2-y,x,3/4+z
1/2-x,1/2-y,1/2+z
1/2+y,-x,3/4+z
loop_
_atom_site_type_symbol
_atom_site_label
_atom_site_fract_x
_atom_site_fract_y
_atom_site_fract_z
Si Si1 0.500000 0.500000 0.800231
Si Si2 0.787147 0.267519 0.106267
Si Si3 0.371741 0.543234 0.120482
Si Si4 0.328646 0.328640 0.872180
Si Si5 0.003293 0.315816 0.025140
Si Si6 0.392336 0.423631 0.571407
Si Si7 0.247226 0.377144 0.024878
Si Si8 0.236355 0.579873 0.497780
O O1 0.405517 0.434424 0.846755
O O2 0.453924 0.604854 0.754664
O O3 0.663363 0.325998 0.110528
O O4 0.842668 0.254366 0.181235
O O5 0.882763 0.336281 0.062027
O O6 0.770196 0.150684 0.065888
O O7 0.500000 0.500000 0.126600
O O8 0.312150 0.511589 0.192803
O O9 0.317761 0.480746 0.055197
O O10 0.402454 0.210950 0.875410
O O11 0.232506 0.296026 0.816059
O O12 0.269523 0.357077 0.944329
O O13 0.048771 0.194957 0.052202
O O14 0.112774 0.394814 0.038794
O O15 0.500000 0.500000 0.592312
O O16 0.324377 0.474298 0.504276
#
# Coordination Sequence:
#
# PCOD9542138 Si02
#       8
#     4   8   8   8   8   8   8   8
#     4  10  26  44  72 102 148 206 244 314 376 458
#     4  12  26  48  74 112 144 196 248 314 378 452
#     4  12  29  48  73 108 147 194 242 309 371 460
#     4  10  24  43  68 106 142 195 254 298 380 448
#     4  11  25  46  76 105 144 192 252 308 374 444
#     4  10  20  44  69 109 147 190 246 318 377 428
#     4  11  25  46  72 103 143 191 249 307 372 454
#     4  11  26  44  74 109 152 195 256 316 379 448
#
# _framework density 22.568995000000001
#
# number of rings (size 3 to 8) (size 9 to 14) (size 15 to 20)
#    0.000    1.067    4.000    0.000    6.533    7.467 
#    1.200    0.000    0.000    0.000    0.000    0.000 
#    0.000    0.000    0.000    0.000    0.000    0.000 
#
# Total GULP energy -167701.520009 kJ/mol
# GULP energy per Si atom -5590.050667 kJ/mol
# Density = 2.251763 g / cm^3
# Si number density = 22.568995 Si / 1000 Ang^3
#
#
#
# Elastic Constant Matrix: (Units=GPa)
#
#
# Indices 1 2 3 4 5 6 
#
# 1 95.6550 26.8877 11.6960 0.0000 0.0000 0.2052
# 2 26.8877 95.6550 11.6960 0.0000 0.0000 -0.2052
# 3 11.6960 11.6960 57.9268 0.0000 0.0000 0.0000
# 4 0.0000 0.0000 0.0000 -0.7538 0.0000 0.0000
# 5 0.0000 0.0000 0.0000 0.0000 -0.7538 0.0000
# 6 0.2052 -0.2052 0.0000 0.0000 0.0000 19.7609
#
#
#
# Elastic Compliance Matrix: (Units=1/GPa)
#
#
# Indices 1 2 3 4 5 6 
#
# 1 0.011515 -0.003028 -0.001714 0.000000 0.000000 -0.000151
# 2 -0.003028 0.011515 -0.001714 0.000000 0.000000 0.000151
# 3 -0.001714 -0.001714 0.017955 0.000000 0.000000 0.000000
# 4 0.000000 0.000000 0.000000 -1.326567 0.000000 0.000000
# 5 0.000000 0.000000 0.000000 0.000000 -1.326568 0.000000
# 6 -0.000151 0.000151 0.000000 0.000000 0.000000 0.050608
#
#
# Mechanical properties :
#
#
# Convention : Reuss Voigt Hill
#
# Bulk Modulus (GPa) = 35.61835 38.86624 37.24229
# Shear Modulus (GPa) = -1.96907 16.91446 7.47270
#
# Velocity S-wave (km/s) = -0.93507 2.74059 1.82160
# Velocity P-wave (km/s) = 3.82759 5.22235 4.57839
#
# Compressibility (1/GPa) = 0.02807542
#
# Stress axis : x y z
#
# Youngs Moduli (GPa) = 86.84227 86.84227 55.69417
#
# Poissons Ratio (x) = 0.26292 0.09544
# Poissons Ratio (y) = 0.26292 0.09544
# Poissons Ratio (z) = 0.14882 0.14882
#
# Static dielectric constant tensor:
#      x y z
#    x 1.958190 0.000000 0.000000 
#    y 0.000000 1.958190 0.000000 
#    z 0.000000 0.000000 1.785840 
# 
# From -- ./inp_files/1848.got.cif
#   From: 2010.05.17/outbox.cif.g08.bks.cpg/sg80_cif.got.tgz:1848.got - 2010.06.03 18:49:13.
