data_PCOD9542911
_publ_section_title
;
Structure prediction by ZEFSAII (Michael W. Deem and Ramdas Pophale) SiO2 
 PCOD9542911
Probable space group: I -4 
;
_chemical_formula_sum "Si O2"
_cell_formula_units_Z 28
_cell_length_a 15.053972
_cell_length_b 15.053972
_cell_length_c 4.804088
_cell_angle_alpha 90.000000
_cell_angle_beta 90.000000
_cell_angle_gamma 90.000000
_cell_volume 1088.712381
_symmetry_space_group_name_H-M "I -4 "
_symmetry_group_IT_number 82
_symmetry_cell_setting 'tetragonal'
loop_
_space_group_symop_operation_xyz
x,y,z
y,-x,-z
-x,-y,z
-y,x,-z
1/2+x,1/2+y,1/2+z
1/2+y,1/2-x,1/2-z
1/2-x,1/2-y,1/2+z
1/2-y,1/2+x,1/2-z
loop_
_atom_site_type_symbol
_atom_site_label
_atom_site_fract_x
_atom_site_fract_y
_atom_site_fract_z
Si Si1 0.907072 0.248370 0.795511
Si Si2 0.181793 0.930738 0.932708
Si Si3 0.500000 0.000000 0.750000
Si Si4 0.500000 0.500000 0.500000
Si Si5 0.636183 0.867065 0.700142
O O1 0.867443 0.278465 0.502523
O O2 0.008183 0.211279 0.804672
O O3 0.850891 0.170179 0.941745
O O4 0.896108 0.331507 0.998196
O O5 0.091597 0.981395 0.831824
O O6 0.275304 0.917252 0.779525
O O7 0.428182 0.056800 0.583519
#
# Coordination Sequence:
#
# PCOD9542911 Si02
#       5
#     8   8   2   2   8
#     4  11  26  43  71 103 138 190 235 296 356 430
#     4  10  22  45  71 101 145 183 242 293 360 423
#     4  12  28  46  72 110 148 190 244 302 368 438
#     4   8  20  44  72 106 136 194 240 302 348 434
#     4  12  26  44  70 101 144 186 240 295 361 424
#
# _framework density 25.718454999999999
#
# number of rings (size 3 to 8) (size 9 to 14) (size 15 to 20)
#    0.000    1.143    2.857    1.714    4.000    3.429 
#    0.000    0.000    0.000   15.429    0.000    0.000 
#    0.000    0.000    0.000    0.000    0.000    0.000 
#
# Total GULP energy -78060.544301 kJ/mol
# GULP energy per Si atom -5575.753164 kJ/mol
# Density = 2.565992 g / cm^3
# Si number density = 25.718455 Si / 1000 Ang^3
#
#
#
# Elastic Constant Matrix: (Units=GPa)
#
#
# Indices 1 2 3 4 5 6 
#
# 1 150.9670 40.1798 24.3936 0.0000 0.0000 -18.8344
# 2 40.1798 150.9670 24.3936 0.0000 0.0000 18.8344
# 3 24.3936 24.3936 94.6184 0.0000 0.0000 0.0000
# 4 0.0000 0.0000 0.0000 0.4472 0.0000 0.0000
# 5 0.0000 0.0000 0.0000 0.0000 0.4472 0.0000
# 6 -18.8344 18.8344 0.0000 0.0000 0.0000 56.4727
#
#
#
# Elastic Compliance Matrix: (Units=1/GPa)
#
#
# Indices 1 2 3 4 5 6 
#
# 1 0.007890 -0.002290 -0.001444 0.000000 0.000000 0.003395
# 2 -0.002290 0.007890 -0.001444 0.000000 0.000000 -0.003395
# 3 -0.001444 -0.001444 0.011313 0.000000 0.000000 0.000000
# 4 0.000000 0.000000 0.000000 2.235899 0.000000 0.000000
# 5 0.000000 0.000000 0.000000 0.000000 2.235899 0.000000
# 6 0.003395 -0.003395 0.000000 0.000000 0.000000 0.019973
#
#
# Mechanical properties :
#
#
# Convention : Reuss Voigt Hill
#
# Bulk Modulus (GPa) = 59.74313 63.83182 61.78748
# Shear Modulus (GPa) = 1.10258 31.97912 16.54085
#
# Velocity S-wave (km/s) = 0.65547 3.53006 2.53879
# Velocity P-wave (km/s) = 4.88395 6.44115 5.71583
#
# Compressibility (1/GPa) = 0.01673833
#
# Stress axis : x y z
#
# Youngs Moduli (GPa) = 126.73569 126.73569 88.39227
#
# Poissons Ratio (x) = 0.29027 0.12762
# Poissons Ratio (y) = 0.29027 0.12762
# Poissons Ratio (z) = 0.18298 0.18298
#
# Static dielectric constant tensor:
#      x y z
#    x 2.076000 0.000000 0.000000 
#    y 0.000000 2.076000 0.000000 
#    z 0.000000 0.000000 1.915790 
# 
# From -- ./inp_files/138.got.cif
#   From: 2010.05.17/outbox.cif.g08.bks.cpg/sg82_1_cif.got.tgz:138.got - 2010.06.03 18:52:26.
