data_PCOD9542386
_publ_section_title
;
Structure prediction by ZEFSAII (Michael W. Deem and Ramdas Pophale) SiO2 
 PCOD9542386
Probable space group: P -4
;
_chemical_formula_sum "Si O2"
_cell_formula_units_Z 16
_cell_length_a 9.770496
_cell_length_b 9.770496
_cell_length_c 7.247374
_cell_angle_alpha 90.000000
_cell_angle_beta 90.000000
_cell_angle_gamma 90.000000
_cell_volume 691.853108
_symmetry_space_group_name_H-M "P -4"
_symmetry_group_IT_number 81
_symmetry_cell_setting 'tetragonal'
loop_
_space_group_symop_operation_xyz
x,y,z
y,-x,-z
-x,-y,z
-y,x,-z
loop_
_atom_site_type_symbol
_atom_site_label
_atom_site_fract_x
_atom_site_fract_y
_atom_site_fract_z
Si Si1 0.632582 0.673932 0.462478
Si Si2 0.342421 0.958023 0.194581
Si Si3 0.810390 0.764323 0.132910
Si Si4 0.027056 0.656052 0.386833
O O1 0.672298 0.531753 0.558109
O O2 0.669843 0.812820 0.570547
O O3 0.706191 0.681394 0.264646
O O4 0.300863 0.831998 0.066832
O O5 0.500000 0.000000 0.162556
O O6 0.326150 0.952360 0.415197
O O7 0.245214 0.954510 0.757247
O O8 0.753165 0.916527 0.131044
O O9 0.000000 0.500000 0.323588
#
# Coordination Sequence:
#
# PCOD9542386 Si02
#       4
#     4   4   4   4
#     4  10  21  39  71 112 145 190 256 310 374 453
#     4  10  25  45  68 107 144 190 245 301 381 445
#     4  11  23  45  72  99 147 194 239 313 363 456
#     4  10  20  42  72 100 141 195 242 303 376 440
#
# _framework density 23.126294000000001
#
# number of rings (size 3 to 8) (size 9 to 14) (size 15 to 20)
#    0.000    1.750    2.500    0.750    0.000    4.500 
#    0.000    5.000    0.000    0.000    0.000    0.000 
#    0.000    0.000    0.000    0.000    0.000    0.000 
#
# Total GULP energy -89551.933379 kJ/mol
# GULP energy per Si atom -5596.995836 kJ/mol
# Density = 2.307366 g / cm^3
# Si number density = 23.126294 Si / 1000 Ang^3
#
#
#
# Elastic Constant Matrix: (Units=GPa)
#
#
# Indices 1 2 3 4 5 6 
#
# 1 109.9800 46.7005 37.8970 0.0000 0.0000 -8.4252
# 2 46.7005 109.9800 37.8970 0.0000 0.0000 8.4252
# 3 37.8970 37.8970 119.3781 0.0000 0.0000 0.0000
# 4 0.0000 0.0000 0.0000 22.7492 0.0000 0.0000
# 5 0.0000 0.0000 0.0000 0.0000 22.7492 0.0000
# 6 -8.4252 8.4252 0.0000 0.0000 0.0000 45.7783
#
#
#
# Elastic Compliance Matrix: (Units=1/GPa)
#
#
# Indices 1 2 3 4 5 6 
#
# 1 0.012079 -0.004538 -0.002394 0.000000 0.000000 0.003058
# 2 -0.004538 0.012079 -0.002394 0.000000 0.000000 -0.003058
# 3 -0.002394 -0.002394 0.009897 0.000000 0.000000 0.000000
# 4 0.000000 0.000000 0.000000 0.043958 0.000000 0.000000
# 5 0.000000 0.000000 0.000000 0.000000 0.043958 0.000000
# 6 0.003058 -0.003058 0.000000 0.000000 0.000000 0.022970
#
#
# Mechanical properties :
#
#
# Convention : Reuss Voigt Hill
#
# Bulk Modulus (GPa) = 64.92490 64.92523 64.92507
# Shear Modulus (GPa) = 29.63397 32.71160 31.17278
#
# Velocity S-wave (km/s) = 3.58354 3.76503 3.67541
# Velocity P-wave (km/s) = 6.72736 6.85826 6.79313
#
# Compressibility (1/GPa) = 0.01540241
#
# Stress axis : x y z
#
# Youngs Moduli (GPa) = 82.78950 82.78950 101.04543
#
# Poissons Ratio (x) = 0.37574 0.24187
# Poissons Ratio (y) = 0.37574 0.24187
# Poissons Ratio (z) = 0.19817 0.19817
#
# Static dielectric constant tensor:
#      x y z
#    x 1.893400 0.000000 0.000000 
#    y 0.000000 1.893400 0.000000 
#    z 0.000000 0.000000 1.852210 
# 
# From -- ./inp_files/71.got.cif
#   From: 2010.05.17/outbox.cif.g08.bks.cpg/sg81_cif.got.tgz:71.got - 2010.06.03 18:51:07.
