data_PCOD9542824
_publ_section_title
;
Structure prediction by ZEFSAII (Michael W. Deem and Ramdas Pophale) SiO2 
 PCOD9542824
Probable space group: I -4 
;
_chemical_formula_sum "Si O2"
_cell_formula_units_Z 40
_cell_length_a 13.009760
_cell_length_b 13.009760
_cell_length_c 9.523118
_cell_angle_alpha 90.000000
_cell_angle_beta 90.000000
_cell_angle_gamma 90.000000
_cell_volume 1611.824436
_symmetry_space_group_name_H-M "I -4 "
_symmetry_group_IT_number 82
_symmetry_cell_setting 'tetragonal'
loop_
_space_group_symop_operation_xyz
x,y,z
y,-x,-z
-x,-y,z
-y,x,-z
1/2+x,1/2+y,1/2+z
1/2+y,1/2-x,1/2-z
1/2-x,1/2-y,1/2+z
1/2-y,1/2+x,1/2-z
loop_
_atom_site_type_symbol
_atom_site_label
_atom_site_fract_x
_atom_site_fract_y
_atom_site_fract_z
Si Si1 0.410125 0.719622 0.120927
Si Si2 0.547442 0.862825 0.670613
Si Si3 0.178810 0.815896 0.110976
Si Si4 0.506840 0.678184 0.826771
Si Si5 0.518307 0.217519 0.411060
O O1 0.293059 0.765086 0.119016
O O2 0.407602 0.594915 0.146485
O O3 0.463350 0.783352 0.246445
O O4 0.474160 0.726931 0.976477
O O5 0.620017 0.941511 0.746122
O O6 0.573749 0.750671 0.722590
O O7 0.528196 0.874455 0.506022
O O8 0.102351 0.832266 0.245026
O O9 0.195945 0.932694 0.065502
O O10 0.119497 0.750583 0.994040
#
# Coordination Sequence:
#
# PCOD9542824 Si02
#       5
#     8   8   8   8   8
#     4  12  25  42  65  97 133 174 223 280 344 413
#     4  10  21  40  65  91 123 169 222 275 335 404
#     4  11  24  42  64  94 130 172 225 281 337 411
#     4  11  23  40  64  92 134 176 217 274 345 404
#     4  11  23  40  66  93 128 173 221 273 337 411
#
# _framework density 24.816597999999999
#
# number of rings (size 3 to 8) (size 9 to 14) (size 15 to 20)
#    0.000    1.000    0.000    8.400    0.000    6.400 
#    0.000    0.000    0.000    2.400    0.000    0.000 
#    0.000    0.000    0.000    0.000    0.000    0.000 
#
# Total GULP energy -111459.422052 kJ/mol
# GULP energy per Si atom -5572.971103 kJ/mol
# Density = 2.476011 g / cm^3
# Si number density = 24.816598 Si / 1000 Ang^3
#
#
#
# Elastic Constant Matrix: (Units=GPa)
#
#
# Indices 1 2 3 4 5 6 
#
# 1 332.5652 -273.7336 20.4500 0.0000 0.0000 -191.5053
# 2 -273.7336 332.5652 20.4500 0.0000 0.0000 191.5053
# 3 20.4500 20.4500 195.2997 0.0000 0.0000 0.0000
# 4 0.0000 0.0000 0.0000 36.8675 0.0000 0.0000
# 5 0.0000 0.0000 0.0000 0.0000 36.8675 0.0000
# 6 -191.5053 191.5053 0.0000 0.0000 0.0000 153.4212
#
#
#
# Elastic Compliance Matrix: (Units=1/GPa)
#
#
# Indices 1 2 3 4 5 6 
#
# 1 0.013066 0.005266 -0.001920 0.000000 0.000000 0.009736
# 2 0.005266 0.013066 -0.001920 0.000000 0.000000 -0.009736
# 3 -0.001920 -0.001920 0.005522 0.000000 0.000000 0.000000
# 4 0.000000 0.000000 0.000000 0.027124 0.000000 0.000000
# 5 0.000000 0.000000 0.000000 0.000000 0.027124 0.000000
# 6 0.009736 -0.009736 0.000000 0.000000 0.000000 0.030823
#
#
# Mechanical properties :
#
#
# Convention : Reuss Voigt Hill
#
# Bulk Modulus (GPa) = 28.97848 43.86255 36.42052
# Shear Modulus (GPa) = 39.88077 118.31546 79.09812
#
# Velocity S-wave (km/s) = 4.01311 6.91227 5.65175
# Velocity P-wave (km/s) = 5.75985 9.02325 7.56951
#
# Compressibility (1/GPa) = 0.03450836
#
# Stress axis : x y z
#
# Youngs Moduli (GPa) = 76.53531 76.53531 181.08275
#
# Poissons Ratio (x) = -0.40306 0.34760
# Poissons Ratio (y) = -0.40306 0.34760
# Poissons Ratio (z) = 0.14692 0.14692
#
# Static dielectric constant tensor:
#      x y z
#    x 2.096840 0.000000 0.000000 
#    y 0.000000 2.096840 0.000000 
#    z 0.000000 0.000000 1.964240 
# 
# From -- ./inp_files/955.got.cif
#   From: 2010.05.17/outbox.cif.g08.bks.cpg/sg82_1_cif.got.tgz:955.got - 2010.06.03 18:52:26.
