data_PCOD9542477
_publ_section_title
;
Structure prediction by ZEFSAII (Michael W. Deem and Ramdas Pophale) SiO2 
 PCOD9542477
Probable space group: P -4
;
_chemical_formula_sum "Si O2"
_cell_formula_units_Z 12
_cell_length_a 5.142892
_cell_length_b 5.142892
_cell_length_c 18.020497
_cell_angle_alpha 90.000000
_cell_angle_beta 90.000000
_cell_angle_gamma 90.000000
_cell_volume 476.630218
_symmetry_space_group_name_H-M "P -4"
_symmetry_group_IT_number 81
_symmetry_cell_setting 'tetragonal'
loop_
_space_group_symop_operation_xyz
x,y,z
y,-x,-z
-x,-y,z
-y,x,-z
loop_
_atom_site_type_symbol
_atom_site_label
_atom_site_fract_x
_atom_site_fract_y
_atom_site_fract_z
Si Si1 0.500000 0.500000 0.000000
Si Si2 0.000000 0.500000 0.911297
Si Si3 0.500000 0.500000 0.500000
Si Si4 0.185226 0.247921 0.380020
Si Si5 0.248125 0.821624 0.781037
O O1 0.386490 0.762999 0.039577
O O2 0.177907 0.664585 0.854117
O O3 0.387343 0.281291 0.445865
O O4 0.320569 0.260335 0.298589
O O5 0.000000 0.500000 0.382120
O O6 0.000000 0.000000 0.388531
O O7 0.500000 0.000000 0.791415
O O8 0.000000 0.000000 0.770604
#
# Coordination Sequence:
#
# PCOD9542477 Si02
#       5
#     1   2   1   4   4
#     4  12  32  46  84 120 172 202 264 328 416 486
#     4  12  28  50  78 118 156 210 260 328 406 484
#     4  12  28  42  76 104 172 202 268 336 416 446
#     4  10  26  47  73 113 153 208 274 331 400 472
#     4  10  23  47  78 108 152 206 269 329 388 478
#
# _framework density 25.176753000000001
#
# number of rings (size 3 to 8) (size 9 to 14) (size 15 to 20)
#    0.000    1.333    0.000    2.000   11.667    9.333 
#    0.000    0.000    0.000    0.000    0.000    0.000 
#    0.000    0.000    0.000    0.000    0.000    0.000 
#
# Total GULP energy -67097.351323 kJ/mol
# GULP energy per Si atom -5591.445944 kJ/mol
# Density = 2.511945 g / cm^3
# Si number density = 25.176753 Si / 1000 Ang^3
#
#
#
# Elastic Constant Matrix: (Units=GPa)
#
#
# Indices 1 2 3 4 5 6 
#
# 1 148.2228 44.5474 42.6629 0.0000 0.0000 4.1773
# 2 44.5474 148.2228 42.6629 0.0000 0.0000 -4.1773
# 3 42.6629 42.6629 114.8936 0.0000 0.0000 0.0000
# 4 0.0000 0.0000 0.0000 28.5597 0.0000 0.0000
# 5 0.0000 0.0000 0.0000 0.0000 28.5597 0.0000
# 6 4.1773 -4.1773 0.0000 0.0000 0.0000 59.8507
#
#
#
# Elastic Compliance Matrix: (Units=1/GPa)
#
#
# Indices 1 2 3 4 5 6 
#
# 1 0.007954 -0.001746 -0.002305 0.000000 0.000000 -0.000677
# 2 -0.001746 0.007954 -0.002305 0.000000 0.000000 0.000677
# 3 -0.002305 -0.002305 0.010416 0.000000 0.000000 0.000000
# 4 0.000000 0.000000 0.000000 0.035014 0.000000 0.000000
# 5 0.000000 0.000000 0.000000 0.000000 0.035014 0.000000
# 6 -0.000677 0.000677 0.000000 0.000000 0.000000 0.016803
#
#
# Mechanical properties :
#
#
# Convention : Reuss Voigt Hill
#
# Bulk Modulus (GPa) = 73.47117 74.56506 74.01811
# Shear Modulus (GPa) = 38.34216 42.15840 40.25028
#
# Velocity S-wave (km/s) = 3.90669 4.09650 4.00272
# Velocity P-wave (km/s) = 7.04238 7.21499 7.12921
#
# Compressibility (1/GPa) = 0.01361078
#
# Stress axis : x y z
#
# Youngs Moduli (GPa) = 125.72378 125.72378 96.00972
#
# Poissons Ratio (x) = 0.21953 0.22131
# Poissons Ratio (y) = 0.21953 0.22131
# Poissons Ratio (z) = 0.28981 0.28981
#
# Static dielectric constant tensor:
#      x y z
#    x 2.003360 0.000000 0.000000 
#    y 0.000000 2.003360 0.000000 
#    z 0.000000 0.000000 2.158270 
# 
# From -- ./inp_files/1692.got.cif
#   From: 2010.05.17/outbox.cif.g08.bks.cpg/sg81_cif.got.tgz:1692.got - 2010.06.03 18:51:07.
