data_PCOD9542293
_publ_section_title
;
Structure prediction by ZEFSAII (Michael W. Deem and Ramdas Pophale) SiO2 
 PCOD9542293
Probable space group: I 41
;
_chemical_formula_sum "Si O2"
_cell_formula_units_Z 36
_cell_length_a 16.271981
_cell_length_b 16.271981
_cell_length_c 6.796399
_cell_angle_alpha 90.000000
_cell_angle_beta 90.000000
_cell_angle_gamma 90.000000
_cell_volume 1799.532623
_symmetry_space_group_name_H-M "I 41"
_symmetry_group_IT_number 80
_symmetry_cell_setting 'tetragonal'
loop_
_space_group_symop_operation_xyz
x,y,z
-y,1/2+x,1/4+z
-x,-y,z
y,1/2-x,1/4+z
1/2+x,1/2+y,1/2+z
1/2-y,x,3/4+z
1/2-x,1/2-y,1/2+z
1/2+y,-x,3/4+z
loop_
_atom_site_type_symbol
_atom_site_label
_atom_site_fract_x
_atom_site_fract_y
_atom_site_fract_z
Si Si1 0.910942 0.396380 0.627250
Si Si2 0.116422 0.053755 0.049174
Si Si3 0.366066 0.746845 0.376668
Si Si4 0.205068 0.488875 0.406181
Si Si5 0.500000 0.500000 0.207054
O O1 0.886762 0.305642 0.693339
O O2 0.831898 0.445618 0.557572
O O3 0.945250 0.444236 0.815715
O O4 0.979256 0.398729 0.454012
O O5 0.209786 0.047307 0.981101
O O6 0.061938 0.044176 0.854257
O O7 0.083642 0.138579 0.138377
O O8 0.322302 0.803230 0.545685
O O9 0.452976 0.715431 0.463312
#
# Coordination Sequence:
#
# PCOD9542293 Si02
#       5
#     8   8   8   8   4
#     4  12  23  45  71  99 133 182 231 279 350 413
#     4  12  25  45  69 102 137 178 234 282 342 421
#     4  12  24  41  67 104 140 178 225 296 358 405
#     4  12  24  44  68  99 140 179 231 287 336 421
#     4  12  20  46  70 100 132 184 228 268 354 410
#
# _framework density 20.005192999999998
#
# number of rings (size 3 to 8) (size 9 to 14) (size 15 to 20)
#    0.000    0.000    6.667    5.333    0.000    0.000 
#    0.000    4.444    0.000    0.000    0.000    0.000 
#    0.000    0.000    0.000    0.000    0.000    0.000 
#
# Total GULP energy -100673.047508 kJ/mol
# GULP energy per Si atom -5592.947084 kJ/mol
# Density = 1.995966 g / cm^3
# Si number density = 20.005193 Si / 1000 Ang^3
#
#
#
# Elastic Constant Matrix: (Units=GPa)
#
#
# Indices 1 2 3 4 5 6 
#
# 1 125.8611 1.0264 14.7458 0.0000 0.0000 17.6911
# 2 1.0264 125.8611 14.7458 0.0000 0.0000 -17.6911
# 3 14.7458 14.7458 65.6420 0.0000 0.0000 0.0000
# 4 0.0000 0.0000 0.0000 35.3385 0.0000 0.0000
# 5 0.0000 0.0000 0.0000 0.0000 35.3385 0.0000
# 6 17.6911 -17.6911 0.0000 0.0000 0.0000 39.6144
#
#
#
# Elastic Compliance Matrix: (Units=1/GPa)
#
#
# Indices 1 2 3 4 5 6 
#
# 1 0.008743 -0.000428 -0.001868 0.000000 0.000000 -0.004096
# 2 -0.000428 0.008743 -0.001868 0.000000 0.000000 0.004096
# 3 -0.001868 -0.001868 0.016073 0.000000 0.000000 0.000000
# 4 0.000000 0.000000 0.000000 0.028298 0.000000 0.000000
# 5 0.000000 0.000000 0.000000 0.000000 0.028298 0.000000
# 6 -0.004096 0.004096 0.000000 0.000000 0.000000 0.028902
#
#
# Mechanical properties :
#
#
# Convention : Reuss Voigt Hill
#
# Bulk Modulus (GPa) = 39.63217 42.04444 40.83831
# Shear Modulus (GPa) = 36.82000 41.18135 39.00068
#
# Velocity S-wave (km/s) = 4.29478 4.54203 4.42014
# Velocity P-wave (km/s) = 6.66690 6.96915 6.81970
#
# Compressibility (1/GPa) = 0.02523202
#
# Stress axis : x y z
#
# Youngs Moduli (GPa) = 114.37314 114.37314 62.21470
#
# Poissons Ratio (x) = 0.04897 0.11621
# Poissons Ratio (y) = 0.04897 0.11621
# Poissons Ratio (z) = 0.21364 0.21364
#
# Static dielectric constant tensor:
#      x y z
#    x 1.930550 0.000000 0.000000 
#    y 0.000000 1.930550 0.000000 
#    z 0.000000 0.000000 1.745930 
# 
# From -- ./inp_files/195.got.cif
#   From: 2010.05.17/outbox.cif.g08.bks.cpg/sg80_cif.got.tgz:195.got - 2010.06.03 18:49:13.
