data_PCOD9542785
_publ_section_title
;
Structure prediction by ZEFSAII (Michael W. Deem and Ramdas Pophale) SiO2 
 PCOD9542785
Probable space group: I -4 
;
_chemical_formula_sum "Si O2"
_cell_formula_units_Z 24
_cell_length_a 15.250715
_cell_length_b 15.250715
_cell_length_c 5.082233
_cell_angle_alpha 90.000000
_cell_angle_beta 90.000000
_cell_angle_gamma 90.000000
_cell_volume 1182.047645
_symmetry_space_group_name_H-M "I -4 "
_symmetry_group_IT_number 82
_symmetry_cell_setting 'tetragonal'
loop_
_space_group_symop_operation_xyz
x,y,z
y,-x,-z
-x,-y,z
-y,x,-z
1/2+x,1/2+y,1/2+z
1/2+y,1/2-x,1/2-z
1/2-x,1/2-y,1/2+z
1/2-y,1/2+x,1/2-z
loop_
_atom_site_type_symbol
_atom_site_label
_atom_site_fract_x
_atom_site_fract_y
_atom_site_fract_z
Si Si1 0.207568 0.142214 0.980689
Si Si2 0.876325 0.709161 0.249372
Si Si3 0.725612 0.939537 0.495095
O O1 0.129100 0.201683 0.082989
O O2 0.240221 0.074931 0.202921
O O3 0.290652 0.208116 0.938138
O O4 0.200386 0.094301 0.702288
O O5 0.855655 0.625858 0.062206
O O6 0.963130 0.701554 0.418893
#
# Coordination Sequence:
#
# PCOD9542785 Si02
#       3
#     8   8   8
#     4  10  21  36  58  83 111 157 187 224 291 341
#     4  10  21  39  59  82 118 145 197 225 296 336
#     4  10  22  33  60  85 110 152 186 241 274 352
#
# _framework density 20.303747999999999
#
# number of rings (size 3 to 8) (size 9 to 14) (size 15 to 20)
#    2.000    0.000    3.333    0.000    4.667    0.667 
#    0.000    0.000    0.000    6.000    0.000    0.000 
#    0.000    0.000    0.000    0.000    0.000    0.000 
#
# Total GULP energy -66836.633167 kJ/mol
# GULP energy per Si atom -5569.719431 kJ/mol
# Density = 2.025754 g / cm^3
# Si number density = 20.303748 Si / 1000 Ang^3
#
#
#
# Elastic Constant Matrix: (Units=GPa)
#
#
# Indices 1 2 3 4 5 6 
#
# 1 19.6882 19.9538 -6.9720 0.0000 0.0000 10.3641
# 2 19.9538 19.6882 -6.9720 0.0000 0.0000 -10.3641
# 3 -6.9720 -6.9720 77.6938 0.0000 0.0000 0.0000
# 4 0.0000 0.0000 0.0000 24.0181 0.0000 0.0000
# 5 0.0000 0.0000 0.0000 0.0000 24.0181 0.0000
# 6 10.3641 -10.3641 0.0000 0.0000 0.0000 7.1507
#
#
#
# Elastic Compliance Matrix: (Units=1/GPa)
#
#
# Indices 1 2 3 4 5 6 
#
# 1 -0.003473 0.029521 0.002337 0.000000 0.000000 0.047821
# 2 0.029521 -0.003473 0.002337 0.000000 0.000000 -0.047821
# 3 0.002337 0.002337 0.013291 0.000000 0.000000 0.000000
# 4 0.000000 0.000000 0.000000 0.041635 0.000000 0.000000
# 5 0.000000 0.000000 0.000000 0.000000 0.041635 0.000000
# 6 0.047821 -0.047821 0.000000 0.000000 0.000000 0.001226
#
#
# Mechanical properties :
#
#
# Convention : Reuss Voigt Hill
#
# Bulk Modulus (GPa) = 13.38036 14.34330 13.86183
# Shear Modulus (GPa) = 105.56987 18.44138 62.00563
#
# Velocity S-wave (km/s) = 7.21860 3.01703 5.53221
# Velocity P-wave (km/s) = 8.72250 4.38364 6.90283
#
# Compressibility (1/GPa) = 0.07473640
#
# Stress axis : x y z
#
# Youngs Moduli (GPa) = -287.95292 -287.95292 75.24135
#
# Poissons Ratio (x) = 8.50059 -0.17587
# Poissons Ratio (y) = 8.50059 -0.17587
# Poissons Ratio (z) = 0.67308 0.67308
#
# Static dielectric constant tensor:
#      x y z
#    x 1.734930 0.000000 0.000000 
#    y 0.000000 1.734930 0.000000 
#    z 0.000000 0.000000 1.770440 
# 
# From -- ./inp_files/73.got.cif
#   From: 2010.05.17/outbox.cif.g08.bks.cpg/sg82_1_cif.got.tgz:73.got - 2010.06.03 18:52:26.
