data_PCOD9542656
_publ_section_title
;
Structure prediction by ZEFSAII (Michael W. Deem and Ramdas Pophale) SiO2 
 PCOD9542656
Probable space group: I -4 
;
_chemical_formula_sum "Si O2"
_cell_formula_units_Z 64
_cell_length_a 16.960366
_cell_length_b 16.960366
_cell_length_c 12.711871
_cell_angle_alpha 90.000000
_cell_angle_beta 90.000000
_cell_angle_gamma 90.000000
_cell_volume 3656.620729
_symmetry_space_group_name_H-M "I -4 "
_symmetry_group_IT_number 82
_symmetry_cell_setting 'tetragonal'
loop_
_space_group_symop_operation_xyz
x,y,z
y,-x,-z
-x,-y,z
-y,x,-z
1/2+x,1/2+y,1/2+z
1/2+y,1/2-x,1/2-z
1/2-x,1/2-y,1/2+z
1/2-y,1/2+x,1/2-z
loop_
_atom_site_type_symbol
_atom_site_label
_atom_site_fract_x
_atom_site_fract_y
_atom_site_fract_z
Si Si1 0.345558 0.146284 0.842720
Si Si2 0.630048 0.515244 0.258460
Si Si3 0.332540 0.305740 0.269803
Si Si4 0.762405 0.172033 0.465724
Si Si5 0.246438 0.853350 0.003858
Si Si6 0.076942 0.084908 0.055452
Si Si7 0.969168 0.696487 0.164377
Si Si8 0.599834 0.441369 0.036252
O O1 0.260435 0.174225 0.793894
O O2 0.414361 0.168689 0.760860
O O3 0.347104 0.051757 0.852739
O O4 0.351454 0.190860 0.955471
O O5 0.623230 0.609452 0.265469
O O6 0.575936 0.457677 0.328136
O O7 0.715185 0.495218 0.306452
O O8 0.626161 0.486404 0.140207
O O9 0.341489 0.259710 0.159976
O O10 0.363461 0.258835 0.371096
O O11 0.774272 0.265318 0.480162
O O12 0.838313 0.124376 0.505654
O O13 0.156090 0.862747 0.960910
O O14 0.297724 0.916060 0.939969
O O15 0.998225 0.106339 0.988209
O O16 0.511869 0.407238 0.048667
#
# Coordination Sequence:
#
# PCOD9542656 Si02
#       8
#     8   8   8   8   8   8   8   8
#     4  10  21  36  62  88 116 158 200 255 301 349
#     4  10  19  35  54  79 121 153 189 244 293 357
#     4  10  19  36  60  82 119 161 196 236 298 371
#     4  11  21  37  59  84 116 162 199 244 304 362
#     4  10  21  35  57  86 114 162 198 247 299 357
#     4  10  20  32  52  82 119 154 198 242 301 358
#     4  10  20  37  60  88 117 149 203 255 301 348
#     4  11  23  35  55  83 116 158 199 238 300 372
#
# _framework density 17.502499
#
# number of rings (size 3 to 8) (size 9 to 14) (size 15 to 20)
#    0.000    1.750    5.000    0.000    1.750    3.250 
#    0.000    0.000    5.500    0.000    0.000    0.000 
#    0.000    0.000    0.000    0.000    0.000    0.000 
#
# Total GULP energy -178393.963419 kJ/mol
# GULP energy per Si atom -5574.811357 kJ/mol
# Density = 1.746266 g / cm^3
# Si number density = 17.502499 Si / 1000 Ang^3
#
#
#
# Elastic Constant Matrix: (Units=GPa)
#
#
# Indices 1 2 3 4 5 6 
#
# 1 67.3660 32.5074 38.6043 0.0000 0.0000 1.2407
# 2 32.5074 67.3660 38.6043 0.0000 0.0000 -1.2407
# 3 38.6043 38.6043 140.6691 0.0000 0.0000 0.0000
# 4 0.0000 0.0000 0.0000 21.7607 0.0000 0.0000
# 5 0.0000 0.0000 0.0000 0.0000 21.7607 0.0000
# 6 1.2407 -1.2407 0.0000 0.0000 0.0000 29.3554
#
#
#
# Elastic Compliance Matrix: (Units=1/GPa)
#
#
# Indices 1 2 3 4 5 6 
#
# 1 0.020741 -0.008032 -0.003488 0.000000 0.000000 -0.001216
# 2 -0.008032 0.020741 -0.003488 0.000000 0.000000 0.001216
# 3 -0.003488 -0.003488 0.009023 0.000000 0.000000 0.000000
# 4 0.000000 0.000000 0.000000 0.045954 0.000000 0.000000
# 5 0.000000 0.000000 0.000000 0.000000 0.045954 0.000000
# 6 -0.001216 0.001216 0.000000 0.000000 0.000000 0.034168
#
#
# Mechanical properties :
#
#
# Convention : Reuss Voigt Hill
#
# Bulk Modulus (GPa) = 48.80421 54.98147 51.89284
# Shear Modulus (GPa) = 23.42701 25.62103 24.52402
#
# Velocity S-wave (km/s) = 3.66251 3.83018 3.74728
# Velocity P-wave (km/s) = 6.76979 7.14437 6.95960
#
# Compressibility (1/GPa) = 0.02049004
#
# Stress axis : x y z
#
# Youngs Moduli (GPa) = 48.21268 48.21268 110.82545
#
# Poissons Ratio (x) = 0.38727 0.38653
# Poissons Ratio (y) = 0.38727 0.38653
# Poissons Ratio (z) = 0.16815 0.16815
#
# Static dielectric constant tensor:
#      x y z
#    x 1.602160 0.000000 0.000000 
#    y 0.000000 1.602160 0.000000 
#    z 0.000000 0.000000 1.632370 
# 
# From -- ./inp_files/1900.got.cif
#   From: 2010.05.17/outbox.cif.g08.bks.cpg/sg82_1_cif.got.tgz:1900.got - 2010.06.03 18:52:26.
