data_PCOD9542652
_publ_section_title
;
Structure prediction by ZEFSAII (Michael W. Deem and Ramdas Pophale) SiO2 
 PCOD9542652
Probable space group: I -4 
;
_chemical_formula_sum "Si O2"
_cell_formula_units_Z 26
_cell_length_a 7.853332
_cell_length_b 7.853332
_cell_length_c 20.836005
_cell_angle_alpha 90.000000
_cell_angle_beta 90.000000
_cell_angle_gamma 90.000000
_cell_volume 1285.056931
_symmetry_space_group_name_H-M "I -4 "
_symmetry_group_IT_number 82
_symmetry_cell_setting 'tetragonal'
loop_
_space_group_symop_operation_xyz
x,y,z
y,-x,-z
-x,-y,z
-y,x,-z
1/2+x,1/2+y,1/2+z
1/2+y,1/2-x,1/2-z
1/2-x,1/2-y,1/2+z
1/2-y,1/2+x,1/2-z
loop_
_atom_site_type_symbol
_atom_site_label
_atom_site_fract_x
_atom_site_fract_y
_atom_site_fract_z
Si Si1 0.500000 0.500000 0.000000
Si Si2 0.817804 0.920268 0.823015
Si Si3 0.148053 0.765123 0.323071
Si Si4 0.604562 0.289824 0.117939
O O1 0.346399 0.442663 0.953753
O O2 0.754355 0.853470 0.753841
O O3 0.834211 0.762147 0.871271
O O4 0.704558 0.079393 0.846689
O O5 0.000000 0.000000 0.809291
O O6 0.962669 0.817280 0.349716
O O7 0.257157 0.928830 0.346203
#
# Coordination Sequence:
#
# PCOD9542652 Si02
#       4
#     2   8   8   8
#     4   8  20  44  64  76 120 168 224 246 284 380
#     4  12  20  33  60  96 128 155 198 258 327 371
#     4  10  19  34  57  93 124 156 197 252 314 378
#     4  10  21  38  64  86 117 173 208 242 308 377
#
# _framework density 20.232569000000002
#
# number of rings (size 3 to 8) (size 9 to 14) (size 15 to 20)
#    0.000    1.846    6.154    0.923    0.000    1.231 
#    0.000    3.077   54.154    0.000    0.000    0.000 
#    0.000    0.000    0.000    0.000    0.000    0.000 
#
# Total GULP energy -72473.535667 kJ/mol
# GULP energy per Si atom -5574.887359 kJ/mol
# Density = 2.018652 g / cm^3
# Si number density = 20.232569 Si / 1000 Ang^3
#
#
#
# Elastic Constant Matrix: (Units=GPa)
#
#
# Indices 1 2 3 4 5 6 
#
# 1 67.9868 31.1507 19.7852 0.0000 0.0000 -10.6802
# 2 31.1507 67.9868 19.7852 0.0000 0.0000 10.6802
# 3 19.7852 19.7852 82.9614 0.0000 0.0000 0.0000
# 4 0.0000 0.0000 0.0000 13.9725 0.0000 0.0000
# 5 0.0000 0.0000 0.0000 0.0000 13.9725 0.0000
# 6 -10.6802 10.6802 0.0000 0.0000 0.0000 15.4500
#
#
#
# Elastic Compliance Matrix: (Units=1/GPa)
#
#
# Indices 1 2 3 4 5 6 
#
# 1 0.028229 -0.017081 -0.002659 0.000000 0.000000 0.031322
# 2 -0.017081 0.028229 -0.002659 0.000000 0.000000 -0.031322
# 3 -0.002659 -0.002659 0.013322 0.000000 0.000000 0.000000
# 4 0.000000 0.000000 0.000000 0.071569 0.000000 0.000000
# 5 0.000000 0.000000 0.000000 0.000000 0.071569 0.000000
# 6 0.031322 -0.031322 0.000000 0.000000 0.000000 0.108029
#
#
# Mechanical properties :
#
#
# Convention : Reuss Voigt Hill
#
# Bulk Modulus (GPa) = 40.02635 40.04192 40.03413
# Shear Modulus (GPa) = 13.36641 18.55993 15.96317
#
# Velocity S-wave (km/s) = 2.57308 3.03203 2.81193
# Velocity P-wave (km/s) = 5.35292 5.66493 5.51113
#
# Compressibility (1/GPa) = 0.02498354
#
# Stress axis : x y z
#
# Youngs Moduli (GPa) = 35.42437 35.42437 75.06422
#
# Poissons Ratio (x) = 0.60508 0.19957
# Poissons Ratio (y) = 0.60508 0.19957
# Poissons Ratio (z) = 0.09418 0.09418
#
# Static dielectric constant tensor:
#      x y z
#    x 1.816170 0.000000 0.000000 
#    y 0.000000 1.816170 0.000000 
#    z 0.000000 0.000000 1.682000 
# 
# From -- ./inp_files/2423.got.cif
#   From: 2010.05.17/outbox.cif.g08.bks.cpg/sg82_2_cif.got.tgz:2423.got - 2010.06.03 18:52:26.
