data_PCOD9542573
_publ_section_title
;
Structure prediction by ZEFSAII (Michael W. Deem and Ramdas Pophale) SiO2 
 PCOD9542573
Probable space group: P -4
;
_chemical_formula_sum "Si O2"
_cell_formula_units_Z 20
_cell_length_a 8.179837
_cell_length_b 8.179837
_cell_length_c 12.273785
_cell_angle_alpha 90.000000
_cell_angle_beta 90.000000
_cell_angle_gamma 90.000000
_cell_volume 821.235682
_symmetry_space_group_name_H-M "P -4"
_symmetry_group_IT_number 81
_symmetry_cell_setting 'tetragonal'
loop_
_space_group_symop_operation_xyz
x,y,z
y,-x,-z
-x,-y,z
-y,x,-z
loop_
_atom_site_type_symbol
_atom_site_label
_atom_site_fract_x
_atom_site_fract_y
_atom_site_fract_z
Si Si1 0.833148 0.209811 0.662098
Si Si2 0.848960 0.221692 0.024447
Si Si3 0.902857 0.335128 0.431594
Si Si4 0.591085 0.673944 0.163499
Si Si5 0.270960 0.813138 0.248062
O O1 0.854868 0.325871 0.557421
O O2 0.692080 0.268258 0.744775
O O3 0.002148 0.217809 0.727993
O O4 0.799531 0.035163 0.607223
O O5 0.839776 0.261782 0.151910
O O6 0.737076 0.336673 0.950367
O O7 0.036355 0.218168 0.986971
O O8 0.748999 0.294443 0.356332
O O9 0.000000 0.500000 0.410920
O O10 0.500000 0.500000 0.157909
O O11 0.453284 0.800498 0.203840
#
# Coordination Sequence:
#
# PCOD9542573 Si02
#       5
#     4   4   4   4   4
#     4  12  25  49  78 110 160 211 273 326 407 497
#     4  11  26  48  79 111 151 210 274 331 394 489
#     4  12  26  47  76 114 154 213 273 332 405 494
#     4  12  28  51  77 115 164 211 262 346 423 478
#     4  12  26  46  75 114 156 207 264 336 397 487
#
# _framework density 24.353546999999999
#
# number of rings (size 3 to 8) (size 9 to 14) (size 15 to 20)
#    0.000    0.200    4.000    4.800    5.600    0.000 
#    0.000    0.000    0.000    0.000    0.000    0.000 
#    0.000    0.000    0.000    0.000    0.000    0.000 
#
# Total GULP energy -112104.127531 kJ/mol
# GULP energy per Si atom -5605.206377 kJ/mol
# Density = 2.429812 g / cm^3
# Si number density = 24.353547 Si / 1000 Ang^3
#
#
#
# Elastic Constant Matrix: (Units=GPa)
#
#
# Indices 1 2 3 4 5 6 
#
# 1 94.7982 25.5704 41.3921 0.0000 0.0000 -9.2026
# 2 25.5704 94.7982 41.3921 0.0000 0.0000 9.2026
# 3 41.3921 41.3921 154.7856 0.0000 0.0000 0.0000
# 4 0.0000 0.0000 0.0000 34.1665 0.0000 0.0000
# 5 0.0000 0.0000 0.0000 0.0000 34.1665 0.0000
# 6 -9.2026 9.2026 0.0000 0.0000 0.0000 45.3492
#
#
#
# Elastic Compliance Matrix: (Units=1/GPa)
#
#
# Indices 1 2 3 4 5 6 
#
# 1 0.012724 -0.002544 -0.002722 0.000000 0.000000 0.003098
# 2 -0.002544 0.012724 -0.002722 0.000000 0.000000 -0.003098
# 3 -0.002722 -0.002722 0.007917 0.000000 0.000000 0.000000
# 4 0.000000 0.000000 0.000000 0.029268 0.000000 0.000000
# 5 0.000000 0.000000 0.000000 0.000000 0.029268 0.000000
# 6 0.003098 -0.003098 0.000000 0.000000 0.000000 0.023309
#
#
# Mechanical properties :
#
#
# Convention : Reuss Voigt Hill
#
# Bulk Modulus (GPa) = 57.51269 62.34345 59.92807
# Shear Modulus (GPa) = 36.50038 38.47159 37.48598
#
# Velocity S-wave (km/s) = 3.87560 3.97887 3.92757
# Velocity P-wave (km/s) = 6.61014 6.83838 6.72523
#
# Compressibility (1/GPa) = 0.01738747
#
# Stress axis : x y z
#
# Youngs Moduli (GPa) = 78.58872 78.58872 126.31801
#
# Poissons Ratio (x) = 0.19996 0.34388
# Poissons Ratio (y) = 0.19996 0.34388
# Poissons Ratio (z) = 0.21394 0.21394
#
# Static dielectric constant tensor:
#      x y z
#    x 1.983850 0.000000 0.000000 
#    y 0.000000 1.983850 0.000000 
#    z 0.000000 0.000000 1.961050 
# 
# From -- ./inp_files/1214.got.cif
#   From: 2010.05.17/outbox.cif.g08.bks.cpg/sg81_cif.got.tgz:1214.got - 2010.06.03 18:51:07.
