data_PCOD9542438
_publ_section_title
;
Structure prediction by ZEFSAII (Michael W. Deem and Ramdas Pophale) SiO2 
 PCOD9542438
Probable space group: P -4
;
_chemical_formula_sum "Si O2"
_cell_formula_units_Z 17
_cell_length_a 8.066505
_cell_length_b 8.066505
_cell_length_c 11.852252
_cell_angle_alpha 90.000000
_cell_angle_beta 90.000000
_cell_angle_gamma 90.000000
_cell_volume 771.208294
_symmetry_space_group_name_H-M "P -4"
_symmetry_group_IT_number 81
_symmetry_cell_setting 'tetragonal'
loop_
_space_group_symop_operation_xyz
x,y,z
y,-x,-z
-x,-y,z
-y,x,-z
loop_
_atom_site_type_symbol
_atom_site_label
_atom_site_fract_x
_atom_site_fract_y
_atom_site_fract_z
Si Si1 0.554429 0.812207 0.348439
Si Si2 0.500000 0.500000 0.500000
Si Si3 0.383085 0.649452 0.147036
Si Si4 0.854625 0.604153 0.270035
Si Si5 0.129134 0.218524 0.034740
O O1 0.479341 0.667797 0.427810
O O2 0.479015 0.780890 0.224272
O O3 0.745378 0.742775 0.335572
O O4 0.500000 0.000000 0.380514
O O5 0.500000 0.500000 0.117343
O O6 0.254173 0.550617 0.225701
O O7 0.315452 0.737320 0.037414
O O8 0.910845 0.696998 0.153979
O O9 0.000000 0.500000 0.331010
O O10 0.966801 0.200055 0.956579
#
# Coordination Sequence:
#
# PCOD9542438 Si02
#       5
#     4   1   4   4   4
#     4  11  25  47  75  98 136 182 231 295 372 446
#     4  12  24  52  72 110 132 168 244 308 384 442
#     4  10  22  39  61  92 127 179 228 280 340 417
#     4  11  22  39  66  99 139 185 238 294 347 417
#     4  11  23  36  56  94 143 187 236 285 336 410
#
# _framework density 22.043330999999998
#
# number of rings (size 3 to 8) (size 9 to 14) (size 15 to 20)
#    0.000    1.176    5.882    1.412    6.588    1.882 
#    0.000    0.000    0.000    0.000    0.000    0.000 
#    0.000    0.000    0.000    0.000    0.000    0.000 
#
# Total GULP energy -94796.263317 kJ/mol
# GULP energy per Si atom -5576.250783 kJ/mol
# Density = 2.199316 g / cm^3
# Si number density = 22.043331 Si / 1000 Ang^3
#
#
#
# Elastic Constant Matrix: (Units=GPa)
#
#
# Indices 1 2 3 4 5 6 
#
# 1 132.1936 56.8181 30.8699 0.0000 0.0000 0.1713
# 2 56.8181 132.1936 30.8699 0.0000 0.0000 -0.1713
# 3 30.8699 30.8699 48.6744 0.0000 0.0000 0.0000
# 4 0.0000 0.0000 0.0000 59.2643 0.0000 0.0000
# 5 0.0000 0.0000 0.0000 0.0000 59.2643 0.0000
# 6 0.1713 -0.1713 0.0000 0.0000 0.0000 40.1303
#
#
#
# Elastic Compliance Matrix: (Units=1/GPa)
#
#
# Indices 1 2 3 4 5 6 
#
# 1 0.009970 -0.003297 -0.004232 0.000000 0.000000 -0.000057
# 2 -0.003297 0.009970 -0.004232 0.000000 0.000000 0.000057
# 3 -0.004232 -0.004232 0.025913 0.000000 0.000000 0.000000
# 4 0.000000 0.000000 0.000000 0.016874 0.000000 0.000000
# 5 0.000000 0.000000 0.000000 0.000000 0.016874 0.000000
# 6 -0.000057 0.000057 0.000000 0.000000 0.000000 0.024919
#
#
# Mechanical properties :
#
#
# Convention : Reuss Voigt Hill
#
# Bulk Modulus (GPa) = 44.78197 61.13084 52.95640
# Shear Modulus (GPa) = 36.90424 44.69871 40.80147
#
# Velocity S-wave (km/s) = 4.09610 4.50796 4.30695
# Velocity P-wave (km/s) = 6.53684 7.40864 6.98635
#
# Compressibility (1/GPa) = 0.02233042
#
# Stress axis : x y z
#
# Youngs Moduli (GPa) = 100.29962 100.29962 38.59081
#
# Poissons Ratio (x) = 0.33069 0.16332
# Poissons Ratio (y) = 0.33069 0.16332
# Poissons Ratio (z) = 0.42449 0.42449
#
# Static dielectric constant tensor:
#      x y z
#    x 1.071200 0.000000 0.000000 
#    y 0.000000 1.071200 0.000000 
#    z 0.000000 0.000000 1.830430 
# 
# From -- ./inp_files/1135.got.cif
#   From: 2010.05.17/outbox.cif.g08.bks.cpg/sg81_cif.got.tgz:1135.got - 2010.06.03 18:51:07.
