data_PCOD9542031
_publ_section_title
;
Structure prediction by ZEFSAII (Michael W. Deem and Ramdas Pophale) SiO2 
 PCOD9542031
Probable space group: I 4
;
_chemical_formula_sum "Si O2"
_cell_formula_units_Z 40
_cell_length_a 13.767656
_cell_length_b 13.767656
_cell_length_c 8.121614
_cell_angle_alpha 90.000000
_cell_angle_beta 90.000000
_cell_angle_gamma 90.000000
_cell_volume 1539.438547
_symmetry_space_group_name_H-M "I 4"
_symmetry_group_IT_number 79
_symmetry_cell_setting 'tetragonal'
loop_
_space_group_symop_operation_xyz
x,y,z
-y,x,z
-x,-y,z
y,-x,z
1/2+x,1/2+y,1/2+z
1/2-y,1/2+x,1/2+z
1/2-x,1/2-y,1/2+z
1/2+y,1/2-x,1/2+z
loop_
_atom_site_type_symbol
_atom_site_label
_atom_site_fract_x
_atom_site_fract_y
_atom_site_fract_z
Si Si1 0.126496 0.090513 0.487860
Si Si2 0.412182 0.628669 0.386948
Si Si3 0.417551 0.129498 0.622136
Si Si4 0.916335 0.626126 0.738165
Si Si5 0.747305 0.755500 0.063045
O O1 0.130295 0.085544 0.688205
O O2 0.211794 0.164975 0.449409
O O3 0.021275 0.130781 0.433250
O O4 0.369799 0.524162 0.439466
O O5 0.346504 0.710600 0.465031
O O6 0.519632 0.131145 0.715892
O O7 0.336015 0.207995 0.664785
O O8 0.376512 0.020764 0.649566
O O9 0.437181 0.142711 0.428921
O O10 0.846639 0.706409 0.660058
#
# Coordination Sequence:
#
# PCOD9542031 Si02
#       5
#     8   8   8   8   8
#     4   9  19  37  59  83 115 157 205 255 307 368
#     4   9  19  37  59  83 115 157 205 255 307 368
#     4  11  25  44  67  95 132 176 220 272 329 391
#     4  11  25  44  67  95 132 176 220 272 329 391
#     4  12  22  34  60  96 128 162 208 264 326 386
#
# _framework density 25.983498999999998
#
# number of rings (size 3 to 8) (size 9 to 14) (size 15 to 20)
#    0.000    1.600    0.000    7.200    0.000    9.600 
#    0.000    0.000    0.000    0.000    0.000   16.800 
#    0.000    0.000    0.000    0.000    0.000    0.000 
#
# Total GULP energy -112217.106148 kJ/mol
# GULP energy per Si atom -5610.855307 kJ/mol
# Density = 2.592436 g / cm^3
# Si number density = 25.983499 Si / 1000 Ang^3
#
#
#
# Elastic Constant Matrix: (Units=GPa)
#
#
# Indices 1 2 3 4 5 6 
#
# 1 91.5577 23.3566 14.3780 0.0000 0.0000 -3.6966
# 2 23.3566 91.5577 14.3780 0.0000 0.0000 3.6966
# 3 14.3780 14.3780 47.0536 0.0000 0.0000 0.0000
# 4 0.0000 0.0000 0.0000 34.5136 0.0000 0.0000
# 5 0.0000 0.0000 0.0000 0.0000 34.5136 0.0000
# 6 -3.6966 3.6966 0.0000 0.0000 0.0000 68.7556
#
#
#
# Elastic Compliance Matrix: (Units=1/GPa)
#
#
# Indices 1 2 3 4 5 6 
#
# 1 0.012086 -0.002663 -0.002879 0.000000 0.000000 0.000793
# 2 -0.002663 0.012086 -0.002879 0.000000 0.000000 -0.000793
# 3 -0.002879 -0.002879 0.023012 0.000000 0.000000 0.000000
# 4 0.000000 0.000000 0.000000 0.028974 0.000000 0.000000
# 5 0.000000 0.000000 0.000000 0.000000 0.028974 0.000000
# 6 0.000793 -0.000793 0.000000 0.000000 0.000000 0.014630
#
#
# Mechanical properties :
#
#
# Convention : Reuss Voigt Hill
#
# Bulk Modulus (GPa) = 32.95951 37.15491 35.05721
# Shear Modulus (GPa) = 34.07921 39.42698 36.75309
#
# Velocity S-wave (km/s) = 3.62549 3.89959 3.76504
# Velocity P-wave (km/s) = 5.49890 5.88270 5.69404
#
# Compressibility (1/GPa) = 0.03034026
#
# Stress axis : x y z
#
# Youngs Moduli (GPa) = 82.74343 82.74343 43.45564
#
# Poissons Ratio (x) = 0.22034 0.12512
# Poissons Ratio (y) = 0.22034 0.12512
# Poissons Ratio (z) = 0.23824 0.23824
#
# Static dielectric constant tensor:
#      x y z
#    x 2.026320 0.000000 0.000000 
#    y 0.000000 2.026320 0.000000 
#    z 0.000000 0.000000 2.030090 
# 
# From -- ./inp_files/521.got.cif
#   From: 2010.05.17/outbox.cif.g08.bks.cpg/sg79_cif.got.tgz:521.got - 2010.06.03 18:47:27.
