data_PCOD9542694
_publ_section_title
;
Structure prediction by ZEFSAII (Michael W. Deem and Ramdas Pophale) SiO2 
 PCOD9542694
Probable space group: I -4 
;
_chemical_formula_sum "Si O2"
_cell_formula_units_Z 56
_cell_length_a 11.879101
_cell_length_b 11.879101
_cell_length_c 21.345931
_cell_angle_alpha 90.000000
_cell_angle_beta 90.000000
_cell_angle_gamma 90.000000
_cell_volume 3012.189227
_symmetry_space_group_name_H-M "I -4 "
_symmetry_group_IT_number 82
_symmetry_cell_setting 'tetragonal'
loop_
_space_group_symop_operation_xyz
x,y,z
y,-x,-z
-x,-y,z
-y,x,-z
1/2+x,1/2+y,1/2+z
1/2+y,1/2-x,1/2-z
1/2-x,1/2-y,1/2+z
1/2-y,1/2+x,1/2-z
loop_
_atom_site_type_symbol
_atom_site_label
_atom_site_fract_x
_atom_site_fract_y
_atom_site_fract_z
Si Si1 0.639982 0.580240 0.523464
Si Si2 0.291591 0.896823 0.891041
Si Si3 0.388753 0.091902 0.972070
Si Si4 0.161051 0.098696 0.581291
Si Si5 0.792828 0.134443 0.627521
Si Si6 0.071856 0.327706 0.247201
Si Si7 0.757390 0.537671 0.946925
O O1 0.614908 0.447652 0.532385
O O2 0.608375 0.671357 0.575194
O O3 0.769929 0.596015 0.508162
O O4 0.348145 0.774831 0.891721
O O5 0.272404 0.935803 0.820666
O O6 0.375608 0.978025 0.930693
O O7 0.384525 0.188914 0.919784
O O8 0.485877 0.128425 0.022221
O O9 0.186541 0.077835 0.507684
O O10 0.064542 0.190719 0.584386
O O11 0.136134 0.979840 0.614318
O O12 0.744989 0.129084 0.697865
O O13 0.860548 0.244129 0.602774
O O14 0.137606 0.444845 0.235493
#
# Coordination Sequence:
#
# PCOD9542694 Si02
#       7
#     8   8   8   8   8   8   8
#     4   9  18  34  58  81 110 151 192 251 305 360
#     4  11  20  36  58  83 118 151 207 244 302 371
#     4  10  20  33  56  87 113 152 192 252 312 369
#     4  11  20  32  54  83 112 150 183 250 305 375
#     4  11  21  33  52  79 117 155 191 239 313 372
#     4  11  22  35  54  82 116 162 207 254 301 372
#     4  11  20  32  53  85 119 146 185 244 321 375
#
# _framework density 18.591128999999999
#
# number of rings (size 3 to 8) (size 9 to 14) (size 15 to 20)
#    0.000    1.429    7.143    0.429    0.000    2.286 
#    0.000    0.000   15.714    0.000    0.000    0.000 
#    0.000    0.000    0.000    0.000    0.000    0.000 
#
# Total GULP energy -156014.839062 kJ/mol
# GULP energy per Si atom -5571.958538 kJ/mol
# Density = 1.854881 g / cm^3
# Si number density = 18.591129 Si / 1000 Ang^3
#
#
#
# Elastic Constant Matrix: (Units=GPa)
#
#
# Indices 1 2 3 4 5 6 
#
# 1 63.2842 16.5573 30.6480 0.0000 0.0000 7.0818
# 2 16.5573 63.2842 30.6480 0.0000 0.0000 -7.0818
# 3 30.6480 30.6480 90.0937 0.0000 0.0000 0.0000
# 4 0.0000 0.0000 0.0000 23.2438 0.0000 0.0000
# 5 0.0000 0.0000 0.0000 0.0000 23.2438 0.0000
# 6 7.0818 -7.0818 0.0000 0.0000 0.0000 29.7672
#
#
#
# Elastic Compliance Matrix: (Units=1/GPa)
#
#
# Indices 1 2 3 4 5 6 
#
# 1 0.020008 -0.003056 -0.005767 0.000000 0.000000 -0.005487
# 2 -0.003056 0.020008 -0.005767 0.000000 0.000000 0.005487
# 3 -0.005767 -0.005767 0.015023 0.000000 0.000000 0.000000
# 4 0.000000 0.000000 0.000000 0.043022 0.000000 0.000000
# 5 0.000000 0.000000 0.000000 0.000000 0.043022 0.000000
# 6 -0.005487 0.005487 0.000000 0.000000 0.000000 0.036205
#
#
# Mechanical properties :
#
#
# Convention : Reuss Voigt Hill
#
# Bulk Modulus (GPa) = 38.66947 41.37427 40.02187
# Shear Modulus (GPa) = 23.24632 24.50486 23.87559
#
# Velocity S-wave (km/s) = 3.53993 3.63450 3.58753
# Velocity P-wave (km/s) = 6.12807 6.31790 6.22371
#
# Compressibility (1/GPa) = 0.02586020
#
# Stress axis : x y z
#
# Youngs Moduli (GPa) = 49.97973 49.97973 66.56461
#
# Poissons Ratio (x) = 0.15274 0.38386
# Poissons Ratio (y) = 0.15274 0.38386
# Poissons Ratio (z) = 0.28822 0.28822
#
# Static dielectric constant tensor:
#      x y z
#    x 1.719110 0.000000 0.000000 
#    y 0.000000 1.719110 0.000000 
#    z 0.000000 0.000000 1.654600 
# 
# From -- ./inp_files/3133.got.cif
#   From: 2010.05.17/outbox.cif.g08.bks.cpg/sg82_2_cif.got.tgz:3133.got - 2010.06.03 18:52:26.
