data_PCOD9542309
_publ_section_title
;
Structure prediction by ZEFSAII (Michael W. Deem and Ramdas Pophale) SiO2 
 PCOD9542309
Probable space group: I 41
;
_chemical_formula_sum "Si O2"
_cell_formula_units_Z 16
_cell_length_a 10.064989
_cell_length_b 10.064989
_cell_length_c 5.334155
_cell_angle_alpha 90.000000
_cell_angle_beta 90.000000
_cell_angle_gamma 90.000000
_cell_volume 540.371257
_symmetry_space_group_name_H-M "I 41"
_symmetry_group_IT_number 80
_symmetry_cell_setting 'tetragonal'
loop_
_space_group_symop_operation_xyz
x,y,z
-y,1/2+x,1/4+z
-x,-y,z
y,1/2-x,1/4+z
1/2+x,1/2+y,1/2+z
1/2-y,x,3/4+z
1/2-x,1/2-y,1/2+z
1/2+y,-x,3/4+z
loop_
_atom_site_type_symbol
_atom_site_label
_atom_site_fract_x
_atom_site_fract_y
_atom_site_fract_z
Si Si1 0.338586 0.078816 0.259890
Si Si2 0.218083 0.937783 0.832047
O O1 0.187735 0.112019 0.313620
O O2 0.435736 0.131697 0.486212
O O3 0.315938 0.953157 0.074199
O O4 0.320593 0.888372 0.620973
#
# Coordination Sequence:
#
# PCOD9542309 Si02
#       2
#     8   8
#     4  12  26  57  89 124 170 238 293 378 462 525
#     4  12  32  58  86 136 184 236 308 376 454 552
#
# _framework density 29.609273000000002
#
# number of rings (size 3 to 8) (size 9 to 14) (size 15 to 20)
#    0.000    0.000    5.000    0.000    7.000   12.000 
#    0.000    0.000    0.000    0.000    0.000    0.000 
#    0.000    0.000    0.000    0.000    0.000    0.000 
#
# Total GULP energy -44627.681348 kJ/mol
# GULP energy per Si atom -5578.460169 kJ/mol
# Density = 2.954188 g / cm^3
# Si number density = 29.609273 Si / 1000 Ang^3
#
#
#
# Elastic Constant Matrix: (Units=GPa)
#
#
# Indices 1 2 3 4 5 6 
#
# 1 200.9313 -11.0866 13.4861 0.0000 0.0000 -6.9141
# 2 -11.0866 200.9313 13.4861 0.0000 0.0000 6.9141
# 3 13.4861 13.4861 141.7038 0.0000 0.0000 0.0000
# 4 0.0000 0.0000 0.0000 39.9481 0.0000 0.0000
# 5 0.0000 0.0000 0.0000 0.0000 39.9481 0.0000
# 6 -6.9141 6.9141 0.0000 0.0000 0.0000 65.0435
#
#
#
# Elastic Compliance Matrix: (Units=1/GPa)
#
#
# Indices 1 2 3 4 5 6 
#
# 1 0.005045 0.000295 -0.000508 0.000000 0.000000 0.000505
# 2 0.000295 0.005045 -0.000508 0.000000 0.000000 -0.000505
# 3 -0.000508 -0.000508 0.007154 0.000000 0.000000 0.000000
# 4 0.000000 0.000000 0.000000 0.025033 0.000000 0.000000
# 5 0.000000 0.000000 0.000000 0.000000 0.025033 0.000000
# 6 0.000505 -0.000505 0.000000 0.000000 0.000000 0.015482
#
#
# Mechanical properties :
#
#
# Convention : Reuss Voigt Hill
#
# Bulk Modulus (GPa) = 63.28992 63.92640 63.60816
# Shear Modulus (GPa) = 55.86662 64.16665 60.01663
#
# Velocity S-wave (km/s) = 4.34844 4.66028 4.50705
# Velocity P-wave (km/s) = 6.82886 7.11298 6.97236
#
# Compressibility (1/GPa) = 0.01580030
#
# Stress axis : x y z
#
# Youngs Moduli (GPa) = 198.23223 198.23223 139.78780
#
# Poissons Ratio (x) = -0.05849 0.07104
# Poissons Ratio (y) = -0.05849 0.07104
# Poissons Ratio (z) = 0.10074 0.10074
#
# Static dielectric constant tensor:
#      x y z
#    x 2.298540 0.000000 0.000000 
#    y 0.000000 2.298540 0.000000 
#    z 0.000000 0.000000 2.295770 
# 
# From -- ./inp_files/41.got.cif
#   From: 2010.05.17/outbox.cif.g08.bks.cpg/sg80_cif.got.tgz:41.got - 2010.06.03 18:49:13.
