data_PCOD9542514
_publ_section_title
;
Structure prediction by ZEFSAII (Michael W. Deem and Ramdas Pophale) SiO2 
 PCOD9542514
Probable space group: P -4
;
_chemical_formula_sum "Si O2"
_cell_formula_units_Z 32
_cell_length_a 11.842407
_cell_length_b 11.842407
_cell_length_c 10.266371
_cell_angle_alpha 90.000000
_cell_angle_beta 90.000000
_cell_angle_gamma 90.000000
_cell_volume 1439.782598
_symmetry_space_group_name_H-M "P -4"
_symmetry_group_IT_number 81
_symmetry_cell_setting 'tetragonal'
loop_
_space_group_symop_operation_xyz
x,y,z
y,-x,-z
-x,-y,z
-y,x,-z
loop_
_atom_site_type_symbol
_atom_site_label
_atom_site_fract_x
_atom_site_fract_y
_atom_site_fract_z
Si Si1 0.107490 0.167114 0.663431
Si Si2 0.588221 0.907953 0.534095
Si Si3 0.315581 0.494695 0.500617
Si Si4 0.728593 0.872259 0.272794
Si Si5 0.527692 0.873510 0.065280
Si Si6 0.459177 0.347975 0.930909
Si Si7 0.257743 0.364209 0.750726
Si Si8 0.224604 0.942857 0.639567
O O1 0.211522 0.241375 0.716297
O O2 0.093105 0.194428 0.509280
O O3 0.993754 0.210074 0.730527
O O4 0.132401 0.035695 0.680184
O O5 0.535030 0.790743 0.585401
O O6 0.666377 0.870299 0.413076
O O7 0.500000 0.000000 0.480466
O O8 0.661242 0.984309 0.632380
O O9 0.395920 0.598836 0.543545
O O10 0.253220 0.439446 0.622768
O O11 0.635947 0.865926 0.160588
O O12 0.829302 0.780722 0.276367
O O13 0.421295 0.824400 0.145053
O O14 0.500000 0.000000 0.026110
O O15 0.545466 0.784531 0.951221
O O16 0.384772 0.374487 0.805383
O O17 0.395962 0.414580 0.051288
#
# Coordination Sequence:
#
# PCOD9542514 Si02
#       8
#     4   4   4   4   4   4   4   4
#     4  11  20  35  58  90 125 170 222 246 315 386
#     4  11  22  34  54  83 129 169 219 264 314 375
#     4  11  24  37  57  91 129 173 220 265 312 390
#     4  11  21  34  59  92 122 165 215 266 310 391
#     4  11  21  40  68 100 118 164 221 279 334 396
#     4   9  22  44  69  93 121 161 214 280 341 402
#     4  11  22  40  66  91 129 172 213 271 334 389
#     4  11  22  34  56  88 131 177 207 261 303 392
#
# _framework density 22.225579
#
# number of rings (size 3 to 8) (size 9 to 14) (size 15 to 20)
#    0.000    1.250    5.000    3.000    1.750    4.000 
#    0.000    3.750    0.000    0.750    0.000    0.000 
#    0.000    0.000    0.000    0.000    0.000    0.000 
#
# Total GULP energy -178771.562066 kJ/mol
# GULP energy per Si atom -5586.611315 kJ/mol
# Density = 2.217499 g / cm^3
# Si number density = 22.225579 Si / 1000 Ang^3
#
#
#
# Elastic Constant Matrix: (Units=GPa)
#
#
# Indices 1 2 3 4 5 6 
#
# 1 131.6996 35.5937 7.6893 0.0000 0.0000 -5.4161
# 2 35.5937 131.6996 7.6893 0.0000 0.0000 5.4161
# 3 7.6893 7.6893 9.7689 0.0000 0.0000 0.0000
# 4 0.0000 0.0000 0.0000 16.9755 0.0000 0.0000
# 5 0.0000 0.0000 0.0000 0.0000 16.9755 0.0000
# 6 -5.4161 5.4161 0.0000 0.0000 0.0000 41.3012
#
#
#
# Elastic Compliance Matrix: (Units=1/GPa)
#
#
# Indices 1 2 3 4 5 6 
#
# 1 0.008503 -0.002059 -0.005072 0.000000 0.000000 0.001385
# 2 -0.002059 0.008503 -0.005072 0.000000 0.000000 -0.001385
# 3 -0.005072 -0.005072 0.110350 0.000000 0.000000 0.000000
# 4 0.000000 0.000000 0.000000 0.058908 0.000000 0.000000
# 5 0.000000 0.000000 0.000000 0.000000 0.058908 0.000000
# 6 0.001385 -0.001385 0.000000 0.000000 0.000000 0.024576
#
#
# Mechanical properties :
#
#
# Convention : Reuss Voigt Hill
#
# Bulk Modulus (GPa) = 9.71348 41.67916 25.69632
# Shear Modulus (GPa) = 15.22211 29.86352 22.54282
#
# Velocity S-wave (km/s) = 2.61988 3.66957 3.18822
# Velocity P-wave (km/s) = 3.67853 6.06200 5.01395
#
# Compressibility (1/GPa) = 0.10294969
#
# Stress axis : x y z
#
# Youngs Moduli (GPa) = 117.61201 117.61201 9.06206
#
# Poissons Ratio (x) = 0.24213 0.04596
# Poissons Ratio (y) = 0.24213 0.04596
# Poissons Ratio (z) = 0.59653 0.59653
#
# Static dielectric constant tensor:
#      x y z
#    x 1.875890 0.000000 0.000000 
#    y 0.000000 1.875890 0.000000 
#    z 0.000000 0.000000 1.777990 
# 
# From -- ./inp_files/1456.got.cif
#   From: 2010.05.17/outbox.cif.g08.bks.cpg/sg81_cif.got.tgz:1456.got - 2010.06.03 18:51:07.
