data_PCOD9542832
_publ_section_title
;
Structure prediction by ZEFSAII (Michael W. Deem and Ramdas Pophale) SiO2 
 PCOD9542832
Probable space group: I -4 
;
_chemical_formula_sum "Si O2"
_cell_formula_units_Z 40
_cell_length_a 7.528331
_cell_length_b 7.528331
_cell_length_c 29.072988
_cell_angle_alpha 90.000000
_cell_angle_beta 90.000000
_cell_angle_gamma 90.000000
_cell_volume 1647.733913
_symmetry_space_group_name_H-M "I -4 "
_symmetry_group_IT_number 82
_symmetry_cell_setting 'tetragonal'
loop_
_space_group_symop_operation_xyz
x,y,z
y,-x,-z
-x,-y,z
-y,x,-z
1/2+x,1/2+y,1/2+z
1/2+y,1/2-x,1/2-z
1/2-x,1/2-y,1/2+z
1/2-y,1/2+x,1/2-z
loop_
_atom_site_type_symbol
_atom_site_label
_atom_site_fract_x
_atom_site_fract_y
_atom_site_fract_z
Si Si1 0.798536 0.115429 0.351282
Si Si2 0.204314 0.506978 0.068510
Si Si3 0.834781 0.767636 0.989007
Si Si4 0.678373 0.394857 0.298742
Si Si5 0.759575 0.150897 0.694385
O O1 0.643719 0.249621 0.338385
O O2 0.896884 0.165044 0.398449
O O3 0.944758 0.194153 0.314999
O O4 0.762771 0.913337 0.337471
O O5 0.205392 0.400836 0.020541
O O6 0.000000 0.500000 0.085713
O O7 0.244158 0.711940 0.056157
O O8 0.048210 0.781039 0.984811
O O9 0.500000 0.500000 0.290191
O O10 0.805814 0.555553 0.315425
O O11 0.717984 0.313790 0.248376
#
# Coordination Sequence:
#
# PCOD9542832 Si02
#       5
#     8   8   8   8   8
#     4  11  24  41  62 101 131 168 231 281 334 414
#     4  10  21  41  68 101 135 177 221 276 344 406
#     4   9  20  41  69  97 132 175 218 268 336 418
#     4  12  22  41  66  89 126 180 221 278 348 397
#     4  11  22  40  66  89 125 174 224 277 340 409
#
# _framework density 24.275760999999999
#
# number of rings (size 3 to 8) (size 9 to 14) (size 15 to 20)
#    0.000    1.400    4.000    1.800    0.000    4.400 
#   10.800    2.000    0.000    0.000    0.000    0.000 
#    0.000    0.000    0.000    0.000    0.000    0.000 
#
# Total GULP energy -111598.425330 kJ/mol
# GULP energy per Si atom -5579.921266 kJ/mol
# Density = 2.422051 g / cm^3
# Si number density = 24.275761 Si / 1000 Ang^3
#
#
#
# Elastic Constant Matrix: (Units=GPa)
#
#
# Indices 1 2 3 4 5 6 
#
# 1 102.0150 18.1343 32.9758 0.0000 0.0000 3.9854
# 2 18.1343 102.0151 32.9758 0.0000 0.0000 -3.9854
# 3 32.9758 32.9758 76.5009 0.0000 0.0000 0.0000
# 4 0.0000 0.0000 0.0000 22.7050 0.0000 0.0000
# 5 0.0000 0.0000 0.0000 0.0000 22.7050 0.0000
# 6 3.9854 -3.9854 0.0000 0.0000 0.0000 19.5929
#
#
#
# Elastic Compliance Matrix: (Units=1/GPa)
#
#
# Indices 1 2 3 4 5 6 
#
# 1 0.011530 -0.000627 -0.004700 0.000000 0.000000 -0.002473
# 2 -0.000627 0.011530 -0.004700 0.000000 0.000000 0.002473
# 3 -0.004700 -0.004700 0.017123 0.000000 0.000000 0.000000
# 4 0.000000 0.000000 0.000000 0.044043 0.000000 0.000000
# 5 0.000000 0.000000 0.000000 0.000000 0.044043 0.000000
# 6 -0.002473 0.002473 0.000000 0.000000 0.000000 0.052045
#
#
# Mechanical properties :
#
#
# Convention : Reuss Voigt Hill
#
# Bulk Modulus (GPa) = 49.67663 49.85584 49.76623
# Shear Modulus (GPa) = 24.14567 26.09690 25.12128
#
# Velocity S-wave (km/s) = 3.15721 3.28231 3.22037
# Velocity P-wave (km/s) = 5.81365 5.91156 5.86281
#
# Compressibility (1/GPa) = 0.02013019
#
# Stress axis : x y z
#
# Youngs Moduli (GPa) = 86.73288 86.73288 58.40004
#
# Poissons Ratio (x) = 0.05438 0.27446
# Poissons Ratio (y) = 0.05438 0.27446
# Poissons Ratio (z) = 0.40761 0.40761
#
# Static dielectric constant tensor:
#      x y z
#    x 2.259680 0.000000 0.000000 
#    y 0.000000 2.259680 0.000000 
#    z 0.000000 0.000000 1.903250 
# 
# From -- ./inp_files/3687.got.cif
#   From: 2010.05.17/outbox.cif.g08.bks.cpg/sg82_2_cif.got.tgz:3687.got - 2010.06.03 18:52:26.
