data_PCOD9542900
_publ_section_title
;
Structure prediction by ZEFSAII (Michael W. Deem and Ramdas Pophale) SiO2 
 PCOD9542900
Probable space group: I -4 
;
_chemical_formula_sum "Si O2"
_cell_formula_units_Z 40
_cell_length_a 15.483102
_cell_length_b 15.483102
_cell_length_c 6.991023
_cell_angle_alpha 90.000000
_cell_angle_beta 90.000000
_cell_angle_gamma 90.000000
_cell_volume 1675.933108
_symmetry_space_group_name_H-M "I -4 "
_symmetry_group_IT_number 82
_symmetry_cell_setting 'tetragonal'
loop_
_space_group_symop_operation_xyz
x,y,z
y,-x,-z
-x,-y,z
-y,x,-z
1/2+x,1/2+y,1/2+z
1/2+y,1/2-x,1/2-z
1/2-x,1/2-y,1/2+z
1/2-y,1/2+x,1/2-z
loop_
_atom_site_type_symbol
_atom_site_label
_atom_site_fract_x
_atom_site_fract_y
_atom_site_fract_z
Si Si1 0.593547 0.662508 0.752841
Si Si2 0.892957 0.416519 0.705267
Si Si3 0.686053 0.584668 0.439593
Si Si4 0.868179 0.790342 0.637918
Si Si5 0.157483 0.680983 0.334544
O O1 0.667937 0.601386 0.662281
O O2 0.504863 0.651262 0.640372
O O3 0.624069 0.762190 0.732254
O O4 0.579297 0.657482 0.979462
O O5 0.892730 0.519721 0.684967
O O6 0.807267 0.392012 0.820613
O O7 0.892424 0.369118 0.500273
O O8 0.630937 0.661128 0.339698
O O9 0.779441 0.601484 0.340198
O O10 0.767878 0.800223 0.573973
#
# Coordination Sequence:
#
# PCOD9542900 Si02
#       5
#     8   8   8   8   8
#     4  12  22  44  70  97 142 184 244 294 351 430
#     4  11  23  43  74 113 148 182 237 310 368 428
#     4  10  26  42  68 104 134 191 237 299 351 428
#     4  10  23  45  69 102 137 196 238 285 364 442
#     4  10  22  44  65 100 136 188 234 284 361 426
#
# _framework density 23.867301000000001
#
# number of rings (size 3 to 8) (size 9 to 14) (size 15 to 20)
#    1.200    0.200    2.000    3.600    0.000    6.800 
#    0.000    0.000    0.000    2.400    0.000    0.000 
#    0.000    0.000    0.000    0.000    0.000    0.000 
#
# Total GULP energy -111747.087116 kJ/mol
# GULP energy per Si atom -5587.354356 kJ/mol
# Density = 2.381298 g / cm^3
# Si number density = 23.867301 Si / 1000 Ang^3
#
#
#
# Elastic Constant Matrix: (Units=GPa)
#
#
# Indices 1 2 3 4 5 6 
#
# 1 99.5237 10.4040 19.6868 0.0000 0.0000 1.0668
# 2 10.4040 99.5237 19.6868 0.0000 0.0000 -1.0668
# 3 19.6868 19.6868 97.7248 0.0000 0.0000 0.0000
# 4 0.0000 0.0000 0.0000 17.7261 0.0000 0.0000
# 5 0.0000 0.0000 0.0000 0.0000 17.7261 0.0000
# 6 1.0668 -1.0668 0.0000 0.0000 0.0000 24.4835
#
#
#
# Elastic Compliance Matrix: (Units=1/GPa)
#
#
# Indices 1 2 3 4 5 6 
#
# 1 0.010518 -0.000714 -0.001975 0.000000 0.000000 -0.000489
# 2 -0.000714 0.010518 -0.001975 0.000000 0.000000 0.000489
# 3 -0.001975 -0.001975 0.011029 0.000000 0.000000 0.000000
# 4 0.000000 0.000000 0.000000 0.056414 0.000000 0.000000
# 5 0.000000 0.000000 0.000000 0.000000 0.056414 0.000000
# 6 -0.000489 0.000489 0.000000 0.000000 0.000000 0.040887
#
#
# Mechanical properties :
#
#
# Convention : Reuss Voigt Hill
#
# Bulk Modulus (GPa) = 43.98146 44.03638 44.00892
# Shear Modulus (GPa) = 24.66847 28.45343 26.56095
#
# Velocity S-wave (km/s) = 3.21840 3.45650 3.33957
# Velocity P-wave (km/s) = 5.68140 5.86689 5.77489
#
# Compressibility (1/GPa) = 0.02273685
#
# Stress axis : x y z
#
# Youngs Moduli (GPa) = 95.07107 95.07107 90.67349
#
# Poissons Ratio (x) = 0.06789 0.17909
# Poissons Ratio (y) = 0.06789 0.17909
# Poissons Ratio (z) = 0.18777 0.18777
#
# Static dielectric constant tensor:
#      x y z
#    x 1.906880 0.000000 0.000000 
#    y 0.000000 1.906880 0.000000 
#    z 0.000000 0.000000 1.966110 
# 
# From -- ./inp_files/954.got.cif
#   From: 2010.05.17/outbox.cif.g08.bks.cpg/sg82_1_cif.got.tgz:954.got - 2010.06.03 18:52:26.
