data_PCOD9542728
_publ_section_title
;
Structure prediction by ZEFSAII (Michael W. Deem and Ramdas Pophale) SiO2 
 PCOD9542728
Probable space group: I -4 
;
_chemical_formula_sum "Si O2"
_cell_formula_units_Z 36
_cell_length_a 13.115457
_cell_length_b 13.115457
_cell_length_c 9.208320
_cell_angle_alpha 90.000000
_cell_angle_beta 90.000000
_cell_angle_gamma 90.000000
_cell_volume 1583.971120
_symmetry_space_group_name_H-M "I -4 "
_symmetry_group_IT_number 82
_symmetry_cell_setting 'tetragonal'
loop_
_space_group_symop_operation_xyz
x,y,z
y,-x,-z
-x,-y,z
-y,x,-z
1/2+x,1/2+y,1/2+z
1/2+y,1/2-x,1/2-z
1/2-x,1/2-y,1/2+z
1/2-y,1/2+x,1/2-z
loop_
_atom_site_type_symbol
_atom_site_label
_atom_site_fract_x
_atom_site_fract_y
_atom_site_fract_z
Si Si1 0.364439 0.172602 0.343214
Si Si2 0.979474 0.814875 0.339298
Si Si3 0.000000 0.500000 0.750000
Si Si4 0.286868 0.680805 0.937492
Si Si5 0.500000 0.500000 0.000000
Si Si6 0.970760 0.831999 0.012490
O O1 0.316705 0.204719 0.189750
O O2 0.278932 0.197954 0.462061
O O3 0.455015 0.249893 0.387575
O O4 0.413646 0.060989 0.339290
O O5 0.914569 0.755034 0.459117
O O6 0.940520 0.928105 0.387235
O O7 0.958730 0.786820 0.174534
O O8 0.100827 0.826311 0.362225
O O9 0.079379 0.887180 0.005786
#
# Coordination Sequence:
#
# PCOD9542728 Si02
#       6
#     8   8   2   8   2   8
#     4  12  27  48  72 106 148 208 248 314 390 476
#     4  10  20  37  64 103 135 176 235 312 357 438
#     4  12  32  48  72 106 164 200 248 318 400 460
#     4  11  24  43  71 103 146 195 254 310 385 458
#     4   8  16  28  58  92 136 168 210 284 376 400
#     4  11  23  40  71 108 142 180 249 318 371 450
#
# _framework density 22.727689000000002
#
# number of rings (size 3 to 8) (size 9 to 14) (size 15 to 20)
#    0.000    1.111    2.222    4.000   12.444    0.000 
#    0.000    0.000    0.000    2.667    0.000    0.000 
#    0.000    0.000    0.000    0.000    0.000    0.000 
#
# Total GULP energy -100478.190387 kJ/mol
# GULP energy per Si atom -5582.121688 kJ/mol
# Density = 2.267596 g / cm^3
# Si number density = 22.727689 Si / 1000 Ang^3
#
#
#
# Elastic Constant Matrix: (Units=GPa)
#
#
# Indices 1 2 3 4 5 6 
#
# 1 73.1498 19.4215 29.7887 0.0000 0.0000 2.1073
# 2 19.4215 73.1498 29.7887 0.0000 0.0000 -2.1073
# 3 29.7887 29.7887 119.0515 0.0000 0.0000 0.0000
# 4 0.0000 0.0000 0.0000 26.7587 0.0000 0.0000
# 5 0.0000 0.0000 0.0000 0.0000 26.7587 0.0000
# 6 2.1073 -2.1073 0.0000 0.0000 0.0000 22.7628
#
#
#
# Elastic Compliance Matrix: (Units=1/GPa)
#
#
# Indices 1 2 3 4 5 6 
#
# 1 0.015812 -0.002936 -0.003222 0.000000 0.000000 -0.001736
# 2 -0.002936 0.015812 -0.003222 0.000000 0.000000 0.001736
# 3 -0.003222 -0.003222 0.010012 0.000000 0.000000 0.000000
# 4 0.000000 0.000000 0.000000 0.037371 0.000000 0.000000
# 5 0.000000 0.000000 0.000000 0.000000 0.037371 0.000000
# 6 -0.001736 0.001736 0.000000 0.000000 0.000000 0.044253
#
#
# Mechanical properties :
#
#
# Convention : Reuss Voigt Hill
#
# Bulk Modulus (GPa) = 43.71238 47.03877 45.37557
# Shear Modulus (GPa) = 26.73566 27.67952 27.20759
#
# Velocity S-wave (km/s) = 3.43351 3.49359 3.46368
# Velocity P-wave (km/s) = 5.91553 6.08401 6.00036
#
# Compressibility (1/GPa) = 0.02287682
#
# Stress axis : x y z
#
# Youngs Moduli (GPa) = 63.24250 63.24250 99.87999
#
# Poissons Ratio (x) = 0.18569 0.32179
# Poissons Ratio (y) = 0.18569 0.32179
# Poissons Ratio (z) = 0.20375 0.20375
#
# Static dielectric constant tensor:
#      x y z
#    x 1.925140 0.000000 0.000000 
#    y 0.000000 1.925140 0.000000 
#    z 0.000000 0.000000 1.869690 
# 
# From -- ./inp_files/869.got.cif
#   From: 2010.05.17/outbox.cif.g08.bks.cpg/sg82_1_cif.got.tgz:869.got - 2010.06.03 18:52:26.
