data_PCOD9542938
_publ_section_title
;
Structure prediction by ZEFSAII (Michael W. Deem and Ramdas Pophale) SiO2 
 PCOD9542938
Probable space group: I -4 
;
_chemical_formula_sum "Si O2"
_cell_formula_units_Z 20
_cell_length_a 6.987861
_cell_length_b 6.987861
_cell_length_c 20.979422
_cell_angle_alpha 90.000000
_cell_angle_beta 90.000000
_cell_angle_gamma 90.000000
_cell_volume 1024.429401
_symmetry_space_group_name_H-M "I -4 "
_symmetry_group_IT_number 82
_symmetry_cell_setting 'tetragonal'
loop_
_space_group_symop_operation_xyz
x,y,z
y,-x,-z
-x,-y,z
-y,x,-z
1/2+x,1/2+y,1/2+z
1/2+y,1/2-x,1/2-z
1/2-x,1/2-y,1/2+z
1/2-y,1/2+x,1/2-z
loop_
_atom_site_type_symbol
_atom_site_label
_atom_site_fract_x
_atom_site_fract_y
_atom_site_fract_z
Si Si1 0.500000 0.000000 0.977486
Si Si2 0.685498 0.641788 0.923001
Si Si3 0.723815 0.523435 0.780308
O O1 0.399504 0.847908 0.024660
O O2 0.625348 0.861350 0.933230
O O3 0.500000 0.500000 0.930919
O O4 0.756248 0.598482 0.851887
O O5 0.500000 0.500000 0.770021
O O6 0.830263 0.323338 0.768307
#
# Coordination Sequence:
#
# PCOD9542938 Si02
#       3
#     4   8   8
#     4  12  20  44  65  97 136 170 206 274 326 380
#     4  11  24  43  65  97 139 165 215 274 317 384
#     4  10  23  44  66  95 131 172 219 267 317 382
#
# _framework density 19.523061999999999
#
# number of rings (size 3 to 8) (size 9 to 14) (size 15 to 20)
#    0.000    1.200    4.000    2.400    0.000    8.000 
#    7.200    0.000    0.000    0.000    0.000    0.000 
#    0.000    0.000    0.000    0.000    0.000    0.000 
#
# Total GULP energy -55808.704285 kJ/mol
# GULP energy per Si atom -5580.870428 kJ/mol
# Density = 1.947863 g / cm^3
# Si number density = 19.523062 Si / 1000 Ang^3
#
#
#
# Elastic Constant Matrix: (Units=GPa)
#
#
# Indices 1 2 3 4 5 6 
#
# 1 110.7669 27.2053 50.2826 0.0000 0.0000 13.8880
# 2 27.2053 110.7669 50.2826 0.0000 0.0000 -13.8880
# 3 50.2826 50.2826 151.5652 0.0000 0.0000 0.0000
# 4 0.0000 0.0000 0.0000 35.2514 0.0000 0.0000
# 5 0.0000 0.0000 0.0000 0.0000 35.2514 0.0000
# 6 13.8880 -13.8880 0.0000 0.0000 0.0000 38.5588
#
#
#
# Elastic Compliance Matrix: (Units=1/GPa)
#
#
# Indices 1 2 3 4 5 6 
#
# 1 0.011577 -0.002018 -0.003171 0.000000 0.000000 -0.004897
# 2 -0.002018 0.011577 -0.003171 0.000000 0.000000 0.004897
# 3 -0.003171 -0.003171 0.008702 0.000000 0.000000 0.000000
# 4 0.000000 0.000000 0.000000 0.028368 0.000000 0.000000
# 5 0.000000 0.000000 0.000000 0.000000 0.028368 0.000000
# 6 -0.004897 0.004897 0.000000 0.000000 0.000000 0.029462
#
#
# Mechanical properties :
#
#
# Convention : Reuss Voigt Hill
#
# Bulk Modulus (GPa) = 66.07058 69.84888 67.95973
# Shear Modulus (GPa) = 35.76044 38.16757 36.96400
#
# Velocity S-wave (km/s) = 4.28448 4.42633 4.35599
# Velocity P-wave (km/s) = 7.64143 7.87265 7.75790
#
# Compressibility (1/GPa) = 0.01513533
#
# Stress axis : x y z
#
# Youngs Moduli (GPa) = 86.37730 86.37730 114.91519
#
# Poissons Ratio (x) = 0.17429 0.36444
# Poissons Ratio (y) = 0.17429 0.36444
# Poissons Ratio (z) = 0.27394 0.27394
#
# Static dielectric constant tensor:
#      x y z
#    x 1.686300 0.000000 0.000000 
#    y 0.000000 1.686300 0.000000 
#    z 0.000000 0.000000 1.703290 
# 
# From -- ./inp_files/3586.got.cif
#   From: 2010.05.17/outbox.cif.g08.bks.cpg/sg82_2_cif.got.tgz:3586.got - 2010.06.03 18:52:26.
