data_PCOD9542686
_publ_section_title
;
Structure prediction by ZEFSAII (Michael W. Deem and Ramdas Pophale) SiO2 
 PCOD9542686
Probable space group: I -4 
;
_chemical_formula_sum "Si O2"
_cell_formula_units_Z 40
_cell_length_a 8.198607
_cell_length_b 8.198607
_cell_length_c 29.785630
_cell_angle_alpha 90.000000
_cell_angle_beta 90.000000
_cell_angle_gamma 90.000000
_cell_volume 2002.105360
_symmetry_space_group_name_H-M "I -4 "
_symmetry_group_IT_number 82
_symmetry_cell_setting 'tetragonal'
loop_
_space_group_symop_operation_xyz
x,y,z
y,-x,-z
-x,-y,z
-y,x,-z
1/2+x,1/2+y,1/2+z
1/2+y,1/2-x,1/2-z
1/2-x,1/2-y,1/2+z
1/2-y,1/2+x,1/2-z
loop_
_atom_site_type_symbol
_atom_site_label
_atom_site_fract_x
_atom_site_fract_y
_atom_site_fract_z
Si Si1 0.256765 0.901390 0.803211
Si Si2 0.500000 0.500000 0.862930
Si Si3 0.262652 0.756956 0.396932
Si Si4 0.408923 0.249982 0.511418
Si Si5 0.253818 0.622498 0.204793
Si Si6 0.500000 0.000000 0.445111
O O1 0.194896 0.827474 0.849658
O O2 0.440572 0.827025 0.797611
O O3 0.179417 0.854735 0.755298
O O4 0.264584 0.098066 0.805537
O O5 0.605451 0.371320 0.890232
O O6 0.622207 0.602166 0.830954
O O7 0.223794 0.629899 0.436535
O O8 0.407854 0.869944 0.414668
O O9 0.302602 0.403401 0.494934
O O10 0.380678 0.097193 0.478947
#
# Coordination Sequence:
#
# PCOD9542686 Si02
#       6
#     8   4   8   8   8   4
#     4   8  15  31  54  75 102 146 187 215 257 327
#     4  10  20  32  53  86 114 134 175 234 282 316
#     4  10  21  36  56  80 106 144 187 221 270 334
#     4   9  20  39  58  75 104 145 184 221 270 336
#     4   8  15  30  51  78 110 139 178 226 261 310
#     4  10  22  38  54  81 114 133 170 238 286 316
#
# _framework density 19.978967999999998
#
# number of rings (size 3 to 8) (size 9 to 14) (size 15 to 20)
#    0.000    3.000    0.000    1.200    0.000    8.000 
#    0.000   10.000    0.000    0.000    0.000    0.000 
#    0.000    0.000    0.000    0.000    0.000    0.000 
#
# Total GULP energy -111506.144114 kJ/mol
# GULP energy per Si atom -5575.307206 kJ/mol
# Density = 1.993350 g / cm^3
# Si number density = 19.978968 Si / 1000 Ang^3
#
#
#
# Elastic Constant Matrix: (Units=GPa)
#
#
# Indices 1 2 3 4 5 6 
#
# 1 44.9390 8.3902 44.8822 0.0000 0.0000 -4.4901
# 2 8.3902 44.9391 44.8822 0.0000 0.0000 4.4901
# 3 44.8822 44.8822 166.3525 0.0000 0.0000 0.0000
# 4 0.0000 0.0000 0.0000 22.1681 0.0000 0.0000
# 5 0.0000 0.0000 0.0000 0.0000 22.1681 0.0000
# 6 -4.4901 4.4901 0.0000 0.0000 0.0000 8.7687
#
#
#
# Elastic Compliance Matrix: (Units=1/GPa)
#
#
# Indices 1 2 3 4 5 6 
#
# 1 0.032825 0.001527 -0.009268 0.000000 0.000000 0.016027
# 2 0.001527 0.032825 -0.009268 0.000000 0.000000 -0.016027
# 3 -0.009268 -0.009268 0.011012 0.000000 0.000000 0.000000
# 4 0.000000 0.000000 0.000000 0.045110 0.000000 0.000000
# 5 0.000000 0.000000 0.000000 0.000000 0.045110 0.000000
# 6 0.016027 -0.016027 0.000000 0.000000 0.000000 0.130455
#
#
# Mechanical properties :
#
#
# Convention : Reuss Voigt Hill
#
# Bulk Modulus (GPa) = 23.45039 50.28222 36.86630
# Shear Modulus (GPa) = 14.46880 21.15936 17.81408
#
# Velocity S-wave (km/s) = 2.69402 3.25788 2.98928
# Velocity P-wave (km/s) = 4.63033 6.27487 5.51425
#
# Compressibility (1/GPa) = 0.04264322
#
# Stress axis : x y z
#
# Youngs Moduli (GPa) = 30.46453 30.46454 90.80619
#
# Poissons Ratio (x) = -0.04651 0.84161
# Poissons Ratio (y) = -0.04651 0.84161
# Poissons Ratio (z) = 0.28235 0.28235
#
# Static dielectric constant tensor:
#      x y z
#    x 1.728410 0.000000 0.000000 
#    y 0.000000 1.728410 0.000000 
#    z 0.000000 0.000000 1.716330 
# 
# From -- ./inp_files/3705.got.cif
#   From: 2010.05.17/outbox.cif.g08.bks.cpg/sg82_2_cif.got.tgz:3705.got - 2010.06.03 18:52:26.
