data_PCOD9542853
_publ_section_title
;
Structure prediction by ZEFSAII (Michael W. Deem and Ramdas Pophale) SiO2 
 PCOD9542853
Probable space group: I -4 
;
_chemical_formula_sum "Si O2"
_cell_formula_units_Z 48
_cell_length_a 6.890526
_cell_length_b 6.890526
_cell_length_c 30.928924
_cell_angle_alpha 90.000000
_cell_angle_beta 90.000000
_cell_angle_gamma 90.000000
_cell_volume 1468.485163
_symmetry_space_group_name_H-M "I -4 "
_symmetry_group_IT_number 82
_symmetry_cell_setting 'tetragonal'
loop_
_space_group_symop_operation_xyz
x,y,z
y,-x,-z
-x,-y,z
-y,x,-z
1/2+x,1/2+y,1/2+z
1/2+y,1/2-x,1/2-z
1/2-x,1/2-y,1/2+z
1/2-y,1/2+x,1/2-z
loop_
_atom_site_type_symbol
_atom_site_label
_atom_site_fract_x
_atom_site_fract_y
_atom_site_fract_z
Si Si1 0.771642 0.016602 0.316937
Si Si2 0.230823 0.487113 0.320841
Si Si3 0.713639 0.039515 0.414314
Si Si4 0.219822 0.241153 0.506081
Si Si5 0.740586 0.257911 0.249613
Si Si6 0.295480 0.102245 0.918596
O O1 0.691952 0.054620 0.363611
O O2 0.743302 0.008052 0.263003
O O3 0.724761 0.273890 0.305748
O O4 0.000000 0.000000 0.322910
O O5 0.254753 0.489413 0.259209
O O6 0.267422 0.243323 0.307539
O O7 0.296647 0.460583 0.372019
O O8 0.000000 0.500000 0.324055
O O9 0.836422 0.839544 0.416245
O O10 0.500000 0.000000 0.429891
O O11 0.745921 0.235147 0.441848
O O12 0.292299 0.385485 0.468229
O O13 0.983528 0.259966 0.503782
O O14 0.500000 0.000000 0.919200
#
# Coordination Sequence:
#
# PCOD9542853 Si02
#       6
#     8   8   8   8   8   8
#     4  12  27  41  67  95 137 190 243 296 378 462
#     4  11  19  37  62  89 126 169 234 297 355 419
#     4  11  25  42  64 102 149 187 240 316 391 451
#     4   9  20  39  67 102 140 183 248 312 374 456
#     4  12  23  40  61  93 134 179 235 299 362 447
#     4  10  22  38  70  98 132 191 252 304 374 458
#
# _framework density 32.686743
#
# number of rings (size 3 to 8) (size 9 to 14) (size 15 to 20)
#    0.000    1.167    5.000    0.500    9.333    0.000 
#    0.000    0.000    0.000    3.000    0.000    9.333 
#    0.000    0.000    0.000    0.000    0.000    0.000 
#
# Total GULP energy -133817.307978 kJ/mol
# GULP energy per Si atom -5575.721166 kJ/mol
# Density = 3.261235 g / cm^3
# Si number density = 32.686743 Si / 1000 Ang^3
#
#
#
# Elastic Constant Matrix: (Units=GPa)
#
#
# Indices 1 2 3 4 5 6 
#
# 1 197.4657 70.8410 129.4538 0.0000 0.0000 5.9975
# 2 70.8410 197.4657 129.4538 0.0000 0.0000 -5.9975
# 3 129.4538 129.4538 342.5690 0.0000 0.0000 0.0000
# 4 0.0000 0.0000 0.0000 44.1198 0.0000 0.0000
# 5 0.0000 0.0000 0.0000 0.0000 44.1198 0.0000
# 6 5.9975 -5.9975 0.0000 0.0000 0.0000 54.4710
#
#
#
# Elastic Compliance Matrix: (Units=1/GPa)
#
#
# Indices 1 2 3 4 5 6 
#
# 1 0.006923 -0.001057 -0.002217 0.000000 0.000000 -0.000879
# 2 -0.001057 0.006923 -0.002217 0.000000 0.000000 0.000879
# 3 -0.002217 -0.002217 0.004595 0.000000 0.000000 0.000000
# 4 0.000000 0.000000 0.000000 0.022666 0.000000 0.000000
# 5 0.000000 0.000000 0.000000 0.000000 0.022666 0.000000
# 6 -0.000879 0.000879 0.000000 0.000000 0.000000 0.018552
#
#
# Mechanical properties :
#
#
# Convention : Reuss Voigt Hill
#
# Bulk Modulus (GPa) = 134.05195 155.22194 144.63694
# Shear Modulus (GPa) = 52.19618 55.72559 53.96089
#
# Velocity S-wave (km/s) = 4.00041 4.13345 4.06747
# Velocity P-wave (km/s) = 7.90176 8.38876 8.14890
#
# Compressibility (1/GPa) = 0.00745979
#
# Stress axis : x y z
#
# Youngs Moduli (GPa) = 144.43771 144.43769 217.65020
#
# Poissons Ratio (x) = 0.15270 0.48248
# Poissons Ratio (y) = 0.15270 0.48248
# Poissons Ratio (z) = 0.32019 0.32019
#
# Static dielectric constant tensor:
#      x y z
#    x 2.977360 0.000000 0.000000 
#    y 0.000000 2.977360 0.000000 
#    z 0.000000 0.000000 2.932690 
# 
# From -- ./inp_files/4011.got.cif
#   From: 2010.05.17/outbox.cif.g08.bks.cpg/sg82_3_cif.got.tgz:4011.got - 2010.06.03 18:52:26.
