data_PCOD9542442
_publ_section_title
;
Structure prediction by ZEFSAII (Michael W. Deem and Ramdas Pophale) SiO2 
 PCOD9542442
Probable space group: P -4
;
_chemical_formula_sum "Si O2"
_cell_formula_units_Z 18
_cell_length_a 8.687304
_cell_length_b 8.687304
_cell_length_c 10.941243
_cell_angle_alpha 90.000000
_cell_angle_beta 90.000000
_cell_angle_gamma 90.000000
_cell_volume 825.727412
_symmetry_space_group_name_H-M "P -4"
_symmetry_group_IT_number 81
_symmetry_cell_setting 'tetragonal'
loop_
_space_group_symop_operation_xyz
x,y,z
y,-x,-z
-x,-y,z
-y,x,-z
loop_
_atom_site_type_symbol
_atom_site_label
_atom_site_fract_x
_atom_site_fract_y
_atom_site_fract_z
Si Si1 0.395363 0.291918 0.477091
Si Si2 0.207709 0.041636 0.570787
Si Si3 0.594579 0.272123 0.991609
Si Si4 0.000000 0.500000 0.829498
Si Si5 0.779404 0.792837 0.246974
O O1 0.330072 0.431097 0.557724
O O2 0.364595 0.131301 0.544568
O O3 0.296608 0.306460 0.354422
O O4 0.049244 0.182588 0.303089
O O5 0.080395 0.171147 0.537809
O O6 0.701357 0.218584 0.879743
O O7 0.424033 0.326710 0.950518
O O8 0.566046 0.137543 0.087399
O O9 0.929724 0.348053 0.763463
#
# Coordination Sequence:
#
# PCOD9542442 Si02
#       5
#     4   4   4   2   4
#     4  10  23  40  62  94 124 160 211 252 301 376
#     4   9  20  39  59  89 126 159 200 243 301 375
#     4   9  20  41  66  92 119 155 212 260 300 359
#     4  10  22  40  64  92 124 162 208 254 304 368
#     4  10  22  41  63  88 125 166 197 254 314 351
#
# _framework density 21.798959
#
# number of rings (size 3 to 8) (size 9 to 14) (size 15 to 20)
#    0.000    2.444    0.000    0.000    0.000   21.333 
#    0.000   24.444    0.000    6.000    0.000    0.000 
#    0.000    0.000    0.000    0.000    0.000    0.000 
#
# Total GULP energy -100244.063054 kJ/mol
# GULP energy per Si atom -5569.114614 kJ/mol
# Density = 2.174934 g / cm^3
# Si number density = 21.798959 Si / 1000 Ang^3
#
#
#
# Elastic Constant Matrix: (Units=GPa)
#
#
# Indices 1 2 3 4 5 6 
#
# 1 87.5312 68.2965 30.4499 0.0000 0.0000 -0.4565
# 2 68.2965 87.5312 30.4499 0.0000 0.0000 0.4565
# 3 30.4499 30.4499 60.4030 0.0000 0.0000 0.0000
# 4 0.0000 0.0000 0.0000 20.9801 0.0000 0.0000
# 5 0.0000 0.0000 0.0000 0.0000 20.9801 0.0000
# 6 -0.4565 0.4565 0.0000 0.0000 0.0000 38.5113
#
#
#
# Elastic Compliance Matrix: (Units=1/GPa)
#
#
# Indices 1 2 3 4 5 6 
#
# 1 0.030005 -0.022013 -0.004029 0.000000 0.000000 0.000617
# 2 -0.022013 0.030005 -0.004029 0.000000 0.000000 -0.000617
# 3 -0.004029 -0.004029 0.020617 0.000000 0.000000 0.000000
# 4 0.000000 0.000000 0.000000 0.047664 0.000000 0.000000
# 5 0.000000 0.000000 0.000000 0.000000 0.047664 0.000000
# 6 0.000617 -0.000617 0.000000 0.000000 0.000000 0.025981
#
#
# Mechanical properties :
#
#
# Convention : Reuss Voigt Hill
#
# Bulk Modulus (GPa) = 48.81397 54.87310 51.84353
# Shear Modulus (GPa) = 18.59373 23.17893 20.88633
#
# Velocity S-wave (km/s) = 2.92372 3.26437 3.09873
# Velocity P-wave (km/s) = 5.81713 6.27974 6.05286
#
# Compressibility (1/GPa) = 0.02048594
#
# Stress axis : x y z
#
# Youngs Moduli (GPa) = 33.32747 33.32747 48.50269
#
# Poissons Ratio (x) = 0.73365 0.19541
# Poissons Ratio (y) = 0.73365 0.19541
# Poissons Ratio (z) = 0.13427 0.13427
#
# Static dielectric constant tensor:
#      x y z
#    x 1.926350 0.000000 0.000000 
#    y 0.000000 1.926350 0.000000 
#    z 0.000000 0.000000 1.770860 
# 
# From -- ./inp_files/1150.got.cif
#   From: 2010.05.17/outbox.cif.g08.bks.cpg/sg81_cif.got.tgz:1150.got - 2010.06.03 18:51:07.
