data_PCOD9542292
_publ_section_title
;
Structure prediction by ZEFSAII (Michael W. Deem and Ramdas Pophale) SiO2 
 PCOD9542292
Probable space group: I 41
;
_chemical_formula_sum "Si O2"
_cell_formula_units_Z 60
_cell_length_a 12.028342
_cell_length_b 12.028342
_cell_length_c 20.766259
_cell_angle_alpha 90.000000
_cell_angle_beta 90.000000
_cell_angle_gamma 90.000000
_cell_volume 3004.483352
_symmetry_space_group_name_H-M "I 41"
_symmetry_group_IT_number 80
_symmetry_cell_setting 'tetragonal'
loop_
_space_group_symop_operation_xyz
x,y,z
-y,1/2+x,1/4+z
-x,-y,z
y,1/2-x,1/4+z
1/2+x,1/2+y,1/2+z
1/2-y,x,3/4+z
1/2-x,1/2-y,1/2+z
1/2+y,-x,3/4+z
loop_
_atom_site_type_symbol
_atom_site_label
_atom_site_fract_x
_atom_site_fract_y
_atom_site_fract_z
Si Si1 0.477236 0.767224 0.854460
Si Si2 0.522763 0.267225 0.441288
Si Si3 0.166721 0.750000 0.147874
Si Si4 0.760309 0.834913 0.592730
Si Si5 0.500000 0.500000 0.522874
Si Si6 0.334913 0.260310 0.953017
Si Si7 0.868582 0.513349 0.485172
Si Si8 0.868582 0.986651 0.810575
O O1 0.346609 0.764721 0.865403
O O2 0.500998 0.887763 0.818166
O O3 0.543833 0.746015 0.920306
O O4 0.509136 0.666356 0.808789
O O5 0.653391 0.264722 0.430345
O O6 0.456167 0.246016 0.375442
O O7 0.499002 0.387764 0.477582
O O8 0.490864 0.166356 0.486958
O O9 0.086443 0.808657 0.198910
O O10 0.086444 0.691343 0.096836
O O11 0.817787 0.817788 0.522874
O O12 0.802486 0.750000 0.647874
O O13 0.628927 0.814655 0.583035
O O14 0.314655 0.128928 0.962713
O O15 0.000000 0.500000 0.474687
O O16 0.000000 0.000000 0.821060
#
# Coordination Sequence:
#
# PCOD9542292 Si02
#       8
#     8   8   8   8   4   8   8   8
#     4  12  24  40  65 103 135 179 229 283 361 418
#     4  12  24  40  65 103 135 179 229 283 361 418
#     4  12  22  40  66  98 138 178 226 296 358 418
#     4  12  23  38  65 101 140 178 224 289 350 421
#     4  12  20  40  72 104 144 168 226 312 364 416
#     4  12  23  38  65 101 140 178 224 289 350 421
#     4  12  23  39  66  99 135 175 226 290 351 418
#     4  12  23  39  66  99 135 175 226 290 351 418
#
# _framework density 19.970154000000001
#
# number of rings (size 3 to 8) (size 9 to 14) (size 15 to 20)
#    0.000    0.000    9.333    3.200    0.000    0.000 
#    0.000    2.667    0.000    0.000    0.000    0.000 
#    0.000    0.000    0.000    0.000    0.000    0.000 
#
# Total GULP energy -167441.275344 kJ/mol
# GULP energy per Si atom -5581.375845 kJ/mol
# Density = 1.992470 g / cm^3
# Si number density = 19.970154 Si / 1000 Ang^3
#
#
#
# Elastic Constant Matrix: (Units=GPa)
#
#
# Indices 1 2 3 4 5 6 
#
# 1 74.5302 15.9239 37.9437 0.0000 0.0000 -0.0014
# 2 15.9239 74.5302 37.9437 0.0000 0.0000 0.0014
# 3 37.9437 37.9437 131.1305 0.0000 0.0000 0.0000
# 4 0.0000 0.0000 0.0000 -0.7396 0.0000 0.0000
# 5 0.0000 0.0000 0.0000 0.0000 -0.7396 0.0000
# 6 -0.0014 0.0014 0.0000 0.0000 0.0000 42.4431
#
#
#
# Elastic Compliance Matrix: (Units=1/GPa)
#
#
# Indices 1 2 3 4 5 6 
#
# 1 0.015831 -0.001232 -0.004224 0.000000 0.000000 0.000001
# 2 -0.001232 0.015831 -0.004224 0.000000 0.000000 -0.000001
# 3 -0.004224 -0.004224 0.010071 0.000000 0.000000 0.000000
# 4 0.000000 0.000000 0.000000 -1.352035 0.000000 0.000000
# 5 0.000000 0.000000 0.000000 0.000000 -1.352035 0.000000
# 6 0.000001 -0.000001 0.000000 0.000000 0.000000 0.023561
#
#
# Mechanical properties :
#
#
# Convention : Reuss Voigt Hill
#
# Bulk Modulus (GPa) = 44.69907 51.53483 48.11695
# Shear Modulus (GPa) = -1.91427 20.75141 9.41857
#
# Velocity S-wave (km/s) = -0.98013 3.22704 2.17407
# Velocity P-wave (km/s) = 4.59898 6.30452 5.51804
#
# Compressibility (1/GPa) = 0.02237183
#
# Stress axis : x y z
#
# Youngs Moduli (GPa) = 63.16616 63.16616 99.29727
#
# Poissons Ratio (x) = 0.07781 0.41948
# Poissons Ratio (y) = 0.07781 0.41948
# Poissons Ratio (z) = 0.26684 0.26684
#
# Static dielectric constant tensor:
#      x y z
#    x 1.830470 0.000000 0.000000 
#    y 0.000000 1.830470 0.000000 
#    z 0.000000 0.000000 1.808640 
# 
# From -- ./inp_files/1869.got.cif
#   From: 2010.05.17/outbox.cif.g08.bks.cpg/sg80_cif.got.tgz:1869.got - 2010.06.03 18:49:13.
