data_PCOD9542143
_publ_section_title
;
Structure prediction by ZEFSAII (Michael W. Deem and Ramdas Pophale) SiO2 
 PCOD9542143
Probable space group: I 41
;
_chemical_formula_sum "Si O2"
_cell_formula_units_Z 56
_cell_length_a 13.717023
_cell_length_b 13.717023
_cell_length_c 15.875015
_cell_angle_alpha 90.000000
_cell_angle_beta 90.000000
_cell_angle_gamma 90.000000
_cell_volume 2986.990752
_symmetry_space_group_name_H-M "I 41"
_symmetry_group_IT_number 80
_symmetry_cell_setting 'tetragonal'
loop_
_space_group_symop_operation_xyz
x,y,z
-y,1/2+x,1/4+z
-x,-y,z
y,1/2-x,1/4+z
1/2+x,1/2+y,1/2+z
1/2-y,x,3/4+z
1/2-x,1/2-y,1/2+z
1/2+y,-x,3/4+z
loop_
_atom_site_type_symbol
_atom_site_label
_atom_site_fract_x
_atom_site_fract_y
_atom_site_fract_z
Si Si1 0.645502 0.126880 0.017110
Si Si2 0.000000 0.000000 0.747654
Si Si3 0.631185 0.369220 0.465088
Si Si4 0.658886 0.936322 0.801952
Si Si5 0.618747 0.158732 0.393279
Si Si6 0.342152 0.653881 0.955274
Si Si7 0.920677 0.630950 0.130574
Si Si8 0.500000 0.000000 0.909943
O O1 0.624888 0.111675 0.116201
O O2 0.761461 0.120838 0.002644
O O3 0.627748 0.235227 0.979647
O O4 0.581832 0.050848 0.966082
O O5 0.911185 0.047185 0.695190
O O6 0.053716 0.082127 0.804733
O O7 0.552915 0.347751 0.537586
O O8 0.614402 0.275745 0.405644
O O9 0.614931 0.469787 0.416577
O O10 0.759073 0.910378 0.847190
O O11 0.649083 0.890650 0.709240
O O12 0.559824 0.920493 0.854568
O O13 0.602895 0.138046 0.294395
O O14 0.727666 0.142697 0.430894
#
# Coordination Sequence:
#
# PCOD9542143 Si02
#       8
#     8   4   8   8   8   8   8   4
#     4  10  21  33  60  89 126 155 202 259 325 375
#     4  12  21  35  60  94 118 158 204 267 329 390
#     4  11  19  36  63  97 122 154 202 282 314 370
#     4  12  24  39  64  95 129 162 214 268 335 396
#     4  10  21  33  60  89 126 155 202 259 325 375
#     4   9  20  37  53  85 119 161 200 248 310 374
#     4  12  24  39  64  95 129 162 214 268 335 396
#     4  12  21  35  60  94 118 158 204 267 329 390
#
# _framework density 18.747965000000001
#
# number of rings (size 3 to 8) (size 9 to 14) (size 15 to 20)
#    0.000    1.143    5.714    1.714    4.000    0.571 
#    0.000    0.000    6.286    0.000    0.000    0.000 
#    0.000    0.000    0.000    0.000    0.000    0.000 
#
# Total GULP energy -156060.099458 kJ/mol
# GULP energy per Si atom -5573.574981 kJ/mol
# Density = 1.870529 g / cm^3
# Si number density = 18.747965 Si / 1000 Ang^3
#
#
#
# Elastic Constant Matrix: (Units=GPa)
#
#
# Indices 1 2 3 4 5 6 
#
# 1 67.7151 19.6655 39.4671 0.0000 0.0000 -2.3166
# 2 19.6655 67.7151 39.4671 0.0000 0.0000 2.3166
# 3 39.4671 39.4671 156.6548 0.0000 0.0000 0.0000
# 4 0.0000 0.0000 0.0000 26.7212 0.0000 0.0000
# 5 0.0000 0.0000 0.0000 0.0000 26.7212 0.0000
# 6 -2.3166 2.3166 0.0000 0.0000 0.0000 22.8189
#
#
#
# Elastic Compliance Matrix: (Units=1/GPa)
#
#
# Indices 1 2 3 4 5 6 
#
# 1 0.017917 -0.003101 -0.003733 0.000000 0.000000 0.002134
# 2 -0.003101 0.017917 -0.003733 0.000000 0.000000 -0.002134
# 3 -0.003733 -0.003733 0.008264 0.000000 0.000000 0.000000
# 4 0.000000 0.000000 0.000000 0.037423 0.000000 0.000000
# 5 0.000000 0.000000 0.000000 0.000000 0.037423 0.000000
# 6 0.002134 -0.002134 0.000000 0.000000 0.000000 0.044257
#
#
# Mechanical properties :
#
#
# Convention : Reuss Voigt Hill
#
# Bulk Modulus (GPa) = 43.54342 54.36496 48.95419
# Shear Modulus (GPa) = 26.04317 28.15130 27.09723
#
# Velocity S-wave (km/s) = 3.73113 3.87921 3.80589
# Velocity P-wave (km/s) = 6.46822 7.00893 6.74400
#
# Compressibility (1/GPa) = 0.02296558
#
# Stress axis : x y z
#
# Youngs Moduli (GPa) = 55.81342 55.81342 121.00272
#
# Poissons Ratio (x) = 0.17306 0.45167
# Poissons Ratio (y) = 0.17306 0.45167
# Poissons Ratio (z) = 0.20834 0.20834
#
# Static dielectric constant tensor:
#      x y z
#    x 1.679230 0.000000 0.000000 
#    y 0.000000 1.679230 0.000000 
#    z 0.000000 0.000000 1.718530 
# 
# From -- ./inp_files/1348.got.cif
#   From: 2010.05.17/outbox.cif.g08.bks.cpg/sg80_cif.got.tgz:1348.got - 2010.06.03 18:49:13.
