data_PCOD9542270
_publ_section_title
;
Structure prediction by ZEFSAII (Michael W. Deem and Ramdas Pophale) SiO2 
 PCOD9542270
Probable space group: I 41
;
_chemical_formula_sum "Si O2"
_cell_formula_units_Z 40
_cell_length_a 18.660519
_cell_length_b 18.660519
_cell_length_c 5.021087
_cell_angle_alpha 90.000000
_cell_angle_beta 90.000000
_cell_angle_gamma 90.000000
_cell_volume 1748.417656
_symmetry_space_group_name_H-M "I 41"
_symmetry_group_IT_number 80
_symmetry_cell_setting 'tetragonal'
loop_
_space_group_symop_operation_xyz
x,y,z
-y,1/2+x,1/4+z
-x,-y,z
y,1/2-x,1/4+z
1/2+x,1/2+y,1/2+z
1/2-y,x,3/4+z
1/2-x,1/2-y,1/2+z
1/2+y,-x,3/4+z
loop_
_atom_site_type_symbol
_atom_site_label
_atom_site_fract_x
_atom_site_fract_y
_atom_site_fract_z
Si Si1 0.876320 0.961064 0.731290
Si Si2 0.488652 0.361399 0.927861
Si Si3 0.522785 0.792132 0.983331
Si Si4 0.711070 0.349075 0.707295
Si Si5 0.880568 0.417772 0.150013
O O1 0.936475 0.917411 0.571891
O O2 0.808782 0.956095 0.534448
O O3 0.903128 0.042366 0.768715
O O4 0.851874 0.944106 0.032337
O O5 0.454270 0.284475 0.866716
O O6 0.534796 0.386650 0.672002
O O7 0.539042 0.339903 0.175784
O O8 0.435257 0.798154 0.985191
O O9 0.676077 0.291501 0.904783
O O10 0.655803 0.340122 0.460479
#
# Coordination Sequence:
#
# PCOD9542270 Si02
#       5
#     8   8   8   8   8
#     4  11  25  43  69  98 138 173 226 287 345 398
#     4  12  24  45  70  96 135 177 226 291 341 396
#     4  11  25  45  65 102 134 179 230 276 339 413
#     4  11  25  38  61  95 140 189 221 267 317 403
#     4  11  24  41  64 100 132 181 234 275 331 397
#
# _framework density 22.877828000000001
#
# number of rings (size 3 to 8) (size 9 to 14) (size 15 to 20)
#    0.000    0.800    2.000    5.400    5.600    3.200 
#    0.000    0.000    0.000    2.400    0.000    0.000 
#    0.000    0.000    0.000    0.000    0.000    0.000 
#
# Total GULP energy -111598.879577 kJ/mol
# GULP energy per Si atom -5579.943979 kJ/mol
# Density = 2.282576 g / cm^3
# Si number density = 22.877828 Si / 1000 Ang^3
#
#
#
# Elastic Constant Matrix: (Units=GPa)
#
#
# Indices 1 2 3 4 5 6 
#
# 1 58.9665 27.8294 38.9198 0.0000 0.0000 11.6302
# 2 27.8294 58.9665 38.9198 0.0000 0.0000 -11.6302
# 3 38.9198 38.9198 152.1434 0.0000 0.0000 0.0000
# 4 0.0000 0.0000 0.0000 28.6012 0.0000 0.0000
# 5 0.0000 0.0000 0.0000 0.0000 28.6012 0.0000
# 6 11.6302 -11.6302 0.0000 0.0000 0.0000 21.2109
#
#
#
# Elastic Compliance Matrix: (Units=1/GPa)
#
#
# Indices 1 2 3 4 5 6 
#
# 1 0.034675 -0.019723 -0.003825 0.000000 0.000000 -0.029827
# 2 -0.019723 0.034675 -0.003825 0.000000 0.000000 0.029827
# 3 -0.003825 -0.003825 0.008530 0.000000 0.000000 0.000000
# 4 0.000000 0.000000 0.000000 0.034964 0.000000 0.000000
# 5 0.000000 0.000000 0.000000 0.000000 0.034964 0.000000
# 6 -0.029827 0.029827 0.000000 0.000000 0.000000 0.079855
#
#
# Mechanical properties :
#
#
# Convention : Reuss Voigt Hill
#
# Bulk Modulus (GPa) = 43.22761 53.49051 48.35906
# Shear Modulus (GPa) = 17.23441 26.64314 21.93878
#
# Velocity S-wave (km/s) = 2.74765 3.41630 3.10006
# Velocity P-wave (km/s) = 5.38536 6.24445 5.83075
#
# Compressibility (1/GPa) = 0.02313337
#
# Stress axis : x y z
#
# Youngs Moduli (GPa) = 28.83955 28.83955 117.23971
#
# Poissons Ratio (x) = 0.56881 0.44841
# Poissons Ratio (y) = 0.56881 0.44841
# Poissons Ratio (z) = 0.11030 0.11030
#
# Static dielectric constant tensor:
#      x y z
#    x 1.960020 0.000000 0.000000 
#    y 0.000000 1.960020 0.000000 
#    z 0.000000 0.000000 1.865260 
# 
# From -- ./inp_files/196.got.cif
#   From: 2010.05.17/outbox.cif.g08.bks.cpg/sg80_cif.got.tgz:196.got - 2010.06.03 18:49:13.
