data_PCOD9542942
_publ_section_title
;
Structure prediction by ZEFSAII (Michael W. Deem and Ramdas Pophale) SiO2 
 PCOD9542942
Probable space group: I -4 
;
_chemical_formula_sum "Si O2"
_cell_formula_units_Z 40
_cell_length_a 7.401543
_cell_length_b 7.401543
_cell_length_c 24.082773
_cell_angle_alpha 90.000000
_cell_angle_beta 90.000000
_cell_angle_gamma 90.000000
_cell_volume 1319.322671
_symmetry_space_group_name_H-M "I -4 "
_symmetry_group_IT_number 82
_symmetry_cell_setting 'tetragonal'
loop_
_space_group_symop_operation_xyz
x,y,z
y,-x,-z
-x,-y,z
-y,x,-z
1/2+x,1/2+y,1/2+z
1/2+y,1/2-x,1/2-z
1/2-x,1/2-y,1/2+z
1/2-y,1/2+x,1/2-z
loop_
_atom_site_type_symbol
_atom_site_label
_atom_site_fract_x
_atom_site_fract_y
_atom_site_fract_z
Si Si1 0.192151 0.906629 0.407700
Si Si2 0.464965 0.703018 0.623017
Si Si3 0.807307 0.254405 0.311707
Si Si4 0.734965 0.659634 0.806588
Si Si5 0.277160 0.110607 0.991384
O O1 0.216632 0.701165 0.385244
O O2 0.307649 0.912317 0.462718
O O3 0.240002 0.963650 0.341681
O O4 0.000000 0.000000 0.417846
O O5 0.500000 0.500000 0.598914
O O6 0.530099 0.765396 0.686397
O O7 0.262877 0.643289 0.649978
O O8 0.382613 0.830889 0.572977
O O9 0.694398 0.203037 0.255642
O O10 0.022339 0.210202 0.308539
O O11 0.095588 0.227848 0.996849
#
# Coordination Sequence:
#
# PCOD9542942 Si02
#       5
#     8   8   8   8   8
#     4  10  24  48  76 117 172 219 285 359 429 526
#     4  12  23  42  80 114 155 213 275 356 429 511
#     4  10  23  44  74 114 167 209 276 349 424 523
#     4  10  25  43  73 119 160 216 276 343 432 518
#     4  11  20  46  78 118 161 214 287 354 431 526
#
# _framework density 30.318587000000001
#
# number of rings (size 3 to 8) (size 9 to 14) (size 15 to 20)
#    1.200    0.200    4.000    1.200    2.800    2.800 
#    3.600    1.000    0.000    0.000    0.000    0.000 
#    0.000    0.000    0.000    0.000    0.000    0.000 
#
# Total GULP energy -111445.722149 kJ/mol
# GULP energy per Si atom -5572.286107 kJ/mol
# Density = 3.024958 g / cm^3
# Si number density = 30.318587 Si / 1000 Ang^3
#
#
#
# Elastic Constant Matrix: (Units=GPa)
#
#
# Indices 1 2 3 4 5 6 
#
# 1 162.4908 49.7628 86.9103 0.0000 0.0000 -25.4543
# 2 49.7628 162.4908 86.9103 0.0000 0.0000 25.4543
# 3 86.9103 86.9103 289.2258 0.0000 0.0000 0.0000
# 4 0.0000 0.0000 0.0000 39.4423 0.0000 0.0000
# 5 0.0000 0.0000 0.0000 0.0000 39.4423 0.0000
# 6 -25.4543 25.4543 0.0000 0.0000 0.0000 54.2207
#
#
#
# Elastic Compliance Matrix: (Units=1/GPa)
#
#
# Indices 1 2 3 4 5 6 
#
# 1 0.008753 -0.002504 -0.001878 0.000000 0.000000 0.005285
# 2 -0.002504 0.008753 -0.001878 0.000000 0.000000 -0.005285
# 3 -0.001878 -0.001878 0.004586 0.000000 0.000000 0.000000
# 4 0.000000 0.000000 0.000000 0.025354 0.000000 0.000000
# 5 0.000000 0.000000 0.000000 0.000000 0.025354 0.000000
# 6 0.005285 -0.005285 0.000000 0.000000 0.000000 0.023405
#
#
# Mechanical properties :
#
#
# Convention : Reuss Voigt Hill
#
# Bulk Modulus (GPa) = 104.45991 117.93048 111.19520
# Shear Modulus (GPa) = 44.67640 52.66265 48.66952
#
# Velocity S-wave (km/s) = 3.84287 4.17223 4.01093
# Velocity P-wave (km/s) = 7.36336 7.88616 7.62924
#
# Compressibility (1/GPa) = 0.00957305
#
# Stress axis : x y z
#
# Youngs Moduli (GPa) = 114.24149 114.24150 218.05246
#
# Poissons Ratio (x) = 0.28609 0.40946
# Poissons Ratio (y) = 0.28609 0.40946
# Poissons Ratio (z) = 0.21453 0.21453
#
# Static dielectric constant tensor:
#      x y z
#    x 2.593570 0.000000 0.000000 
#    y 0.000000 2.593570 0.000000 
#    z 0.000000 0.000000 2.288670 
# 
# From -- ./inp_files/3364.got.cif
#   From: 2010.05.17/outbox.cif.g08.bks.cpg/sg82_2_cif.got.tgz:3364.got - 2010.06.03 18:52:26.
