data_PCOD9542788
_publ_section_title
;
Structure prediction by ZEFSAII (Michael W. Deem and Ramdas Pophale) SiO2 
 PCOD9542788
Probable space group: I -4 
;
_chemical_formula_sum "Si O2"
_cell_formula_units_Z 48
_cell_length_a 11.352989
_cell_length_b 11.352989
_cell_length_c 19.740183
_cell_angle_alpha 90.000000
_cell_angle_beta 90.000000
_cell_angle_gamma 90.000000
_cell_volume 2544.319278
_symmetry_space_group_name_H-M "I -4 "
_symmetry_group_IT_number 82
_symmetry_cell_setting 'tetragonal'
loop_
_space_group_symop_operation_xyz
x,y,z
y,-x,-z
-x,-y,z
-y,x,-z
1/2+x,1/2+y,1/2+z
1/2+y,1/2-x,1/2-z
1/2-x,1/2-y,1/2+z
1/2-y,1/2+x,1/2-z
loop_
_atom_site_type_symbol
_atom_site_label
_atom_site_fract_x
_atom_site_fract_y
_atom_site_fract_z
Si Si1 0.878108 0.471056 0.114733
Si Si2 0.610930 0.271108 0.696422
Si Si3 0.323204 0.730964 0.450499
Si Si4 0.856618 0.705680 0.186772
Si Si5 0.820846 0.056629 0.508559
Si Si6 0.942818 0.866708 0.922186
O O1 0.878571 0.341753 0.146349
O O2 0.882897 0.568015 0.173645
O O3 0.000000 0.500000 0.074913
O O4 0.760974 0.484018 0.070598
O O5 0.697863 0.247739 0.758879
O O6 0.471968 0.270950 0.714876
O O7 0.636624 0.382180 0.650366
O O8 0.255777 0.670534 0.387713
O O9 0.261088 0.853652 0.466936
O O10 0.335849 0.650656 0.518414
O O11 0.457510 0.731921 0.426859
O O12 0.938490 0.130772 0.527349
O O13 0.000000 0.000000 0.929170
#
# Coordination Sequence:
#
# PCOD9542788 Si02
#       6
#     8   8   8   8   8   8
#     4  10  21  36  61  91 122 163 207 261 324 375
#     4  11  21  37  61  92 131 166 216 274 338 396
#     4  12  22  39  64  97 129 166 222 278 343 403
#     4  11  21  36  61  95 126 167 216 274 332 403
#     4  11  24  41  61  91 133 169 211 262 330 405
#     4  12  22  38  65 100 133 165 215 291 348 397
#
# _framework density 18.865555000000001
#
# number of rings (size 3 to 8) (size 9 to 14) (size 15 to 20)
#    0.000    0.833    8.333    0.000    2.333    0.000 
#    0.000    3.333    0.000    0.000    0.000    0.000 
#    0.000    0.000    0.000    0.000    0.000    0.000 
#
# Total GULP energy -133727.754374 kJ/mol
# GULP energy per Si atom -5571.989766 kJ/mol
# Density = 1.882262 g / cm^3
# Si number density = 18.865555 Si / 1000 Ang^3
#
#
#
# Elastic Constant Matrix: (Units=GPa)
#
#
# Indices 1 2 3 4 5 6 
#
# 1 77.5516 29.6440 24.4452 0.0000 0.0000 3.5084
# 2 29.6440 77.5516 24.4452 0.0000 0.0000 -3.5084
# 3 24.4452 24.4452 72.1796 0.0000 0.0000 0.0000
# 4 0.0000 0.0000 0.0000 29.6054 0.0000 0.0000
# 5 0.0000 0.0000 0.0000 0.0000 29.6054 0.0000
# 6 3.5084 -3.5084 0.0000 0.0000 0.0000 29.1295
#
#
#
# Elastic Compliance Matrix: (Units=1/GPa)
#
#
# Indices 1 2 3 4 5 6 
#
# 1 0.016141 -0.005108 -0.003737 0.000000 0.000000 -0.002559
# 2 -0.005108 0.016141 -0.003737 0.000000 0.000000 0.002559
# 3 -0.003737 -0.003737 0.016385 0.000000 0.000000 0.000000
# 4 0.000000 0.000000 0.000000 0.033778 0.000000 0.000000
# 5 0.000000 0.000000 0.000000 0.000000 0.033778 0.000000
# 6 -0.002559 0.002559 0.000000 0.000000 0.000000 0.034946
#
#
# Mechanical properties :
#
#
# Convention : Reuss Voigt Hill
#
# Bulk Modulus (GPa) = 42.54426 42.70574 42.62500
# Shear Modulus (GPa) = 27.14968 27.58463 27.36715
#
# Velocity S-wave (km/s) = 3.79768 3.82798 3.81286
# Velocity P-wave (km/s) = 6.46762 6.49799 6.48282
#
# Compressibility (1/GPa) = 0.02350493
#
# Stress axis : x y z
#
# Youngs Moduli (GPa) = 61.95536 61.95536 61.03044
#
# Poissons Ratio (x) = 0.31645 0.22804
# Poissons Ratio (y) = 0.31645 0.22804
# Poissons Ratio (z) = 0.23150 0.23150
#
# Static dielectric constant tensor:
#      x y z
#    x 1.695800 0.000000 0.000000 
#    y 0.000000 1.695800 0.000000 
#    z 0.000000 0.000000 1.689390 
# 
# From -- ./inp_files/2631.got.cif
#   From: 2010.05.17/outbox.cif.g08.bks.cpg/sg82_2_cif.got.tgz:2631.got - 2010.06.03 18:52:26.
