data_PCOD9542713
_publ_section_title
;
Structure prediction by ZEFSAII (Michael W. Deem and Ramdas Pophale) SiO2 
 PCOD9542713
Probable space group: I -4 
;
_chemical_formula_sum "Si O2"
_cell_formula_units_Z 40
_cell_length_a 16.755082
_cell_length_b 16.755082
_cell_length_c 6.304077
_cell_angle_alpha 90.000000
_cell_angle_beta 90.000000
_cell_angle_gamma 90.000000
_cell_volume 1769.761016
_symmetry_space_group_name_H-M "I -4 "
_symmetry_group_IT_number 82
_symmetry_cell_setting 'tetragonal'
loop_
_space_group_symop_operation_xyz
x,y,z
y,-x,-z
-x,-y,z
-y,x,-z
1/2+x,1/2+y,1/2+z
1/2+y,1/2-x,1/2-z
1/2-x,1/2-y,1/2+z
1/2-y,1/2+x,1/2-z
loop_
_atom_site_type_symbol
_atom_site_label
_atom_site_fract_x
_atom_site_fract_y
_atom_site_fract_z
Si Si1 0.254669 0.541881 0.051749
Si Si2 0.154469 0.635268 0.696905
Si Si3 0.875343 0.803237 0.051187
Si Si4 0.485833 0.114387 0.670939
Si Si5 0.547086 0.285483 0.325374
O O1 0.294763 0.608178 0.198220
O O2 0.197955 0.496128 0.218905
O O3 0.200000 0.589425 0.884101
O O4 0.307052 0.480235 0.916093
O O5 0.227474 0.671010 0.551257
O O6 0.118110 0.568791 0.536674
O O7 0.090000 0.698860 0.782486
O O8 0.832699 0.887593 0.039049
O O9 0.962630 0.797840 0.943978
O O10 0.565660 0.064878 0.653665
#
# Coordination Sequence:
#
# PCOD9542713 Si02
#       5
#     8   8   8   8   8
#     4  10  23  40  66  96 133 183 221 283 348 403
#     4  10  23  40  66  98 134 184 224 285 341 423
#     4  10  26  44  70 101 132 186 230 295 349 403
#     4  10  20  35  59  95 137 184 222 271 342 418
#     4  11  24  47  66 100 139 173 242 283 348 420
#
# _framework density 22.601918999999999
#
# number of rings (size 3 to 8) (size 9 to 14) (size 15 to 20)
#    0.000    1.800    2.000    0.000   11.200    3.600 
#    0.000    2.000    0.000    0.000    0.000    0.000 
#    0.000    0.000    0.000    0.000    0.000    0.000 
#
# Total GULP energy -111369.407771 kJ/mol
# GULP energy per Si atom -5568.470389 kJ/mol
# Density = 2.255048 g / cm^3
# Si number density = 22.601919 Si / 1000 Ang^3
#
#
#
# Elastic Constant Matrix: (Units=GPa)
#
#
# Indices 1 2 3 4 5 6 
#
# 1 82.4015 36.9634 40.4368 0.0000 0.0000 12.4572
# 2 36.9634 82.4015 40.4368 0.0000 0.0000 -12.4572
# 3 40.4368 40.4368 90.3800 0.0000 0.0000 0.0000
# 4 0.0000 0.0000 0.0000 31.8307 0.0000 0.0000
# 5 0.0000 0.0000 0.0000 0.0000 31.8307 0.0000
# 6 12.4572 -12.4572 0.0000 0.0000 0.0000 33.2484
#
#
#
# Elastic Compliance Matrix: (Units=1/GPa)
#
#
# Indices 1 2 3 4 5 6 
#
# 1 0.019860 -0.007838 -0.005379 0.000000 0.000000 -0.010378
# 2 -0.007838 0.019860 -0.005379 0.000000 0.000000 0.010378
# 3 -0.005379 -0.005379 0.015877 0.000000 0.000000 0.000000
# 4 0.000000 0.000000 0.000000 0.031416 0.000000 0.000000
# 5 0.000000 0.000000 0.000000 0.000000 0.031416 0.000000
# 6 -0.010378 0.010378 0.000000 0.000000 0.000000 0.037853
#
#
# Mechanical properties :
#
#
# Convention : Reuss Voigt Hill
#
# Bulk Modulus (GPa) = 54.32905 54.53965 54.43435
# Shear Modulus (GPa) = 25.04889 28.53836 26.79362
#
# Velocity S-wave (km/s) = 3.33267 3.55724 3.44678
# Velocity P-wave (km/s) = 6.23686 6.40740 6.32271
#
# Compressibility (1/GPa) = 0.01840636
#
# Stress axis : x y z
#
# Youngs Moduli (GPa) = 50.35226 50.35226 62.98276
#
# Poissons Ratio (x) = 0.39467 0.33877
# Poissons Ratio (y) = 0.39467 0.33877
# Poissons Ratio (z) = 0.27083 0.27083
#
# Static dielectric constant tensor:
#      x y z
#    x 1.908800 0.000000 0.000000 
#    y 0.000000 1.908800 0.000000 
#    z 0.000000 0.000000 1.935430 
# 
# From -- ./inp_files/205.got.cif
#   From: 2010.05.17/outbox.cif.g08.bks.cpg/sg82_1_cif.got.tgz:205.got - 2010.06.03 18:52:26.
