data_PCOD9542787
_publ_section_title
;
Structure prediction by ZEFSAII (Michael W. Deem and Ramdas Pophale) SiO2 
 PCOD9542787
Probable space group: I -4 
;
_chemical_formula_sum "Si O2"
_cell_formula_units_Z 64
_cell_length_a 10.703659
_cell_length_b 10.703659
_cell_length_c 26.988022
_cell_angle_alpha 90.000000
_cell_angle_beta 90.000000
_cell_angle_gamma 90.000000
_cell_volume 3091.972232
_symmetry_space_group_name_H-M "I -4 "
_symmetry_group_IT_number 82
_symmetry_cell_setting 'tetragonal'
loop_
_space_group_symop_operation_xyz
x,y,z
y,-x,-z
-x,-y,z
-y,x,-z
1/2+x,1/2+y,1/2+z
1/2+y,1/2-x,1/2-z
1/2-x,1/2-y,1/2+z
1/2-y,1/2+x,1/2-z
loop_
_atom_site_type_symbol
_atom_site_label
_atom_site_fract_x
_atom_site_fract_y
_atom_site_fract_z
Si Si1 0.326799 0.723704 0.161525
Si Si2 0.543516 0.855300 0.096179
Si Si3 0.550191 0.640800 0.344610
Si Si4 0.017530 0.721074 0.034463
Si Si5 0.940956 0.302330 0.757709
Si Si6 0.915896 0.749591 0.427544
Si Si7 0.094623 0.725732 0.505532
Si Si8 0.107850 0.815639 0.931268
O O1 0.445041 0.788403 0.132851
O O2 0.202629 0.812190 0.161544
O O3 0.374999 0.713827 0.217420
O O4 0.292473 0.604159 0.128478
O O5 0.693182 0.842241 0.097749
O O6 0.500000 0.000000 0.098717
O O7 0.520344 0.803622 0.041135
O O8 0.500000 0.500000 0.333248
O O9 0.470213 0.731054 0.308238
O O10 0.520445 0.661217 0.402580
O O11 0.908332 0.652236 0.004671
O O12 0.939241 0.808373 0.071699
O O13 0.107091 0.626610 0.063473
O O14 0.089205 0.791851 0.989842
O O15 0.855226 0.425985 0.762589
O O16 0.817748 0.823638 0.462023
O O17 0.048578 0.775473 0.452690
#
# Coordination Sequence:
#
# PCOD9542787 Si02
#       8
#     8   8   8   8   8   8   8   8
#     4  10  21  36  61  88 112 152 196 248 304 354
#     4  11  17  32  56  80 115 153 192 233 289 350
#     4  11  22  35  57  88 122 147 184 248 310 352
#     4  12  22  35  53  85 124 157 199 236 288 357
#     4   9  19  37  64  89 110 144 194 245 304 369
#     4  11  22  37  57  82 117 162 204 242 297 344
#     4  11  20  37  54  79 115 165 202 242 286 348
#     4  12  23  33  54  87 123 159 189 235 295 357
#
# _framework density 20.698763
#
# number of rings (size 3 to 8) (size 9 to 14) (size 15 to 20)
#    0.000    1.125    5.000    2.625    3.500    0.250 
#    0.000    0.000   13.750    0.000    0.000    0.000 
#    0.000    0.000    0.000    0.000    0.000    0.000 
#
# Total GULP energy -178396.474312 kJ/mol
# GULP energy per Si atom -5574.889822 kJ/mol
# Density = 2.065165 g / cm^3
# Si number density = 20.698763 Si / 1000 Ang^3
#
#
#
# Elastic Constant Matrix: (Units=GPa)
#
#
# Indices 1 2 3 4 5 6 
#
# 1 35.5334 20.4640 4.2878 0.0000 0.0000 3.8351
# 2 20.4640 35.5334 4.2878 0.0000 0.0000 -3.8351
# 3 4.2878 4.2878 73.4507 0.0000 0.0000 0.0000
# 4 0.0000 0.0000 0.0000 25.6084 0.0000 0.0000
# 5 0.0000 0.0000 0.0000 0.0000 25.6084 0.0000
# 6 3.8351 -3.8351 0.0000 0.0000 0.0000 8.8974
#
#
#
# Elastic Compliance Matrix: (Units=1/GPa)
#
#
# Indices 1 2 3 4 5 6 
#
# 1 0.051514 -0.033495 -0.001052 0.000000 0.000000 -0.036642
# 2 -0.033495 0.051514 -0.001052 0.000000 0.000000 0.036642
# 3 -0.001052 -0.001052 0.013737 0.000000 0.000000 0.000000
# 4 0.000000 0.000000 0.000000 0.039050 0.000000 0.000000
# 5 0.000000 0.000000 0.000000 0.000000 0.039050 0.000000
# 6 -0.036642 0.036642 0.000000 0.000000 0.000000 0.143979
#
#
# Mechanical properties :
#
#
# Convention : Reuss Voigt Hill
#
# Bulk Modulus (GPa) = 21.94522 22.51071 22.22796
# Shear Modulus (GPa) = 11.75828 19.72139 15.73984
#
# Velocity S-wave (km/s) = 2.38600 3.09006 2.76057
# Velocity P-wave (km/s) = 4.26801 4.86110 4.57418
#
# Compressibility (1/GPa) = 0.04556802
#
# Stress axis : x y z
#
# Youngs Moduli (GPa) = 19.41207 19.41207 72.79405
#
# Poissons Ratio (x) = 0.65021 0.07657
# Poissons Ratio (y) = 0.65021 0.07657
# Poissons Ratio (z) = 0.02042 0.02042
#
# Static dielectric constant tensor:
#      x y z
#    x 1.797000 0.000000 0.000000 
#    y 0.000000 1.797000 0.000000 
#    z 0.000000 0.000000 1.753150 
# 
# From -- ./inp_files/3806.got.cif
#   From: 2010.05.17/outbox.cif.g08.bks.cpg/sg82_2_cif.got.tgz:3806.got - 2010.06.03 18:52:26.
