data_PCOD9542422
_publ_section_title
;
Structure prediction by ZEFSAII (Michael W. Deem and Ramdas Pophale) SiO2 
 PCOD9542422
Probable space group: P -4
;
_chemical_formula_sum "Si O2"
_cell_formula_units_Z 18
_cell_length_a 10.781199
_cell_length_b 10.781199
_cell_length_c 7.239385
_cell_angle_alpha 90.000000
_cell_angle_beta 90.000000
_cell_angle_gamma 90.000000
_cell_volume 841.464500
_symmetry_space_group_name_H-M "P -4"
_symmetry_group_IT_number 81
_symmetry_cell_setting 'tetragonal'
loop_
_space_group_symop_operation_xyz
x,y,z
y,-x,-z
-x,-y,z
-y,x,-z
loop_
_atom_site_type_symbol
_atom_site_label
_atom_site_fract_x
_atom_site_fract_y
_atom_site_fract_z
Si Si1 0.795025 0.987120 0.250905
Si Si2 0.932804 0.738495 0.142128
Si Si3 0.853293 0.337450 0.426249
Si Si4 0.500000 0.500000 0.500000
Si Si5 0.746921 0.608497 0.400955
Si Si6 0.000000 0.000000 0.500000
O O1 0.889351 0.880201 0.178093
O O2 0.697897 0.928293 0.390002
O O3 0.889507 0.060857 0.383422
O O4 0.732473 0.048525 0.076177
O O5 0.817165 0.663822 0.225118
O O6 0.056628 0.693569 0.252161
O O7 0.821998 0.483258 0.441997
O O8 0.719298 0.266572 0.446900
O O9 0.605379 0.564409 0.376959
#
# Coordination Sequence:
#
# PCOD9542422 Si02
#       6
#     4   4   4   1   4   1
#     4  11  23  37  62  92 133 175 214 270 338 400
#     4  11  22  38  61 101 134 172 225 272 333 409
#     4  10  21  42  63  94 134 176 224 278 339 391
#     4   8  16  40  72 100 130 188 226 272 352 378
#     4   9  20  39  69  96 134 178 228 280 328 406
#     4  12  20  42  64  92 134 176 216 270 348 428
#
# _framework density 21.391279000000001
#
# number of rings (size 3 to 8) (size 9 to 14) (size 15 to 20)
#    0.000    1.778    2.222    2.000    0.000    0.000 
#    0.000   11.111    0.000    0.000    0.000   28.000 
#    0.000    0.000    0.000    0.000    0.000    0.000 
#
# Total GULP energy -100387.718223 kJ/mol
# GULP energy per Si atom -5577.095457 kJ/mol
# Density = 2.134259 g / cm^3
# Si number density = 21.391279 Si / 1000 Ang^3
#
#
#
# Elastic Constant Matrix: (Units=GPa)
#
#
# Indices 1 2 3 4 5 6 
#
# 1 104.9428 52.7530 49.0384 0.0000 0.0000 4.0254
# 2 52.7530 104.9428 49.0384 0.0000 0.0000 -4.0254
# 3 49.0384 49.0384 133.3345 0.0000 0.0000 0.0000
# 4 0.0000 0.0000 0.0000 15.7945 0.0000 0.0000
# 5 0.0000 0.0000 0.0000 0.0000 15.7945 0.0000
# 6 4.0254 -4.0254 0.0000 0.0000 0.0000 34.4257
#
#
#
# Elastic Compliance Matrix: (Units=1/GPa)
#
#
# Indices 1 2 3 4 5 6 
#
# 1 0.013867 -0.005645 -0.003024 0.000000 0.000000 -0.002282
# 2 -0.005645 0.013867 -0.003024 0.000000 0.000000 0.002282
# 3 -0.003024 -0.003024 0.009724 0.000000 0.000000 0.000000
# 4 0.000000 0.000000 0.000000 0.063313 0.000000 0.000000
# 5 0.000000 0.000000 0.000000 0.000000 0.063313 0.000000
# 6 -0.002282 0.002282 0.000000 0.000000 0.000000 0.029582
#
#
# Mechanical properties :
#
#
# Convention : Reuss Voigt Hill
#
# Bulk Modulus (GPa) = 71.06032 71.65329 71.35680
# Shear Modulus (GPa) = 22.54851 26.02898 24.28874
#
# Velocity S-wave (km/s) = 3.25021 3.49205 3.37330
# Velocity P-wave (km/s) = 6.88306 7.05893 6.97155
#
# Compressibility (1/GPa) = 0.01407255
#
# Stress axis : x y z
#
# Youngs Moduli (GPa) = 72.11155 72.11155 102.83577
#
# Poissons Ratio (x) = 0.40710 0.31097
# Poissons Ratio (y) = 0.40710 0.31097
# Poissons Ratio (z) = 0.21806 0.21806
#
# Static dielectric constant tensor:
#      x y z
#    x 1.853800 0.000000 0.000000 
#    y 0.000000 1.853800 0.000000 
#    z 0.000000 0.000000 1.844390 
# 
# From -- ./inp_files/249.got.cif
#   From: 2010.05.17/outbox.cif.g08.bks.cpg/sg81_cif.got.tgz:249.got - 2010.06.03 18:51:07.
