data_PCOD9542334
_publ_section_title
;
Structure prediction by ZEFSAII (Michael W. Deem and Ramdas Pophale) SiO2 
 PCOD9542334
Probable space group: P -4
;
_chemical_formula_sum "Si O2"
_cell_formula_units_Z 20
_cell_length_a 7.420271
_cell_length_b 7.420271
_cell_length_c 16.419722
_cell_angle_alpha 90.000000
_cell_angle_beta 90.000000
_cell_angle_gamma 90.000000
_cell_volume 904.076818
_symmetry_space_group_name_H-M "P -4"
_symmetry_group_IT_number 81
_symmetry_cell_setting 'tetragonal'
loop_
_space_group_symop_operation_xyz
x,y,z
y,-x,-z
-x,-y,z
-y,x,-z
loop_
_atom_site_type_symbol
_atom_site_label
_atom_site_fract_x
_atom_site_fract_y
_atom_site_fract_z
Si Si1 0.989543 0.218929 0.292184
Si Si2 0.291941 0.019634 0.525072
Si Si3 0.181169 0.242695 0.010081
Si Si4 0.800075 0.688541 0.832806
Si Si5 0.306769 0.237950 0.186412
O O1 0.859933 0.263948 0.216528
O O2 0.935570 0.294753 0.378823
O O3 0.180599 0.286446 0.260584
O O4 0.000000 0.000000 0.300632
O O5 0.176054 0.833486 0.514999
O O6 0.500000 0.000000 0.495826
O O7 0.243670 0.309274 0.098114
O O8 0.244383 0.337532 0.927903
O O9 0.964232 0.241019 0.005415
O O10 0.725503 0.510803 0.792069
O O11 0.018690 0.702262 0.826419
#
# Coordination Sequence:
#
# PCOD9542334 Si02
#       5
#     4   4   4   4   4
#     4  10  18  37  61  90 122 161 212 266 317 387
#     4  11  25  48  75 105 137 175 219 273 343 416
#     4   9  14  26  46  71 110 158 208 259 308 365
#     4   9  17  28  50  84 118 160 212 261 311 367
#     4   9  17  28  50  84 118 160 212 261 311 367
#
# _framework density 22.122015000000001
#
# number of rings (size 3 to 8) (size 9 to 14) (size 15 to 20)
#    0.000    2.400    4.000    0.000    0.000    2.000 
#    0.000    2.000    0.000    3.000    0.000    0.000 
#    0.000    0.000    0.000    0.000    0.000    0.000 
#
# Total GULP energy -111606.419962 kJ/mol
# GULP energy per Si atom -5580.320998 kJ/mol
# Density = 2.207166 g / cm^3
# Si number density = 22.122015 Si / 1000 Ang^3
#
#
#
# Elastic Constant Matrix: (Units=GPa)
#
#
# Indices 1 2 3 4 5 6 
#
# 1 206.7925 -130.5150 -14.6466 0.0000 0.0000 -52.1431
# 2 -130.5150 206.7925 -14.6466 0.0000 0.0000 52.1431
# 3 -14.6466 -14.6466 54.9780 0.0000 0.0000 0.0000
# 4 0.0000 0.0000 0.0000 6.9518 0.0000 0.0000
# 5 0.0000 0.0000 0.0000 0.0000 6.9518 0.0000
# 6 -52.1431 52.1431 0.0000 0.0000 0.0000 17.6476
#
#
#
# Elastic Compliance Matrix: (Units=1/GPa)
#
#
# Indices 1 2 3 4 5 6 
#
# 1 0.024440 -0.009836 0.003891 0.000000 0.000000 0.101275
# 2 -0.009836 0.024440 0.003891 0.000000 0.000000 -0.101275
# 3 0.003891 0.003891 0.020262 0.000000 0.000000 0.000000
# 4 0.000000 0.000000 0.000000 0.143848 0.000000 0.000000
# 5 0.000000 0.000000 0.000000 0.000000 0.143848 0.000000
# 6 0.101275 -0.101275 0.000000 0.000000 0.000000 0.655134
#
#
# Mechanical properties :
#
#
# Convention : Reuss Voigt Hill
#
# Bulk Modulus (GPa) = 15.37677 16.54962 15.96320
# Shear Modulus (GPa) = 4.81807 48.20164 26.50985
#
# Velocity S-wave (km/s) = 1.47739 4.67293 3.46547
# Velocity P-wave (km/s) = 3.14265 6.05081 4.82123
#
# Compressibility (1/GPa) = 0.06503316
#
# Stress axis : x y z
#
# Youngs Moduli (GPa) = 40.91638 40.91638 49.35321
#
# Poissons Ratio (x) = 0.40245 -0.19202
# Poissons Ratio (y) = 0.40245 -0.19202
# Poissons Ratio (z) = -0.15919 -0.15919
#
# Static dielectric constant tensor:
#      x y z
#    x 1.867800 0.000000 0.000000 
#    y 0.000000 1.867800 0.000000 
#    z 0.000000 0.000000 1.542770 
# 
# From -- ./inp_files/1495.got.cif
#   From: 2010.05.17/outbox.cif.g08.bks.cpg/sg81_cif.got.tgz:1495.got - 2010.06.03 18:51:07.
