data_PCOD9542622
_publ_section_title
;
Structure prediction by ZEFSAII (Michael W. Deem and Ramdas Pophale) SiO2 
 PCOD9542622
Probable space group: I -4 
;
_chemical_formula_sum "Si O2"
_cell_formula_units_Z 26
_cell_length_a 11.360963
_cell_length_b 11.360963
_cell_length_c 10.886590
_cell_angle_alpha 90.000000
_cell_angle_beta 90.000000
_cell_angle_gamma 90.000000
_cell_volume 1405.148287
_symmetry_space_group_name_H-M "I -4 "
_symmetry_group_IT_number 82
_symmetry_cell_setting 'tetragonal'
loop_
_space_group_symop_operation_xyz
x,y,z
y,-x,-z
-x,-y,z
-y,x,-z
1/2+x,1/2+y,1/2+z
1/2+y,1/2-x,1/2-z
1/2-x,1/2-y,1/2+z
1/2-y,1/2+x,1/2-z
loop_
_atom_site_type_symbol
_atom_site_label
_atom_site_fract_x
_atom_site_fract_y
_atom_site_fract_z
Si Si1 0.616238 0.737356 0.618403
Si Si2 0.000000 0.000000 0.500000
Si Si3 0.300962 0.425418 0.179044
Si Si4 0.514707 0.644488 0.361553
O O1 0.512977 0.752764 0.718645
O O2 0.701104 0.848178 0.616361
O O3 0.563780 0.702480 0.485473
O O4 0.684787 0.618391 0.659808
O O5 0.883830 0.994763 0.584122
O O6 0.391959 0.341586 0.253449
O O7 0.500000 0.500000 0.369489
#
# Coordination Sequence:
#
# PCOD9542622 Si02
#       4
#     8   2   8   8
#     4  11  20  39  63  88 119 164 203 245 293 371
#     4  12  24  40  54 100 120 156 204 262 304 348
#     4  11  24  36  64  93 123 154 207 255 302 351
#     4  10  17  40  63  83 114 173 205 226 299 379
#
# _framework density 18.503385999999999
#
# number of rings (size 3 to 8) (size 9 to 14) (size 15 to 20)
#    0.000    1.231   10.769    0.000    4.308    0.615 
#    0.000    0.000    0.000    4.615    0.000    0.000 
#    0.000    0.000    0.000    0.000    0.000    0.000 
#
# Total GULP energy -72422.093839 kJ/mol
# GULP energy per Si atom -5570.930295 kJ/mol
# Density = 1.846127 g / cm^3
# Si number density = 18.503386 Si / 1000 Ang^3
#
#
#
# Elastic Constant Matrix: (Units=GPa)
#
#
# Indices 1 2 3 4 5 6 
#
# 1 49.5779 22.7504 10.5264 0.0000 0.0000 -2.1209
# 2 22.7504 49.5779 10.5264 0.0000 0.0000 2.1209
# 3 10.5264 10.5264 66.5619 0.0000 0.0000 0.0000
# 4 0.0000 0.0000 0.0000 24.7723 0.0000 0.0000
# 5 0.0000 0.0000 0.0000 0.0000 24.7723 0.0000
# 6 -2.1209 2.1209 0.0000 0.0000 0.0000 40.6584
#
#
#
# Elastic Compliance Matrix: (Units=1/GPa)
#
#
# Indices 1 2 3 4 5 6 
#
# 1 0.026039 -0.011546 -0.002292 0.000000 0.000000 0.001961
# 2 -0.011546 0.026039 -0.002292 0.000000 0.000000 -0.001961
# 3 -0.002292 -0.002292 0.015749 0.000000 0.000000 0.000000
# 4 0.000000 0.000000 0.000000 0.040368 0.000000 0.000000
# 5 0.000000 0.000000 0.000000 0.000000 0.040368 0.000000
# 6 0.001961 -0.001961 0.000000 0.000000 0.000000 0.024800
#
#
# Mechanical properties :
#
#
# Convention : Reuss Voigt Hill
#
# Bulk Modulus (GPa) = 28.11628 28.14710 28.13169
# Shear Modulus (GPa) = 22.99087 26.16821 24.57954
#
# Velocity S-wave (km/s) = 3.52877 3.76472 3.64865
# Velocity P-wave (km/s) = 5.64191 5.84315 5.74341
#
# Compressibility (1/GPa) = 0.03556658
#
# Stress axis : x y z
#
# Youngs Moduli (GPa) = 38.40377 38.40377 63.49793
#
# Poissons Ratio (x) = 0.44341 0.14554
# Poissons Ratio (y) = 0.44341 0.14554
# Poissons Ratio (z) = 0.08802 0.08802
#
# Static dielectric constant tensor:
#      x y z
#    x 1.662920 0.000000 0.000000 
#    y 0.000000 1.662920 0.000000 
#    z 0.000000 0.000000 1.673460 
# 
# From -- ./inp_files/1375.got.cif
#   From: 2010.05.17/outbox.cif.g08.bks.cpg/sg82_1_cif.got.tgz:1375.got - 2010.06.03 18:52:26.
