data_PCOD9542898
_publ_section_title
;
Structure prediction by ZEFSAII (Michael W. Deem and Ramdas Pophale) SiO2 
 PCOD9542898
Probable space group: I -4 
;
_chemical_formula_sum "Si O2"
_cell_formula_units_Z 42
_cell_length_a 8.498647
_cell_length_b 8.498647
_cell_length_c 28.360952
_cell_angle_alpha 90.000000
_cell_angle_beta 90.000000
_cell_angle_gamma 90.000000
_cell_volume 2048.426504
_symmetry_space_group_name_H-M "I -4 "
_symmetry_group_IT_number 82
_symmetry_cell_setting 'tetragonal'
loop_
_space_group_symop_operation_xyz
x,y,z
y,-x,-z
-x,-y,z
-y,x,-z
1/2+x,1/2+y,1/2+z
1/2+y,1/2-x,1/2-z
1/2-x,1/2-y,1/2+z
1/2-y,1/2+x,1/2-z
loop_
_atom_site_type_symbol
_atom_site_label
_atom_site_fract_x
_atom_site_fract_y
_atom_site_fract_z
Si Si1 0.600764 0.761528 0.747023
Si Si2 0.816345 0.542557 0.563992
Si Si3 0.295270 0.224735 0.966669
Si Si4 0.500000 0.000000 0.900794
Si Si5 0.267829 0.758032 0.851921
Si Si6 0.000000 0.000000 0.500000
Si Si7 0.000000 0.000000 0.319469
O O1 0.420877 0.813136 0.735695
O O2 0.691909 0.710865 0.699995
O O3 0.587762 0.626956 0.786120
O O4 0.787484 0.656667 0.519539
O O5 0.731171 0.378309 0.554249
O O6 0.762479 0.629372 0.610994
O O7 0.000000 0.500000 0.566289
O O8 0.401722 0.113678 0.934741
O O9 0.378430 0.394956 0.970104
O O10 0.614861 0.105400 0.869381
O O11 0.372326 0.599453 0.848475
#
# Coordination Sequence:
#
# PCOD9542898 Si02
#       7
#     8   8   8   4   8   2   4
#     4   9  19  43  70  96 132 173 223 281 350 416
#     4  12  26  44  66 103 139 175 229 285 337 403
#     4  12  25  45  69  96 140 188 223 280 350 402
#     4  12  26  42  71 100 134 184 237 278 340 406
#     4  11  25  43  67 106 132 179 235 287 340 419
#     4  12  20  42  72  84 128 180 244 256 328 430
#     4  10  22  43  74  93 136 181 224 278 356 425
#
# _framework density 20.503540999999998
#
# number of rings (size 3 to 8) (size 9 to 14) (size 15 to 20)
#    0.000    0.952    2.857    4.571    2.667    4.952 
#    6.857    0.000    0.000    0.000    0.000    0.000 
#    0.000    0.000    0.000    0.000    0.000    0.000 
#
# Total GULP energy -117553.886607 kJ/mol
# GULP energy per Si atom -5597.804124 kJ/mol
# Density = 2.045687 g / cm^3
# Si number density = 20.503541 Si / 1000 Ang^3
#
#
#
# Elastic Constant Matrix: (Units=GPa)
#
#
# Indices 1 2 3 4 5 6 
#
# 1 102.1201 45.2223 41.6659 0.0000 0.0000 0.4397
# 2 45.2223 102.1200 41.6659 0.0000 0.0000 -0.4397
# 3 41.6659 41.6659 75.7778 0.0000 0.0000 0.0000
# 4 0.0000 0.0000 0.0000 41.1335 0.0000 0.0000
# 5 0.0000 0.0000 0.0000 0.0000 41.1335 0.0000
# 6 0.4397 -0.4397 0.0000 0.0000 0.0000 27.2925
#
#
#
# Elastic Compliance Matrix: (Units=1/GPa)
#
#
# Indices 1 2 3 4 5 6 
#
# 1 0.013715 -0.003865 -0.005416 0.000000 0.000000 -0.000283
# 2 -0.003865 0.013715 -0.005416 0.000000 0.000000 0.000283
# 3 -0.005416 -0.005416 0.019152 0.000000 0.000000 0.000000
# 4 0.000000 0.000000 0.000000 0.024311 0.000000 0.000000
# 5 0.000000 0.000000 0.000000 0.000000 0.024311 0.000000
# 6 -0.000283 0.000283 0.000000 0.000000 0.000000 0.036649
#
#
# Mechanical properties :
#
#
# Convention : Reuss Voigt Hill
#
# Bulk Modulus (GPa) = 58.17841 59.68068 58.92955
# Shear Modulus (GPa) = 29.94434 32.00950 30.97692
#
# Velocity S-wave (km/s) = 3.82573 3.95545 3.89113
# Velocity P-wave (km/s) = 6.92469 7.07329 6.99939
#
# Compressibility (1/GPa) = 0.01718851
#
# Stress axis : x y z
#
# Youngs Moduli (GPa) = 72.91353 72.91350 52.21305
#
# Poissons Ratio (x) = 0.28180 0.28278
# Poissons Ratio (y) = 0.28180 0.28278
# Poissons Ratio (z) = 0.39490 0.39490
#
# Static dielectric constant tensor:
#      x y z
#    x 1.712690 0.000000 0.000000 
#    y 0.000000 1.712690 0.000000 
#    z 0.000000 0.000000 1.719410 
# 
# From -- ./inp_files/3750.got.cif
#   From: 2010.05.17/outbox.cif.g08.bks.cpg/sg82_2_cif.got.tgz:3750.got - 2010.06.03 18:52:26.
