data_PCOD9542376
_publ_section_title
;
Structure prediction by ZEFSAII (Michael W. Deem and Ramdas Pophale) SiO2 
 PCOD9542376
Probable space group: P -4
;
_chemical_formula_sum "Si O2"
_cell_formula_units_Z 17
_cell_length_a 9.241618
_cell_length_b 9.241618
_cell_length_c 7.204420
_cell_angle_alpha 90.000000
_cell_angle_beta 90.000000
_cell_angle_gamma 90.000000
_cell_volume 615.311525
_symmetry_space_group_name_H-M "P -4"
_symmetry_group_IT_number 81
_symmetry_cell_setting 'tetragonal'
loop_
_space_group_symop_operation_xyz
x,y,z
y,-x,-z
-x,-y,z
-y,x,-z
loop_
_atom_site_type_symbol
_atom_site_label
_atom_site_fract_x
_atom_site_fract_y
_atom_site_fract_z
Si Si1 0.511806 0.802236 0.657947
Si Si2 0.173053 0.280492 0.632713
Si Si3 0.478434 0.164713 0.091872
Si Si4 0.172797 0.079370 0.115747
Si Si5 0.500000 0.500000 0.500000
O O1 0.386609 0.875498 0.533863
O O2 0.680925 0.811201 0.593981
O O3 0.469099 0.636156 0.625369
O O4 0.501196 0.833247 0.873361
O O5 0.235659 0.395604 0.788024
O O6 0.036912 0.191205 0.716727
O O7 0.500000 0.000000 0.154873
O O8 0.308471 0.185804 0.126416
O O9 0.170762 0.970917 0.933920
#
# Coordination Sequence:
#
# PCOD9542376 Si02
#       5
#     4   4   4   4   1
#     4  10  20  40  62  98 140 179 232 300 375 436
#     4  10  22  39  67 102 140 183 239 304 366 448
#     4  10  22  39  67  98 132 191 236 299 370 429
#     4  10  20  41  72 101 139 191 254 298 358 440
#     4   8  20  36  58  96 132 170 216 296 358 444
#
# _framework density 27.628278999999999
#
# number of rings (size 3 to 8) (size 9 to 14) (size 15 to 20)
#    0.000    2.118    2.353    0.000    0.000    8.471 
#    0.000    1.176    0.000    0.000    0.000    0.000 
#    0.000    0.000    0.000    0.000    0.000    0.000 
#
# Total GULP energy -94977.055165 kJ/mol
# GULP energy per Si atom -5586.885598 kJ/mol
# Density = 2.756540 g / cm^3
# Si number density = 27.628279 Si / 1000 Ang^3
#
#
#
# Elastic Constant Matrix: (Units=GPa)
#
#
# Indices 1 2 3 4 5 6 
#
# 1 128.6483 10.0698 26.1452 0.0000 0.0000 8.0907
# 2 10.0698 128.6483 26.1452 0.0000 0.0000 -8.0907
# 3 26.1452 26.1452 133.4944 0.0000 0.0000 0.0000
# 4 0.0000 0.0000 0.0000 39.3687 0.0000 0.0000
# 5 0.0000 0.0000 0.0000 0.0000 39.3687 0.0000
# 6 8.0907 -8.0907 0.0000 0.0000 0.0000 38.6805
#
#
#
# Elastic Compliance Matrix: (Units=1/GPa)
#
#
# Indices 1 2 3 4 5 6 
#
# 1 0.008232 -0.000449 -0.001524 0.000000 0.000000 -0.001816
# 2 -0.000449 0.008232 -0.001524 0.000000 0.000000 0.001816
# 3 -0.001524 -0.001524 0.008088 0.000000 0.000000 0.000000
# 4 0.000000 0.000000 0.000000 0.025401 0.000000 0.000000
# 5 0.000000 0.000000 0.000000 0.000000 0.025401 0.000000
# 6 -0.001816 0.001816 0.000000 0.000000 0.000000 0.026612
#
#
# Mechanical properties :
#
#
# Convention : Reuss Voigt Hill
#
# Bulk Modulus (GPa) = 56.95603 57.27905 57.11754
# Shear Modulus (GPa) = 43.54856 45.37899 44.46378
#
# Velocity S-wave (km/s) = 3.97449 4.05715 4.01603
# Velocity P-wave (km/s) = 6.45925 6.53639 6.49793
#
# Compressibility (1/GPa) = 0.01755740
#
# Stress axis : x y z
#
# Youngs Moduli (GPa) = 121.47340 121.47340 123.63886
#
# Poissons Ratio (x) = 0.05451 0.18848
# Poissons Ratio (y) = 0.05451 0.18848
# Poissons Ratio (z) = 0.18518 0.18518
#
# Static dielectric constant tensor:
#      x y z
#    x 2.247470 0.000000 0.000000 
#    y 0.000000 2.247470 0.000000 
#    z 0.000000 0.000000 2.170980 
# 
# From -- ./inp_files/216.got.cif
#   From: 2010.05.17/outbox.cif.g08.bks.cpg/sg81_cif.got.tgz:216.got - 2010.06.03 18:51:07.
