data_PCOD9542421
_publ_section_title
;
Structure prediction by ZEFSAII (Michael W. Deem and Ramdas Pophale) SiO2 
 PCOD9542421
Probable space group: P -4
;
_chemical_formula_sum "Si O2"
_cell_formula_units_Z 12
_cell_length_a 8.466871
_cell_length_b 8.466871
_cell_length_c 5.935017
_cell_angle_alpha 90.000000
_cell_angle_beta 90.000000
_cell_angle_gamma 90.000000
_cell_volume 425.468932
_symmetry_space_group_name_H-M "P -4"
_symmetry_group_IT_number 81
_symmetry_cell_setting 'tetragonal'
loop_
_space_group_symop_operation_xyz
x,y,z
y,-x,-z
-x,-y,z
-y,x,-z
loop_
_atom_site_type_symbol
_atom_site_label
_atom_site_fract_x
_atom_site_fract_y
_atom_site_fract_z
Si Si1 0.892885 0.364458 0.023249
Si Si2 0.205758 0.901002 0.594421
Si Si3 0.585585 0.328864 0.712031
O O1 0.799330 0.462390 0.211435
O O2 0.000000 0.500000 0.908462
O O3 0.002035 0.246914 0.173853
O O4 0.741592 0.324931 0.868517
O O5 0.333689 0.771242 0.510579
O O6 0.035120 0.816769 0.596761
O O7 0.500000 0.500000 0.713663
#
# Coordination Sequence:
#
# PCOD9542421 Si02
#       3
#     4   4   4
#     4  10  21  41  75 109 139 192 257 318 370 422
#     4  10  25  46  67 106 159 201 237 293 395 470
#     4  11  21  47  77 111 141 192 271 326 363 428
#
# _framework density 28.204173000000001
#
# number of rings (size 3 to 8) (size 9 to 14) (size 15 to 20)
#    0.000    1.667    3.333    0.000    0.000   10.667 
#   18.000    1.667    0.000    0.000    0.000    0.000 
#    0.000    0.000    0.000    0.000    0.000    0.000 
#
# Total GULP energy -66805.205628 kJ/mol
# GULP energy per Si atom -5567.100469 kJ/mol
# Density = 2.813998 g / cm^3
# Si number density = 28.204173 Si / 1000 Ang^3
#
#
#
# Elastic Constant Matrix: (Units=GPa)
#
#
# Indices 1 2 3 4 5 6 
#
# 1 196.2514 101.8257 36.7988 0.0000 0.0000 15.2652
# 2 101.8257 196.2514 36.7988 0.0000 0.0000 -15.2652
# 3 36.7988 36.7988 61.1530 0.0000 0.0000 0.0000
# 4 0.0000 0.0000 0.0000 53.1945 0.0000 0.0000
# 5 0.0000 0.0000 0.0000 0.0000 53.1945 0.0000
# 6 15.2652 -15.2652 0.0000 0.0000 0.0000 98.1855
#
#
#
# Elastic Compliance Matrix: (Units=1/GPa)
#
#
# Indices 1 2 3 4 5 6 
#
# 1 0.007546 -0.003605 -0.002371 0.000000 0.000000 -0.001734
# 2 -0.003605 0.007546 -0.002371 0.000000 0.000000 0.001734
# 3 -0.002371 -0.002371 0.019206 0.000000 0.000000 0.000000
# 4 0.000000 0.000000 0.000000 0.018799 0.000000 0.000000
# 5 0.000000 0.000000 0.000000 0.000000 0.018799 0.000000
# 6 -0.001734 0.001734 0.000000 0.000000 0.000000 0.010724
#
#
# Mechanical properties :
#
#
# Convention : Reuss Voigt Hill
#
# Bulk Modulus (GPa) = 56.81074 89.38915 73.09994
# Shear Modulus (GPa) = 47.53705 59.46375 53.50040
#
# Velocity S-wave (km/s) = 4.10989 4.59664 4.36006
# Velocity P-wave (km/s) = 6.53514 7.74174 7.16389
#
# Compressibility (1/GPa) = 0.01760230
#
# Stress axis : x y z
#
# Youngs Moduli (GPa) = 132.52795 132.52795 52.06713
#
# Poissons Ratio (x) = 0.47780 0.12345
# Poissons Ratio (y) = 0.47780 0.12345
# Poissons Ratio (z) = 0.31423 0.31423
#
# Static dielectric constant tensor:
#      x y z
#    x 2.881440 0.000000 0.000000 
#    y 0.000000 2.881440 0.000000 
#    z 0.000000 0.000000 2.410580 
# 
# From -- ./inp_files/445.got.cif
#   From: 2010.05.17/outbox.cif.g08.bks.cpg/sg81_cif.got.tgz:445.got - 2010.06.03 18:51:07.
