data_PCOD9542169
_publ_section_title
;
Structure prediction by ZEFSAII (Michael W. Deem and Ramdas Pophale) SiO2 
 PCOD9542169
Probable space group: I 41
;
_chemical_formula_sum "Si O2"
_cell_formula_units_Z 52
_cell_length_a 16.742147
_cell_length_b 16.742147
_cell_length_c 8.069005
_cell_angle_alpha 90.000000
_cell_angle_beta 90.000000
_cell_angle_gamma 90.000000
_cell_volume 2261.737955
_symmetry_space_group_name_H-M "I 41"
_symmetry_group_IT_number 80
_symmetry_cell_setting 'tetragonal'
loop_
_space_group_symop_operation_xyz
x,y,z
-y,1/2+x,1/4+z
-x,-y,z
y,1/2-x,1/4+z
1/2+x,1/2+y,1/2+z
1/2-y,x,3/4+z
1/2-x,1/2-y,1/2+z
1/2+y,-x,3/4+z
loop_
_atom_site_type_symbol
_atom_site_label
_atom_site_fract_x
_atom_site_fract_y
_atom_site_fract_z
Si Si1 0.525907 0.625765 0.104030
Si Si2 0.759996 0.663070 0.808971
Si Si3 0.592961 0.879173 0.862621
Si Si4 0.736869 0.350422 0.206138
Si Si5 0.001508 0.365734 0.055741
Si Si6 0.000000 0.000000 0.344459
Si Si7 0.362847 0.960793 0.696266
O O1 0.588187 0.561647 0.184728
O O2 0.475873 0.663164 0.255035
O O3 0.580221 0.695327 0.035305
O O4 0.480572 0.575545 0.964077
O O5 0.733174 0.683541 0.993377
O O6 0.678716 0.653015 0.706969
O O7 0.553291 0.830955 0.707929
O O8 0.638425 0.955314 0.785710
O O9 0.530136 0.923455 0.988064
O O10 0.690151 0.279801 0.298427
O O11 0.683603 0.432412 0.209990
O O12 0.815443 0.391165 0.289721
O O13 0.951104 0.430154 0.160681
#
# Coordination Sequence:
#
# PCOD9542169 Si02
#       7
#     8   8   8   8   8   4   8
#     4  11  23  43  69 101 140 178 247 297 358 426
#     4  12  30  43  61 104 146 192 226 302 378 431
#     4  11  23  43  69 101 140 178 247 297 358 426
#     4  10  24  45  69 106 144 188 240 292 372 443
#     4  10  21  43  73  96 132 191 229 290 357 434
#     4  12  20  42  72 108 136 170 252 314 328 440
#     4  10  21  43  73  96 132 191 229 290 357 434
#
# _framework density 22.991168999999999
#
# number of rings (size 3 to 8) (size 9 to 14) (size 15 to 20)
#    0.000    1.231    4.615    0.923    8.615    0.000 
#    2.769    6.154    0.000    0.000    0.000    0.000 
#    0.000    0.000    0.000    0.000    0.000    0.000 
#
# Total GULP energy -144815.721921 kJ/mol
# GULP energy per Si atom -5569.835459 kJ/mol
# Density = 2.293884 g / cm^3
# Si number density = 22.991169 Si / 1000 Ang^3
#
#
#
# Elastic Constant Matrix: (Units=GPa)
#
#
# Indices 1 2 3 4 5 6 
#
# 1 67.9757 12.8539 18.4313 0.0000 0.0000 -1.6907
# 2 12.8539 67.9757 18.4313 0.0000 0.0000 1.6907
# 3 18.4313 18.4313 66.7679 0.0000 0.0000 0.0000
# 4 0.0000 0.0000 0.0000 18.3328 0.0000 0.0000
# 5 0.0000 0.0000 0.0000 0.0000 18.3328 0.0000
# 6 -1.6907 1.6907 0.0000 0.0000 0.0000 48.4486
#
#
#
# Elastic Compliance Matrix: (Units=1/GPa)
#
#
# Indices 1 2 3 4 5 6 
#
# 1 0.016167 -0.002014 -0.003907 0.000000 0.000000 0.000634
# 2 -0.002014 0.016167 -0.003907 0.000000 0.000000 -0.000634
# 3 -0.003907 -0.003907 0.017134 0.000000 0.000000 0.000000
# 4 0.000000 0.000000 0.000000 0.054547 0.000000 0.000000
# 5 0.000000 0.000000 0.000000 0.000000 0.054547 0.000000
# 6 0.000634 -0.000634 0.000000 0.000000 0.000000 0.020685
#
#
# Mechanical properties :
#
#
# Convention : Reuss Voigt Hill
#
# Bulk Modulus (GPa) = 33.54232 33.57248 33.55740
# Shear Modulus (GPa) = 23.94174 27.22303 25.58238
#
# Velocity S-wave (km/s) = 3.23049 3.44476 3.33934
# Velocity P-wave (km/s) = 5.34188 5.51868 5.43100
#
# Compressibility (1/GPa) = 0.02981309
#
# Stress axis : x y z
#
# Youngs Moduli (GPa) = 61.85424 61.85424 58.36225
#
# Poissons Ratio (x) = 0.12454 0.22803
# Poissons Ratio (y) = 0.12454 0.22803
# Poissons Ratio (z) = 0.24167 0.24167
#
# Static dielectric constant tensor:
#      x y z
#    x 1.897870 0.000000 0.000000 
#    y 0.000000 1.897870 0.000000 
#    z 0.000000 0.000000 1.943860 
# 
# From -- ./inp_files/721.got.cif
#   From: 2010.05.17/outbox.cif.g08.bks.cpg/sg80_cif.got.tgz:721.got - 2010.06.03 18:49:13.
