data_PCOD9542893
_publ_section_title
;
Structure prediction by ZEFSAII (Michael W. Deem and Ramdas Pophale) SiO2 
 PCOD9542893
Probable space group: I -4 
;
_chemical_formula_sum "Si O2"
_cell_formula_units_Z 40
_cell_length_a 8.449678
_cell_length_b 8.449678
_cell_length_c 25.089472
_cell_angle_alpha 90.000000
_cell_angle_beta 90.000000
_cell_angle_gamma 90.000000
_cell_volume 1791.314495
_symmetry_space_group_name_H-M "I -4 "
_symmetry_group_IT_number 82
_symmetry_cell_setting 'tetragonal'
loop_
_space_group_symop_operation_xyz
x,y,z
y,-x,-z
-x,-y,z
-y,x,-z
1/2+x,1/2+y,1/2+z
1/2+y,1/2-x,1/2-z
1/2-x,1/2-y,1/2+z
1/2-y,1/2+x,1/2-z
loop_
_atom_site_type_symbol
_atom_site_label
_atom_site_fract_x
_atom_site_fract_y
_atom_site_fract_z
Si Si1 0.239254 0.412394 0.232799
Si Si2 0.155498 0.388095 0.903948
Si Si3 0.178289 0.977731 0.180266
Si Si4 0.220412 0.145593 0.510224
Si Si5 0.807065 0.796400 0.627785
O O1 0.196031 0.584186 0.256636
O O2 0.395274 0.338684 0.261610
O O3 0.263799 0.430007 0.169771
O O4 0.147036 0.265386 0.856747
O O5 0.294380 0.510082 0.889423
O O6 0.000000 0.500000 0.905889
O O7 0.169746 0.306722 0.961057
O O8 0.268359 0.140103 0.163954
O O9 0.000000 0.000000 0.161965
O O10 0.272443 0.195488 0.569511
O O11 0.045502 0.209814 0.495136
#
# Coordination Sequence:
#
# PCOD9542893 Si02
#       5
#     8   8   8   8   8
#     4  11  25  43  63  95 130 172 217 267 329 386
#     4   9  21  41  65  94 128 167 214 265 325 389
#     4  11  23  44  61  94 129 162 216 266 326 385
#     4   9  19  40  66  95 124 166 219 260 319 389
#     4  10  22  43  65  95 128 167 216 267 316 389
#
# _framework density 22.329972999999999
#
# number of rings (size 3 to 8) (size 9 to 14) (size 15 to 20)
#    0.000    2.000    2.000    0.000    5.600    0.000 
#   18.000    0.000    0.000    0.000    0.000    0.000 
#    0.000    0.000    0.000    0.000    0.000    0.000 
#
# Total GULP energy -111453.142044 kJ/mol
# GULP energy per Si atom -5572.657102 kJ/mol
# Density = 2.227915 g / cm^3
# Si number density = 22.329973 Si / 1000 Ang^3
#
#
#
# Elastic Constant Matrix: (Units=GPa)
#
#
# Indices 1 2 3 4 5 6 
#
# 1 39.8328 -5.4597 23.7937 0.0000 0.0000 -6.6296
# 2 -5.4597 39.8328 23.7937 0.0000 0.0000 6.6296
# 3 23.7937 23.7937 136.1339 0.0000 0.0000 0.0000
# 4 0.0000 0.0000 0.0000 25.2255 0.0000 0.0000
# 5 0.0000 0.0000 0.0000 0.0000 25.2255 0.0000
# 6 -6.6296 6.6296 0.0000 0.0000 0.0000 18.4570
#
#
#
# Elastic Compliance Matrix: (Units=1/GPa)
#
#
# Indices 1 2 3 4 5 6 
#
# 1 0.031526 0.006853 -0.006708 0.000000 0.000000 0.008862
# 2 0.006853 0.031526 -0.006708 0.000000 0.000000 -0.008862
# 3 -0.006708 -0.006708 0.009691 0.000000 0.000000 0.000000
# 4 0.000000 0.000000 0.000000 0.039642 0.000000 0.000000
# 5 0.000000 0.000000 0.000000 0.000000 0.039642 0.000000
# 6 0.008862 -0.008862 0.000000 0.000000 0.000000 0.060547
#
#
# Mechanical properties :
#
#
# Convention : Reuss Voigt Hill
#
# Bulk Modulus (GPa) = 16.77364 33.33944 25.05654
# Shear Modulus (GPa) = 20.36056 25.35972 22.86014
#
# Velocity S-wave (km/s) = 3.02288 3.37364 3.20307
# Velocity P-wave (km/s) = 4.43980 5.48981 4.99249
#
# Compressibility (1/GPa) = 0.05961737
#
# Stress axis : x y z
#
# Youngs Moduli (GPa) = 31.71955 31.71955 103.19283
#
# Poissons Ratio (x) = -0.21738 0.69222
# Poissons Ratio (y) = -0.21738 0.69222
# Poissons Ratio (z) = 0.21278 0.21278
#
# Static dielectric constant tensor:
#      x y z
#    x 1.922980 0.000000 0.000000 
#    y 0.000000 1.922980 0.000000 
#    z 0.000000 0.000000 1.844980 
# 
# From -- ./inp_files/3316.got.cif
#   From: 2010.05.17/outbox.cif.g08.bks.cpg/sg82_2_cif.got.tgz:3316.got - 2010.06.03 18:52:26.
