data_PCOD9542095
_publ_section_title
;
Structure prediction by ZEFSAII (Michael W. Deem and Ramdas Pophale) SiO2 
 PCOD9542095
Probable space group: I 41
;
_chemical_formula_sum "Si O2"
_cell_formula_units_Z 48
_cell_length_a 8.805712
_cell_length_b 8.805712
_cell_length_c 25.700205
_cell_angle_alpha 90.000000
_cell_angle_beta 90.000000
_cell_angle_gamma 90.000000
_cell_volume 1992.808386
_symmetry_space_group_name_H-M "I 41"
_symmetry_group_IT_number 80
_symmetry_cell_setting 'tetragonal'
loop_
_space_group_symop_operation_xyz
x,y,z
-y,1/2+x,1/4+z
-x,-y,z
y,1/2-x,1/4+z
1/2+x,1/2+y,1/2+z
1/2-y,x,3/4+z
1/2-x,1/2-y,1/2+z
1/2+y,-x,3/4+z
loop_
_atom_site_type_symbol
_atom_site_label
_atom_site_fract_x
_atom_site_fract_y
_atom_site_fract_z
Si Si1 0.162776 0.047924 0.655240
Si Si2 0.521908 0.841222 0.151288
Si Si3 0.671167 0.057695 0.561372
Si Si4 0.245681 0.793077 0.229855
Si Si5 0.874047 0.799134 0.507790
Si Si6 0.653183 0.566181 0.482206
O O1 0.096552 0.195698 0.624152
O O2 0.239673 0.930966 0.615646
O O3 0.302016 0.097221 0.692081
O O4 0.000000 0.000000 0.681242
O O5 0.367699 0.802600 0.183125
O O6 0.645323 0.873482 0.197012
O O7 0.500000 0.000000 0.122098
O O8 0.781248 0.937452 0.532524
O O9 0.500000 0.000000 0.569761
O O10 0.669901 0.199168 0.522465
O O11 0.078651 0.747060 0.210632
O O12 0.258408 0.949586 0.262683
O O13 0.771121 0.653454 0.518000
O O14 0.500000 0.500000 0.506201
#
# Coordination Sequence:
#
# PCOD9542095 Si02
#       6
#     8   8   8   8   8   8
#     4  11  22  37  57  86 126 167 208 260 334 405
#     4   8  17  34  57  82 110 152 203 252 305 377
#     4  11  22  38  59  87 124 166 212 266 329 397
#     4  10  19  37  62  86 118 162 217 268 317 381
#     4   9  19  36  59  85 115 160 208 257 321 392
#     4  11  21  34  58  92 121 157 211 273 322 376
#
# _framework density 24.086611000000001
#
# number of rings (size 3 to 8) (size 9 to 14) (size 15 to 20)
#    0.000    2.000    0.000    5.500    0.000    4.667 
#    0.000    3.333    0.000   14.000    0.000    0.000 
#    0.000    0.000    0.000    0.000    0.000    0.000 
#
# Total GULP energy -133713.726091 kJ/mol
# GULP energy per Si atom -5571.405254 kJ/mol
# Density = 2.403179 g / cm^3
# Si number density = 24.086611 Si / 1000 Ang^3
#
#
#
# Elastic Constant Matrix: (Units=GPa)
#
#
# Indices 1 2 3 4 5 6 
#
# 1 154.8459 46.8198 27.0260 0.0000 0.0000 13.0197
# 2 46.8198 154.8459 27.0260 0.0000 0.0000 -13.0197
# 3 27.0260 27.0260 36.3596 0.0000 0.0000 0.0000
# 4 0.0000 0.0000 0.0000 29.3862 0.0000 0.0000
# 5 0.0000 0.0000 0.0000 0.0000 29.3862 0.0000
# 6 13.0197 -13.0197 0.0000 0.0000 0.0000 44.6231
#
#
#
# Elastic Compliance Matrix: (Units=1/GPa)
#
#
# Indices 1 2 3 4 5 6 
#
# 1 0.008075 -0.001882 -0.004603 0.000000 0.000000 -0.002905
# 2 -0.001882 0.008075 -0.004603 0.000000 0.000000 0.002905
# 3 -0.004603 -0.004603 0.034345 0.000000 0.000000 0.000000
# 4 0.000000 0.000000 0.000000 0.034030 0.000000 0.000000
# 5 0.000000 0.000000 0.000000 0.000000 0.034030 0.000000
# 6 -0.002905 0.002905 0.000000 0.000000 0.000000 0.024105
#
#
# Mechanical properties :
#
#
# Convention : Reuss Voigt Hill
#
# Bulk Modulus (GPa) = 35.31181 60.86612 48.08896
# Shear Modulus (GPa) = 28.69026 37.02443 32.85734
#
# Velocity S-wave (km/s) = 3.45502 3.92489 3.69742
# Velocity P-wave (km/s) = 5.53248 6.77231 6.18355
#
# Compressibility (1/GPa) = 0.02831914
#
# Stress axis : x y z
#
# Youngs Moduli (GPa) = 123.84136 123.84136 29.11595
#
# Poissons Ratio (x) = 0.23313 0.13401
# Poissons Ratio (y) = 0.23313 0.13401
# Poissons Ratio (z) = 0.57001 0.57001
#
# Static dielectric constant tensor:
#      x y z
#    x 2.016600 0.000000 0.000000 
#    y 0.000000 2.016600 0.000000 
#    z 0.000000 0.000000 1.963190 
# 
# From -- ./inp_files/2607.got.cif
#   From: 2010.05.17/outbox.cif.g08.bks.cpg/sg80_cif.got.tgz:2607.got - 2010.06.03 18:49:13.
