data_PCOD9542751
_publ_section_title
;
Structure prediction by ZEFSAII (Michael W. Deem and Ramdas Pophale) SiO2 
 PCOD9542751
Probable space group: I -4 
;
_chemical_formula_sum "Si O2"
_cell_formula_units_Z 52
_cell_length_a 15.730482
_cell_length_b 15.730482
_cell_length_c 8.317097
_cell_angle_alpha 90.000000
_cell_angle_beta 90.000000
_cell_angle_gamma 90.000000
_cell_volume 2058.049550
_symmetry_space_group_name_H-M "I -4 "
_symmetry_group_IT_number 82
_symmetry_cell_setting 'tetragonal'
loop_
_space_group_symop_operation_xyz
x,y,z
y,-x,-z
-x,-y,z
-y,x,-z
1/2+x,1/2+y,1/2+z
1/2+y,1/2-x,1/2-z
1/2-x,1/2-y,1/2+z
1/2-y,1/2+x,1/2-z
loop_
_atom_site_type_symbol
_atom_site_label
_atom_site_fract_x
_atom_site_fract_y
_atom_site_fract_z
Si Si1 0.000000 0.000000 0.500000
Si Si2 0.359226 0.678890 0.602411
Si Si3 0.412007 0.830261 0.313203
Si Si4 0.756509 0.252279 0.364433
Si Si5 0.643173 0.507228 0.739672
Si Si6 0.400376 0.845341 0.964091
Si Si7 0.188612 0.491765 0.358996
Si Si8 0.500000 0.500000 0.500000
O O1 0.913411 0.984563 0.399375
O O2 0.311497 0.679976 0.432625
O O3 0.303505 0.752798 0.692669
O O4 0.349771 0.592787 0.698037
O O5 0.453807 0.716849 0.617019
O O6 0.310237 0.825122 0.342206
O O7 0.453723 0.736885 0.272755
O O8 0.447862 0.858056 0.486256
O O9 0.427438 0.874504 0.141535
O O10 0.841338 0.260141 0.475234
O O11 0.575348 0.538483 0.605709
O O12 0.469266 0.836171 0.823870
O O13 0.333460 0.911825 0.890866
#
# Coordination Sequence:
#
# PCOD9542751 Si02
#       8
#     2   8   8   8   8   8   8   2
#     4  10  28  38  60  98 144 174 220 274 348 434
#     4  10  21  40  68  96 135 172 229 289 338 417
#     4  11  24  43  70 102 135 186 227 289 353 411
#     4  10  20  39  65  99 129 172 234 281 335 402
#     4  11  24  43  64 100 139 180 226 279 357 423
#     4  11  24  46  67 100 141 182 233 294 343 414
#     4  10  25  44  69 103 133 186 235 282 354 406
#     4  10  20  42  64  90 140 182 224 278 352 434
#
# _framework density 25.266642999999998
#
# number of rings (size 3 to 8) (size 9 to 14) (size 15 to 20)
#    0.000    1.538    1.538    2.769    4.308    4.000 
#    5.538    0.000    0.000    0.000    0.000    0.000 
#    0.000    0.000    0.000    0.000    0.000    0.000 
#
# Total GULP energy -144755.558726 kJ/mol
# GULP energy per Si atom -5567.521489 kJ/mol
# Density = 2.520913 g / cm^3
# Si number density = 25.266643 Si / 1000 Ang^3
#
#
#
# Elastic Constant Matrix: (Units=GPa)
#
#
# Indices 1 2 3 4 5 6 
#
# 1 65.9907 8.6074 6.4459 0.0000 0.0000 7.1388
# 2 8.6074 65.9907 6.4459 0.0000 0.0000 -7.1388
# 3 6.4459 6.4459 112.3101 0.0000 0.0000 0.0000
# 4 0.0000 0.0000 0.0000 30.1732 0.0000 0.0000
# 5 0.0000 0.0000 0.0000 0.0000 30.1732 0.0000
# 6 7.1388 -7.1388 0.0000 0.0000 0.0000 31.1355
#
#
#
# Elastic Compliance Matrix: (Units=1/GPa)
#
#
# Indices 1 2 3 4 5 6 
#
# 1 0.016010 -0.002471 -0.000777 0.000000 0.000000 -0.004237
# 2 -0.002471 0.016010 -0.000777 0.000000 0.000000 0.004237
# 3 -0.000777 -0.000777 0.008993 0.000000 0.000000 0.000000
# 4 0.000000 0.000000 0.000000 0.033142 0.000000 0.000000
# 5 0.000000 0.000000 0.000000 0.000000 0.033142 0.000000
# 6 -0.004237 0.004237 0.000000 0.000000 0.000000 0.034061
#
#
# Mechanical properties :
#
#
# Convention : Reuss Voigt Hill
#
# Bulk Modulus (GPa) = 30.33638 31.92110 31.12874
# Shear Modulus (GPa) = 31.17286 33.14921 32.16103
#
# Velocity S-wave (km/s) = 3.51630 3.62605 3.57159
# Velocity P-wave (km/s) = 5.34026 5.49473 5.41805
#
# Compressibility (1/GPa) = 0.03296372
#
# Stress axis : x y z
#
# Youngs Moduli (GPa) = 62.46015 62.46015 111.19612
#
# Poissons Ratio (x) = 0.15432 0.08641
# Poissons Ratio (y) = 0.15432 0.08641
# Poissons Ratio (z) = 0.04854 0.04854
#
# Static dielectric constant tensor:
#      x y z
#    x 2.110370 0.000000 0.000000 
#    y 0.000000 2.110370 0.000000 
#    z 0.000000 0.000000 2.118800 
# 
# From -- ./inp_files/1153.got.cif
#   From: 2010.05.17/outbox.cif.g08.bks.cpg/sg82_1_cif.got.tgz:1153.got - 2010.06.03 18:52:26.
