data_PCOD9542237
_publ_section_title
;
Structure prediction by ZEFSAII (Michael W. Deem and Ramdas Pophale) SiO2 
 PCOD9542237
Probable space group: I 41
;
_chemical_formula_sum "Si O2"
_cell_formula_units_Z 48
_cell_length_a 8.590463
_cell_length_b 8.590463
_cell_length_c 28.797300
_cell_angle_alpha 90.000000
_cell_angle_beta 90.000000
_cell_angle_gamma 90.000000
_cell_volume 2125.127122
_symmetry_space_group_name_H-M "I 41"
_symmetry_group_IT_number 80
_symmetry_cell_setting 'tetragonal'
loop_
_space_group_symop_operation_xyz
x,y,z
-y,1/2+x,1/4+z
-x,-y,z
y,1/2-x,1/4+z
1/2+x,1/2+y,1/2+z
1/2-y,x,3/4+z
1/2-x,1/2-y,1/2+z
1/2+y,-x,3/4+z
loop_
_atom_site_type_symbol
_atom_site_label
_atom_site_fract_x
_atom_site_fract_y
_atom_site_fract_z
Si Si1 0.985327 0.816193 0.649520
Si Si2 0.102475 0.342872 0.292059
Si Si3 0.657128 0.102475 0.220718
Si Si4 0.171586 0.694610 0.569768
Si Si5 0.671586 0.694610 0.693009
Si Si6 0.316193 0.514673 0.363257
O O1 0.103205 0.743018 0.687738
O O2 0.023568 0.731174 0.601287
O O3 0.814084 0.778338 0.667272
O O4 0.000000 0.000000 0.644287
O O5 0.155350 0.267413 0.243981
O O6 0.243018 0.396794 0.325039
O O7 0.000000 0.500000 0.283625
O O8 0.984584 0.221116 0.315735
O O9 0.732586 0.155350 0.268796
O O10 0.500000 0.000000 0.229152
O O11 0.778884 0.984584 0.197042
O O12 0.314084 0.778338 0.595505
O O13 0.523568 0.731174 0.661490
O O14 0.500000 0.500000 0.368490
#
# Coordination Sequence:
#
# PCOD9542237 Si02
#       6
#     8   8   8   8   8   8
#     4  11  25  43  74 102 140 182 237 291 346 414
#     4  10  25  44  69 104 143 183 235 289 352 416
#     4  10  25  44  69 104 143 183 235 289 352 416
#     4  11  25  45  70 102 143 183 235 284 355 414
#     4  11  25  45  70 102 143 183 235 284 355 414
#     4  11  25  43  74 102 140 182 237 291 346 414
#
# _framework density 22.586881999999999
#
# number of rings (size 3 to 8) (size 9 to 14) (size 15 to 20)
#    0.000    1.333    0.000    3.000   14.000    0.667 
#    0.000    0.000    0.000    0.000    0.000    0.000 
#    0.000    0.000    0.000    0.000    0.000    0.000 
#
# Total GULP energy -134509.531153 kJ/mol
# GULP energy per Si atom -5604.563798 kJ/mol
# Density = 2.253547 g / cm^3
# Si number density = 22.586882 Si / 1000 Ang^3
#
#
#
# Elastic Constant Matrix: (Units=GPa)
#
#
# Indices 1 2 3 4 5 6 
#
# 1 112.6145 55.1784 30.0841 0.0000 0.0000 -1.0105
# 2 55.1784 112.6145 30.0841 0.0000 0.0000 1.0105
# 3 30.0841 30.0841 64.8865 0.0000 0.0000 0.0000
# 4 0.0000 0.0000 0.0000 40.2180 0.0000 0.0000
# 5 0.0000 0.0000 0.0000 0.0000 40.2180 0.0000
# 6 -1.0105 1.0105 0.0000 0.0000 0.0000 14.3683
#
#
#
# Elastic Compliance Matrix: (Units=1/GPa)
#
#
# Indices 1 2 3 4 5 6 
#
# 1 0.012301 -0.005153 -0.003314 0.000000 0.000000 0.001228
# 2 -0.005153 0.012301 -0.003314 0.000000 0.000000 -0.001228
# 3 -0.003314 -0.003314 0.018485 0.000000 0.000000 0.000000
# 4 0.000000 0.000000 0.000000 0.024864 0.000000 0.000000
# 5 0.000000 0.000000 0.000000 0.000000 0.024864 0.000000
# 6 0.001228 -0.001228 0.000000 0.000000 0.000000 0.069770
#
#
# Mechanical properties :
#
#
# Convention : Reuss Voigt Hill
#
# Bulk Modulus (GPa) = 51.21825 57.86761 54.54293
# Shear Modulus (GPa) = 25.95294 30.61213 28.28253
#
# Velocity S-wave (km/s) = 3.39341 3.68544 3.54244
# Velocity P-wave (km/s) = 6.17081 6.61707 6.39783
#
# Compressibility (1/GPa) = 0.01952429
#
# Stress axis : x y z
#
# Youngs Moduli (GPa) = 81.29421 81.29421 54.09872
#
# Poissons Ratio (x) = 0.41890 0.17929
# Poissons Ratio (y) = 0.41890 0.17929
# Poissons Ratio (z) = 0.26942 0.26942
#
# Static dielectric constant tensor:
#      x y z
#    x 1.836410 0.000000 0.000000 
#    y 0.000000 1.836410 0.000000 
#    z 0.000000 0.000000 1.794000 
# 
# From -- ./inp_files/2643.got.cif
#   From: 2010.05.17/outbox.cif.g08.bks.cpg/sg80_cif.got.tgz:2643.got - 2010.06.03 18:49:13.
