data_PCOD9542027
_publ_section_title
;
Structure prediction by ZEFSAII (Michael W. Deem and Ramdas Pophale) SiO2 
 PCOD9542027
Probable space group: I 4
;
_chemical_formula_sum "Si O2"
_cell_formula_units_Z 50
_cell_length_a 8.662893
_cell_length_b 8.662893
_cell_length_c 30.759579
_cell_angle_alpha 90.000000
_cell_angle_beta 90.000000
_cell_angle_gamma 90.000000
_cell_volume 2308.374603
_symmetry_space_group_name_H-M "I 4"
_symmetry_group_IT_number 79
_symmetry_cell_setting 'tetragonal'
loop_
_space_group_symop_operation_xyz
x,y,z
-y,x,z
-x,-y,z
y,-x,z
1/2+x,1/2+y,1/2+z
1/2-y,1/2+x,1/2+z
1/2-x,1/2-y,1/2+z
1/2+y,1/2-x,1/2+z
loop_
_atom_site_type_symbol
_atom_site_label
_atom_site_fract_x
_atom_site_fract_y
_atom_site_fract_z
Si Si1 0.739091 0.596009 0.827430
Si Si2 0.138519 0.220648 0.906943
Si Si3 0.500000 0.500000 0.685392
Si Si4 0.692247 0.325286 0.505675
Si Si5 0.163800 0.414003 0.666881
Si Si6 0.406044 0.263062 0.253264
Si Si7 0.340458 0.300434 0.090196
O O1 0.580969 0.692714 0.823968
O O2 0.807916 0.651353 0.873185
O O3 0.850497 0.639599 0.788162
O O4 0.953635 0.203233 0.900705
O O5 0.192435 0.252629 0.956393
O O6 0.308241 0.513824 0.684324
O O7 0.708661 0.509805 0.511282
O O8 0.770208 0.219572 0.541641
O O9 0.120247 0.293825 0.704588
O O10 0.222025 0.328087 0.623140
O O11 0.000000 0.500000 0.658281
O O12 0.582630 0.307545 0.260472
O O13 0.523615 0.292781 0.098107
#
# Coordination Sequence:
#
# PCOD9542027 Si02
#       7
#     8   8   2   8   8   8   8
#     4  11  26  41  62  95 135 175 227 286 347 424
#     4   9  19  41  66  94 129 172 224 284 347 422
#     4  12  28  44  76 104 132 188 236 288 348 436
#     4   9  21  39  66  97 130 173 231 287 345 424
#     4  12  28  47  72 105 139 186 235 297 361 432
#     4  11  25  45  69  98 133 178 227 288 353 425
#     4  11  25  43  63  96 138 180 227 290 354 425
#
# _framework density 21.660264999999999
#
# number of rings (size 3 to 8) (size 9 to 14) (size 15 to 20)
#    0.000    1.440    0.000    4.800    8.960    5.760 
#    0.000    4.800    0.000    0.000    0.000    0.000 
#    0.000    0.000    0.000    0.000    0.000    0.000 
#
# Total GULP energy -139473.232346 kJ/mol
# GULP energy per Si atom -5578.929294 kJ/mol
# Density = 2.161097 g / cm^3
# Si number density = 21.660265 Si / 1000 Ang^3
#
#
#
# Elastic Constant Matrix: (Units=GPa)
#
#
# Indices 1 2 3 4 5 6 
#
# 1 -20.7487 57.3382 1.9216 0.0000 0.0000 -17.1114
# 2 57.3382 -20.7487 1.9215 0.0000 0.0000 17.1114
# 3 1.9216 1.9215 61.4837 0.0000 0.0000 0.0000
# 4 0.0000 0.0000 0.0000 30.7758 0.0000 0.0000
# 5 0.0000 0.0000 0.0000 0.0000 30.7758 0.0000
# 6 -17.1114 17.1114 0.0000 0.0000 0.0000 8.2086
#
#
#
# Elastic Compliance Matrix: (Units=1/GPa)
#
#
# Indices 1 2 3 4 5 6 
#
# 1 0.010364 0.017056 -0.000857 0.000000 0.000000 -0.013950
# 2 0.017056 0.010364 -0.000857 0.000000 0.000000 0.013950
# 3 -0.000857 -0.000857 0.016318 0.000000 0.000000 0.000000
# 4 0.000000 0.000000 0.000000 0.032493 0.000000 0.000000
# 5 0.000000 0.000000 0.000000 0.000000 0.032493 0.000000
# 6 -0.013950 0.013950 0.000000 0.000000 0.000000 0.063662
#
#
# Mechanical properties :
#
#
# Convention : Reuss Voigt Hill
#
# Bulk Modulus (GPa) = 14.76435 15.81653 15.29044
# Shear Modulus (GPa) = 31.72857 11.20569 21.46713
#
# Velocity S-wave (km/s) = 3.83146 2.27698 3.15156
# Velocity P-wave (km/s) = 5.13854 3.77237 4.50751
#
# Compressibility (1/GPa) = 0.06773073
#
# Stress axis : x y z
#
# Youngs Moduli (GPa) = 96.48779 96.48783 61.28185
#
# Poissons Ratio (x) = -1.64572 0.05252
# Poissons Ratio (y) = -1.64572 0.05252
# Poissons Ratio (z) = 0.08269 0.08269
#
# Static dielectric constant tensor:
#      x y z
#    x 1.785500 0.000000 0.000000 
#    y 0.000000 1.785500 0.000000 
#    z 0.000000 0.000000 1.781780 
# 
# From -- ./inp_files/2141.got.cif
#   From: 2010.05.17/outbox.cif.g08.bks.cpg/sg79_cif.got.tgz:2141.got - 2010.06.03 18:47:27.
