data_PCOD9542818
_publ_section_title
;
Structure prediction by ZEFSAII (Michael W. Deem and Ramdas Pophale) SiO2 
 PCOD9542818
Probable space group: I -4 
;
_chemical_formula_sum "Si O2"
_cell_formula_units_Z 52
_cell_length_a 19.305621
_cell_length_b 19.305621
_cell_length_c 6.459533
_cell_angle_alpha 90.000000
_cell_angle_beta 90.000000
_cell_angle_gamma 90.000000
_cell_volume 2407.513180
_symmetry_space_group_name_H-M "I -4 "
_symmetry_group_IT_number 82
_symmetry_cell_setting 'tetragonal'
loop_
_space_group_symop_operation_xyz
x,y,z
y,-x,-z
-x,-y,z
-y,x,-z
1/2+x,1/2+y,1/2+z
1/2+y,1/2-x,1/2-z
1/2-x,1/2-y,1/2+z
1/2-y,1/2+x,1/2-z
loop_
_atom_site_type_symbol
_atom_site_label
_atom_site_fract_x
_atom_site_fract_y
_atom_site_fract_z
Si Si1 0.650386 0.514642 0.388131
Si Si2 0.906861 0.792375 0.414799
Si Si3 0.519840 0.096768 0.370232
Si Si4 0.762400 0.472937 0.703754
Si Si5 0.226469 0.668472 0.466502
Si Si6 0.000000 0.500000 0.250000
Si Si7 0.291280 0.345592 0.221391
Si Si8 0.000000 0.000000 0.000000
O O1 0.657641 0.451788 0.227966
O O2 0.688724 0.492068 0.600529
O O3 0.695549 0.579034 0.310344
O O4 0.569288 0.531705 0.398107
O O5 0.958489 0.746540 0.554174
O O6 0.860077 0.749888 0.255961
O O7 0.856661 0.829611 0.575013
O O8 0.577117 0.050194 0.256371
O O9 0.528175 0.178487 0.352155
O O10 0.511667 0.065583 0.599551
O O11 0.787007 0.400795 0.597817
O O12 0.288900 0.705945 0.592274
O O13 0.166457 0.723093 0.416901
#
# Coordination Sequence:
#
# PCOD9542818 Si02
#       8
#     8   8   8   8   8   2   8   2
#     4  11  26  42  68  94 130 174 231 273 346 398
#     4  10  22  41  60  92 128 164 217 271 329 405
#     4   9  20  37  59  88 127 176 216 263 322 386
#     4  10  23  40  58  98 133 163 220 279 321 409
#     4  10  21  39  64  91 128 168 208 270 331 391
#     4   8  18  36  60  86 124 184 222 248 316 406
#     4  11  22  41  66  98 127 174 219 275 338 402
#     4  12  24  52  66  88 136 178 220 308 334 396
#
# _framework density 21.599050999999999
#
# number of rings (size 3 to 8) (size 9 to 14) (size 15 to 20)
#    0.000    2.000    1.538    2.769    0.000   12.308 
#    0.000    0.769    0.000    0.000    0.000    0.000 
#    0.000    0.000    0.000    0.000    0.000    0.000 
#
# Total GULP energy -145129.349242 kJ/mol
# GULP energy per Si atom -5581.898048 kJ/mol
# Density = 2.154989 g / cm^3
# Si number density = 21.599051 Si / 1000 Ang^3
#
#
#
# Elastic Constant Matrix: (Units=GPa)
#
#
# Indices 1 2 3 4 5 6 
#
# 1 69.5015 -4.6638 -2.8493 0.0000 0.0000 6.5442
# 2 -4.6638 69.5015 -2.8493 0.0000 0.0000 -6.5442
# 3 -2.8493 -2.8493 81.9556 0.0000 0.0000 0.0000
# 4 0.0000 0.0000 0.0000 8.4435 0.0000 0.0000
# 5 0.0000 0.0000 0.0000 0.0000 8.4435 0.0000
# 6 6.5442 -6.5442 0.0000 0.0000 0.0000 25.3031
#
#
#
# Elastic Compliance Matrix: (Units=1/GPa)
#
#
# Indices 1 2 3 4 5 6 
#
# 1 0.014799 0.000671 0.000538 0.000000 0.000000 -0.003654
# 2 0.000671 0.014799 0.000538 0.000000 0.000000 0.003654
# 3 0.000538 0.000538 0.012239 0.000000 0.000000 0.000000
# 4 0.000000 0.000000 0.000000 0.118434 0.000000 0.000000
# 5 0.000000 0.000000 0.000000 0.000000 0.118434 0.000000
# 6 -0.003654 0.003654 0.000000 0.000000 0.000000 0.041411
#
#
# Mechanical properties :
#
#
# Convention : Reuss Voigt Hill
#
# Bulk Modulus (GPa) = 22.05981 22.24821 22.15401
# Shear Modulus (GPa) = 15.07233 23.85942 19.46587
#
# Velocity S-wave (km/s) = 2.64450 3.32724 3.00532
# Velocity P-wave (km/s) = 4.42267 5.00835 4.72459
#
# Compressibility (1/GPa) = 0.04533131
#
# Stress axis : x y z
#
# Youngs Moduli (GPa) = 67.57068 67.57068 81.70514
#
# Poissons Ratio (x) = -0.04535 -0.04394
# Poissons Ratio (y) = -0.04535 -0.04394
# Poissons Ratio (z) = -0.03634 -0.03634
#
# Static dielectric constant tensor:
#      x y z
#    x 1.839340 0.000000 0.000000 
#    y 0.000000 1.839340 0.000000 
#    z 0.000000 0.000000 1.776680 
# 
# From -- ./inp_files/379.got.cif
#   From: 2010.05.17/outbox.cif.g08.bks.cpg/sg82_1_cif.got.tgz:379.got - 2010.06.03 18:52:26.
