data_PCOD9542166
_publ_section_title
;
Structure prediction by ZEFSAII (Michael W. Deem and Ramdas Pophale) SiO2 
 PCOD9542166
Probable space group: I 41
;
_chemical_formula_sum "Si O2"
_cell_formula_units_Z 44
_cell_length_a 7.978039
_cell_length_b 7.978039
_cell_length_c 31.275940
_cell_angle_alpha 90.000000
_cell_angle_beta 90.000000
_cell_angle_gamma 90.000000
_cell_volume 1990.685629
_symmetry_space_group_name_H-M "I 41"
_symmetry_group_IT_number 80
_symmetry_cell_setting 'tetragonal'
loop_
_space_group_symop_operation_xyz
x,y,z
-y,1/2+x,1/4+z
-x,-y,z
y,1/2-x,1/4+z
1/2+x,1/2+y,1/2+z
1/2-y,x,3/4+z
1/2-x,1/2-y,1/2+z
1/2+y,-x,3/4+z
loop_
_atom_site_type_symbol
_atom_site_label
_atom_site_fract_x
_atom_site_fract_y
_atom_site_fract_z
Si Si1 0.171968 0.182368 0.977860
Si Si2 0.000000 0.500000 0.153801
Si Si3 0.000000 0.000000 0.763475
Si Si4 0.112201 0.835033 0.267849
Si Si5 0.803036 0.487280 0.693288
Si Si6 0.000000 0.500000 0.373860
Si Si7 0.302667 0.664723 0.334338
O O1 0.347432 0.273740 0.971384
O O2 0.131842 0.090567 0.933773
O O3 0.047506 0.332298 0.988671
O O4 0.190578 0.026272 0.010075
O O5 0.147490 0.585867 0.126388
O O6 0.063426 0.860788 0.796609
O O7 0.195984 0.814852 0.314224
O O8 0.240852 0.844820 0.227308
O O9 0.000000 0.000000 0.266064
O O10 0.666643 0.490452 0.654422
O O11 0.000000 0.500000 0.680522
O O12 0.834399 0.481657 0.344366
#
# Coordination Sequence:
#
# PCOD9542166 Si02
#       7
#     8   4   4   8   8   4   8
#     4  11  21  42  66  98 135 185 241 293 358 446
#     4  11  22  39  68  94 144 182 228 298 368 435
#     4  11  24  38  66  95 128 180 236 289 362 434
#     4  10  21  42  69 101 135 188 241 296 364 435
#     4  11  22  41  74 100 135 188 246 291 351 456
#     4  12  22  45  66 101 144 184 236 297 388 423
#     4  11  23  39  63 100 135 179 228 296 368 427
#
# _framework density 22.10294
#
# number of rings (size 3 to 8) (size 9 to 14) (size 15 to 20)
#    0.000    1.091    4.545    3.273    0.000    2.182 
#    0.000    0.000   22.000    0.000    0.000    0.000 
#    0.000    0.000    0.000    0.000    0.000    0.000 
#
# Total GULP energy -122485.387573 kJ/mol
# GULP energy per Si atom -5567.517617 kJ/mol
# Density = 2.205263 g / cm^3
# Si number density = 22.102940 Si / 1000 Ang^3
#
#
#
# Elastic Constant Matrix: (Units=GPa)
#
#
# Indices 1 2 3 4 5 6 
#
# 1 99.9852 14.9910 23.7106 0.0000 0.0000 2.5325
# 2 14.9910 99.9852 23.7106 0.0000 0.0000 -2.5325
# 3 23.7106 23.7106 80.4946 0.0000 0.0000 0.0000
# 4 0.0000 0.0000 0.0000 19.4657 0.0000 0.0000
# 5 0.0000 0.0000 0.0000 0.0000 19.4657 0.0000
# 6 2.5325 -2.5325 0.0000 0.0000 0.0000 22.5422
#
#
#
# Elastic Compliance Matrix: (Units=1/GPa)
#
#
# Indices 1 2 3 4 5 6 
#
# 1 0.010873 -0.000972 -0.002916 0.000000 0.000000 -0.001331
# 2 -0.000972 0.010873 -0.002916 0.000000 0.000000 0.001331
# 3 -0.002916 -0.002916 0.014141 0.000000 0.000000 0.000000
# 4 0.000000 0.000000 0.000000 0.051372 0.000000 0.000000
# 5 0.000000 0.000000 0.000000 0.000000 0.051372 0.000000
# 6 -0.001331 0.001331 0.000000 0.000000 0.000000 0.044660
#
#
# Mechanical properties :
#
#
# Convention : Reuss Voigt Hill
#
# Bulk Modulus (GPa) = 44.88984 45.03218 44.96101
# Shear Modulus (GPa) = 24.47064 26.83156 25.65110
#
# Velocity S-wave (km/s) = 3.33095 3.48794 3.41035
# Velocity P-wave (km/s) = 5.92851 6.05302 5.99109
#
# Compressibility (1/GPa) = 0.02227676
#
# Stress axis : x y z
#
# Youngs Moduli (GPa) = 91.97498 91.97499 70.71528
#
# Poissons Ratio (x) = 0.08943 0.20622
# Poissons Ratio (y) = 0.08943 0.20622
# Poissons Ratio (z) = 0.26822 0.26822
#
# Static dielectric constant tensor:
#      x y z
#    x 1.907430 0.000000 0.000000 
#    y 0.000000 1.907430 0.000000 
#    z 0.000000 0.000000 1.825640 
# 
# From -- ./inp_files/2581.got.cif
#   From: 2010.05.17/outbox.cif.g08.bks.cpg/sg80_cif.got.tgz:2581.got - 2010.06.03 18:49:13.
