data_PCOD9542649
_publ_section_title
;
Structure prediction by ZEFSAII (Michael W. Deem and Ramdas Pophale) SiO2 
 PCOD9542649
Probable space group: I -4 
;
_chemical_formula_sum "Si O2"
_cell_formula_units_Z 32
_cell_length_a 7.444086
_cell_length_b 7.444086
_cell_length_c 28.389645
_cell_angle_alpha 90.000000
_cell_angle_beta 90.000000
_cell_angle_gamma 90.000000
_cell_volume 1573.195609
_symmetry_space_group_name_H-M "I -4 "
_symmetry_group_IT_number 82
_symmetry_cell_setting 'tetragonal'
loop_
_space_group_symop_operation_xyz
x,y,z
y,-x,-z
-x,-y,z
-y,x,-z
1/2+x,1/2+y,1/2+z
1/2+y,1/2-x,1/2-z
1/2-x,1/2-y,1/2+z
1/2-y,1/2+x,1/2-z
loop_
_atom_site_type_symbol
_atom_site_label
_atom_site_fract_x
_atom_site_fract_y
_atom_site_fract_z
Si Si1 0.217607 0.495480 0.370662
Si Si2 0.301480 0.702619 0.202244
Si Si3 0.808007 0.770304 0.691379
Si Si4 0.011858 0.720218 0.020135
O O1 0.275678 0.357365 0.330036
O O2 0.285597 0.685704 0.351916
O O3 0.260429 0.456545 0.424393
O O4 0.000000 0.500000 0.369311
O O5 0.293507 0.741332 0.257667
O O6 0.299411 0.487420 0.196083
O O7 0.487610 0.779250 0.184056
O O8 0.000000 0.500000 0.013360
O O9 0.175582 0.826643 0.994216
#
# Coordination Sequence:
#
# PCOD9542649 Si02
#       4
#     8   8   8   8
#     4   9  19  37  63  86 121 171 208 259 333 389
#     4  10  19  33  56  85 120 163 206 247 307 386
#     4  10  19  33  56  85 120 163 206 247 307 386
#     4  10  23  45  70  99 133 172 233 291 346 404
#
# _framework density 20.340764
#
# number of rings (size 3 to 8) (size 9 to 14) (size 15 to 20)
#    0.000    2.250    2.500    0.000    0.000    3.000 
#    9.000    5.000    0.000    0.000    0.000    0.000 
#    0.000    0.000    0.000    0.000    0.000    0.000 
#
# Total GULP energy -89221.938421 kJ/mol
# GULP energy per Si atom -5576.371151 kJ/mol
# Density = 2.029447 g / cm^3
# Si number density = 20.340764 Si / 1000 Ang^3
#
#
#
# Elastic Constant Matrix: (Units=GPa)
#
#
# Indices 1 2 3 4 5 6 
#
# 1 79.1761 1.5155 -1.4034 0.0000 0.0000 -5.8387
# 2 1.5155 79.1761 -1.4034 0.0000 0.0000 5.8387
# 3 -1.4034 -1.4034 72.9893 0.0000 0.0000 0.0000
# 4 0.0000 0.0000 0.0000 11.3647 0.0000 0.0000
# 5 0.0000 0.0000 0.0000 0.0000 11.3647 0.0000
# 6 -5.8387 5.8387 0.0000 0.0000 0.0000 7.0134
#
#
#
# Elastic Compliance Matrix: (Units=1/GPa)
#
#
# Indices 1 2 3 4 5 6 
#
# 1 0.013560 -0.001159 0.000238 0.000000 0.000000 0.012254
# 2 -0.001159 0.013560 0.000238 0.000000 0.000000 -0.012254
# 3 0.000238 0.000238 0.013710 0.000000 0.000000 0.000000
# 4 0.000000 0.000000 0.000000 0.087991 0.000000 0.000000
# 5 0.000000 0.000000 0.000000 0.000000 0.087991 0.000000
# 6 0.012254 -0.012254 0.000000 0.000000 0.000000 0.162988
#
#
# Mechanical properties :
#
#
# Convention : Reuss Voigt Hill
#
# Bulk Modulus (GPa) = 25.33835 25.41767 25.37801
# Shear Modulus (GPa) = 12.68005 21.45742 17.06873
#
# Velocity S-wave (km/s) = 2.49947 3.25144 2.89993
# Velocity P-wave (km/s) = 4.56221 5.15935 4.86994
#
# Compressibility (1/GPa) = 0.03946587
#
# Stress axis : x y z
#
# Youngs Moduli (GPa) = 73.74559 73.74561 72.94047
#
# Poissons Ratio (x) = 0.08547 -0.01739
# Poissons Ratio (y) = 0.08547 -0.01739
# Poissons Ratio (z) = -0.01758 -0.01758
#
# Static dielectric constant tensor:
#      x y z
#    x 1.761240 0.000000 0.000000 
#    y 0.000000 1.761240 0.000000 
#    z 0.000000 0.000000 1.669350 
# 
# From -- ./inp_files/3248.got.cif
#   From: 2010.05.17/outbox.cif.g08.bks.cpg/sg82_2_cif.got.tgz:3248.got - 2010.06.03 18:52:26.
