data_PCOD9542183
_publ_section_title
;
Structure prediction by ZEFSAII (Michael W. Deem and Ramdas Pophale) SiO2 
 PCOD9542183
Probable space group: I 41
;
_chemical_formula_sum "Si O2"
_cell_formula_units_Z 44
_cell_length_a 7.927389
_cell_length_b 7.927389
_cell_length_c 33.481620
_cell_angle_alpha 90.000000
_cell_angle_beta 90.000000
_cell_angle_gamma 90.000000
_cell_volume 2104.102065
_symmetry_space_group_name_H-M "I 41"
_symmetry_group_IT_number 80
_symmetry_cell_setting 'tetragonal'
loop_
_space_group_symop_operation_xyz
x,y,z
-y,1/2+x,1/4+z
-x,-y,z
y,1/2-x,1/4+z
1/2+x,1/2+y,1/2+z
1/2-y,x,3/4+z
1/2-x,1/2-y,1/2+z
1/2+y,-x,3/4+z
loop_
_atom_site_type_symbol
_atom_site_label
_atom_site_fract_x
_atom_site_fract_y
_atom_site_fract_z
Si Si1 0.279641 0.119552 0.429010
Si Si2 0.220359 0.880448 0.549488
Si Si3 0.500000 0.000000 0.499108
Si Si4 0.500000 0.000000 0.864249
Si Si5 0.500000 0.500000 0.979391
Si Si6 0.643937 0.144255 0.123212
Si Si7 0.355745 0.143937 0.605286
O O1 0.326789 0.260033 0.397186
O O2 0.392242 0.108553 0.468242
O O3 0.097253 0.124296 0.449706
O O4 0.273155 0.940758 0.404833
O O5 0.402746 0.875704 0.528793
O O6 0.107758 0.891447 0.510256
O O7 0.173211 0.739968 0.581312
O O8 0.226844 0.059243 0.573666
O O9 0.426355 0.829059 0.884758
O O10 0.670941 0.926355 0.843740
O O11 0.500000 0.000000 0.118024
O O12 0.500000 0.000000 0.610474
#
# Coordination Sequence:
#
# PCOD9542183 Si02
#       7
#     8   8   4   4   4   8   8
#     4  11  22  42  67  98 134 184 228 280 351 415
#     4  11  22  42  67  98 134 184 228 280 351 415
#     4  10  22  39  68  94 139 178 224 284 353 419
#     4  12  24  40  68 104 142 152 248 304 326 396
#     4  10  22  39  68  94 139 178 224 284 353 419
#     4  12  23  43  71 104 134 189 236 290 342 410
#     4  12  23  43  71 104 134 189 236 290 342 410
#
# _framework density 20.911534
#
# number of rings (size 3 to 8) (size 9 to 14) (size 15 to 20)
#    0.000    0.727    5.455    2.182    0.000    0.000 
#    0.000    1.818   16.000    0.000    0.000    0.000 
#    0.000    0.000    0.000    0.000    0.000    0.000 
#
# Total GULP energy -122503.139924 kJ/mol
# GULP energy per Si atom -5568.324542 kJ/mol
# Density = 2.086394 g / cm^3
# Si number density = 20.911534 Si / 1000 Ang^3
#
#
#
# Elastic Constant Matrix: (Units=GPa)
#
#
# Indices 1 2 3 4 5 6 
#
# 1 95.2531 23.2836 49.4009 0.0000 0.0000 -9.4265
# 2 23.2836 95.2531 49.4009 0.0000 0.0000 9.4265
# 3 49.4009 49.4009 166.2976 0.0000 0.0000 0.0000
# 4 0.0000 0.0000 0.0000 26.3202 0.0000 0.0000
# 5 0.0000 0.0000 0.0000 0.0000 26.3202 0.0000
# 6 -9.4265 9.4265 0.0000 0.0000 0.0000 41.3494
#
#
#
# Elastic Compliance Matrix: (Units=1/GPa)
#
#
# Indices 1 2 3 4 5 6 
#
# 1 0.012995 -0.001782 -0.003331 0.000000 0.000000 0.003369
# 2 -0.001782 0.012995 -0.003331 0.000000 0.000000 -0.003369
# 3 -0.003331 -0.003331 0.007992 0.000000 0.000000 0.000000
# 4 0.000000 0.000000 0.000000 0.037994 0.000000 0.000000
# 5 0.000000 0.000000 0.000000 0.000000 0.037994 0.000000
# 6 0.003369 -0.003369 0.000000 0.000000 0.000000 0.025720
#
#
# Mechanical properties :
#
#
# Convention : Reuss Voigt Hill
#
# Bulk Modulus (GPa) = 58.50027 66.77497 62.63762
# Shear Modulus (GPa) = 31.59048 34.44583 33.01815
#
# Velocity S-wave (km/s) = 3.89095 4.06299 3.97790
# Velocity P-wave (km/s) = 6.94420 7.34929 7.14961
#
# Compressibility (1/GPa) = 0.01709394
#
# Stress axis : x y z
#
# Youngs Moduli (GPa) = 76.95345 76.95343 125.12127
#
# Poissons Ratio (x) = 0.13716 0.41676
# Poissons Ratio (y) = 0.13716 0.41676
# Poissons Ratio (z) = 0.25632 0.25632
#
# Static dielectric constant tensor:
#      x y z
#    x 1.863750 0.000000 0.000000 
#    y 0.000000 1.863750 0.000000 
#    z 0.000000 0.000000 1.697450 
# 
# From -- ./inp_files/2580.got.cif
#   From: 2010.05.17/outbox.cif.g08.bks.cpg/sg80_cif.got.tgz:2580.got - 2010.06.03 18:49:13.
