data_PCOD9542984
_publ_section_title
;
Structure prediction by ZEFSAII (Michael W. Deem and Ramdas Pophale) SiO2 
 PCOD9542984
Probable space group: I -4 
;
_chemical_formula_sum "Si O2"
_cell_formula_units_Z 24
_cell_length_a 9.049390
_cell_length_b 9.049390
_cell_length_c 13.669854
_cell_angle_alpha 90.000000
_cell_angle_beta 90.000000
_cell_angle_gamma 90.000000
_cell_volume 1119.444293
_symmetry_space_group_name_H-M "I -4 "
_symmetry_group_IT_number 82
_symmetry_cell_setting 'tetragonal'
loop_
_space_group_symop_operation_xyz
x,y,z
y,-x,-z
-x,-y,z
-y,x,-z
1/2+x,1/2+y,1/2+z
1/2+y,1/2-x,1/2-z
1/2-x,1/2-y,1/2+z
1/2-y,1/2+x,1/2-z
loop_
_atom_site_type_symbol
_atom_site_label
_atom_site_fract_x
_atom_site_fract_y
_atom_site_fract_z
Si Si1 0.655048 0.082678 0.991931
Si Si2 0.332217 0.469551 0.137928
Si Si3 0.721486 0.658606 0.348538
O O1 0.620238 0.241387 0.943538
O O2 0.500000 0.000000 0.008273
O O3 0.745882 0.986997 0.913258
O O4 0.743601 0.105826 0.091317
O O5 0.500000 0.500000 0.111032
O O6 0.328313 0.382501 0.240397
O O7 0.245351 0.622881 0.155411
#
# Coordination Sequence:
#
# PCOD9542984 Si02
#       3
#     8   8   8
#     4  10  25  43  73 104 138 185 237 290 346 421
#     4  11  25  44  72 104 141 186 232 290 357 413
#     4  11  24  46  72 103 142 184 235 288 352 418
#
# _framework density 21.439208000000001
#
# number of rings (size 3 to 8) (size 9 to 14) (size 15 to 20)
#    0.000    1.333    3.333    0.000   14.000    0.000 
#    0.000    0.000    0.000    0.000    0.000    0.000 
#    0.000    0.000    0.000    0.000    0.000    0.000 
#
# Total GULP energy -67227.975584 kJ/mol
# GULP energy per Si atom -5602.331299 kJ/mol
# Density = 2.139041 g / cm^3
# Si number density = 21.439208 Si / 1000 Ang^3
#
#
#
# Elastic Constant Matrix: (Units=GPa)
#
#
# Indices 1 2 3 4 5 6 
#
# 1 94.0630 18.1715 50.3775 0.0000 0.0000 3.3162
# 2 18.1715 94.0630 50.3775 0.0000 0.0000 -3.3162
# 3 50.3775 50.3775 129.4167 0.0000 0.0000 0.0000
# 4 0.0000 0.0000 0.0000 38.2955 0.0000 0.0000
# 5 0.0000 0.0000 0.0000 0.0000 38.2955 0.0000
# 6 3.3162 -3.3162 0.0000 0.0000 0.0000 16.4062
#
#
#
# Elastic Compliance Matrix: (Units=1/GPa)
#
#
# Indices 1 2 3 4 5 6 
#
# 1 0.013555 0.000141 -0.005331 0.000000 0.000000 -0.002711
# 2 0.000141 0.013555 -0.005331 0.000000 0.000000 0.002711
# 3 -0.005331 -0.005331 0.011878 0.000000 0.000000 0.000000
# 4 0.000000 0.000000 0.000000 0.026113 0.000000 0.000000
# 5 0.000000 0.000000 0.000000 0.000000 0.026113 0.000000
# 6 -0.002711 0.002711 0.000000 0.000000 0.000000 0.062049
#
#
# Mechanical properties :
#
#
# Convention : Reuss Voigt Hill
#
# Bulk Modulus (GPa) = 55.72864 61.71062 58.71963
# Shear Modulus (GPa) = 27.73372 31.84052 29.78712
#
# Velocity S-wave (km/s) = 3.60056 3.85795 3.73148
# Velocity P-wave (km/s) = 6.58298 6.97793 6.78333
#
# Compressibility (1/GPa) = 0.01794410
#
# Stress axis : x y z
#
# Youngs Moduli (GPa) = 73.77443 73.77443 84.19192
#
# Poissons Ratio (x) = -0.01041 0.44886
# Poissons Ratio (y) = -0.01041 0.44886
# Poissons Ratio (z) = 0.39332 0.39332
#
# Static dielectric constant tensor:
#      x y z
#    x 1.763820 0.000000 0.000000 
#    y 0.000000 1.763820 0.000000 
#    z 0.000000 0.000000 1.718730 
# 
# From -- ./inp_files/1981.got.cif
#   From: 2010.05.17/outbox.cif.g08.bks.cpg/sg82_1_cif.got.tgz:1981.got - 2010.06.03 18:52:26.
