data_PCOD9542284
_publ_section_title
;
Structure prediction by ZEFSAII (Michael W. Deem and Ramdas Pophale) SiO2 
 PCOD9542284
Probable space group: I 41
;
_chemical_formula_sum "Si O2"
_cell_formula_units_Z 32
_cell_length_a 8.493155
_cell_length_b 8.493155
_cell_length_c 15.352350
_cell_angle_alpha 90.000000
_cell_angle_beta 90.000000
_cell_angle_gamma 90.000000
_cell_volume 1107.421531
_symmetry_space_group_name_H-M "I 41"
_symmetry_group_IT_number 80
_symmetry_cell_setting 'tetragonal'
loop_
_space_group_symop_operation_xyz
x,y,z
-y,1/2+x,1/4+z
-x,-y,z
y,1/2-x,1/4+z
1/2+x,1/2+y,1/2+z
1/2-y,x,3/4+z
1/2-x,1/2-y,1/2+z
1/2+y,-x,3/4+z
loop_
_atom_site_type_symbol
_atom_site_label
_atom_site_fract_x
_atom_site_fract_y
_atom_site_fract_z
Si Si1 0.166320 0.974517 0.440600
Si Si2 0.193358 0.852902 0.907856
Si Si3 0.576999 0.818461 0.490227
Si Si4 0.150572 0.418102 0.513373
O O1 0.342510 0.010854 0.475364
O O2 0.074250 0.364147 0.603535
O O3 0.481476 0.794773 0.580747
O O4 0.000000 0.000000 0.215320
O O5 0.000000 0.500000 0.742433
O O6 0.024372 0.767152 0.914987
O O7 0.316042 0.708366 0.913747
O O8 0.280785 0.551072 0.496974
O O9 0.748087 0.731725 0.487854
#
# Coordination Sequence:
#
# PCOD9542284 Si02
#       4
#     8   8   8   8
#     4  11  26  50  79 118 167 219 276 341 416 498
#     4  12  28  51  83 122 165 218 279 346 421 496
#     4  12  27  52  83 120 167 217 278 347 419 500
#     4  11  25  49  77 112 157 210 270 336 410 490
#
# _framework density 28.895949000000002
#
# number of rings (size 3 to 8) (size 9 to 14) (size 15 to 20)
#    0.000    0.500    0.000    7.500    0.000   12.000 
#    0.000    5.000    0.000    0.000    0.000    0.000 
#    0.000    0.000    0.000    0.000    0.000    0.000 
#
# Total GULP energy -89343.483774 kJ/mol
# GULP energy per Si atom -5583.967736 kJ/mol
# Density = 2.883018 g / cm^3
# Si number density = 28.895949 Si / 1000 Ang^3
#
#
#
# Elastic Constant Matrix: (Units=GPa)
#
#
# Indices 1 2 3 4 5 6 
#
# 1 97.3627 17.6203 28.2999 0.0000 0.0000 14.1372
# 2 17.6203 97.3627 28.2999 0.0000 0.0000 -14.1372
# 3 28.2999 28.2999 88.5682 0.0000 0.0000 0.0000
# 4 0.0000 0.0000 0.0000 43.6677 0.0000 0.0000
# 5 0.0000 0.0000 0.0000 0.0000 43.6677 0.0000
# 6 14.1372 -14.1372 0.0000 0.0000 0.0000 55.0229
#
#
#
# Elastic Compliance Matrix: (Units=1/GPa)
#
#
# Indices 1 2 3 4 5 6 
#
# 1 0.012059 -0.001739 -0.003298 0.000000 0.000000 -0.003545
# 2 -0.001739 0.012059 -0.003298 0.000000 0.000000 0.003545
# 3 -0.003298 -0.003298 0.013398 0.000000 0.000000 0.000000
# 4 0.000000 0.000000 0.000000 0.022900 0.000000 0.000000
# 5 0.000000 0.000000 0.000000 0.000000 0.022900 0.000000
# 6 -0.003545 0.003545 0.000000 0.000000 0.000000 0.019996
#
#
# Mechanical properties :
#
#
# Convention : Reuss Voigt Hill
#
# Bulk Modulus (GPa) = 47.96603 47.97045 47.96824
# Shear Modulus (GPa) = 39.39220 42.40990 40.90105
#
# Velocity S-wave (km/s) = 3.69622 3.83518 3.76634
# Velocity P-wave (km/s) = 5.90353 6.02068 5.96239
#
# Compressibility (1/GPa) = 0.02084809
#
# Stress axis : x y z
#
# Youngs Moduli (GPa) = 82.92734 82.92734 74.63771
#
# Poissons Ratio (x) = 0.14418 0.24612
# Poissons Ratio (y) = 0.14418 0.24612
# Poissons Ratio (z) = 0.27346 0.27346
#
# Static dielectric constant tensor:
#      x y z
#    x 2.512770 0.000000 0.000000 
#    y 0.000000 2.512770 0.000000 
#    z 0.000000 0.000000 2.216010 
# 
# From -- ./inp_files/1678.got.cif
#   From: 2010.05.17/outbox.cif.g08.bks.cpg/sg80_cif.got.tgz:1678.got - 2010.06.03 18:49:13.
