data_PCOD9542923
_publ_section_title
;
Structure prediction by ZEFSAII (Michael W. Deem and Ramdas Pophale) SiO2 
 PCOD9542923
Probable space group: I -4 
;
_chemical_formula_sum "Si O2"
_cell_formula_units_Z 34
_cell_length_a 8.658354
_cell_length_b 8.658354
_cell_length_c 19.412088
_cell_angle_alpha 90.000000
_cell_angle_beta 90.000000
_cell_angle_gamma 90.000000
_cell_volume 1455.267826
_symmetry_space_group_name_H-M "I -4 "
_symmetry_group_IT_number 82
_symmetry_cell_setting 'tetragonal'
loop_
_space_group_symop_operation_xyz
x,y,z
y,-x,-z
-x,-y,z
-y,x,-z
1/2+x,1/2+y,1/2+z
1/2+y,1/2-x,1/2-z
1/2-x,1/2-y,1/2+z
1/2-y,1/2+x,1/2-z
loop_
_atom_site_type_symbol
_atom_site_label
_atom_site_fract_x
_atom_site_fract_y
_atom_site_fract_z
Si Si1 0.684348 0.812107 0.858378
Si Si2 0.500000 0.500000 0.500000
Si Si3 0.660480 0.590443 0.219715
Si Si4 0.077756 0.663104 0.993966
Si Si5 0.976831 0.815600 0.593678
O O1 0.519857 0.779277 0.821287
O O2 0.785883 0.863085 0.794378
O O3 0.676193 0.925878 0.923150
O O4 0.740842 0.649350 0.890477
O O5 0.518684 0.328557 0.465963
O O6 0.500000 0.500000 0.228258
O O7 0.619419 0.720052 0.163588
O O8 0.000000 0.500000 0.973866
O O9 0.250140 0.625852 0.967686
O O10 0.000000 0.000000 0.585332
#
# Coordination Sequence:
#
# PCOD9542923 Si02
#       5
#     8   2   8   8   8
#     4  10  23  40  74 105 146 206 249 320 394 479
#     4  12  32  48  76 124 156 216 264 342 388 484
#     4   9  22  42  68 105 139 196 252 318 385 467
#     4  12  28  49  74 117 155 204 264 327 400 465
#     4   9  23  46  77 104 146 204 251 318 394 471
#
# _framework density 23.363399000000001
#
# number of rings (size 3 to 8) (size 9 to 14) (size 15 to 20)
#    0.000    2.353    0.000    1.412   18.118    0.941 
#   12.706    0.000    0.000    0.000    0.000    0.000 
#    0.000    0.000    0.000    0.000    0.000    0.000 
#
# Total GULP energy -94787.006016 kJ/mol
# GULP energy per Si atom -5575.706236 kJ/mol
# Density = 2.331022 g / cm^3
# Si number density = 23.363399 Si / 1000 Ang^3
#
#
#
# Elastic Constant Matrix: (Units=GPa)
#
#
# Indices 1 2 3 4 5 6 
#
# 1 81.7554 37.5107 20.1531 0.0000 0.0000 -1.9472
# 2 37.5107 81.7554 20.1531 0.0000 0.0000 1.9472
# 3 20.1531 20.1531 116.4537 0.0000 0.0000 0.0000
# 4 0.0000 0.0000 0.0000 34.1263 0.0000 0.0000
# 5 0.0000 0.0000 0.0000 0.0000 34.1263 0.0000
# 6 -1.9472 1.9472 0.0000 0.0000 0.0000 33.3988
#
#
#
# Elastic Compliance Matrix: (Units=1/GPa)
#
#
# Indices 1 2 3 4 5 6 
#
# 1 0.015812 -0.006906 -0.001541 0.000000 0.000000 0.001324
# 2 -0.006906 0.015812 -0.001541 0.000000 0.000000 -0.001324
# 3 -0.001541 -0.001541 0.009121 0.000000 0.000000 0.000000
# 4 0.000000 0.000000 0.000000 0.029303 0.000000 0.000000
# 5 0.000000 0.000000 0.000000 0.000000 0.029303 0.000000
# 6 0.001324 -0.001324 0.000000 0.000000 0.000000 0.030096
#
#
# Mechanical properties :
#
#
# Convention : Reuss Voigt Hill
#
# Bulk Modulus (GPa) = 48.15373 48.39980 48.27676
# Shear Modulus (GPa) = 31.98053 33.80680 32.89366
#
# Velocity S-wave (km/s) = 3.70378 3.80807 3.75629
# Velocity P-wave (km/s) = 6.24069 6.33216 6.28659
#
# Compressibility (1/GPa) = 0.02076682
#
# Stress axis : x y z
#
# Youngs Moduli (GPa) = 63.24388 63.24388 109.64296
#
# Poissons Ratio (x) = 0.43678 0.16898
# Poissons Ratio (y) = 0.43678 0.16898
# Poissons Ratio (z) = 0.09747 0.09747
#
# Static dielectric constant tensor:
#      x y z
#    x 1.974640 0.000000 0.000000 
#    y 0.000000 1.974640 0.000000 
#    z 0.000000 0.000000 1.895490 
# 
# From -- ./inp_files/2977.got.cif
#   From: 2010.05.17/outbox.cif.g08.bks.cpg/sg82_2_cif.got.tgz:2977.got - 2010.06.03 18:52:26.
