data_PCOD9542357
_publ_section_title
;
Structure prediction by ZEFSAII (Michael W. Deem and Ramdas Pophale) SiO2 
 PCOD9542357
Probable space group: P -4
;
_chemical_formula_sum "Si O2"
_cell_formula_units_Z 26
_cell_length_a 8.004795
_cell_length_b 8.004795
_cell_length_c 19.188118
_cell_angle_alpha 90.000000
_cell_angle_beta 90.000000
_cell_angle_gamma 90.000000
_cell_volume 1229.512106
_symmetry_space_group_name_H-M "P -4"
_symmetry_group_IT_number 81
_symmetry_cell_setting 'tetragonal'
loop_
_space_group_symop_operation_xyz
x,y,z
y,-x,-z
-x,-y,z
-y,x,-z
loop_
_atom_site_type_symbol
_atom_site_label
_atom_site_fract_x
_atom_site_fract_y
_atom_site_fract_z
Si Si1 0.000000 0.500000 0.767937
Si Si2 0.727391 0.089544 0.354888
Si Si3 0.574101 0.780260 0.870175
Si Si4 0.000000 0.500000 0.011965
Si Si5 0.257445 0.912108 0.631289
Si Si6 0.244857 0.569240 0.883891
Si Si7 0.592577 0.235601 0.494229
Si Si8 0.500000 0.000000 0.744447
O O1 0.100347 0.377982 0.715943
O O2 0.117927 0.603879 0.820504
O O3 0.619360 0.147620 0.420549
O O4 0.898095 0.195068 0.359186
O O5 0.789171 0.899124 0.362499
O O6 0.384961 0.713803 0.888117
O O7 0.672618 0.608760 0.867208
O O8 0.589745 0.874389 0.797271
O O9 0.623295 0.914943 0.929478
O O10 0.148891 0.526416 0.955420
O O11 0.343425 0.879298 0.557274
O O12 0.385688 0.889226 0.694150
O O13 0.403533 0.295232 0.504773
#
# Coordination Sequence:
#
# PCOD9542357 Si02
#       8
#     2   4   4   2   4   4   4   2
#     4  11  22  38  60  87 120 154 196 243 290 350
#     4  11  23  39  60  86 119 158 197 244 305 365
#     4  10  21  38  61  88 118 154 195 238 287 343
#     4  10  20  34  60  88 116 148 188 236 280 334
#     4  11  23  39  60  86 119 158 197 244 305 365
#     4  10  21  38  61  88 118 154 195 238 287 343
#     4  11  24  41  62  87 114 150 202 257 304 357
#     4  11  22  38  60  87 120 154 196 243 290 350
#
# _framework density 21.146601
#
# number of rings (size 3 to 8) (size 9 to 14) (size 15 to 20)
#    0.000    1.385    0.000    5.538    0.000    4.308 
#    0.000    3.077    0.000   35.077    0.000    0.000 
#    0.000    0.000    0.000    0.000    0.000    0.000 
#
# Total GULP energy -144999.488615 kJ/mol
# GULP energy per Si atom -5576.903408 kJ/mol
# Density = 2.109847 g / cm^3
# Si number density = 21.146601 Si / 1000 Ang^3
#
#
#
# Elastic Constant Matrix: (Units=GPa)
#
#
# Indices 1 2 3 4 5 6 
#
# 1 65.2912 -0.3859 32.6228 0.0000 0.0000 7.6342
# 2 -0.3859 65.2912 32.6228 0.0000 0.0000 -7.6342
# 3 32.6228 32.6228 157.2999 0.0000 0.0000 0.0000
# 4 0.0000 0.0000 0.0000 6.5756 0.0000 0.0000
# 5 0.0000 0.0000 0.0000 0.0000 6.5756 0.0000
# 6 7.6342 -7.6342 0.0000 0.0000 0.0000 24.1964
#
#
#
# Elastic Compliance Matrix: (Units=1/GPa)
#
#
# Indices 1 2 3 4 5 6 
#
# 1 0.017948 0.001517 -0.004037 0.000000 0.000000 -0.005184
# 2 0.001517 0.017948 -0.004037 0.000000 0.000000 0.005184
# 3 -0.004037 -0.004037 0.008032 0.000000 0.000000 0.000000
# 4 0.000000 0.000000 0.000000 0.152078 0.000000 0.000000
# 5 0.000000 0.000000 0.000000 0.000000 0.152078 0.000000
# 6 -0.005184 0.005184 0.000000 0.000000 0.000000 0.044600
#
#
# Mechanical properties :
#
#
# Convention : Reuss Voigt Hill
#
# Bulk Modulus (GPa) = 32.45243 46.40018 39.42631
# Shear Modulus (GPa) = 12.01724 22.33768 17.17746
#
# Velocity S-wave (km/s) = 2.38645 3.25364 2.85319
# Velocity P-wave (km/s) = 4.79304 6.00872 5.43498
#
# Compressibility (1/GPa) = 0.03081433
#
# Stress axis : x y z
#
# Youngs Moduli (GPa) = 55.71599 55.71599 124.50608
#
# Poissons Ratio (x) = -0.08452 0.50262
# Poissons Ratio (y) = -0.08452 0.50262
# Poissons Ratio (z) = 0.22492 0.22492
#
# Static dielectric constant tensor:
#      x y z
#    x 1.810530 0.000000 0.000000 
#    y 0.000000 1.810530 0.000000 
#    z 0.000000 0.000000 1.724540 
# 
# From -- ./inp_files/1789.got.cif
#   From: 2010.05.17/outbox.cif.g08.bks.cpg/sg81_cif.got.tgz:1789.got - 2010.06.03 18:51:07.
