data_PCOD9542947
_publ_section_title
;
Structure prediction by ZEFSAII (Michael W. Deem and Ramdas Pophale) SiO2 
 PCOD9542947
Probable space group: I -4 
;
_chemical_formula_sum "Si O2"
_cell_formula_units_Z 36
_cell_length_a 18.031721
_cell_length_b 18.031721
_cell_length_c 3.347246
_cell_angle_alpha 90.000000
_cell_angle_beta 90.000000
_cell_angle_gamma 90.000000
_cell_volume 1088.333480
_symmetry_space_group_name_H-M "I -4 "
_symmetry_group_IT_number 82
_symmetry_cell_setting 'tetragonal'
loop_
_space_group_symop_operation_xyz
x,y,z
y,-x,-z
-x,-y,z
-y,x,-z
1/2+x,1/2+y,1/2+z
1/2+y,1/2-x,1/2-z
1/2-x,1/2-y,1/2+z
1/2-y,1/2+x,1/2-z
loop_
_atom_site_type_symbol
_atom_site_label
_atom_site_fract_x
_atom_site_fract_y
_atom_site_fract_z
Si Si1 0.265625 0.807631 0.009797
Si Si2 0.959325 0.659649 0.997763
Si Si3 0.000000 0.000000 0.500000
Si Si4 0.975526 0.240841 0.496891
Si Si5 0.000000 0.500000 0.250000
Si Si6 0.869440 0.108898 0.348845
O O1 0.229708 0.716545 0.011829
O O2 0.332514 0.868476 0.004921
O O3 0.190973 0.858002 0.035975
O O4 0.767731 0.527502 0.502416
O O5 0.991578 0.577792 0.022243
O O6 0.970356 0.679144 0.500081
O O7 0.940651 0.944365 0.724018
O O8 0.903549 0.187090 0.499300
O O9 0.042104 0.180958 0.489179
#
# Coordination Sequence:
#
# PCOD9542947 Si02
#       6
#     8   8   2   8   2   8
#     4  11  24  45  77 109 144 188 246 311 371 434
#     4  11  27  50  73 106 142 197 252 302 372 437
#     4   8  16  40  76 106 152 198 232 290 364 442
#     4  10  23  45  74 113 149 191 241 299 370 440
#     4  12  32  58  76 102 152 202 260 314 380 450
#     4   9  20  42  74 112 151 190 238 295 365 442
#
# _framework density 33.078096000000002
#
# number of rings (size 3 to 8) (size 9 to 14) (size 15 to 20)
#    0.000    1.778    0.000    2.667    3.111    8.000 
#    4.000    0.000    0.000   24.000    0.000    0.000 
#    0.000    0.000    0.000    0.000    0.000    0.000 
#
# Total GULP energy -100634.723927 kJ/mol
# GULP energy per Si atom -5590.817996 kJ/mol
# Density = 3.300281 g / cm^3
# Si number density = 33.078096 Si / 1000 Ang^3
#
#
#
# Elastic Constant Matrix: (Units=GPa)
#
#
# Indices 1 2 3 4 5 6 
#
# 1 206.5981 -15.5707 14.1345 0.0000 0.0000 68.3076
# 2 -15.5707 206.5981 14.1345 0.0000 0.0000 -68.3076
# 3 14.1345 14.1345 149.4905 0.0000 0.0000 0.0000
# 4 0.0000 0.0000 0.0000 67.0046 0.0000 0.0000
# 5 0.0000 0.0000 0.0000 0.0000 67.0046 0.0000
# 6 68.3076 -68.3076 0.0000 0.0000 0.0000 127.7960
#
#
#
# Elastic Compliance Matrix: (Units=1/GPa)
#
#
# Indices 1 2 3 4 5 6 
#
# 1 0.006007 -0.000698 -0.000502 0.000000 0.000000 -0.003584
# 2 -0.000698 0.006007 -0.000502 0.000000 0.000000 0.003584
# 3 -0.000502 -0.000502 0.006784 0.000000 0.000000 0.000000
# 4 0.000000 0.000000 0.000000 0.014924 0.000000 0.000000
# 5 0.000000 0.000000 0.000000 0.000000 0.014924 0.000000
# 6 -0.003584 0.003584 0.000000 0.000000 0.000000 0.011656
#
#
# Mechanical properties :
#
#
# Convention : Reuss Voigt Hill
#
# Bulk Modulus (GPa) = 64.95763 65.34258 65.15011
# Shear Modulus (GPa) = 72.63420 89.02693 80.83056
#
# Velocity S-wave (km/s) = 4.69106 5.19351 4.94867
# Velocity P-wave (km/s) = 7.00155 7.46729 7.23817
#
# Compressibility (1/GPa) = 0.01539465
#
# Stress axis : x y z
#
# Youngs Moduli (GPa) = 166.47360 166.47360 147.39883
#
# Poissons Ratio (x) = 0.11617 0.07399
# Poissons Ratio (y) = 0.11617 0.07399
# Poissons Ratio (z) = 0.08357 0.08357
#
# Static dielectric constant tensor:
#      x y z
#    x 2.282070 0.000000 0.000000 
#    y 0.000000 2.282070 0.000000 
#    z 0.000000 0.000000 2.268380 
# 
# From -- ./inp_files/270.got.cif
#   From: 2010.05.17/outbox.cif.g08.bks.cpg/sg82_1_cif.got.tgz:270.got - 2010.06.03 18:52:26.
