data_PCOD9542998
_publ_section_title
;
Structure prediction by ZEFSAII (Michael W. Deem and Ramdas Pophale) SiO2 
 PCOD9542998
Probable space group: I -4 
;
_chemical_formula_sum "Si O2"
_cell_formula_units_Z 12
_cell_length_a 5.284846
_cell_length_b 5.284846
_cell_length_c 17.699456
_cell_angle_alpha 90.000000
_cell_angle_beta 90.000000
_cell_angle_gamma 90.000000
_cell_volume 494.338678
_symmetry_space_group_name_H-M "I -4 "
_symmetry_group_IT_number 82
_symmetry_cell_setting 'tetragonal'
loop_
_space_group_symop_operation_xyz
x,y,z
y,-x,-z
-x,-y,z
-y,x,-z
1/2+x,1/2+y,1/2+z
1/2+y,1/2-x,1/2-z
1/2-x,1/2-y,1/2+z
1/2-y,1/2+x,1/2-z
loop_
_atom_site_type_symbol
_atom_site_label
_atom_site_fract_x
_atom_site_fract_y
_atom_site_fract_z
Si Si1 0.500000 0.000000 0.250000
Si Si2 0.000000 0.000000 0.000000
Si Si3 0.246261 0.843643 0.856100
O O1 0.589822 0.783683 0.191325
O O2 0.835089 0.817957 0.054401
O O3 0.500000 0.000000 0.843739
O O4 0.000000 0.000000 0.829494
#
# Coordination Sequence:
#
# PCOD9542998 Si02
#       3
#     2   2   8
#     4  12  28  44  84 108 164 198 268 316 404 456
#     4   8  24  44  80 104 156 198 264 316 388 460
#     4  10  26  45  77 113 151 204 257 323 386 467
#
# _framework density 24.274857999999998
#
# number of rings (size 3 to 8) (size 9 to 14) (size 15 to 20)
#    2.000    0.000    0.000    0.000   14.000    0.000 
#    0.000    0.000    0.000    0.000    0.000    0.000 
#    0.000    0.000    0.000    0.000    0.000    0.000 
#
# Total GULP energy -33426.667248 kJ/mol
# GULP energy per Si atom -5571.111208 kJ/mol
# Density = 2.421961 g / cm^3
# Si number density = 24.274858 Si / 1000 Ang^3
#
#
#
# Elastic Constant Matrix: (Units=GPa)
#
#
# Indices 1 2 3 4 5 6 
#
# 1 122.4691 38.7451 58.8376 0.0000 0.0000 11.3613
# 2 38.7451 122.4691 58.8376 0.0000 0.0000 -11.3613
# 3 58.8376 58.8376 199.8769 0.0000 0.0000 0.0000
# 4 0.0000 0.0000 0.0000 -49.3098 0.0000 0.0000
# 5 0.0000 0.0000 0.0000 0.0000 -49.3098 0.0000
# 6 11.3613 -11.3613 0.0000 0.0000 0.0000 44.0591
#
#
#
# Elastic Compliance Matrix: (Units=1/GPa)
#
#
# Indices 1 2 3 4 5 6 
#
# 1 0.010372 -0.002471 -0.002326 0.000000 0.000000 -0.003312
# 2 -0.002471 0.010372 -0.002326 0.000000 0.000000 0.003312
# 3 -0.002326 -0.002326 0.006372 0.000000 0.000000 0.000000
# 4 0.000000 0.000000 0.000000 -0.020280 0.000000 0.000000
# 5 0.000000 0.000000 0.000000 0.000000 -0.020280 0.000000
# 6 -0.003312 0.003312 0.000000 0.000000 0.000000 0.024405
#
#
# Mechanical properties :
#
#
# Convention : Reuss Voigt Hill
#
# Bulk Modulus (GPa) = 77.69626 84.18397 80.94012
# Shear Modulus (GPa) = 169.51646 8.31419 88.91533
#
# Velocity S-wave (km/s) = 8.36563 1.85269 6.05872
# Velocity P-wave (km/s) = 11.19768 6.27147 9.07522
#
# Compressibility (1/GPa) = 0.01287063
#
# Stress axis : x y z
#
# Youngs Moduli (GPa) = 96.41663 96.41663 156.92953
#
# Poissons Ratio (x) = 0.23826 0.36497
# Poissons Ratio (y) = 0.23826 0.36497
# Poissons Ratio (z) = 0.22423 0.22423
#
# Static dielectric constant tensor:
#      x y z
#    x 2.755080 0.000000 0.000000 
#    y 0.000000 2.755080 0.000000 
#    z 0.000000 0.000000 1.956710 
# 
# From -- ./inp_files/2360.got.cif
#   From: 2010.05.17/outbox.cif.g08.bks.cpg/sg82_2_cif.got.tgz:2360.got - 2010.06.03 18:52:26.
