data_PCOD9542691
_publ_section_title
;
Structure prediction by ZEFSAII (Michael W. Deem and Ramdas Pophale) SiO2 
 PCOD9542691
Probable space group: I -4 
;
_chemical_formula_sum "Si O2"
_cell_formula_units_Z 44
_cell_length_a 18.542015
_cell_length_b 18.542015
_cell_length_c 5.271667
_cell_angle_alpha 90.000000
_cell_angle_beta 90.000000
_cell_angle_gamma 90.000000
_cell_volume 1812.432433
_symmetry_space_group_name_H-M "I -4 "
_symmetry_group_IT_number 82
_symmetry_cell_setting 'tetragonal'
loop_
_space_group_symop_operation_xyz
x,y,z
y,-x,-z
-x,-y,z
-y,x,-z
1/2+x,1/2+y,1/2+z
1/2+y,1/2-x,1/2-z
1/2-x,1/2-y,1/2+z
1/2-y,1/2+x,1/2-z
loop_
_atom_site_type_symbol
_atom_site_label
_atom_site_fract_x
_atom_site_fract_y
_atom_site_fract_z
Si Si1 0.500000 0.000000 0.250000
Si Si2 0.500000 0.500000 0.000000
Si Si3 0.498048 0.360773 0.299414
Si Si4 0.338935 0.690487 0.267054
Si Si5 0.073704 0.423055 0.357022
Si Si6 0.212342 0.959342 0.693099
Si Si7 0.273647 0.121445 0.730817
O O1 0.426917 0.968920 0.381474
O O2 0.436873 0.524187 0.813918
O O3 0.719863 0.373502 0.251590
O O4 0.479299 0.346612 0.589173
O O5 0.459066 0.306360 0.105329
O O6 0.417370 0.651497 0.251781
O O7 0.342826 0.730439 0.536428
O O8 0.342344 0.745971 0.029906
O O9 0.091513 0.508330 0.333516
O O10 0.142230 0.376634 0.300573
O O11 0.258894 0.033778 0.717285
#
# Coordination Sequence:
#
# PCOD9542691 Si02
#       7
#     2   2   8   8   8   8   8
#     4   8  18  36  68  94 124 136 158 248 318 372
#     4  12  20  26  44  62 100 138 204 254 304 310
#     4  10  21  27  44  65  98 146 196 247 284 313
#     4  10  20  33  49  74 114 153 198 230 271 327
#     4   9  20  38  65  95 118 132 176 231 310 360
#     4  10  20  35  45  71 109 151 195 230 268 322
#     4  10  22  35  57  84 113 154 189 235 284 334
#
# _framework density 24.276765999999999
#
# number of rings (size 3 to 8) (size 9 to 14) (size 15 to 20)
#    0.000    2.364    1.818    1.091   10.182    0.727 
#    0.000    0.000    0.000    2.182    0.000    0.000 
#    0.000    0.000    0.000    0.000    0.000    0.000 
#
# Total GULP energy -122507.319511 kJ/mol
# GULP energy per Si atom -5568.514523 kJ/mol
# Density = 2.422151 g / cm^3
# Si number density = 24.276766 Si / 1000 Ang^3
#
#
#
# Elastic Constant Matrix: (Units=GPa)
#
#
# Indices 1 2 3 4 5 6 
#
# 1 95.3871 12.8749 7.9149 0.0000 0.0000 -23.5930
# 2 12.8749 95.3871 7.9149 0.0000 0.0000 23.5930
# 3 7.9149 7.9149 100.5841 0.0000 0.0000 0.0000
# 4 0.0000 0.0000 0.0000 -21.0385 0.0000 0.0000
# 5 0.0000 0.0000 0.0000 0.0000 -21.0385 0.0000
# 6 -23.5930 23.5930 0.0000 0.0000 0.0000 -20.7252
#
#
#
# Elastic Compliance Matrix: (Units=1/GPa)
#
#
# Indices 1 2 3 4 5 6 
#
# 1 0.008343 0.001002 -0.000735 0.000000 0.000000 -0.008356
# 2 0.001002 0.008343 -0.000735 0.000000 0.000000 0.008356
# 3 -0.000735 -0.000735 0.010058 0.000000 0.000000 0.000000
# 4 0.000000 0.000000 0.000000 -0.047532 0.000000 0.000000
# 5 0.000000 0.000000 0.000000 0.000000 -0.047532 0.000000
# 6 -0.008356 0.008356 0.000000 0.000000 0.000000 -0.029225
#
#
# Mechanical properties :
#
#
# Convention : Reuss Voigt Hill
#
# Bulk Modulus (GPa) = 38.75192 38.75197 38.75195
# Shear Modulus (GPa) = -56.81382 4.94978 -25.93202
#
# Velocity S-wave (km/s) = -4.84287 1.42945 -3.27185
# Velocity P-wave (km/s) = 3.90819 4.32685 1.31296
#
# Compressibility (1/GPa) = 0.02580517
#
# Stress axis : x y z
#
# Youngs Moduli (GPa) = 119.86798 119.86798 99.42677
#
# Poissons Ratio (x) = -0.12009 0.07311
# Poissons Ratio (y) = -0.12009 0.07311
# Poissons Ratio (z) = 0.08814 0.08814
#
# Static dielectric constant tensor:
#      x y z
#    x 2.004200 0.000000 0.000000 
#    y 0.000000 2.004200 0.000000 
#    z 0.000000 0.000000 2.112790 
# 
# From -- ./inp_files/426.got.cif
#   From: 2010.05.17/outbox.cif.g08.bks.cpg/sg82_1_cif.got.tgz:426.got - 2010.06.03 18:52:26.
