data_PCOD9542318
_publ_section_title
;
Structure prediction by ZEFSAII (Michael W. Deem and Ramdas Pophale) SiO2 
 PCOD9542318
Probable space group: P -4
;
_chemical_formula_sum "Si O2"
_cell_formula_units_Z 28
_cell_length_a 17.122816
_cell_length_b 17.122816
_cell_length_c 5.527113
_cell_angle_alpha 90.000000
_cell_angle_beta 90.000000
_cell_angle_gamma 90.000000
_cell_volume 1620.498836
_symmetry_space_group_name_H-M "P -4"
_symmetry_group_IT_number 81
_symmetry_cell_setting 'tetragonal'
loop_
_space_group_symop_operation_xyz
x,y,z
y,-x,-z
-x,-y,z
-y,x,-z
loop_
_atom_site_type_symbol
_atom_site_label
_atom_site_fract_x
_atom_site_fract_y
_atom_site_fract_z
Si Si1 0.790387 0.369238 0.946298
Si Si2 0.410845 0.967385 0.575162
Si Si3 0.789433 0.544328 0.436349
Si Si4 0.419627 0.580984 0.389338
Si Si5 0.246252 0.637635 0.446351
Si Si6 0.410382 0.030416 0.073282
Si Si7 0.293264 0.467084 0.940438
O O1 0.778277 0.324260 0.696728
O O2 0.876143 0.407177 0.939280
O O3 0.726900 0.440282 0.949271
O O4 0.777147 0.323721 0.194554
O O5 0.418727 0.874457 0.575314
O O6 0.500000 0.000000 0.577244
O O7 0.375312 0.999984 0.325934
O O8 0.374317 0.997376 0.825507
O O9 0.794294 0.448974 0.437465
O O10 0.751495 0.562505 0.697376
O O11 0.741393 0.564989 0.191676
O O12 0.488709 0.595148 0.583725
O O13 0.337854 0.620119 0.450613
O O14 0.449333 0.618011 0.138114
O O15 0.500000 0.000000 0.075671
#
# Coordination Sequence:
#
# PCOD9542318 Si02
#       7
#     4   4   4   4   4   4   4
#     4  10  18  32  45  61  83 102 118 149 218 261
#     4  10  16  24  42  67  84 100 118 136 167 253
#     4  10  18  32  45  61  83 102 118 149 218 261
#     4  11  22  38  50  62  74  98 156 208 240 274
#     4  10  19  33  45  57  75 103 124 171 225 261
#     4  10  16  24  42  67  84 100 118 136 167 253
#     4  10  19  33  45  57  75 103 124 171 225 261
#
# _framework density 17.278631000000001
#
# number of rings (size 3 to 8) (size 9 to 14) (size 15 to 20)
#    0.000    1.857    2.857    8.571    0.000    1.143 
#    0.000    0.000    0.000    0.000    0.000    0.000 
#    0.000    0.000    0.000    0.000    0.000    0.000 
#
# Total GULP energy -156124.938544 kJ/mol
# GULP energy per Si atom -5575.890662 kJ/mol
# Density = 1.723930 g / cm^3
# Si number density = 17.278631 Si / 1000 Ang^3
#
#
#
# Elastic Constant Matrix: (Units=GPa)
#
#
# Indices 1 2 3 4 5 6 
#
# 1 50.0358 1.2010 27.1277 0.0000 0.0000 1.8862
# 2 1.2010 50.0358 27.1277 0.0000 0.0000 -1.8862
# 3 27.1277 27.1277 193.7928 0.0000 0.0000 0.0000
# 4 0.0000 0.0000 0.0000 18.3760 0.0000 0.0000
# 5 0.0000 0.0000 0.0000 0.0000 18.3760 0.0000
# 6 1.8862 -1.8862 0.0000 0.0000 0.0000 1.2798
#
#
#
# Elastic Compliance Matrix: (Units=1/GPa)
#
#
# Indices 1 2 3 4 5 6 
#
# 1 0.023011 -0.000097 -0.003208 0.000000 0.000000 -0.034059
# 2 -0.000097 0.023011 -0.003208 0.000000 0.000000 0.034059
# 3 -0.003208 -0.003208 0.006058 0.000000 0.000000 0.000000
# 4 0.000000 0.000000 0.000000 0.054419 0.000000 0.000000
# 5 0.000000 0.000000 0.000000 0.000000 0.054419 0.000000
# 6 -0.034059 0.034059 0.000000 0.000000 0.000000 0.881787
#
#
# Mechanical properties :
#
#
# Convention : Reuss Voigt Hill
#
# Bulk Modulus (GPa) = 25.60463 44.97528 35.28996
# Shear Modulus (GPa) = 4.67837 23.50023 14.08930
#
# Velocity S-wave (km/s) = 1.64727 3.69192 2.85865
# Velocity P-wave (km/s) = 4.29754 6.65279 5.60038
#
# Compressibility (1/GPa) = 0.03905543
#
# Stress axis : x y z
#
# Youngs Moduli (GPa) = 43.45759 43.45759 165.06687
#
# Poissons Ratio (x) = 0.00423 0.52946
# Poissons Ratio (y) = 0.00423 0.52946
# Poissons Ratio (z) = 0.13939 0.13939
#
# Static dielectric constant tensor:
#      x y z
#    x 1.595010 0.000000 0.000000 
#    y 0.000000 1.595010 0.000000 
#    z 0.000000 0.000000 1.753210 
# 
# From -- ./inp_files/388.got.cif
#   From: 2010.05.17/outbox.cif.g08.bks.cpg/sg81_cif.got.tgz:388.got - 2010.06.03 18:51:07.
