data_PCOD9542803
_publ_section_title
;
Structure prediction by ZEFSAII (Michael W. Deem and Ramdas Pophale) SiO2 
 PCOD9542803
Probable space group: I -4 
;
_chemical_formula_sum "Si O2"
_cell_formula_units_Z 44
_cell_length_a 9.820212
_cell_length_b 9.820212
_cell_length_c 19.050286
_cell_angle_alpha 90.000000
_cell_angle_beta 90.000000
_cell_angle_gamma 90.000000
_cell_volume 1837.144120
_symmetry_space_group_name_H-M "I -4 "
_symmetry_group_IT_number 82
_symmetry_cell_setting 'tetragonal'
loop_
_space_group_symop_operation_xyz
x,y,z
y,-x,-z
-x,-y,z
-y,x,-z
1/2+x,1/2+y,1/2+z
1/2+y,1/2-x,1/2-z
1/2-x,1/2-y,1/2+z
1/2-y,1/2+x,1/2-z
loop_
_atom_site_type_symbol
_atom_site_label
_atom_site_fract_x
_atom_site_fract_y
_atom_site_fract_z
Si Si1 0.147151 0.324347 0.598815
Si Si2 0.222589 0.550815 0.757898
Si Si3 0.107124 0.346868 0.121261
Si Si4 0.500000 0.500000 0.500000
Si Si5 0.000000 0.500000 0.250000
Si Si6 0.117876 0.311048 0.439188
Si Si7 0.402930 0.273603 0.389621
O O1 0.073379 0.243382 0.661021
O O2 0.306436 0.286561 0.610224
O O3 0.105438 0.284133 0.521159
O O4 0.150084 0.488981 0.604744
O O5 0.158759 0.401242 0.751772
O O6 0.319971 0.581684 0.691917
O O7 0.056324 0.382175 0.199265
O O8 0.202287 0.473544 0.098636
O O9 0.972112 0.348791 0.073876
O O10 0.442011 0.383034 0.448791
O O11 0.247113 0.235880 0.405975
#
# Coordination Sequence:
#
# PCOD9542803 Si02
#       7
#     8   8   8   2   2   8   8
#     4  11  21  38  61  91 129 162 216 267 324 379
#     4   9  22  39  59  88 126 170 212 262 324 395
#     4  10  23  38  62  95 124 172 215 273 319 391
#     4  12  20  36  64 104 124 156 222 288 320 364
#     4   8  20  40  60  88 128 168 222 260 320 404
#     4  10  21  38  61  91 122 168 214 263 318 382
#     4  11  21  38  62  96 124 160 211 272 328 369
#
# _framework density 23.950216999999999
#
# number of rings (size 3 to 8) (size 9 to 14) (size 15 to 20)
#    0.000    2.000    1.818    2.182    5.091    7.273 
#    0.000    0.000    0.000    2.727    0.000    0.000 
#    0.000    0.000    0.000    0.000    0.000    0.000 
#
# Total GULP energy -122939.912550 kJ/mol
# GULP energy per Si atom -5588.177843 kJ/mol
# Density = 2.389571 g / cm^3
# Si number density = 23.950217 Si / 1000 Ang^3
#
#
#
# Elastic Constant Matrix: (Units=GPa)
#
#
# Indices 1 2 3 4 5 6 
#
# 1 63.9506 24.7692 32.3801 0.0000 0.0000 4.5129
# 2 24.7692 63.9506 32.3801 0.0000 0.0000 -4.5129
# 3 32.3801 32.3801 207.5192 0.0000 0.0000 0.0000
# 4 0.0000 0.0000 0.0000 28.6276 0.0000 0.0000
# 5 0.0000 0.0000 0.0000 0.0000 28.6276 0.0000
# 6 4.5129 -4.5129 0.0000 0.0000 0.0000 -0.1846
#
#
#
# Elastic Compliance Matrix: (Units=1/GPa)
#
#
# Indices 1 2 3 4 5 6 
#
# 1 0.008284 0.004436 -0.001985 0.000000 0.000000 0.094086
# 2 0.004436 0.008284 -0.001985 0.000000 0.000000 -0.094086
# 3 -0.001985 -0.001985 0.005438 0.000000 0.000000 0.000000
# 4 0.000000 0.000000 0.000000 0.034931 0.000000 0.000000
# 5 0.000000 0.000000 0.000000 0.000000 0.034931 0.000000
# 6 0.094086 -0.094086 0.000000 0.000000 0.000000 -0.816856
#
#
# Mechanical properties :
#
#
# Convention : Reuss Voigt Hill
#
# Bulk Modulus (GPa) = 43.59294 57.16438 50.37866
# Shear Modulus (GPa) = -6.96114 27.80685 10.42285
#
# Velocity S-wave (km/s) = -1.70670 3.41108 2.08838
# Velocity P-wave (km/s) = 3.78909 6.27963 5.18609
#
# Compressibility (1/GPa) = 0.02293949
#
# Stress axis : x y z
#
# Youngs Moduli (GPa) = 120.70867 120.70868 183.88359
#
# Poissons Ratio (x) = -0.53544 0.36497
# Poissons Ratio (y) = -0.53544 0.36497
# Poissons Ratio (z) = 0.23958 0.23958
#
# Static dielectric constant tensor:
#      x y z
#    x 1.940010 0.000000 0.000000 
#    y 0.000000 1.940010 0.000000 
#    z 0.000000 0.000000 1.950340 
# 
# From -- ./inp_files/2614.got.cif
#   From: 2010.05.17/outbox.cif.g08.bks.cpg/sg82_2_cif.got.tgz:2614.got - 2010.06.03 18:52:26.
