data_PCOD9542932
_publ_section_title
;
Structure prediction by ZEFSAII (Michael W. Deem and Ramdas Pophale) SiO2 
 PCOD9542932
Probable space group: I -4 
;
_chemical_formula_sum "Si O2"
_cell_formula_units_Z 40
_cell_length_a 8.620524
_cell_length_b 8.620524
_cell_length_c 20.236430
_cell_angle_alpha 90.000000
_cell_angle_beta 90.000000
_cell_angle_gamma 90.000000
_cell_volume 1503.838606
_symmetry_space_group_name_H-M "I -4 "
_symmetry_group_IT_number 82
_symmetry_cell_setting 'tetragonal'
loop_
_space_group_symop_operation_xyz
x,y,z
y,-x,-z
-x,-y,z
-y,x,-z
1/2+x,1/2+y,1/2+z
1/2+y,1/2-x,1/2-z
1/2-x,1/2-y,1/2+z
1/2-y,1/2+x,1/2-z
loop_
_atom_site_type_symbol
_atom_site_label
_atom_site_fract_x
_atom_site_fract_y
_atom_site_fract_z
Si Si1 0.350228 0.592982 0.893355
Si Si2 0.688832 0.639153 0.393614
Si Si3 0.402540 0.210587 0.780658
Si Si4 0.606075 0.157668 0.003432
Si Si5 0.384090 0.695295 0.331434
O O1 0.500000 0.500000 0.868215
O O2 0.265015 0.479936 0.943986
O O3 0.217916 0.655310 0.845634
O O4 0.394712 0.744080 0.936686
O O5 0.845496 0.679413 0.354110
O O6 0.658512 0.716613 0.465563
O O7 0.559582 0.724695 0.349936
O O8 0.663528 0.454734 0.378783
O O9 0.581530 0.177419 0.767300
O O10 0.356986 0.366275 0.743754
O O11 0.500000 0.000000 0.997857
#
# Coordination Sequence:
#
# PCOD9542932 Si02
#       5
#     8   8   8   8   8
#     4  12  26  45  65 100 137 179 232 282 349 414
#     4  10  23  42  67  96 139 179 233 283 344 412
#     4   9  20  40  64  97 131 176 230 280 338 411
#     4  12  25  45  66  98 137 177 227 288 346 413
#     4  10  23  43  65 100 134 184 232 282 346 411
#
# _framework density 26.598600000000001
#
# number of rings (size 3 to 8) (size 9 to 14) (size 15 to 20)
#    0.000    1.400    4.000    0.000    5.600    1.600 
#    7.200    2.000    0.000    0.000    0.000    0.000 
#    0.000    0.000    0.000    0.000    0.000    0.000 
#
# Total GULP energy -111810.248398 kJ/mol
# GULP energy per Si atom -5590.512420 kJ/mol
# Density = 2.653806 g / cm^3
# Si number density = 26.598600 Si / 1000 Ang^3
#
#
#
# Elastic Constant Matrix: (Units=GPa)
#
#
# Indices 1 2 3 4 5 6 
#
# 1 92.0924 14.2999 15.9433 0.0000 0.0000 -2.7648
# 2 14.2999 92.0924 15.9433 0.0000 0.0000 2.7648
# 3 15.9433 15.9433 38.3615 0.0000 0.0000 0.0000
# 4 0.0000 0.0000 0.0000 27.0339 0.0000 0.0000
# 5 0.0000 0.0000 0.0000 0.0000 27.0339 0.0000
# 6 -2.7648 2.7648 0.0000 0.0000 0.0000 59.7811
#
#
#
# Elastic Compliance Matrix: (Units=1/GPa)
#
#
# Indices 1 2 3 4 5 6 
#
# 1 0.011817 -0.001080 -0.004462 0.000000 0.000000 0.000596
# 2 -0.001080 0.011817 -0.004462 0.000000 0.000000 -0.000596
# 3 -0.004462 -0.004462 0.029777 0.000000 0.000000 0.000000
# 4 0.000000 0.000000 0.000000 0.036991 0.000000 0.000000
# 5 0.000000 0.000000 0.000000 0.000000 0.036991 0.000000
# 6 0.000596 -0.000596 0.000000 0.000000 0.000000 0.016783
#
#
# Mechanical properties :
#
#
# Convention : Reuss Voigt Hill
#
# Bulk Modulus (GPa) = 29.93904 34.99101 32.46502
# Shear Modulus (GPa) = 28.51966 34.52708 31.52337
#
# Velocity S-wave (km/s) = 3.27804 3.60679 3.44634
# Velocity P-wave (km/s) = 5.06040 5.52531 5.29796
#
# Compressibility (1/GPa) = 0.03340121
#
# Stress axis : x y z
#
# Youngs Moduli (GPa) = 84.62513 84.62513 33.58312
#
# Poissons Ratio (x) = 0.09142 0.14985
# Poissons Ratio (y) = 0.09142 0.14985
# Poissons Ratio (z) = 0.37761 0.37761
#
# Static dielectric constant tensor:
#      x y z
#    x 2.137140 0.000000 0.000000 
#    y 0.000000 2.137140 0.000000 
#    z 0.000000 0.000000 2.074580 
# 
# From -- ./inp_files/3359.got.cif
#   From: 2010.05.17/outbox.cif.g08.bks.cpg/sg82_2_cif.got.tgz:3359.got - 2010.06.03 18:52:26.
