data_PCOD9542001
_publ_section_title
;
Structure prediction by ZEFSAII (Michael W. Deem and Ramdas Pophale) SiO2 
 PCOD9542001
Probable space group: I 4
;
_chemical_formula_sum "Si O2"
_cell_formula_units_Z 50
_cell_length_a 9.087446
_cell_length_b 9.087446
_cell_length_c 27.697444
_cell_angle_alpha 90.000000
_cell_angle_beta 90.000000
_cell_angle_gamma 90.000000
_cell_volume 2287.301313
_symmetry_space_group_name_H-M "I 4"
_symmetry_group_IT_number 79
_symmetry_cell_setting 'tetragonal'
loop_
_space_group_symop_operation_xyz
x,y,z
-y,x,z
-x,-y,z
y,-x,z
1/2+x,1/2+y,1/2+z
1/2-y,1/2+x,1/2+z
1/2-x,1/2-y,1/2+z
1/2+y,1/2-x,1/2+z
loop_
_atom_site_type_symbol
_atom_site_label
_atom_site_fract_x
_atom_site_fract_y
_atom_site_fract_z
Si Si1 0.391286 0.281615 0.661520
Si Si2 0.595842 0.728193 0.771610
Si Si3 0.498967 0.168991 0.130846
Si Si4 0.074462 0.238240 0.526795
Si Si5 0.086261 0.771359 0.843150
Si Si6 0.230733 0.085293 0.957086
Si Si7 0.500000 0.500000 0.166354
O O1 0.563318 0.311867 0.656756
O O2 0.371377 0.226532 0.716473
O O3 0.329239 0.174102 0.622089
O O4 0.425219 0.684816 0.777760
O O5 0.646474 0.850046 0.809066
O O6 0.423474 0.186280 0.079324
O O7 0.469973 0.317552 0.161771
O O8 0.500000 0.000000 0.151531
O O9 0.134844 0.353487 0.487993
O O10 0.908326 0.175517 0.522088
O O11 0.097957 0.736937 0.899890
O O12 0.918479 0.817630 0.833356
O O13 0.083224 0.182433 0.966710
#
# Coordination Sequence:
#
# PCOD9542001 Si02
#       7
#     8   8   8   8   8   8   2
#     4   9  20  42  66  93 129 175 229 275 330 413
#     4   9  19  38  63  91 130 168 211 269 321 387
#     4  12  24  42  68  91 131 183 215 284 357 400
#     4  11  24  42  60  90 129 164 211 276 332 394
#     4   9  19  39  60  92 132 166 208 263 325 390
#     4   9  21  41  66  91 125 169 218 270 323 403
#     4  12  24  48  60 100 140 160 236 304 332 416
#
# _framework density 21.859824
#
# number of rings (size 3 to 8) (size 9 to 14) (size 15 to 20)
#    0.000    2.080    1.600    2.880    2.240    1.920 
#    8.640    4.800    0.000    0.000    0.000    0.000 
#    0.000    0.000    0.000    0.000    0.000    0.000 
#
# Total GULP energy -139203.526073 kJ/mol
# GULP energy per Si atom -5568.141043 kJ/mol
# Density = 2.181007 g / cm^3
# Si number density = 21.859824 Si / 1000 Ang^3
#
#
#
# Elastic Constant Matrix: (Units=GPa)
#
#
# Indices 1 2 3 4 5 6 
#
# 1 64.2202 48.1773 41.3430 0.0000 0.0000 20.6206
# 2 48.1773 64.2202 41.3430 0.0000 0.0000 -20.6206
# 3 41.3430 41.3430 53.4589 0.0000 0.0000 0.0000
# 4 0.0000 0.0000 0.0000 35.6185 0.0000 0.0000
# 5 0.0000 0.0000 0.0000 0.0000 35.6185 0.0000
# 6 20.6206 -20.6206 0.0000 0.0000 0.0000 -50.8226
#
#
#
# Elastic Compliance Matrix: (Units=1/GPa)
#
#
# Indices 1 2 3 4 5 6 
#
# 1 0.025575 -0.004935 -0.015962 0.000000 0.000000 0.012379
# 2 -0.004935 0.025575 -0.015962 0.000000 0.000000 -0.012379
# 3 -0.015962 -0.015962 0.043394 0.000000 0.000000 0.000000
# 4 0.000000 0.000000 0.000000 0.028075 0.000000 0.000000
# 5 0.000000 0.000000 0.000000 0.000000 0.028075 0.000000
# 6 0.012379 -0.012379 0.000000 0.000000 0.000000 -0.009631
#
#
# Mechanical properties :
#
#
# Convention : Reuss Voigt Hill
#
# Bulk Modulus (GPa) = 48.01633 49.29177 48.65405
# Shear Modulus (GPa) = 22.55073 7.48525 15.01799
#
# Velocity S-wave (km/s) = 3.21535 1.85247 2.62394
# Velocity P-wave (km/s) = 5.98313 5.21282 5.61121
#
# Compressibility (1/GPa) = 0.02082625
#
# Stress axis : x y z
#
# Youngs Moduli (GPa) = 39.10118 39.10118 23.04465
#
# Poissons Ratio (x) = 0.19298 0.36783
# Poissons Ratio (y) = 0.19298 0.36783
# Poissons Ratio (z) = 0.62412 0.62412
#
# Static dielectric constant tensor:
#      x y z
#    x 1.881310 0.000000 0.000000 
#    y 0.000000 1.881310 0.000000 
#    z 0.000000 0.000000 1.753670 
# 
# From -- ./inp_files/2158.got.cif
#   From: 2010.05.17/outbox.cif.g08.bks.cpg/sg79_cif.got.tgz:2158.got - 2010.06.03 18:47:27.
