data_PCOD9542181
_publ_section_title
;
Structure prediction by ZEFSAII (Michael W. Deem and Ramdas Pophale) SiO2 
 PCOD9542181
Probable space group: I 41
;
_chemical_formula_sum "Si O2"
_cell_formula_units_Z 52
_cell_length_a 19.577615
_cell_length_b 19.577615
_cell_length_c 6.770749
_cell_angle_alpha 90.000000
_cell_angle_beta 90.000000
_cell_angle_gamma 90.000000
_cell_volume 2595.113051
_symmetry_space_group_name_H-M "I 41"
_symmetry_group_IT_number 80
_symmetry_cell_setting 'tetragonal'
loop_
_space_group_symop_operation_xyz
x,y,z
-y,1/2+x,1/4+z
-x,-y,z
y,1/2-x,1/4+z
1/2+x,1/2+y,1/2+z
1/2-y,x,3/4+z
1/2-x,1/2-y,1/2+z
1/2+y,-x,3/4+z
loop_
_atom_site_type_symbol
_atom_site_label
_atom_site_fract_x
_atom_site_fract_y
_atom_site_fract_z
Si Si1 0.046262 0.743779 0.674220
Si Si2 0.821126 0.311667 0.546371
Si Si3 0.038844 0.853749 0.344436
Si Si4 0.461156 0.146251 0.888110
Si Si5 0.500000 0.000000 0.991273
Si Si6 0.821126 0.811667 0.186177
Si Si7 0.743779 0.953738 0.808326
O O1 0.124278 0.718946 0.704761
O O2 0.045446 0.814434 0.552025
O O3 0.013172 0.688122 0.525824
O O4 1.000000 0.750000 0.866272
O O5 0.744928 0.320405 0.627357
O O6 0.847333 0.386797 0.492917
O O7 0.986828 0.811878 0.206722
O O8 0.016806 0.931838 0.363551
O O9 0.386797 0.152667 0.989630
O O10 0.454554 0.185566 0.680521
O O11 0.483194 0.068162 0.868994
O O12 0.820405 0.755073 0.355192
O O13 0.875722 0.781054 0.027787
#
# Coordination Sequence:
#
# PCOD9542181 Si02
#       7
#     8   8   8   8   4   8   8
#     4  10  22  43  63  89 125 164 211 262 312 374
#     4  10  22  39  60  94 122 160 206 252 311 370
#     4  10  22  42  63  88 128 165 206 262 316 368
#     4  10  22  42  63  88 128 165 206 262 316 368
#     4  12  20  44  66  92 128 174 212 260 326 384
#     4  10  22  39  60  94 122 160 206 252 311 370
#     4  10  22  43  63  89 125 164 211 262 312 374
#
# _framework density 20.037662999999998
#
# number of rings (size 3 to 8) (size 9 to 14) (size 15 to 20)
#    0.000    1.846    3.077    0.000    4.308    0.000 
#   11.077    1.538    0.000    0.000    0.000    0.000 
#    0.000    0.000    0.000    0.000    0.000    0.000 
#
# Total GULP energy -145055.613785 kJ/mol
# GULP energy per Si atom -5579.062069 kJ/mol
# Density = 1.999206 g / cm^3
# Si number density = 20.037663 Si / 1000 Ang^3
#
#
#
# Elastic Constant Matrix: (Units=GPa)
#
#
# Indices 1 2 3 4 5 6 
#
# 1 143.4048 29.5930 11.2953 0.0000 0.0000 -0.1184
# 2 29.5930 143.4048 11.2953 0.0000 0.0000 0.1184
# 3 11.2953 11.2953 23.6635 0.0000 0.0000 0.0000
# 4 0.0000 0.0000 0.0000 17.1229 0.0000 0.0000
# 5 0.0000 0.0000 0.0000 0.0000 17.1229 0.0000
# 6 -0.1184 0.1184 0.0000 0.0000 0.0000 35.8293
#
#
#
# Elastic Compliance Matrix: (Units=1/GPa)
#
#
# Indices 1 2 3 4 5 6 
#
# 1 0.007476 -0.001311 -0.002943 0.000000 0.000000 0.000029
# 2 -0.001311 0.007476 -0.002943 0.000000 0.000000 -0.000029
# 3 -0.002943 -0.002943 0.045068 0.000000 0.000000 0.000000
# 4 0.000000 0.000000 0.000000 0.058401 0.000000 0.000000
# 5 0.000000 0.000000 0.000000 0.000000 0.058401 0.000000
# 6 0.000029 -0.000029 0.000000 0.000000 0.000000 0.027910
#
#
# Mechanical properties :
#
#
# Convention : Reuss Voigt Hill
#
# Bulk Modulus (GPa) = 21.91668 46.09338 34.00503
# Shear Modulus (GPa) = 21.33710 31.23433 26.28571
#
# Velocity S-wave (km/s) = 3.26674 3.95242 3.62583
# Velocity P-wave (km/s) = 5.01899 6.62436 5.87675
#
# Compressibility (1/GPa) = 0.04562736
#
# Stress axis : x y z
#
# Youngs Moduli (GPa) = 133.76879 133.76879 22.18850
#
# Poissons Ratio (x) = 0.17536 0.06529
# Poissons Ratio (y) = 0.17536 0.06529
# Poissons Ratio (z) = 0.39363 0.39363
#
# Static dielectric constant tensor:
#      x y z
#    x 1.737360 0.000000 0.000000 
#    y 0.000000 1.737360 0.000000 
#    z 0.000000 0.000000 1.665280 
# 
# From -- ./inp_files/704.got.cif
#   From: 2010.05.17/outbox.cif.g08.bks.cpg/sg80_cif.got.tgz:704.got - 2010.06.03 18:49:13.
