data_PCOD9542910
_publ_section_title
;
Structure prediction by ZEFSAII (Michael W. Deem and Ramdas Pophale) SiO2 
 PCOD9542910
Probable space group: I -4 
;
_chemical_formula_sum "Si O2"
_cell_formula_units_Z 58
_cell_length_a 17.203691
_cell_length_b 17.203691
_cell_length_c 8.843071
_cell_angle_alpha 90.000000
_cell_angle_beta 90.000000
_cell_angle_gamma 90.000000
_cell_volume 2617.257053
_symmetry_space_group_name_H-M "I -4 "
_symmetry_group_IT_number 82
_symmetry_cell_setting 'tetragonal'
loop_
_space_group_symop_operation_xyz
x,y,z
y,-x,-z
-x,-y,z
-y,x,-z
1/2+x,1/2+y,1/2+z
1/2+y,1/2-x,1/2-z
1/2-x,1/2-y,1/2+z
1/2-y,1/2+x,1/2-z
loop_
_atom_site_type_symbol
_atom_site_label
_atom_site_fract_x
_atom_site_fract_y
_atom_site_fract_z
Si Si1 0.773064 0.967602 0.891489
Si Si2 0.432031 0.693696 0.283851
Si Si3 0.555944 0.711523 0.049710
Si Si4 0.519463 0.589591 0.790368
Si Si5 0.158194 0.458226 0.119283
Si Si6 0.500000 0.000000 0.750000
Si Si7 0.280413 0.856533 0.917879
Si Si8 0.779990 0.214225 0.606858
O O1 0.857592 0.962480 0.811298
O O2 0.756835 0.058963 0.921567
O O3 0.707512 0.944061 0.772418
O O4 0.769625 0.926557 0.052043
O O5 0.412277 0.602765 0.291633
O O6 0.368309 0.725733 0.166629
O O7 0.517958 0.701471 0.213035
O O8 0.530207 0.637805 0.945828
O O9 0.513031 0.786420 0.979482
O O10 0.647950 0.718511 0.023610
O O11 0.500000 0.500000 0.812521
O O12 0.137871 0.373067 0.058269
O O13 0.078498 0.502234 0.153933
O O14 0.263844 0.821156 0.751239
O O15 0.249931 0.794566 0.039712
#
# Coordination Sequence:
#
# PCOD9542910 Si02
#       8
#     8   8   8   8   8   2   8   8
#     4  11  25  43  63 100 133 166 223 272 321 392
#     4  11  24  40  63  93 135 167 216 265 322 385
#     4  10  22  45  61  98 129 169 219 269 316 399
#     4  10  24  39  63  92 132 179 218 258 318 384
#     4  11  22  43  71  92 126 165 223 273 325 390
#     4  12  20  40  76  94 112 172 212 278 324 384
#     4  12  24  44  66  96 129 173 220 266 331 393
#     4  11  25  43  65  96 128 173 218 260 334 389
#
# _framework density 22.160603999999999
#
# number of rings (size 3 to 8) (size 9 to 14) (size 15 to 20)
#    0.000    1.103    6.897    0.000    9.655    0.000 
#    0.000    0.000    0.000    0.828    0.000    0.000 
#    0.000    0.000    0.000    0.000    0.000    0.000 
#
# Total GULP energy -162204.709912 kJ/mol
# GULP energy per Si atom -5593.265859 kJ/mol
# Density = 2.211017 g / cm^3
# Si number density = 22.160604 Si / 1000 Ang^3
#
#
#
# Elastic Constant Matrix: (Units=GPa)
#
#
# Indices 1 2 3 4 5 6 
#
# 1 103.1038 2.6634 -5.8540 0.0000 0.0000 -1.6074
# 2 2.6634 103.1038 -5.8540 0.0000 0.0000 1.6074
# 3 -5.8540 -5.8540 30.5946 0.0000 0.0000 0.0000
# 4 0.0000 0.0000 0.0000 13.9826 0.0000 0.0000
# 5 0.0000 0.0000 0.0000 0.0000 13.9826 0.0000
# 6 -1.6074 1.6074 0.0000 0.0000 0.0000 7.6746
#
#
#
# Elastic Compliance Matrix: (Units=1/GPa)
#
#
# Indices 1 2 3 4 5 6 
#
# 1 0.009841 -0.000182 0.001848 0.000000 0.000000 0.002099
# 2 -0.000182 0.009841 0.001848 0.000000 0.000000 -0.002099
# 3 0.001848 0.001848 0.033393 0.000000 0.000000 0.000000
# 4 0.000000 0.000000 0.000000 0.071518 0.000000 0.000000
# 5 0.000000 0.000000 0.000000 0.000000 0.071518 0.000000
# 6 0.002099 -0.002099 0.000000 0.000000 0.000000 0.131179
#
#
# Mechanical properties :
#
#
# Convention : Reuss Voigt Hill
#
# Bulk Modulus (GPa) = 16.63770 24.30143 20.46957
# Shear Modulus (GPa) = 14.69311 23.51775 19.10543
#
# Velocity S-wave (km/s) = 2.57773 3.26120 2.93940
# Velocity P-wave (km/s) = 4.04767 5.01702 4.55819
#
# Compressibility (1/GPa) = 0.06010445
#
# Stress axis : x y z
#
# Youngs Moduli (GPa) = 101.61227 101.61227 29.94653
#
# Poissons Ratio (x) = 0.01850 -0.05535
# Poissons Ratio (y) = 0.01850 -0.05535
# Poissons Ratio (z) = -0.18780 -0.18780
#
# Static dielectric constant tensor:
#      x y z
#    x 1.833480 0.000000 0.000000 
#    y 0.000000 1.833480 0.000000 
#    z 0.000000 0.000000 1.812450 
# 
# From -- ./inp_files/1192.got.cif
#   From: 2010.05.17/outbox.cif.g08.bks.cpg/sg82_1_cif.got.tgz:1192.got - 2010.06.03 18:52:26.
