data_PCOD9542812
_publ_section_title
;
Structure prediction by ZEFSAII (Michael W. Deem and Ramdas Pophale) SiO2 
 PCOD9542812
Probable space group: I -4 
;
_chemical_formula_sum "Si O2"
_cell_formula_units_Z 48
_cell_length_a 13.921817
_cell_length_b 13.921817
_cell_length_c 12.109307
_cell_angle_alpha 90.000000
_cell_angle_beta 90.000000
_cell_angle_gamma 90.000000
_cell_volume 2346.989417
_symmetry_space_group_name_H-M "I -4 "
_symmetry_group_IT_number 82
_symmetry_cell_setting 'tetragonal'
loop_
_space_group_symop_operation_xyz
x,y,z
y,-x,-z
-x,-y,z
-y,x,-z
1/2+x,1/2+y,1/2+z
1/2+y,1/2-x,1/2-z
1/2-x,1/2-y,1/2+z
1/2-y,1/2+x,1/2-z
loop_
_atom_site_type_symbol
_atom_site_label
_atom_site_fract_x
_atom_site_fract_y
_atom_site_fract_z
Si Si1 0.869363 0.413740 0.733246
Si Si2 0.875474 0.899063 0.476790
Si Si3 0.824709 0.924541 0.866298
Si Si4 0.773912 0.027418 0.067109
Si Si5 0.371548 0.368752 0.718060
Si Si6 0.773559 0.785072 0.667488
O O1 0.875967 0.522991 0.775153
O O2 0.817774 0.419272 0.615231
O O3 0.800726 0.349934 0.809732
O O4 0.856555 0.874416 0.349246
O O5 0.804333 0.842270 0.558491
O O6 0.985809 0.870101 0.505679
O O7 0.782933 0.857178 0.771386
O O8 0.897585 0.861492 0.940244
O O9 0.875311 0.015506 0.808560
O O10 0.753810 0.970126 0.955903
O O11 0.814289 0.954412 0.159610
O O12 0.327915 0.269158 0.671504
#
# Coordination Sequence:
#
# PCOD9542812 Si02
#       6
#     8   8   8   8   8   8
#     4  10  21  39  61  93 134 172 217 268 326 396
#     4  11  24  43  68  96 135 174 217 275 337 391
#     4  11  23  41  62  96 126 166 217 271 330 380
#     4  11  22  38  65  92 130 166 215 276 325 386
#     4  12  24  40  64  97 131 171 219 271 333 394
#     4  11  25  42  65  97 131 172 221 266 329 401
#
# _framework density 20.451733000000001
#
# number of rings (size 3 to 8) (size 9 to 14) (size 15 to 20)
#    0.000    1.000    5.000    2.500    4.667    0.000 
#    0.000    0.000    0.000    0.500    0.000    0.000 
#    0.000    0.000    0.000    0.000    0.000    0.000 
#
# Total GULP energy -134167.701232 kJ/mol
# GULP energy per Si atom -5590.320885 kJ/mol
# Density = 2.040518 g / cm^3
# Si number density = 20.451733 Si / 1000 Ang^3
#
#
#
# Elastic Constant Matrix: (Units=GPa)
#
#
# Indices 1 2 3 4 5 6 
#
# 1 71.4492 26.1361 16.7164 0.0000 0.0000 -1.4843
# 2 26.1361 71.4492 16.7164 0.0000 0.0000 1.4843
# 3 16.7164 16.7164 104.4302 0.0000 0.0000 0.0000
# 4 0.0000 0.0000 0.0000 17.6393 0.0000 0.0000
# 5 0.0000 0.0000 0.0000 0.0000 17.6393 0.0000
# 6 -1.4843 1.4843 0.0000 0.0000 0.0000 27.8832
#
#
#
# Elastic Compliance Matrix: (Units=1/GPa)
#
#
# Indices 1 2 3 4 5 6 
#
# 1 0.016494 -0.005652 -0.001736 0.000000 0.000000 0.001179
# 2 -0.005652 0.016494 -0.001736 0.000000 0.000000 -0.001179
# 3 -0.001736 -0.001736 0.010131 0.000000 0.000000 0.000000
# 4 0.000000 0.000000 0.000000 0.056691 0.000000 0.000000
# 5 0.000000 0.000000 0.000000 0.000000 0.056691 0.000000
# 6 0.001179 -0.001179 0.000000 0.000000 0.000000 0.035989
#
#
# Mechanical properties :
#
#
# Convention : Reuss Voigt Hill
#
# Bulk Modulus (GPa) = 40.20359 40.71850 40.46105
# Shear Modulus (GPa) = 22.82806 25.14970 23.98888
#
# Velocity S-wave (km/s) = 3.34457 3.51053 3.42855
# Velocity P-wave (km/s) = 5.88348 6.03196 5.95818
#
# Compressibility (1/GPa) = 0.02487340
#
# Stress axis : x y z
#
# Youngs Moduli (GPa) = 60.62824 60.62824 98.70319
#
# Poissons Ratio (x) = 0.34267 0.17130
# Poissons Ratio (y) = 0.34267 0.17130
# Poissons Ratio (z) = 0.10522 0.10522
#
# Static dielectric constant tensor:
#      x y z
#    x 1.734070 0.000000 0.000000 
#    y 0.000000 1.734070 0.000000 
#    z 0.000000 0.000000 1.735340 
# 
# From -- ./inp_files/1781.got.cif
#   From: 2010.05.17/outbox.cif.g08.bks.cpg/sg82_1_cif.got.tgz:1781.got - 2010.06.03 18:52:26.
