data_PCOD9542428
_publ_section_title
;
Structure prediction by ZEFSAII (Michael W. Deem and Ramdas Pophale) SiO2 
 PCOD9542428
Probable space group: P -4
;
_chemical_formula_sum "Si O2"
_cell_formula_units_Z 18
_cell_length_a 5.427511
_cell_length_b 5.427511
_cell_length_c 24.616683
_cell_angle_alpha 90.000000
_cell_angle_beta 90.000000
_cell_angle_gamma 90.000000
_cell_volume 725.155187
_symmetry_space_group_name_H-M "P -4"
_symmetry_group_IT_number 81
_symmetry_cell_setting 'tetragonal'
loop_
_space_group_symop_operation_xyz
x,y,z
y,-x,-z
-x,-y,z
-y,x,-z
loop_
_atom_site_type_symbol
_atom_site_label
_atom_site_fract_x
_atom_site_fract_y
_atom_site_fract_z
Si Si1 0.500000 0.500000 0.000000
Si Si2 0.840965 0.249352 0.797479
Si Si3 0.500000 0.500000 0.500000
Si Si4 0.749846 0.639230 0.321288
Si Si5 0.750836 0.866339 0.428957
Si Si6 0.836107 0.248329 0.918242
O O1 0.293016 0.374113 0.037542
O O2 0.683985 0.252205 0.743044
O O3 0.722091 0.239802 0.857350
O O4 0.000000 0.500000 0.795971
O O5 0.000000 0.000000 0.794185
O O6 0.707997 0.605241 0.458732
O O7 0.500000 0.500000 0.334685
O O8 0.751991 0.861998 0.363183
O O9 0.000000 0.500000 0.334525
O O10 0.500000 0.000000 0.444147
O O11 0.000000 0.000000 0.444679
O O12 0.000000 0.500000 0.920269
O O13 0.000000 0.000000 0.926218
#
# Coordination Sequence:
#
# PCOD9542428 Si02
#       6
#     1   4   1   4   4   4
#     4  12  28  44  78 104 152 212 256 334 392 484
#     4  10  21  44  70 103 145 193 251 319 398 479
#     4  12  32  52  74 120 152 204 276 326 396 484
#     4  12  24  43  73 111 152 193 256 325 398 486
#     4  12  29  51  81 111 157 209 263 330 405 477
#     4  10  26  47  73 110 151 201 265 326 401 481
#
# _framework density 24.822271000000001
#
# number of rings (size 3 to 8) (size 9 to 14) (size 15 to 20)
#    0.000    0.889    1.111    4.000    7.778    0.000 
#    0.000    0.000    0.000    0.000    0.000    0.000 
#    0.000    0.000    0.000    0.000    0.000    0.000 
#
# Total GULP energy -100750.364747 kJ/mol
# GULP energy per Si atom -5597.242486 kJ/mol
# Density = 2.476577 g / cm^3
# Si number density = 24.822271 Si / 1000 Ang^3
#
#
#
# Elastic Constant Matrix: (Units=GPa)
#
#
# Indices 1 2 3 4 5 6 
#
# 1 141.4653 54.2616 41.6637 0.0000 0.0000 3.9538
# 2 54.2616 141.4653 41.6637 0.0000 0.0000 -3.9538
# 3 41.6637 41.6637 159.2227 0.0000 0.0000 0.0000
# 4 0.0000 0.0000 0.0000 51.0148 0.0000 0.0000
# 5 0.0000 0.0000 0.0000 0.0000 51.0148 0.0000
# 6 3.9538 -3.9538 0.0000 0.0000 0.0000 52.5768
#
#
#
# Elastic Compliance Matrix: (Units=1/GPa)
#
#
# Indices 1 2 3 4 5 6 
#
# 1 0.008648 -0.002898 -0.001505 0.000000 0.000000 -0.000868
# 2 -0.002898 0.008648 -0.001505 0.000000 0.000000 0.000868
# 3 -0.001505 -0.001505 0.007068 0.000000 0.000000 0.000000
# 4 0.000000 0.000000 0.000000 0.019602 0.000000 0.000000
# 5 0.000000 0.000000 0.000000 0.000000 0.019602 0.000000
# 6 -0.000868 0.000868 0.000000 0.000000 0.000000 0.019150
#
#
# Mechanical properties :
#
#
# Convention : Reuss Voigt Hill
#
# Bulk Modulus (GPa) = 79.68649 79.70351 79.69500
# Shear Modulus (GPa) = 50.65034 51.22555 50.93795
#
# Velocity S-wave (km/s) = 4.52211 4.54772 4.53493
# Velocity P-wave (km/s) = 7.70964 7.73014 7.71989
#
# Compressibility (1/GPa) = 0.01254918
#
# Stress axis : x y z
#
# Youngs Moduli (GPa) = 115.63490 115.63490 141.48504
#
# Poissons Ratio (x) = 0.33514 0.21287
# Poissons Ratio (y) = 0.33514 0.21287
# Poissons Ratio (z) = 0.17397 0.17397
#
# Static dielectric constant tensor:
#      x y z
#    x 1.930310 0.000000 0.000000 
#    y 0.000000 1.930310 0.000000 
#    z 0.000000 0.000000 1.959110 
# 
# From -- ./inp_files/1887.got.cif
#   From: 2010.05.17/outbox.cif.g08.bks.cpg/sg81_cif.got.tgz:1887.got - 2010.06.03 18:51:07.
