data_PCOD9542406
_publ_section_title
;
Structure prediction by ZEFSAII (Michael W. Deem and Ramdas Pophale) SiO2 
 PCOD9542406
Probable space group: P -4
;
_chemical_formula_sum "Si O2"
_cell_formula_units_Z 26
_cell_length_a 12.465485
_cell_length_b 12.465485
_cell_length_c 8.109269
_cell_angle_alpha 90.000000
_cell_angle_beta 90.000000
_cell_angle_gamma 90.000000
_cell_volume 1260.085656
_symmetry_space_group_name_H-M "P -4"
_symmetry_group_IT_number 81
_symmetry_cell_setting 'tetragonal'
loop_
_space_group_symop_operation_xyz
x,y,z
y,-x,-z
-x,-y,z
-y,x,-z
loop_
_atom_site_type_symbol
_atom_site_label
_atom_site_fract_x
_atom_site_fract_y
_atom_site_fract_z
Si Si1 0.788026 0.516725 0.137449
Si Si2 0.755963 0.686655 0.615614
Si Si3 0.116830 0.886648 0.542621
Si Si4 0.275777 0.695590 0.014984
Si Si5 0.789802 0.450019 0.509137
Si Si6 0.693250 0.916999 0.240188
Si Si7 0.500000 0.000000 0.074099
O O1 0.707014 0.428641 0.063210
O O2 0.814168 0.492660 0.326617
O O3 0.742045 0.632561 0.100873
O O4 0.896186 0.499930 0.037743
O O5 0.836782 0.769986 0.522015
O O6 0.749893 0.726369 0.804853
O O7 0.776744 0.559226 0.612055
O O8 0.639040 0.697832 0.525982
O O9 0.072840 0.813146 0.692371
O O10 0.013583 0.873838 0.420367
O O11 0.168634 0.702481 0.907369
O O12 0.874288 0.376276 0.604493
O O13 0.612077 0.006735 0.173937
#
# Coordination Sequence:
#
# PCOD9542406 Si02
#       7
#     4   4   4   4   4   4   2
#     4  10  21  38  58  89 121 163 203 252 309 374
#     4  10  21  40  62  95 126 164 209 257 309 376
#     4  10  23  42  63  89 124 165 211 257 311 372
#     4  10  21  39  59  90 129 156 207 251 312 370
#     4  10  21  38  63  91 125 162 208 252 312 377
#     4  10  22  41  61  94 121 163 209 260 313 370
#     4  10  22  38  62  90 122 158 210 256 320 362
#
# _framework density 20.633517999999999
#
# number of rings (size 3 to 8) (size 9 to 14) (size 15 to 20)
#    0.000    2.000    0.000    3.692    4.308    1.231 
#   19.385    3.077    0.000    1.846    0.000    0.000 
#    0.000    0.000    0.000    0.000    0.000    0.000 
#
# Total GULP energy -144768.162251 kJ/mol
# GULP energy per Si atom -5568.006240 kJ/mol
# Density = 2.058655 g / cm^3
# Si number density = 20.633518 Si / 1000 Ang^3
#
#
#
# Elastic Constant Matrix: (Units=GPa)
#
#
# Indices 1 2 3 4 5 6 
#
# 1 77.3756 9.3078 7.4352 0.0000 0.0000 9.6998
# 2 9.3078 77.3756 7.4352 0.0000 0.0000 -9.6998
# 3 7.4352 7.4352 71.0719 0.0000 0.0000 0.0000
# 4 0.0000 0.0000 0.0000 18.4219 0.0000 0.0000
# 5 0.0000 0.0000 0.0000 0.0000 18.4219 0.0000
# 6 9.6998 -9.6998 0.0000 0.0000 0.0000 18.3781
#
#
#
# Elastic Compliance Matrix: (Units=1/GPa)
#
#
# Indices 1 2 3 4 5 6 
#
# 1 0.014520 -0.002773 -0.001229 0.000000 0.000000 -0.009127
# 2 -0.002773 0.014520 -0.001229 0.000000 0.000000 0.009127
# 3 -0.001229 -0.001229 0.014327 0.000000 0.000000 0.000000
# 4 0.000000 0.000000 0.000000 0.054283 0.000000 0.000000
# 5 0.000000 0.000000 0.000000 0.000000 0.054283 0.000000
# 6 -0.009127 0.009127 0.000000 0.000000 0.000000 0.064047
#
#
# Mechanical properties :
#
#
# Convention : Reuss Voigt Hill
#
# Bulk Modulus (GPa) = 30.38975 30.46437 30.42706
# Shear Modulus (GPa) = 21.06061 24.48735 22.77398
#
# Velocity S-wave (km/s) = 3.19830 3.44870 3.32586
# Velocity P-wave (km/s) = 5.32909 5.53666 5.43386
#
# Compressibility (1/GPa) = 0.03290583
#
# Stress axis : x y z
#
# Youngs Moduli (GPa) = 68.87176 68.87176 69.79635
#
# Poissons Ratio (x) = 0.19096 0.08577
# Poissons Ratio (y) = 0.19096 0.08577
# Poissons Ratio (z) = 0.08464 0.08464
#
# Static dielectric constant tensor:
#      x y z
#    x 1.805240 0.000000 0.000000 
#    y 0.000000 1.805240 0.000000 
#    z 0.000000 0.000000 1.762550 
# 
# From -- ./inp_files/875.got.cif
#   From: 2010.05.17/outbox.cif.g08.bks.cpg/sg81_cif.got.tgz:875.got - 2010.06.03 18:51:07.
