data_PCOD9542083
_publ_section_title
;
Structure prediction by ZEFSAII (Michael W. Deem and Ramdas Pophale) SiO2 
 PCOD9542083
Probable space group: I 41
;
_chemical_formula_sum "Si O2"
_cell_formula_units_Z 56
_cell_length_a 18.863608
_cell_length_b 18.863608
_cell_length_c 8.653447
_cell_angle_alpha 90.000000
_cell_angle_beta 90.000000
_cell_angle_gamma 90.000000
_cell_volume 3079.205429
_symmetry_space_group_name_H-M "I 41"
_symmetry_group_IT_number 80
_symmetry_cell_setting 'tetragonal'
loop_
_space_group_symop_operation_xyz
x,y,z
-y,1/2+x,1/4+z
-x,-y,z
y,1/2-x,1/4+z
1/2+x,1/2+y,1/2+z
1/2-y,x,3/4+z
1/2-x,1/2-y,1/2+z
1/2+y,-x,3/4+z
loop_
_atom_site_type_symbol
_atom_site_label
_atom_site_fract_x
_atom_site_fract_y
_atom_site_fract_z
Si Si1 0.427279 0.548864 0.485870
Si Si2 0.628713 0.640467 0.385340
Si Si3 0.184615 0.279678 0.709686
Si Si4 0.787867 0.963407 0.082122
Si Si5 0.495364 0.081693 0.424409
Si Si6 0.358477 0.022647 0.920889
Si Si7 0.633600 0.561418 0.877010
O O1 0.500000 0.500000 0.488411
O O2 0.355127 0.513827 0.545232
O O3 0.411164 0.557003 0.303215
O O4 0.450419 0.611757 0.597908
O O5 0.651687 0.711601 0.297772
O O6 0.693766 0.606059 0.480106
O O7 0.600541 0.577365 0.270927
O O8 0.570932 0.656279 0.518641
O O9 0.257349 0.299976 0.787669
O O10 0.133164 0.345668 0.715024
O O11 0.800001 0.952449 0.264088
O O12 0.711281 0.987222 0.024368
O O13 0.495063 0.122821 0.262611
O O14 0.500000 0.000000 0.378172
O O15 0.417635 0.065589 0.022013
#
# Coordination Sequence:
#
# PCOD9542083 Si02
#       7
#     8   8   8   8   8   8   8
#     4  10  18  40  58  81 112 151 198 245 301 357
#     4  10  20  37  54  75 113 160 200 246 288 347
#     4  12  25  34  46  71 115 166 205 234 284 347
#     4  10  22  35  57  82 114 155 198 249 302 359
#     4  10  19  36  55  79 106 151 196 255 298 336
#     4  11  21  37  60  81 115 153 205 250 298 363
#     4  11  23  35  52  81 121 154 201 247 301 355
#
# _framework density 18.186509999999998
#
# number of rings (size 3 to 8) (size 9 to 14) (size 15 to 20)
#    0.000    1.429    7.143    1.714   10.000    0.000 
#    0.000    0.000    0.000    0.000    0.000    0.000 
#   17.143    0.000    0.000    0.000    0.000    0.000 
#
# Total GULP energy -155930.958499 kJ/mol
# GULP energy per Si atom -5568.962804 kJ/mol
# Density = 1.814512 g / cm^3
# Si number density = 18.186510 Si / 1000 Ang^3
#
#
#
# Elastic Constant Matrix: (Units=GPa)
#
#
# Indices 1 2 3 4 5 6 
#
# 1 42.8194 24.5216 34.6173 0.0000 0.0000 5.3590
# 2 24.5216 42.8194 34.6173 0.0000 0.0000 -5.3590
# 3 34.6173 34.6173 118.4701 0.0000 0.0000 0.0000
# 4 0.0000 0.0000 0.0000 26.9951 0.0000 0.0000
# 5 0.0000 0.0000 0.0000 0.0000 26.9951 0.0000
# 6 5.3590 -5.3590 0.0000 0.0000 0.0000 22.2241
#
#
#
# Elastic Compliance Matrix: (Units=1/GPa)
#
#
# Indices 1 2 3 4 5 6 
#
# 1 0.042433 -0.021207 -0.006203 0.000000 0.000000 -0.015346
# 2 -0.021207 0.042433 -0.006203 0.000000 0.000000 0.015346
# 3 -0.006203 -0.006203 0.012066 0.000000 0.000000 0.000000
# 4 0.000000 0.000000 0.000000 0.037044 0.000000 0.000000
# 5 0.000000 0.000000 0.000000 0.000000 0.037044 0.000000
# 6 -0.015346 0.015346 0.000000 0.000000 0.000000 0.052397
#
#
# Mechanical properties :
#
#
# Convention : Reuss Voigt Hill
#
# Bulk Modulus (GPa) = 33.65965 43.51349 38.58657
# Shear Modulus (GPa) = 16.63653 22.59970 19.61812
#
# Velocity S-wave (km/s) = 3.02780 3.52897 3.28795
# Velocity P-wave (km/s) = 5.54722 6.37048 5.97305
#
# Compressibility (1/GPa) = 0.02970916
#
# Stress axis : x y z
#
# Youngs Moduli (GPa) = 23.56634 23.56634 82.87930
#
# Poissons Ratio (x) = 0.49976 0.51406
# Poissons Ratio (y) = 0.49976 0.51406
# Poissons Ratio (z) = 0.14617 0.14617
#
# Static dielectric constant tensor:
#      x y z
#    x 1.664900 0.000000 0.000000 
#    y 0.000000 1.664900 0.000000 
#    z 0.000000 0.000000 1.710000 
# 
# From -- ./inp_files/795.got.cif
#   From: 2010.05.17/outbox.cif.g08.bks.cpg/sg80_cif.got.tgz:795.got - 2010.06.03 18:49:13.
