data_PCOD9542557
_publ_section_title
;
Structure prediction by ZEFSAII (Michael W. Deem and Ramdas Pophale) SiO2 
 PCOD9542557
Probable space group: P -4
;
_chemical_formula_sum "Si O2"
_cell_formula_units_Z 17
_cell_length_a 11.714504
_cell_length_b 11.714504
_cell_length_c 5.262356
_cell_angle_alpha 90.000000
_cell_angle_beta 90.000000
_cell_angle_gamma 90.000000
_cell_volume 722.151030
_symmetry_space_group_name_H-M "P -4"
_symmetry_group_IT_number 81
_symmetry_cell_setting 'tetragonal'
loop_
_space_group_symop_operation_xyz
x,y,z
y,-x,-z
-x,-y,z
-y,x,-z
loop_
_atom_site_type_symbol
_atom_site_label
_atom_site_fract_x
_atom_site_fract_y
_atom_site_fract_z
Si Si1 0.629139 0.039957 0.556068
Si Si2 0.389407 0.365657 0.105836
Si Si3 0.847958 0.931185 0.599928
Si Si4 0.157661 0.277111 0.936342
Si Si5 0.500000 0.500000 0.500000
O O1 0.654542 0.128923 0.326473
O O2 0.500000 0.000000 0.552950
O O3 0.717191 0.934578 0.513477
O O4 0.665606 0.086882 0.834376
O O5 0.444096 0.385768 0.378313
O O6 0.346834 0.495905 0.054939
O O7 0.287868 0.285053 0.029966
O O8 0.864870 0.852471 0.843934
O O9 0.935877 0.882397 0.391614
#
# Coordination Sequence:
#
# PCOD9542557 Si02
#       5
#     4   4   4   4   1
#     4  11  26  47  71 111 156 192 254 323 399 461
#     4   9  21  39  64 105 148 196 244 299 371 464
#     4   9  22  47  74 104 140 194 262 315 370 451
#     4  11  25  44  73 109 142 205 249 316 400 446
#     4   8  18  40  64  98 156 204 250 300 370 468
#
# _framework density 23.540785
#
# number of rings (size 3 to 8) (size 9 to 14) (size 15 to 20)
#    0.000    2.353    0.000    0.706    9.882    9.412 
#    8.471    2.353    0.000    0.000    0.000    0.000 
#    0.000    0.000    0.000    0.000    0.000    0.000 
#
# Total GULP energy -94680.964351 kJ/mol
# GULP energy per Si atom -5569.468491 kJ/mol
# Density = 2.348720 g / cm^3
# Si number density = 23.540785 Si / 1000 Ang^3
#
#
#
# Elastic Constant Matrix: (Units=GPa)
#
#
# Indices 1 2 3 4 5 6 
#
# 1 108.1505 34.6099 39.2078 0.0000 0.0000 1.1872
# 2 34.6099 108.1505 39.2078 0.0000 0.0000 -1.1872
# 3 39.2078 39.2078 135.1121 0.0000 0.0000 0.0000
# 4 0.0000 0.0000 0.0000 51.0649 0.0000 0.0000
# 5 0.0000 0.0000 0.0000 0.0000 51.0649 0.0000
# 6 1.1872 -1.1872 0.0000 0.0000 0.0000 15.8498
#
#
#
# Elastic Compliance Matrix: (Units=1/GPa)
#
#
# Indices 1 2 3 4 5 6 
#
# 1 0.010982 -0.002649 -0.002418 0.000000 0.000000 -0.001021
# 2 -0.002649 0.010982 -0.002418 0.000000 0.000000 0.001021
# 3 -0.002418 -0.002418 0.008805 0.000000 0.000000 0.000000
# 4 0.000000 0.000000 0.000000 0.019583 0.000000 0.000000
# 5 0.000000 0.000000 0.000000 0.000000 0.019583 0.000000
# 6 -0.001021 0.001021 0.000000 0.000000 0.000000 0.063245
#
#
# Mechanical properties :
#
#
# Convention : Reuss Voigt Hill
#
# Bulk Modulus (GPa) = 63.29861 64.16268 63.73064
# Shear Modulus (GPa) = 32.59109 39.48844 36.03977
#
# Velocity S-wave (km/s) = 3.72486 4.10011 3.91698
# Velocity P-wave (km/s) = 6.74142 7.05193 6.89842
#
# Compressibility (1/GPa) = 0.01579814
#
# Stress axis : x y z
#
# Youngs Moduli (GPa) = 91.05868 91.05868 113.57602
#
# Poissons Ratio (x) = 0.24121 0.27464
# Poissons Ratio (y) = 0.24121 0.27464
# Poissons Ratio (z) = 0.22019 0.22019
#
# Static dielectric constant tensor:
#      x y z
#    x 1.913010 0.000000 0.000000 
#    y 0.000000 1.913010 0.000000 
#    z 0.000000 0.000000 2.250620 
# 
# From -- ./inp_files/217.got.cif
#   From: 2010.05.17/outbox.cif.g08.bks.cpg/sg81_cif.got.tgz:217.got - 2010.06.03 18:51:07.
