data_PCOD9542542
_publ_section_title
;
Structure prediction by ZEFSAII (Michael W. Deem and Ramdas Pophale) SiO2 
 PCOD9542542
Probable space group: P -4
;
_chemical_formula_sum "Si O2"
_cell_formula_units_Z 18
_cell_length_a 8.025719
_cell_length_b 8.025719
_cell_length_c 12.590099
_cell_angle_alpha 90.000000
_cell_angle_beta 90.000000
_cell_angle_gamma 90.000000
_cell_volume 810.955540
_symmetry_space_group_name_H-M "P -4"
_symmetry_group_IT_number 81
_symmetry_cell_setting 'tetragonal'
loop_
_space_group_symop_operation_xyz
x,y,z
y,-x,-z
-x,-y,z
-y,x,-z
loop_
_atom_site_type_symbol
_atom_site_label
_atom_site_fract_x
_atom_site_fract_y
_atom_site_fract_z
Si Si1 0.586193 0.757240 0.370038
Si Si2 0.064905 0.726309 0.194273
Si Si3 0.067800 0.742767 0.829641
Si Si4 0.592814 0.774731 0.608868
Si Si5 0.000000 0.500000 0.023654
O O1 0.632463 0.866989 0.268556
O O2 0.613696 0.831930 0.487376
O O3 0.703409 0.592543 0.370430
O O4 0.393479 0.700815 0.369981
O O5 0.085052 0.653358 0.311001
O O6 0.882987 0.788461 0.156196
O O7 0.168369 0.895455 0.197338
O O8 0.124583 0.583054 0.112457
O O9 0.022127 0.646905 0.937046
#
# Coordination Sequence:
#
# PCOD9542542 Si02
#       5
#     4   4   4   4   2
#     4   9  19  38  65  98 135 171 206 247 301 369
#     4  11  24  41  63  92 125 163 210 263 317 372
#     4  11  24  41  63  92 125 163 210 263 317 372
#     4   9  19  38  65  98 135 171 206 247 301 369
#     4  12  24  42  62  82 116 160 204 262 324 372
#
# _framework density 22.196038000000001
#
# number of rings (size 3 to 8) (size 9 to 14) (size 15 to 20)
#    0.000    1.778    0.000    5.333    0.000    3.556 
#    0.000    7.778    0.000    8.000    0.000    0.000 
#    0.000    0.000    0.000    0.000    0.000    0.000 
#
# Total GULP energy -100277.477961 kJ/mol
# GULP energy per Si atom -5570.970998 kJ/mol
# Density = 2.214552 g / cm^3
# Si number density = 22.196038 Si / 1000 Ang^3
#
#
#
# Elastic Constant Matrix: (Units=GPa)
#
#
# Indices 1 2 3 4 5 6 
#
# 1 90.2965 20.0222 47.7684 0.0000 0.0000 -8.7643
# 2 20.0222 90.2965 47.7684 0.0000 0.0000 8.7643
# 3 47.7684 47.7684 154.1822 0.0000 0.0000 0.0000
# 4 0.0000 0.0000 0.0000 35.4736 0.0000 0.0000
# 5 0.0000 0.0000 0.0000 0.0000 35.4736 0.0000
# 6 -8.7643 8.7643 0.0000 0.0000 0.0000 36.5252
#
#
#
# Elastic Compliance Matrix: (Units=1/GPa)
#
#
# Indices 1 2 3 4 5 6 
#
# 1 0.013762 -0.001374 -0.003838 0.000000 0.000000 0.003632
# 2 -0.001374 0.013762 -0.003838 0.000000 0.000000 -0.003632
# 3 -0.003838 -0.003838 0.008864 0.000000 0.000000 0.000000
# 4 0.000000 0.000000 0.000000 0.028190 0.000000 0.000000
# 5 0.000000 0.000000 0.000000 0.000000 0.028190 0.000000
# 6 0.003632 -0.003632 0.000000 0.000000 0.000000 0.029121
#
#
# Mechanical properties :
#
#
# Convention : Reuss Voigt Hill
#
# Bulk Modulus (GPa) = 54.67935 62.87701 58.77818
# Shear Modulus (GPa) = 34.22640 36.10889 35.16764
#
# Velocity S-wave (km/s) = 3.93110 4.03776 3.98478
# Velocity P-wave (km/s) = 6.73000 7.08008 6.90726
#
# Compressibility (1/GPa) = 0.01828844
#
# Stress axis : x y z
#
# Youngs Moduli (GPa) = 72.66282 72.66282 112.81442
#
# Poissons Ratio (x) = 0.09981 0.43300
# Poissons Ratio (y) = 0.09981 0.43300
# Poissons Ratio (z) = 0.27889 0.27889
#
# Static dielectric constant tensor:
#      x y z
#    x 1.841260 0.000000 0.000000 
#    y 0.000000 1.841260 0.000000 
#    z 0.000000 0.000000 1.791840 
# 
# From -- ./inp_files/1220.got.cif
#   From: 2010.05.17/outbox.cif.g08.bks.cpg/sg81_cif.got.tgz:1220.got - 2010.06.03 18:51:07.
