data_PCOD9542571
_publ_section_title
;
Structure prediction by ZEFSAII (Michael W. Deem and Ramdas Pophale) SiO2 
 PCOD9542571
Probable space group: P -4
;
_chemical_formula_sum "Si O2"
_cell_formula_units_Z 13
_cell_length_a 9.181340
_cell_length_b 9.181340
_cell_length_c 7.184602
_cell_angle_alpha 90.000000
_cell_angle_beta 90.000000
_cell_angle_gamma 90.000000
_cell_volume 605.640425
_symmetry_space_group_name_H-M "P -4"
_symmetry_group_IT_number 81
_symmetry_cell_setting 'tetragonal'
loop_
_space_group_symop_operation_xyz
x,y,z
y,-x,-z
-x,-y,z
-y,x,-z
loop_
_atom_site_type_symbol
_atom_site_label
_atom_site_fract_x
_atom_site_fract_y
_atom_site_fract_z
Si Si1 0.160499 0.447611 0.154955
Si Si2 0.292043 0.370724 0.763567
Si Si3 0.500000 0.500000 0.500000
Si Si4 0.224458 0.903781 0.515020
O O1 0.246171 0.583771 0.243939
O O2 0.135235 0.316782 0.300999
O O3 0.000000 0.500000 0.096292
O O4 0.254290 0.404375 0.975145
O O5 0.363210 0.498895 0.639917
O O6 0.148382 0.318666 0.659576
O O7 0.072670 0.816275 0.503999
#
# Coordination Sequence:
#
# PCOD9542571 Si02
#       4
#     4   4   1   4
#     4  12  27  46  73 109 145 198 244 305 371 440
#     4  12  26  44  73 104 150 187 250 304 368 439
#     4  12  24  46  72 104 146 200 252 310 372 432
#     4  11  26  48  75 106 145 193 248 307 368 437
#
# _framework density 21.464883
#
# number of rings (size 3 to 8) (size 9 to 14) (size 15 to 20)
#    0.000    0.308    6.154    1.846    4.308    1.231 
#    0.000    3.077    0.000    0.000    0.000    0.000 
#    0.000    0.000    0.000    0.000    0.000    0.000 
#
# Total GULP energy -72731.714211 kJ/mol
# GULP energy per Si atom -5594.747247 kJ/mol
# Density = 2.141603 g / cm^3
# Si number density = 21.464883 Si / 1000 Ang^3
#
#
#
# Elastic Constant Matrix: (Units=GPa)
#
#
# Indices 1 2 3 4 5 6 
#
# 1 81.3568 31.9365 46.5486 0.0000 0.0000 -5.0356
# 2 31.9365 81.3568 46.5486 0.0000 0.0000 5.0356
# 3 46.5486 46.5486 142.9259 0.0000 0.0000 0.0000
# 4 0.0000 0.0000 0.0000 35.9607 0.0000 0.0000
# 5 0.0000 0.0000 0.0000 0.0000 35.9607 0.0000
# 6 -5.0356 5.0356 0.0000 0.0000 0.0000 40.9004
#
#
#
# Elastic Compliance Matrix: (Units=1/GPa)
#
#
# Indices 1 2 3 4 5 6 
#
# 1 0.016404 -0.004352 -0.003925 0.000000 0.000000 0.002555
# 2 -0.004352 0.016404 -0.003925 0.000000 0.000000 -0.002555
# 3 -0.003925 -0.003925 0.009553 0.000000 0.000000 0.000000
# 4 0.000000 0.000000 0.000000 0.027808 0.000000 0.000000
# 5 0.000000 0.000000 0.000000 0.000000 0.027808 0.000000
# 6 0.002555 -0.002555 0.000000 0.000000 0.000000 0.025079
#
#
# Mechanical properties :
#
#
# Convention : Reuss Voigt Hill
#
# Bulk Modulus (GPa) = 55.68897 61.74521 58.71709
# Shear Modulus (GPa) = 32.58485 34.60474 33.59480
#
# Velocity S-wave (km/s) = 3.90045 4.01952 3.96043
# Velocity P-wave (km/s) = 6.80332 7.09720 6.95181
#
# Compressibility (1/GPa) = 0.01795688
#
# Stress axis : x y z
#
# Youngs Moduli (GPa) = 60.96176 60.96176 104.67522
#
# Poissons Ratio (x) = 0.26528 0.41087
# Poissons Ratio (y) = 0.26528 0.41087
# Poissons Ratio (z) = 0.23929 0.23929
#
# Static dielectric constant tensor:
#      x y z
#    x 1.793480 0.000000 0.000000 
#    y 0.000000 1.793480 0.000000 
#    z 0.000000 0.000000 1.727060 
# 
# From -- ./inp_files/493.got.cif
#   From: 2010.05.17/outbox.cif.g08.bks.cpg/sg81_cif.got.tgz:493.got - 2010.06.03 18:51:07.
