data_PCOD9542547
_publ_section_title
;
Structure prediction by ZEFSAII (Michael W. Deem and Ramdas Pophale) SiO2 
 PCOD9542547
Probable space group: P -4
;
_chemical_formula_sum "Si O2"
_cell_formula_units_Z 14
_cell_length_a 7.817863
_cell_length_b 7.817863
_cell_length_c 9.614267
_cell_angle_alpha 90.000000
_cell_angle_beta 90.000000
_cell_angle_gamma 90.000000
_cell_volume 587.614211
_symmetry_space_group_name_H-M "P -4"
_symmetry_group_IT_number 81
_symmetry_cell_setting 'tetragonal'
loop_
_space_group_symop_operation_xyz
x,y,z
y,-x,-z
-x,-y,z
-y,x,-z
loop_
_atom_site_type_symbol
_atom_site_label
_atom_site_fract_x
_atom_site_fract_y
_atom_site_fract_z
Si Si1 0.500000 0.000000 0.449406
Si Si2 0.270957 0.920648 0.230269
Si Si3 0.768391 0.584859 0.031177
Si Si4 0.266201 0.926341 0.708775
O O1 0.575112 0.134397 0.333689
O O2 0.653879 0.024533 0.560729
O O3 0.339836 0.909030 0.074411
O O4 0.104799 0.803367 0.233936
O O5 0.202082 0.103133 0.287532
O O6 0.704351 0.398382 0.988113
O O7 0.837506 0.600227 0.187255
#
# Coordination Sequence:
#
# PCOD9542547 Si02
#       4
#     2   4   4   4
#     4  12  24  40  64  94 132 170 224 284 328 382
#     4  11  24  43  68  98 134 179 227 275 332 401
#     4  11  24  43  70 105 140 174 218 277 340 397
#     4  11  24  43  68  98 134 179 227 275 332 401
#
# _framework density 23.825154999999999
#
# number of rings (size 3 to 8) (size 9 to 14) (size 15 to 20)
#    0.000    0.857    0.000    6.857    0.000    8.000 
#    0.000    0.000    0.000   10.286    0.000    0.000 
#    0.000    0.000    0.000    0.000    0.000    0.000 
#
# Total GULP energy -78079.848536 kJ/mol
# GULP energy per Si atom -5577.132038 kJ/mol
# Density = 2.377093 g / cm^3
# Si number density = 23.825155 Si / 1000 Ang^3
#
#
#
# Elastic Constant Matrix: (Units=GPa)
#
#
# Indices 1 2 3 4 5 6 
#
# 1 133.7030 22.1284 21.3908 0.0000 0.0000 9.3891
# 2 22.1284 133.7030 21.3908 0.0000 0.0000 -9.3891
# 3 21.3908 21.3908 114.2825 0.0000 0.0000 0.0000
# 4 0.0000 0.0000 0.0000 31.0208 0.0000 0.0000
# 5 0.0000 0.0000 0.0000 0.0000 31.0208 0.0000
# 6 9.3891 -9.3891 0.0000 0.0000 0.0000 36.3879
#
#
#
# Elastic Compliance Matrix: (Units=1/GPa)
#
#
# Indices 1 2 3 4 5 6 
#
# 1 0.008067 -0.001302 -0.001266 0.000000 0.000000 -0.002418
# 2 -0.001302 0.008067 -0.001266 0.000000 0.000000 0.002418
# 3 -0.001266 -0.001266 0.009224 0.000000 0.000000 0.000000
# 4 0.000000 0.000000 0.000000 0.032236 0.000000 0.000000
# 5 0.000000 0.000000 0.000000 0.000000 0.032236 0.000000
# 6 -0.002418 0.002418 0.000000 0.000000 0.000000 0.028729
#
#
# Mechanical properties :
#
#
# Convention : Reuss Voigt Hill
#
# Bulk Modulus (GPa) = 56.53212 56.83429 56.68320
# Shear Modulus (GPa) = 37.84252 40.80447 39.32349
#
# Velocity S-wave (km/s) = 3.98973 4.14292 4.06705
# Velocity P-wave (km/s) = 6.70845 6.84044 6.77477
#
# Compressibility (1/GPa) = 0.01768906
#
# Stress axis : x y z
#
# Youngs Moduli (GPa) = 123.95941 123.95941 108.40994
#
# Poissons Ratio (x) = 0.16144 0.13727
# Poissons Ratio (y) = 0.16144 0.13727
# Poissons Ratio (z) = 0.15696 0.15696
#
# Static dielectric constant tensor:
#      x y z
#    x 1.971060 0.000000 0.000000 
#    y 0.000000 1.971060 0.000000 
#    z 0.000000 0.000000 1.858800 
# 
# From -- ./inp_files/487.got.cif
#   From: 2010.05.17/outbox.cif.g08.bks.cpg/sg81_cif.got.tgz:487.got - 2010.06.03 18:51:07.
