data_PCOD9542962
_publ_section_title
;
Structure prediction by ZEFSAII (Michael W. Deem and Ramdas Pophale) SiO2 
 PCOD9542962
Probable space group: I -4 
;
_chemical_formula_sum "Si O2"
_cell_formula_units_Z 40
_cell_length_a 14.790012
_cell_length_b 14.790012
_cell_length_c 8.679813
_cell_angle_alpha 90.000000
_cell_angle_beta 90.000000
_cell_angle_gamma 90.000000
_cell_volume 1898.660964
_symmetry_space_group_name_H-M "I -4 "
_symmetry_group_IT_number 82
_symmetry_cell_setting 'tetragonal'
loop_
_space_group_symop_operation_xyz
x,y,z
y,-x,-z
-x,-y,z
-y,x,-z
1/2+x,1/2+y,1/2+z
1/2+y,1/2-x,1/2-z
1/2-x,1/2-y,1/2+z
1/2-y,1/2+x,1/2-z
loop_
_atom_site_type_symbol
_atom_site_label
_atom_site_fract_x
_atom_site_fract_y
_atom_site_fract_z
Si Si1 0.375533 0.225506 0.525617
Si Si2 0.728344 0.587487 0.935454
Si Si3 0.174012 0.952030 0.679141
Si Si4 0.587438 0.587438 0.412394
Si Si5 0.514035 0.135566 0.300500
O O1 0.284992 0.167275 0.517014
O O2 0.407505 0.261732 0.691045
O O3 0.363455 0.317432 0.426112
O O4 0.455652 0.166900 0.446326
O O5 0.626884 0.615313 0.895703
O O6 0.780500 0.562055 0.779551
O O7 0.728675 0.501889 0.046651
O O8 0.115401 0.030692 0.763894
O O9 0.607980 0.518382 0.554920
O O10 0.441849 0.089666 0.182085
#
# Coordination Sequence:
#
# PCOD9542962 Si02
#       5
#     8   8   8   8   8
#     4  10  24  44  70  95 130 186 229 270 351 419
#     4  11  27  42  64 104 134 173 225 292 340 402
#     4  11  27  42  66  98 137 173 220 289 338 410
#     4   9  21  39  64  93 120 173 223 257 330 405
#     4   9  21  44  69  95 130 176 229 281 336 407
#
# _framework density 21.067478000000001
#
# number of rings (size 3 to 8) (size 9 to 14) (size 15 to 20)
#    0.000    2.000    0.000    0.000   19.600    5.200 
#    0.000    0.000    0.000    0.000    0.000    0.000 
#    0.000    0.000    0.000    0.000    0.000    0.000 
#
# Total GULP energy -111675.002756 kJ/mol
# GULP energy per Si atom -5583.750138 kJ/mol
# Density = 2.101953 g / cm^3
# Si number density = 21.067478 Si / 1000 Ang^3
#
#
#
# Elastic Constant Matrix: (Units=GPa)
#
#
# Indices 1 2 3 4 5 6 
#
# 1 100.5847 31.2175 18.2817 0.0000 0.0000 -15.4758
# 2 31.2175 100.5847 18.2817 0.0000 0.0000 15.4758
# 3 18.2817 18.2817 49.2634 0.0000 0.0000 0.0000
# 4 0.0000 0.0000 0.0000 28.6576 0.0000 0.0000
# 5 0.0000 0.0000 0.0000 0.0000 28.6576 0.0000
# 6 -15.4758 15.4758 0.0000 0.0000 0.0000 44.7741
#
#
#
# Elastic Compliance Matrix: (Units=1/GPa)
#
#
# Indices 1 2 3 4 5 6 
#
# 1 0.012751 -0.004293 -0.003139 0.000000 0.000000 0.005891
# 2 -0.004293 0.012751 -0.003139 0.000000 0.000000 -0.005891
# 3 -0.003139 -0.003139 0.022629 0.000000 0.000000 0.000000
# 4 0.000000 0.000000 0.000000 0.034895 0.000000 0.000000
# 5 0.000000 0.000000 0.000000 0.000000 0.034895 0.000000
# 6 0.005891 -0.005891 0.000000 0.000000 0.000000 0.026407
#
#
# Mechanical properties :
#
#
# Convention : Reuss Voigt Hill
#
# Bulk Modulus (GPa) = 37.05151 42.88827 39.96989
# Shear Modulus (GPa) = 28.65891 32.59468 30.62680
#
# Velocity S-wave (km/s) = 3.69228 3.93766 3.81694
# Velocity P-wave (km/s) = 5.98352 6.40900 6.19991
#
# Compressibility (1/GPa) = 0.02698946
#
# Stress axis : x y z
#
# Youngs Moduli (GPa) = 78.42340 78.42340 44.19184
#
# Poissons Ratio (x) = 0.33671 0.13871
# Poissons Ratio (y) = 0.33671 0.13871
# Poissons Ratio (z) = 0.24615 0.24615
#
# Static dielectric constant tensor:
#      x y z
#    x 1.774940 0.000000 0.000000 
#    y 0.000000 1.774940 0.000000 
#    z 0.000000 0.000000 1.756890 
# 
# From -- ./inp_files/951.got.cif
#   From: 2010.05.17/outbox.cif.g08.bks.cpg/sg82_1_cif.got.tgz:951.got - 2010.06.03 18:52:26.
