data_PCOD9542711
_publ_section_title
;
Structure prediction by ZEFSAII (Michael W. Deem and Ramdas Pophale) SiO2 
 PCOD9542711
Probable space group: I -4 
;
_chemical_formula_sum "Si O2"
_cell_formula_units_Z 48
_cell_length_a 11.214507
_cell_length_b 11.214507
_cell_length_c 18.246831
_cell_angle_alpha 90.000000
_cell_angle_beta 90.000000
_cell_angle_gamma 90.000000
_cell_volume 2294.815753
_symmetry_space_group_name_H-M "I -4 "
_symmetry_group_IT_number 82
_symmetry_cell_setting 'tetragonal'
loop_
_space_group_symop_operation_xyz
x,y,z
y,-x,-z
-x,-y,z
-y,x,-z
1/2+x,1/2+y,1/2+z
1/2+y,1/2-x,1/2-z
1/2-x,1/2-y,1/2+z
1/2-y,1/2+x,1/2-z
loop_
_atom_site_type_symbol
_atom_site_label
_atom_site_fract_x
_atom_site_fract_y
_atom_site_fract_z
Si Si1 0.548401 0.756360 0.403950
Si Si2 0.752146 0.702092 0.305505
Si Si3 0.000000 0.500000 0.988857
Si Si4 0.000000 0.500000 0.250000
Si Si5 0.421788 0.216023 0.678169
Si Si6 0.500000 0.500000 0.000000
Si Si7 0.197242 0.815883 0.959528
Si Si8 0.092691 0.250395 0.450221
O O1 0.623156 0.751199 0.329578
O O2 0.538255 0.888182 0.437931
O O3 0.416252 0.706593 0.408489
O O4 0.619000 0.675091 0.463648
O O5 0.740779 0.556595 0.304462
O O6 0.815143 0.755681 0.232893
O O7 0.840668 0.736079 0.372539
O O8 0.878566 0.467745 0.032547
O O9 0.077051 0.579710 0.302199
O O10 0.398486 0.226111 0.592737
O O11 0.522873 0.624655 0.955808
O O12 0.255604 0.693100 0.985344
#
# Coordination Sequence:
#
# PCOD9542711 Si02
#       8
#     8   8   4   2   8   2   8   8
#     4  10  21  37  59  86 119 156 210 264 317 380
#     4  10  22  38  57  90 124 157 204 265 321 384
#     4  10  20  39  64  84 116 171 212 254 318 395
#     4   8  20  34  52  84 116 150 188 246 312 382
#     4  10  20  35  58  85 115 153 203 255 318 382
#     4  12  24  36  60 100 132 164 216 278 328 368
#     4  10  20  36  60  87 115 159 206 254 313 379
#     4  10  22  38  60  88 125 162 204 258 318 381
#
# _framework density 20.916710999999999
#
# number of rings (size 3 to 8) (size 9 to 14) (size 15 to 20)
#    0.000    2.000    0.000    5.000    0.000   15.000 
#    0.000    6.667    0.000    1.000    0.000    0.000 
#    0.000    0.000    0.000    0.000    0.000    0.000 
#
# Total GULP energy -133651.521154 kJ/mol
# GULP energy per Si atom -5568.813381 kJ/mol
# Density = 2.086910 g / cm^3
# Si number density = 20.916711 Si / 1000 Ang^3
#
#
#
# Elastic Constant Matrix: (Units=GPa)
#
#
# Indices 1 2 3 4 5 6 
#
# 1 73.7671 12.1827 4.9351 0.0000 0.0000 -11.8375
# 2 12.1827 73.7671 4.9351 0.0000 0.0000 11.8375
# 3 4.9351 4.9351 47.5509 0.0000 0.0000 0.0000
# 4 0.0000 0.0000 0.0000 27.0495 0.0000 0.0000
# 5 0.0000 0.0000 0.0000 0.0000 27.0495 0.0000
# 6 -11.8375 11.8375 0.0000 0.0000 0.0000 19.7964
#
#
#
# Elastic Compliance Matrix: (Units=1/GPa)
#
#
# Indices 1 2 3 4 5 6 
#
# 1 0.016430 -0.004655 -0.001222 0.000000 0.000000 0.012608
# 2 -0.004655 0.016430 -0.001222 0.000000 0.000000 -0.012608
# 3 -0.001222 -0.001222 0.021284 0.000000 0.000000 0.000000
# 4 0.000000 0.000000 0.000000 0.036969 0.000000 0.000000
# 5 0.000000 0.000000 0.000000 0.000000 0.036969 0.000000
# 6 0.012608 -0.012608 0.000000 0.000000 0.000000 0.065592
#
#
# Mechanical properties :
#
#
# Convention : Reuss Voigt Hill
#
# Bulk Modulus (GPa) = 25.03412 26.57679 25.80545
# Shear Modulus (GPa) = 22.60525 26.31455 24.45990
#
# Velocity S-wave (km/s) = 3.29101 3.55077 3.42335
# Velocity P-wave (km/s) = 5.14154 5.43546 5.29054
#
# Compressibility (1/GPa) = 0.03994549
#
# Stress axis : x y z
#
# Youngs Moduli (GPa) = 60.86472 60.86472 46.98413
#
# Poissons Ratio (x) = 0.28332 0.05742
# Poissons Ratio (y) = 0.28332 0.05742
# Poissons Ratio (z) = 0.07438 0.07438
#
# Static dielectric constant tensor:
#      x y z
#    x 1.829070 0.000000 0.000000 
#    y 0.000000 1.829070 0.000000 
#    z 0.000000 0.000000 1.731560 
# 
# From -- ./inp_files/2688.got.cif
#   From: 2010.05.17/outbox.cif.g08.bks.cpg/sg82_2_cif.got.tgz:2688.got - 2010.06.03 18:52:26.
