data_PCOD9542478
_publ_section_title
;
Structure prediction by ZEFSAII (Michael W. Deem and Ramdas Pophale) SiO2 
 PCOD9542478
Probable space group: P -4
;
_chemical_formula_sum "Si O2"
_cell_formula_units_Z 14
_cell_length_a 7.890244
_cell_length_b 7.890244
_cell_length_c 8.583397
_cell_angle_alpha 90.000000
_cell_angle_beta 90.000000
_cell_angle_gamma 90.000000
_cell_volume 534.367538
_symmetry_space_group_name_H-M "P -4"
_symmetry_group_IT_number 81
_symmetry_cell_setting 'tetragonal'
loop_
_space_group_symop_operation_xyz
x,y,z
y,-x,-z
-x,-y,z
-y,x,-z
loop_
_atom_site_type_symbol
_atom_site_label
_atom_site_fract_x
_atom_site_fract_y
_atom_site_fract_z
Si Si1 0.779442 0.879264 0.777870
Si Si2 0.690428 0.924701 0.125309
Si Si3 0.508219 0.308208 0.300020
Si Si4 0.000000 0.500000 0.454566
O O1 0.703515 0.688989 0.784934
O O2 0.669390 0.976685 0.649744
O O3 0.977683 0.824723 0.764914
O O4 0.747757 0.953080 0.949157
O O5 0.651020 0.738623 0.189236
O O6 0.500000 0.000000 0.137476
O O7 0.500000 0.500000 0.347847
O O8 0.509710 0.168197 0.437960
#
# Coordination Sequence:
#
# PCOD9542478 Si02
#       4
#     4   4   4   2
#     4  11  25  47  78 112 173 219 283 365 414 513
#     4  10  23  49  73 120 162 228 292 349 429 514
#     4  11  27  47  82 126 172 227 286 357 439 520
#     4  12  26  50  78 132 172 218 288 344 440 518
#
# _framework density 26.199196000000001
#
# number of rings (size 3 to 8) (size 9 to 14) (size 15 to 20)
#    0.000    1.143    5.714    0.000   12.000    0.571 
#    0.000    2.857    0.000    0.000    0.000    0.000 
#    0.000    0.000    0.000    0.000    0.000    0.000 
#
# Total GULP energy -78300.550095 kJ/mol
# GULP energy per Si atom -5592.896435 kJ/mol
# Density = 2.613957 g / cm^3
# Si number density = 26.199196 Si / 1000 Ang^3
#
#
#
# Elastic Constant Matrix: (Units=GPa)
#
#
# Indices 1 2 3 4 5 6 
#
# 1 134.7562 2.0830 26.2254 0.0000 0.0000 -13.5153
# 2 2.0830 134.7562 26.2254 0.0000 0.0000 13.5153
# 3 26.2254 26.2254 112.3034 0.0000 0.0000 0.0000
# 4 0.0000 0.0000 0.0000 35.9003 0.0000 0.0000
# 5 0.0000 0.0000 0.0000 0.0000 35.9003 0.0000
# 6 -13.5153 13.5153 0.0000 0.0000 0.0000 25.3515
#
#
#
# Elastic Compliance Matrix: (Units=1/GPa)
#
#
# Indices 1 2 3 4 5 6 
#
# 1 0.008241 -0.000215 -0.001874 0.000000 0.000000 0.004508
# 2 -0.000215 0.008241 -0.001874 0.000000 0.000000 -0.004508
# 3 -0.001874 -0.001874 0.009780 0.000000 0.000000 0.000000
# 4 0.000000 0.000000 0.000000 0.027855 0.000000 0.000000
# 5 0.000000 0.000000 0.000000 0.000000 0.027855 0.000000
# 6 0.004508 -0.004508 0.000000 0.000000 0.000000 0.044252
#
#
# Mechanical properties :
#
#
# Convention : Reuss Voigt Hill
#
# Bulk Modulus (GPa) = 54.54013 54.54260 54.54136
# Shear Modulus (GPa) = 35.64756 41.24922 38.44839
#
# Velocity S-wave (km/s) = 3.69268 3.97223 3.83501
# Velocity P-wave (km/s) = 6.24851 6.47316 6.36183
#
# Compressibility (1/GPa) = 0.01833512
#
# Stress axis : x y z
#
# Youngs Moduli (GPa) = 121.34427 121.34427 102.25117
#
# Poissons Ratio (x) = 0.02606 0.19165
# Poissons Ratio (y) = 0.02606 0.19165
# Poissons Ratio (z) = 0.22744 0.22744
#
# Static dielectric constant tensor:
#      x y z
#    x 2.173240 0.000000 0.000000 
#    y 0.000000 2.173240 0.000000 
#    z 0.000000 0.000000 2.008040 
# 
# From -- ./inp_files/581.got.cif
#   From: 2010.05.17/outbox.cif.g08.bks.cpg/sg81_cif.got.tgz:581.got - 2010.06.03 18:51:07.
