data_PCOD9542193
_publ_section_title
;
Structure prediction by ZEFSAII (Michael W. Deem and Ramdas Pophale) SiO2 
 PCOD9542193
Probable space group: I 41
;
_chemical_formula_sum "Si O2"
_cell_formula_units_Z 60
_cell_length_a 17.696642
_cell_length_b 17.696642
_cell_length_c 8.257956
_cell_angle_alpha 90.000000
_cell_angle_beta 90.000000
_cell_angle_gamma 90.000000
_cell_volume 2586.153479
_symmetry_space_group_name_H-M "I 41"
_symmetry_group_IT_number 80
_symmetry_cell_setting 'tetragonal'
loop_
_space_group_symop_operation_xyz
x,y,z
-y,1/2+x,1/4+z
-x,-y,z
y,1/2-x,1/4+z
1/2+x,1/2+y,1/2+z
1/2-y,x,3/4+z
1/2-x,1/2-y,1/2+z
1/2+y,-x,3/4+z
loop_
_atom_site_type_symbol
_atom_site_label
_atom_site_fract_x
_atom_site_fract_y
_atom_site_fract_z
Si Si1 0.151516 0.578058 0.335390
Si Si2 0.580362 0.416081 0.261191
Si Si3 0.416165 0.427755 0.196296
Si Si4 0.549232 0.841134 0.108396
Si Si5 0.000000 0.500000 0.464888
Si Si6 0.681113 0.184796 0.344953
Si Si7 0.573673 0.236998 0.872703
Si Si8 0.163676 0.224756 0.723912
O O1 0.149162 0.564821 0.142741
O O2 0.132742 0.667771 0.350356
O O3 0.221414 0.555554 0.451493
O O4 0.074393 0.536174 0.384738
O O5 0.505058 0.419471 0.151085
O O6 0.587283 0.502696 0.323426
O O7 0.658435 0.395857 0.175444
O O8 0.390967 0.345997 0.254615
O O9 0.361073 0.453524 0.051065
O O10 0.623665 0.787915 0.109490
O O11 0.490557 0.794703 0.994506
O O12 0.538943 0.926698 0.047175
O O13 0.741578 0.186144 0.487794
O O14 0.699493 0.117080 0.222961
O O15 0.189766 0.264969 0.884730
#
# Coordination Sequence:
#
# PCOD9542193 Si02
#       8
#     8   8   8   8   4   8   8   8
#     4  11  26  45  70 105 154 198 256 317 387 474
#     4  11  25  43  71 107 140 196 252 318 401 469
#     4  10  22  45  75 101 148 183 255 326 387 477
#     4  10  22  41  77 108 143 195 252 322 392 468
#     4  10  22  42  70 108 144 192 254 316 380 460
#     4  12  27  41  69  96 144 195 248 309 390 472
#     4  11  24  45  67 106 147 198 250 312 389 466
#     4  10  23  46  69 103 142 189 249 308 392 463
#
# _framework density 23.200478
#
# number of rings (size 3 to 8) (size 9 to 14) (size 15 to 20)
#    0.000    1.333    1.333    3.200   11.200    1.067 
#    7.200    0.000    0.000    0.000    0.000    0.000 
#    0.000    0.000    0.000    0.000    0.000    0.000 
#
# Total GULP energy -167134.692197 kJ/mol
# GULP energy per Si atom -5571.156407 kJ/mol
# Density = 2.314767 g / cm^3
# Si number density = 23.200478 Si / 1000 Ang^3
#
#
#
# Elastic Constant Matrix: (Units=GPa)
#
#
# Indices 1 2 3 4 5 6 
#
# 1 72.4469 27.6191 39.7077 0.0000 0.0000 5.3630
# 2 27.6191 72.4469 39.7077 0.0000 0.0000 -5.3630
# 3 39.7077 39.7077 72.6912 0.0000 0.0000 0.0000
# 4 0.0000 0.0000 0.0000 13.4325 0.0000 0.0000
# 5 0.0000 0.0000 0.0000 0.0000 13.4325 0.0000
# 6 5.3630 -5.3630 0.0000 0.0000 0.0000 22.7984
#
#
#
# Elastic Compliance Matrix: (Units=1/GPa)
#
#
# Indices 1 2 3 4 5 6 
#
# 1 0.020640 -0.002998 -0.009637 0.000000 0.000000 -0.005561
# 2 -0.002998 0.020640 -0.009637 0.000000 0.000000 0.005561
# 3 -0.009637 -0.009637 0.024285 0.000000 0.000000 0.000000
# 4 0.000000 0.000000 0.000000 0.074446 0.000000 0.000000
# 5 0.000000 0.000000 0.000000 0.000000 0.074446 0.000000
# 6 -0.005561 0.005561 0.000000 0.000000 0.000000 0.046479
#
#
# Mechanical properties :
#
#
# Convention : Reuss Voigt Hill
#
# Bulk Modulus (GPa) = 47.57134 47.96157 47.76646
# Shear Modulus (GPa) = 16.00073 17.30272 16.65173
#
# Velocity S-wave (km/s) = 2.62901 2.73388 2.68196
# Velocity P-wave (km/s) = 5.45569 5.53923 5.49762
#
# Compressibility (1/GPa) = 0.02102106
#
# Stress axis : x y z
#
# Youngs Moduli (GPa) = 48.45036 48.45036 41.17788
#
# Poissons Ratio (x) = 0.14527 0.39682
# Poissons Ratio (y) = 0.14527 0.39682
# Poissons Ratio (z) = 0.46690 0.46690
#
# Static dielectric constant tensor:
#      x y z
#    x 1.893270 0.000000 0.000000 
#    y 0.000000 1.893270 0.000000 
#    z 0.000000 0.000000 1.960640 
# 
# From -- ./inp_files/751.got.cif
#   From: 2010.05.17/outbox.cif.g08.bks.cpg/sg80_cif.got.tgz:751.got - 2010.06.03 18:49:13.
