data_PCOD9542271
_publ_section_title
;
Structure prediction by ZEFSAII (Michael W. Deem and Ramdas Pophale) SiO2 
 PCOD9542271
Probable space group: I 41
;
_chemical_formula_sum "Si O2"
_cell_formula_units_Z 48
_cell_length_a 10.971358
_cell_length_b 10.971358
_cell_length_c 17.817433
_cell_angle_alpha 90.000000
_cell_angle_beta 90.000000
_cell_angle_gamma 90.000000
_cell_volume 2144.696818
_symmetry_space_group_name_H-M "I 41"
_symmetry_group_IT_number 80
_symmetry_cell_setting 'tetragonal'
loop_
_space_group_symop_operation_xyz
x,y,z
-y,1/2+x,1/4+z
-x,-y,z
y,1/2-x,1/4+z
1/2+x,1/2+y,1/2+z
1/2-y,x,3/4+z
1/2-x,1/2-y,1/2+z
1/2+y,-x,3/4+z
loop_
_atom_site_type_symbol
_atom_site_label
_atom_site_fract_x
_atom_site_fract_y
_atom_site_fract_z
Si Si1 0.116355 0.290791 0.610550
Si Si2 0.075005 0.318597 0.435808
Si Si3 0.760631 0.324587 0.254509
Si Si4 0.192028 0.566721 0.414807
Si Si5 0.146243 0.025749 0.644474
Si Si6 0.861138 0.052731 0.482707
O O1 0.098441 0.278804 0.522014
O O2 0.204299 0.401901 0.632041
O O3 0.164876 0.170074 0.653136
O O4 0.989099 0.314203 0.651883
O O5 0.170133 0.423192 0.412713
O O6 0.941846 0.376328 0.428805
O O7 0.758806 0.374847 0.338206
O O8 0.895518 0.286522 0.229169
O O9 0.708371 0.431167 0.200811
O O10 0.685954 0.198021 0.242909
O O11 0.190910 0.005500 0.559161
O O12 0.000000 0.000000 0.647808
O O13 0.000000 0.000000 0.484432
#
# Coordination Sequence:
#
# PCOD9542271 Si02
#       6
#     8   8   8   8   8   8
#     4  12  24  45  72 100 141 185 242 298 351 424
#     4  11  27  47  70 101 142 190 244 290 358 435
#     4  12  24  45  72 103 148 186 236 297 364 433
#     4  11  27  45  70 103 143 190 237 294 362 437
#     4  11  24  43  66 104 140 178 238 293 355 421
#     4  11  24  41  70 105 136 182 234 297 356 419
#
# _framework density 22.380783999999998
#
# number of rings (size 3 to 8) (size 9 to 14) (size 15 to 20)
#    0.000    0.667    5.000    2.000    9.333    0.000 
#    0.000    0.000    0.000    0.000    0.000    0.000 
#    0.000    0.000    0.000    0.000    0.000    0.000 
#
# Total GULP energy -133942.753705 kJ/mol
# GULP energy per Si atom -5580.948071 kJ/mol
# Density = 2.232984 g / cm^3
# Si number density = 22.380784 Si / 1000 Ang^3
#
#
#
# Elastic Constant Matrix: (Units=GPa)
#
#
# Indices 1 2 3 4 5 6 
#
# 1 69.1902 16.1323 15.5154 0.0000 0.0000 -0.5821
# 2 16.1323 69.1902 15.5154 0.0000 0.0000 0.5821
# 3 15.5154 15.5154 87.6917 0.0000 0.0000 0.0000
# 4 0.0000 0.0000 0.0000 24.2121 0.0000 0.0000
# 5 0.0000 0.0000 0.0000 0.0000 24.2121 0.0000
# 6 -0.5821 0.5821 0.0000 0.0000 0.0000 30.4790
#
#
#
# Elastic Compliance Matrix: (Units=1/GPa)
#
#
# Indices 1 2 3 4 5 6 
#
# 1 0.015691 -0.003164 -0.002216 0.000000 0.000000 0.000360
# 2 -0.003164 0.015691 -0.002216 0.000000 0.000000 -0.000360
# 3 -0.002216 -0.002216 0.012188 0.000000 0.000000 0.000000
# 4 0.000000 0.000000 0.000000 0.041302 0.000000 0.000000
# 5 0.000000 0.000000 0.000000 0.000000 0.041302 0.000000
# 6 0.000360 -0.000360 0.000000 0.000000 0.000000 0.032823
#
#
# Mechanical properties :
#
#
# Convention : Reuss Voigt Hill
#
# Bulk Modulus (GPa) = 35.24200 35.59982 35.42091
# Shear Modulus (GPa) = 27.22592 27.70791 27.46692
#
# Velocity S-wave (km/s) = 3.49160 3.52237 3.50702
# Velocity P-wave (km/s) = 5.66001 5.69945 5.67977
#
# Compressibility (1/GPa) = 0.02837524
#
# Stress axis : x y z
#
# Youngs Moduli (GPa) = 63.73182 63.73182 82.04899
#
# Poissons Ratio (x) = 0.20168 0.18184
# Poissons Ratio (y) = 0.20168 0.18184
# Poissons Ratio (z) = 0.14125 0.14125
#
# Static dielectric constant tensor:
#      x y z
#    x 1.880540 0.000000 0.000000 
#    y 0.000000 1.880540 0.000000 
#    z 0.000000 0.000000 1.764710 
# 
# From -- ./inp_files/1517.got.cif
#   From: 2010.05.17/outbox.cif.g08.bks.cpg/sg80_cif.got.tgz:1517.got - 2010.06.03 18:49:13.
