data_PCOD9542988
_publ_section_title
;
Structure prediction by ZEFSAII (Michael W. Deem and Ramdas Pophale) SiO2 
 PCOD9542988
Probable space group: I -4 
;
_chemical_formula_sum "Si O2"
_cell_formula_units_Z 36
_cell_length_a 11.181244
_cell_length_b 11.181244
_cell_length_c 10.859499
_cell_angle_alpha 90.000000
_cell_angle_beta 90.000000
_cell_angle_gamma 90.000000
_cell_volume 1357.656926
_symmetry_space_group_name_H-M "I -4 "
_symmetry_group_IT_number 82
_symmetry_cell_setting 'tetragonal'
loop_
_space_group_symop_operation_xyz
x,y,z
y,-x,-z
-x,-y,z
-y,x,-z
1/2+x,1/2+y,1/2+z
1/2+y,1/2-x,1/2-z
1/2-x,1/2-y,1/2+z
1/2-y,1/2+x,1/2-z
loop_
_atom_site_type_symbol
_atom_site_label
_atom_site_fract_x
_atom_site_fract_y
_atom_site_fract_z
Si Si1 0.761486 0.775381 0.110898
Si Si2 0.546007 0.678168 0.019350
Si Si3 0.667970 0.075004 0.705809
Si Si4 0.000000 0.000000 0.000000
Si Si5 0.453472 0.236716 0.409302
Si Si6 0.000000 0.500000 0.750000
O O1 0.838889 0.764782 0.232593
O O2 0.726061 0.905357 0.065824
O O3 0.636728 0.706542 0.128570
O O4 0.847338 0.719392 0.007126
O O5 0.535395 0.788374 0.927252
O O6 0.618050 0.576045 0.944570
O O7 0.542942 0.145233 0.712605
O O8 0.043456 0.112559 0.913426
O O9 0.444621 0.116920 0.321510
#
# Coordination Sequence:
#
# PCOD9542988 Si02
#       6
#     8   8   8   2   8   2
#     4  11  24  47  73 106 151 200 255 314 379 478
#     4  11  25  47  74 109 155 194 251 325 383 450
#     4  11  24  46  78 107 146 211 259 306 391 472
#     4   8  20  56  76  96 152 226 244 308 384 504
#     4  10  25  45  76 107 151 195 260 318 387 456
#     4  12  28  44  80 124 150 196 260 352 392 442
#
# _framework density 26.516269999999999
#
# number of rings (size 3 to 8) (size 9 to 14) (size 15 to 20)
#    0.000    1.333    2.222    1.333    6.222    1.778 
#    0.000   11.111    0.000    0.000    0.000    0.000 
#    0.000    0.000    0.000    0.000    0.000    0.000 
#
# Total GULP energy -100280.304289 kJ/mol
# GULP energy per Si atom -5571.128016 kJ/mol
# Density = 2.645592 g / cm^3
# Si number density = 26.516270 Si / 1000 Ang^3
#
#
#
# Elastic Constant Matrix: (Units=GPa)
#
#
# Indices 1 2 3 4 5 6 
#
# 1 110.2054 21.3006 26.3469 0.0000 0.0000 -0.0464
# 2 21.3006 110.2054 26.3469 0.0000 0.0000 0.0464
# 3 26.3469 26.3469 51.4784 0.0000 0.0000 0.0000
# 4 0.0000 0.0000 0.0000 28.9742 0.0000 0.0000
# 5 0.0000 0.0000 0.0000 0.0000 28.9742 0.0000
# 6 -0.0464 0.0464 0.0000 0.0000 0.0000 46.9192
#
#
#
# Elastic Compliance Matrix: (Units=1/GPa)
#
#
# Indices 1 2 3 4 5 6 
#
# 1 0.010407 -0.000841 -0.004896 0.000000 0.000000 0.000011
# 2 -0.000841 0.010407 -0.004896 0.000000 0.000000 -0.000011
# 3 -0.004896 -0.004896 0.024437 0.000000 0.000000 0.000000
# 4 0.000000 0.000000 0.000000 0.034513 0.000000 0.000000
# 5 0.000000 0.000000 0.000000 0.000000 0.034513 0.000000
# 6 0.000011 -0.000011 0.000000 0.000000 0.000000 0.021313
#
#
# Mechanical properties :
#
#
# Convention : Reuss Voigt Hill
#
# Bulk Modulus (GPa) = 41.69200 46.65313 44.17256
# Shear Modulus (GPa) = 30.33023 34.16652 32.24838
#
# Velocity S-wave (km/s) = 3.38573 3.59348 3.49115
# Velocity P-wave (km/s) = 5.57149 5.90337 5.73983
#
# Compressibility (1/GPa) = 0.02398542
#
# Stress axis : x y z
#
# Youngs Moduli (GPa) = 96.08924 96.08924 40.92135
#
# Poissons Ratio (x) = 0.08081 0.20035
# Poissons Ratio (y) = 0.08081 0.20035
# Poissons Ratio (z) = 0.47045 0.47045
#
# Static dielectric constant tensor:
#      x y z
#    x 2.105230 0.000000 0.000000 
#    y 0.000000 2.105230 0.000000 
#    z 0.000000 0.000000 2.075930 
# 
# From -- ./inp_files/1609.got.cif
#   From: 2010.05.17/outbox.cif.g08.bks.cpg/sg82_1_cif.got.tgz:1609.got - 2010.06.03 18:52:26.
