data_PCOD9542570
_publ_section_title
;
Structure prediction by ZEFSAII (Michael W. Deem and Ramdas Pophale) SiO2 
 PCOD9542570
Probable space group: P -4
;
_chemical_formula_sum "Si O2"
_cell_formula_units_Z 18
_cell_length_a 10.478784
_cell_length_b 10.478784
_cell_length_c 6.049558
_cell_angle_alpha 90.000000
_cell_angle_beta 90.000000
_cell_angle_gamma 90.000000
_cell_volume 664.271197
_symmetry_space_group_name_H-M "P -4"
_symmetry_group_IT_number 81
_symmetry_cell_setting 'tetragonal'
loop_
_space_group_symop_operation_xyz
x,y,z
y,-x,-z
-x,-y,z
-y,x,-z
loop_
_atom_site_type_symbol
_atom_site_label
_atom_site_fract_x
_atom_site_fract_y
_atom_site_fract_z
Si Si1 0.381690 0.178273 0.604339
Si Si2 0.882064 0.132989 0.619045
Si Si3 0.500000 0.000000 0.310696
Si Si4 0.943492 0.683567 0.066298
Si Si5 0.398765 0.660632 0.049888
O O1 0.261024 0.188136 0.444385
O O2 0.374195 0.302037 0.753549
O O3 0.357506 0.052449 0.758669
O O4 0.499058 0.128449 0.457158
O O5 0.828005 0.084691 0.852654
O O6 0.032106 0.148597 0.578551
O O7 0.374933 0.001362 0.157469
O O8 0.801197 0.622644 0.049500
O O9 0.545487 0.638036 0.116776
#
# Coordination Sequence:
#
# PCOD9542570 Si02
#       5
#     4   4   2   4   4
#     4  11  26  49  81 115 153 207 264 324 386 471
#     4   9  22  47  76 114 153 196 257 319 395 450
#     4  12  26  48  78 116 156 208 270 304 386 496
#     4  11  26  47  82 110 151 209 260 321 383 470
#     4  11  26  49  74 112 159 206 259 320 401 456
#
# _framework density 27.097369
#
# number of rings (size 3 to 8) (size 9 to 14) (size 15 to 20)
#    0.000    1.333    0.000    3.333   12.444    0.000 
#    0.000    0.000    0.000    0.000    0.000    0.000 
#    0.000    0.000    0.000    0.000    0.000    0.000 
#
# Total GULP energy -100576.547581 kJ/mol
# GULP energy per Si atom -5587.585977 kJ/mol
# Density = 2.703569 g / cm^3
# Si number density = 27.097369 Si / 1000 Ang^3
#
#
#
# Elastic Constant Matrix: (Units=GPa)
#
#
# Indices 1 2 3 4 5 6 
#
# 1 144.7978 1.3618 51.5399 0.0000 0.0000 0.8554
# 2 1.3618 144.7978 51.5399 0.0000 0.0000 -0.8554
# 3 51.5399 51.5399 108.6782 0.0000 0.0000 0.0000
# 4 0.0000 0.0000 0.0000 46.9975 0.0000 0.0000
# 5 0.0000 0.0000 0.0000 0.0000 46.9975 0.0000
# 6 0.8554 -0.8554 0.0000 0.0000 0.0000 24.2035
#
#
#
# Elastic Compliance Matrix: (Units=1/GPa)
#
#
# Indices 1 2 3 4 5 6 
#
# 1 0.008627 0.001653 -0.004875 0.000000 0.000000 -0.000247
# 2 0.001653 0.008627 -0.004875 0.000000 0.000000 0.000247
# 3 -0.004875 -0.004875 0.013826 0.000000 0.000000 0.000000
# 4 0.000000 0.000000 0.000000 0.021278 0.000000 0.000000
# 5 0.000000 0.000000 0.000000 0.000000 0.021278 0.000000
# 6 -0.000247 0.000247 0.000000 0.000000 0.000000 0.041334
#
#
# Mechanical properties :
#
#
# Convention : Reuss Voigt Hill
#
# Bulk Modulus (GPa) = 67.18278 67.46189 67.32233
# Shear Modulus (GPa) = 36.73042 43.22853 39.97947
#
# Velocity S-wave (km/s) = 3.68570 3.99846 3.84526
# Velocity P-wave (km/s) = 6.55435 6.80199 6.67932
#
# Compressibility (1/GPa) = 0.01488477
#
# Stress axis : x y z
#
# Youngs Moduli (GPa) = 115.90937 115.90937 72.32937
#
# Poissons Ratio (x) = -0.19157 0.35263
# Poissons Ratio (y) = -0.19157 0.35263
# Poissons Ratio (z) = 0.56509 0.56509
#
# Static dielectric constant tensor:
#      x y z
#    x 2.133740 0.000000 0.000000 
#    y 0.000000 2.133740 0.000000 
#    z 0.000000 0.000000 2.128270 
# 
# From -- ./inp_files/221.got.cif
#   From: 2010.05.17/outbox.cif.g08.bks.cpg/sg81_cif.got.tgz:221.got - 2010.06.03 18:51:07.
