data_PCOD9542805
_publ_section_title
;
Structure prediction by ZEFSAII (Michael W. Deem and Ramdas Pophale) SiO2 
 PCOD9542805
Probable space group: I -4 
;
_chemical_formula_sum "Si O2"
_cell_formula_units_Z 42
_cell_length_a 11.550401
_cell_length_b 11.550401
_cell_length_c 13.215534
_cell_angle_alpha 90.000000
_cell_angle_beta 90.000000
_cell_angle_gamma 90.000000
_cell_volume 1763.107693
_symmetry_space_group_name_H-M "I -4 "
_symmetry_group_IT_number 82
_symmetry_cell_setting 'tetragonal'
loop_
_space_group_symop_operation_xyz
x,y,z
y,-x,-z
-x,-y,z
-y,x,-z
1/2+x,1/2+y,1/2+z
1/2+y,1/2-x,1/2-z
1/2-x,1/2-y,1/2+z
1/2-y,1/2+x,1/2-z
loop_
_atom_site_type_symbol
_atom_site_label
_atom_site_fract_x
_atom_site_fract_y
_atom_site_fract_z
Si Si1 0.952126 0.766254 0.178766
Si Si2 0.583995 0.890570 0.879397
Si Si3 0.826854 0.058075 0.480221
Si Si4 0.000000 0.500000 0.750000
Si Si5 0.164888 0.896453 0.253101
Si Si6 0.721956 0.864496 0.197709
O O1 0.044015 0.705521 0.104697
O O2 0.035290 0.865047 0.224883
O O3 0.928182 0.674664 0.270637
O O4 0.828148 0.803408 0.135111
O O5 0.500000 0.000000 0.885148
O O6 0.558722 0.792087 0.960510
O O7 0.817423 0.119848 0.372994
O O8 0.928961 0.125110 0.538301
O O9 0.927275 0.405118 0.816435
O O10 0.267830 0.810327 0.216601
O O11 0.203729 0.024822 0.231060
#
# Coordination Sequence:
#
# PCOD9542805 Si02
#       6
#     8   8   8   2   8   8
#     4  12  20  38  68  96 126 169 230 285 322 394
#     4  12  22  40  62  97 130 170 221 283 340 389
#     4  11  25  41  63  93 130 171 224 285 344 390
#     4   8  20  40  56  92 140 172 200 262 340 396
#     4  11  22  40  64  95 131 167 219 277 338 397
#     4  10  21  38  65  95 130 171 220 268 329 403
#
# _framework density 23.821573000000001
#
# number of rings (size 3 to 8) (size 9 to 14) (size 15 to 20)
#    0.000    0.952    5.714    1.714    2.667    0.000 
#   10.286    0.000    0.000    0.000    0.000    0.000 
#    0.000    0.000    0.000    0.000    0.000    0.000 
#
# Total GULP energy -116922.803218 kJ/mol
# GULP energy per Si atom -5567.752534 kJ/mol
# Density = 2.376735 g / cm^3
# Si number density = 23.821573 Si / 1000 Ang^3
#
#
#
# Elastic Constant Matrix: (Units=GPa)
#
#
# Indices 1 2 3 4 5 6 
#
# 1 165.5575 51.6443 5.0448 0.0000 0.0000 -10.5257
# 2 51.6443 165.5575 5.0448 0.0000 0.0000 10.5257
# 3 5.0448 5.0448 9.1082 0.0000 0.0000 0.0000
# 4 0.0000 0.0000 0.0000 2.7321 0.0000 0.0000
# 5 0.0000 0.0000 0.0000 0.0000 2.7321 0.0000
# 6 -10.5257 10.5257 0.0000 0.0000 0.0000 63.3340
#
#
#
# Elastic Compliance Matrix: (Units=1/GPa)
#
#
# Indices 1 2 3 4 5 6 
#
# 1 0.006891 -0.002166 -0.002617 0.000000 0.000000 0.001505
# 2 -0.002166 0.006891 -0.002617 0.000000 0.000000 -0.001505
# 3 -0.002617 -0.002617 0.112691 0.000000 0.000000 0.000000
# 4 0.000000 0.000000 0.000000 0.366013 0.000000 0.000000
# 5 0.000000 0.000000 0.000000 0.000000 0.366014 0.000000
# 6 0.001505 -0.001505 0.000000 0.000000 0.000000 0.016290
#
#
# Mechanical properties :
#
#
# Convention : Reuss Voigt Hill
#
# Bulk Modulus (GPa) = 8.95476 51.52121 30.23798
# Shear Modulus (GPa) = 5.39482 32.32562 18.86022
#
# Velocity S-wave (km/s) = 1.50652 3.68773 2.81682
# Velocity P-wave (km/s) = 2.60641 6.30931 4.82705
#
# Compressibility (1/GPa) = 0.11167248
#
# Stress axis : x y z
#
# Youngs Moduli (GPa) = 145.11291 145.11291 8.87384
#
# Poissons Ratio (x) = 0.31425 0.02323
# Poissons Ratio (y) = 0.31425 0.02323
# Poissons Ratio (z) = 0.37982 0.37982
#
# Static dielectric constant tensor:
#      x y z
#    x 2.080170 0.000000 0.000000 
#    y 0.000000 2.080170 0.000000 
#    z 0.000000 0.000000 2.006320 
# 
# From -- ./inp_files/2583.got.cif
#   From: 2010.05.17/outbox.cif.g08.bks.cpg/sg82_2_cif.got.tgz:2583.got - 2010.06.03 18:52:26.
