data_PCOD9542651
_publ_section_title
;
Structure prediction by ZEFSAII (Michael W. Deem and Ramdas Pophale) SiO2 
 PCOD9542651
Probable space group: I -4 
;
_chemical_formula_sum "Si O2"
_cell_formula_units_Z 50
_cell_length_a 15.565528
_cell_length_b 15.565528
_cell_length_c 7.851087
_cell_angle_alpha 90.000000
_cell_angle_beta 90.000000
_cell_angle_gamma 90.000000
_cell_volume 1902.205811
_symmetry_space_group_name_H-M "I -4 "
_symmetry_group_IT_number 82
_symmetry_cell_setting 'tetragonal'
loop_
_space_group_symop_operation_xyz
x,y,z
y,-x,-z
-x,-y,z
-y,x,-z
1/2+x,1/2+y,1/2+z
1/2+y,1/2-x,1/2-z
1/2-x,1/2-y,1/2+z
1/2-y,1/2+x,1/2-z
loop_
_atom_site_type_symbol
_atom_site_label
_atom_site_fract_x
_atom_site_fract_y
_atom_site_fract_z
Si Si1 0.427359 0.063924 0.028801
Si Si2 0.760620 0.288171 0.411404
Si Si3 0.000000 0.000000 0.000000
Si Si4 0.212428 0.887751 0.267587
Si Si5 0.321880 0.040889 0.689350
Si Si6 0.154619 0.025330 0.827153
Si Si7 0.077622 0.751774 0.824329
O O1 0.378417 0.027867 0.859930
O O2 0.487624 0.137732 0.959912
O O3 0.500000 0.000000 0.087216
O O4 0.351674 0.087942 0.157556
O O5 0.767064 0.183203 0.413061
O O6 0.744920 0.342484 0.586349
O O7 0.855471 0.313861 0.339982
O O8 0.672127 0.294227 0.298225
O O9 0.077810 0.966041 0.887467
O O10 0.109512 0.888362 0.249728
O O11 0.235570 0.988322 0.275788
O O12 0.228764 0.997125 0.705107
O O13 0.210439 0.053339 0.990388
#
# Coordination Sequence:
#
# PCOD9542651 Si02
#       7
#     8   8   2   8   8   8   8
#     4  11  19  33  59  94 122 161 212 268 321 383
#     4  10  23  41  63  90 128 173 212 263 325 389
#     4  12  16  32  52  84 116 150 220 268 336 374
#     4  10  20  41  62  90 125 167 216 265 324 395
#     4  10  19  34  56  88 124 158 217 265 317 376
#     4   9  20  30  56  85 114 156 208 272 313 373
#     4  10  21  38  59  88 128 165 210 261 328 393
#
# _framework density 26.285274000000001
#
# number of rings (size 3 to 8) (size 9 to 14) (size 15 to 20)
#    0.000    1.920    3.200    1.920    2.240    0.000 
#    5.760    0.000    0.000    0.000    0.000    0.000 
#    0.000    0.000    0.000    0.000    0.000    0.000 
#
# Total GULP energy -139496.508592 kJ/mol
# GULP energy per Si atom -5579.860344 kJ/mol
# Density = 2.622545 g / cm^3
# Si number density = 26.285274 Si / 1000 Ang^3
#
#
#
# Elastic Constant Matrix: (Units=GPa)
#
#
# Indices 1 2 3 4 5 6 
#
# 1 169.8534 47.6903 30.7283 0.0000 0.0000 -1.1466
# 2 47.6903 169.8534 30.7283 0.0000 0.0000 1.1466
# 3 30.7283 30.7283 57.2442 0.0000 0.0000 0.0000
# 4 0.0000 0.0000 0.0000 6.6742 0.0000 0.0000
# 5 0.0000 0.0000 0.0000 0.0000 6.6742 0.0000
# 6 -1.1466 1.1466 0.0000 0.0000 0.0000 43.4689
#
#
#
# Elastic Compliance Matrix: (Units=1/GPa)
#
#
# Indices 1 2 3 4 5 6 
#
# 1 0.006804 -0.001386 -0.002909 0.000000 0.000000 0.000216
# 2 -0.001386 0.006804 -0.002909 0.000000 0.000000 -0.000216
# 3 -0.002909 -0.002909 0.020592 0.000000 0.000000 0.000000
# 4 0.000000 0.000000 0.000000 0.149831 0.000000 0.000000
# 5 0.000000 0.000000 0.000000 0.000000 0.149831 0.000000
# 6 0.000216 -0.000216 0.000000 0.000000 0.000000 0.023016
#
#
# Mechanical properties :
#
#
# Convention : Reuss Voigt Hill
#
# Bulk Modulus (GPa) = 50.51987 68.36056 59.44021
# Shear Modulus (GPa) = 13.23167 30.55040 21.89104
#
# Velocity S-wave (km/s) = 2.24606 3.41290 2.88900
# Velocity P-wave (km/s) = 5.09784 6.44935 5.81301
#
# Compressibility (1/GPa) = 0.01979419
#
# Stress axis : x y z
#
# Youngs Moduli (GPa) = 146.96918 146.96918 48.56333
#
# Poissons Ratio (x) = 0.20365 0.14125
# Poissons Ratio (y) = 0.20365 0.14125
# Poissons Ratio (z) = 0.42747 0.42747
#
# Static dielectric constant tensor:
#      x y z
#    x 2.092100 0.000000 0.000000 
#    y 0.000000 2.092100 0.000000 
#    z 0.000000 0.000000 2.091710 
# 
# From -- ./inp_files/1795.got.cif
#   From: 2010.05.17/outbox.cif.g08.bks.cpg/sg82_1_cif.got.tgz:1795.got - 2010.06.03 18:52:26.
