data_PCOD9542638
_publ_section_title
;
Structure prediction by ZEFSAII (Michael W. Deem and Ramdas Pophale) SiO2 
 PCOD9542638
Probable space group: I -4 
;
_chemical_formula_sum "Si O2"
_cell_formula_units_Z 46
_cell_length_a 10.816170
_cell_length_b 10.816170
_cell_length_c 20.040555
_cell_angle_alpha 90.000000
_cell_angle_beta 90.000000
_cell_angle_gamma 90.000000
_cell_volume 2344.535180
_symmetry_space_group_name_H-M "I -4 "
_symmetry_group_IT_number 82
_symmetry_cell_setting 'tetragonal'
loop_
_space_group_symop_operation_xyz
x,y,z
y,-x,-z
-x,-y,z
-y,x,-z
1/2+x,1/2+y,1/2+z
1/2+y,1/2-x,1/2-z
1/2-x,1/2-y,1/2+z
1/2-y,1/2+x,1/2-z
loop_
_atom_site_type_symbol
_atom_site_label
_atom_site_fract_x
_atom_site_fract_y
_atom_site_fract_z
Si Si1 0.000000 0.500000 0.481475
Si Si2 0.734818 0.991285 0.430410
Si Si3 0.000000 0.000000 0.500000
Si Si4 0.856208 0.785780 0.936288
Si Si5 0.052438 0.863135 0.837852
Si Si6 0.548376 0.751633 0.580048
Si Si7 0.500135 0.805488 0.224507
O O1 0.957157 0.616645 0.527194
O O2 0.105084 0.556108 0.434979
O O3 0.716821 0.842345 0.434329
O O4 0.714811 0.025990 0.353110
O O5 0.871833 0.021232 0.458267
O O6 0.975321 0.776779 0.888239
O O7 0.778876 0.903567 0.912608
O O8 0.902276 0.809560 0.011492
O O9 0.194098 0.872796 0.860363
O O10 0.026238 0.820020 0.763722
O O11 0.000000 0.000000 0.849463
O O12 0.610111 0.879903 0.260858
#
# Coordination Sequence:
#
# PCOD9542638 Si02
#       7
#     4   8   2   8   8   8   8
#     4  10  22  38  61  92 121 170 202 264 308 382
#     4  11  24  41  63  91 132 169 216 260 324 394
#     4  12  28  44  64  96 136 184 210 264 336 404
#     4  10  18  34  58  90 117 154 201 264 308 366
#     4  10  21  35  59  91 116 156 202 260 312 364
#     4  10  19  32  60  86 125 150 206 253 317 369
#     4  11  23  39  62  89 122 163 209 264 317 381
#
# _framework density 19.620094999999999
#
# number of rings (size 3 to 8) (size 9 to 14) (size 15 to 20)
#    0.000    1.565    3.478    2.087    3.652    2.783 
#    0.000    0.000    0.000    0.000    0.000    1.217 
#    0.000    0.000    0.000    0.000    0.000    0.000 
#
# Total GULP energy -128296.852524 kJ/mol
# GULP energy per Si atom -5578.124023 kJ/mol
# Density = 1.957544 g / cm^3
# Si number density = 19.620095 Si / 1000 Ang^3
#
#
#
# Elastic Constant Matrix: (Units=GPa)
#
#
# Indices 1 2 3 4 5 6 
#
# 1 59.8842 -0.3312 17.6409 0.0000 0.0000 3.1949
# 2 -0.3312 59.8842 17.6409 0.0000 0.0000 -3.1949
# 3 17.6409 17.6409 58.4517 0.0000 0.0000 0.0000
# 4 0.0000 0.0000 0.0000 26.4951 0.0000 0.0000
# 5 0.0000 0.0000 0.0000 0.0000 26.4951 0.0000
# 6 3.1949 -3.1949 0.0000 0.0000 0.0000 22.3626
#
#
#
# Elastic Compliance Matrix: (Units=1/GPa)
#
#
# Indices 1 2 3 4 5 6 
#
# 1 0.018655 0.001793 -0.006171 0.000000 0.000000 -0.002409
# 2 0.001793 0.018655 -0.006171 0.000000 0.000000 0.002409
# 3 -0.006171 -0.006171 0.020833 0.000000 0.000000 0.000000
# 4 0.000000 0.000000 0.000000 0.037743 0.000000 0.000000
# 5 0.000000 0.000000 0.000000 0.000000 0.037743 0.000000
# 6 -0.002409 0.002409 0.000000 0.000000 0.000000 0.045406
#
#
# Mechanical properties :
#
#
# Convention : Reuss Voigt Hill
#
# Bulk Modulus (GPa) = 26.99496 27.56904 27.28200
# Shear Modulus (GPa) = 23.53130 24.62186 24.07658
#
# Velocity S-wave (km/s) = 3.46692 3.54634 3.50685
# Velocity P-wave (km/s) = 5.46028 5.55434 5.50751
#
# Compressibility (1/GPa) = 0.03704395
#
# Stress axis : x y z
#
# Youngs Moduli (GPa) = 53.60416 53.60416 48.00050
#
# Poissons Ratio (x) = -0.09609 0.29622
# Poissons Ratio (y) = -0.09609 0.29622
# Poissons Ratio (z) = 0.33080 0.33080
#
# Static dielectric constant tensor:
#      x y z
#    x 1.728630 0.000000 0.000000 
#    y 0.000000 1.728630 0.000000 
#    z 0.000000 0.000000 1.674880 
# 
# From -- ./inp_files/2665.got.cif
#   From: 2010.05.17/outbox.cif.g08.bks.cpg/sg82_2_cif.got.tgz:2665.got - 2010.06.03 18:52:26.
