data_PCOD9542697
_publ_section_title
;
Structure prediction by ZEFSAII (Michael W. Deem and Ramdas Pophale) SiO2 
 PCOD9542697
Probable space group: I -4 
;
_chemical_formula_sum "Si O2"
_cell_formula_units_Z 64
_cell_length_a 21.963828
_cell_length_b 21.963828
_cell_length_c 8.906779
_cell_angle_alpha 90.000000
_cell_angle_beta 90.000000
_cell_angle_gamma 90.000000
_cell_volume 4296.716945
_symmetry_space_group_name_H-M "I -4 "
_symmetry_group_IT_number 82
_symmetry_cell_setting 'tetragonal'
loop_
_space_group_symop_operation_xyz
x,y,z
y,-x,-z
-x,-y,z
-y,x,-z
1/2+x,1/2+y,1/2+z
1/2+y,1/2-x,1/2-z
1/2-x,1/2-y,1/2+z
1/2-y,1/2+x,1/2-z
loop_
_atom_site_type_symbol
_atom_site_label
_atom_site_fract_x
_atom_site_fract_y
_atom_site_fract_z
Si Si1 0.763940 0.844654 0.078068
Si Si2 0.836484 0.563680 0.568433
Si Si3 0.336484 0.063680 0.431566
Si Si4 0.839553 0.430181 0.070987
Si Si5 0.844654 0.236060 0.578070
Si Si6 0.160447 0.569819 0.429013
Si Si7 0.745829 0.346294 0.920865
Si Si8 0.245829 0.846294 0.079136
O O1 0.817731 0.817082 0.978887
O O2 0.728606 0.905325 0.028584
O O3 0.784509 0.851516 0.249999
O O4 0.709961 0.793941 0.078457
O O5 0.841333 0.564200 0.750000
O O6 0.888648 0.606850 0.499301
O O7 0.841650 0.496568 0.502507
O O8 0.271394 0.094675 0.471415
O O9 0.388648 0.106850 0.500698
O O10 0.341650 0.996568 0.497494
O O11 0.845795 0.433069 0.250000
O O12 0.776564 0.396849 0.025196
O O13 0.817082 0.182269 0.478889
O O14 0.793941 0.290039 0.578458
O O15 0.223436 0.603150 0.474805
O O16 0.741451 0.368410 0.750001
#
# Coordination Sequence:
#
# PCOD9542697 Si02
#       8
#     8   8   8   8   8   8   8   8
#     4   8  15  27  44  64  84 108 140 180 222 263
#     4  10  20  34  48  63  87 119 153 186 223 262
#     4  10  20  34  48  63  87 119 153 186 223 262
#     4  11  21  32  46  65  89 117 152 188 221 259
#     4   8  15  27  44  64  84 108 140 180 222 263
#     4  11  21  32  46  65  89 117 152 188 221 259
#     4   9  16  27  44  64  86 112 141 176 221 266
#     4   9  16  27  44  64  86 112 141 176 221 266
#
# _framework density 14.895092
#
# number of rings (size 3 to 8) (size 9 to 14) (size 15 to 20)
#    0.000    2.500    0.000    5.250    0.000    7.500 
#    0.000    2.500    0.000    0.000    0.000    0.000 
#    0.000    1.000    0.000   10.500    0.000    5.000 
#
# Total GULP energy -178273.770257 kJ/mol
# GULP energy per Si atom -5571.055321 kJ/mol
# Density = 1.486119 g / cm^3
# Si number density = 14.895092 Si / 1000 Ang^3
#
#
#
# Elastic Constant Matrix: (Units=GPa)
#
#
# Indices 1 2 3 4 5 6 
#
# 1 58.5099 61.6658 44.1696 0.0000 0.0000 0.5382
# 2 61.6658 58.5099 44.1696 0.0000 0.0000 -0.5382
# 3 44.1696 44.1696 97.2511 0.0000 0.0000 0.0000
# 4 0.0000 0.0000 0.0000 21.5520 0.0000 0.0000
# 5 0.0000 0.0000 0.0000 0.0000 21.5520 0.0000
# 6 0.5382 -0.5382 0.0000 0.0000 0.0000 14.1761
#
#
#
# Elastic Compliance Matrix: (Units=1/GPa)
#
#
# Indices 1 2 3 4 5 6 
#
# 1 -0.150160 0.162651 -0.005673 0.000000 0.000000 0.011876
# 2 0.162651 -0.150160 -0.005673 0.000000 0.000000 -0.011876
# 3 -0.005673 -0.005673 0.015436 0.000000 0.000000 0.000000
# 4 0.000000 0.000000 0.000000 0.046399 0.000000 0.000000
# 5 0.000000 0.000000 0.000000 0.000000 0.046399 0.000000
# 6 0.011876 -0.011876 0.000000 0.000000 0.000000 0.069640
#
#
# Mechanical properties :
#
#
# Convention : Reuss Voigt Hill
#
# Bulk Modulus (GPa) = 56.41550 57.14232 56.77891
# Shear Modulus (GPa) = -11.92904 15.74042 1.90569
#
# Velocity S-wave (km/s) = -2.83304 3.25430 1.13234
# Velocity P-wave (km/s) = 5.22073 7.25032 6.31756
#
# Compressibility (1/GPa) = 0.01772562
#
# Stress axis : x y z
#
# Youngs Moduli (GPa) = -6.65958 -6.65958 64.78280
#
# Poissons Ratio (x) = 1.08319 0.36754
# Poissons Ratio (y) = 1.08319 0.36754
# Poissons Ratio (z) = -0.03778 -0.03778
#
# Static dielectric constant tensor:
#      x y z
#    x 1.486810 0.000000 0.000000 
#    y 0.000000 1.486810 0.000000 
#    z 0.000000 0.000000 1.500630 
# 
# From -- ./inp_files/1250.got.cif
#   From: 2010.05.17/outbox.cif.g08.bks.cpg/sg82_1_cif.got.tgz:1250.got - 2010.06.03 18:52:26.
