data_PCOD9542395
_publ_section_title
;
Structure prediction by ZEFSAII (Michael W. Deem and Ramdas Pophale) SiO2 
 PCOD9542395
Probable space group: P -4
;
_chemical_formula_sum "Si O2"
_cell_formula_units_Z 24
_cell_length_a 8.357276
_cell_length_b 8.357276
_cell_length_c 14.761540
_cell_angle_alpha 90.000000
_cell_angle_beta 90.000000
_cell_angle_gamma 90.000000
_cell_volume 1031.005917
_symmetry_space_group_name_H-M "P -4"
_symmetry_group_IT_number 81
_symmetry_cell_setting 'tetragonal'
loop_
_space_group_symop_operation_xyz
x,y,z
y,-x,-z
-x,-y,z
-y,x,-z
loop_
_atom_site_type_symbol
_atom_site_label
_atom_site_fract_x
_atom_site_fract_y
_atom_site_fract_z
Si Si1 0.128436 0.221875 0.311966
Si Si2 0.624638 0.276990 0.531421
Si Si3 0.129157 0.222688 0.629079
Si Si4 0.719544 0.367502 0.030114
Si Si5 0.131228 0.724229 0.859833
Si Si6 0.778714 0.626256 0.801075
O O1 0.222797 0.361229 0.364404
O O2 0.140102 0.210320 0.202909
O O3 0.947405 0.206502 0.345858
O O4 0.212831 0.056931 0.345098
O O5 0.445618 0.292929 0.493705
O O6 0.722721 0.148176 0.473092
O O7 0.219543 0.347447 0.694497
O O8 0.715893 0.351462 0.137979
O O9 0.552655 0.288959 0.996511
O O10 0.848600 0.278578 0.967883
O O11 0.215639 0.560763 0.824262
O O12 0.945493 0.702823 0.836391
#
# Coordination Sequence:
#
# PCOD9542395 Si02
#       6
#     4   4   4   4   4   4
#     4  10  21  37  57  81 108 139 176 218 265 316
#     4  11  24  39  56  80 108 139 176 217 262 314
#     4  10  21  37  57  81 108 139 176 218 265 316
#     4   9  18  32  50  73 102 136 174 217 262 307
#     4   9  18  33  52  74 103 139 175 213 261 314
#     4   9  18  33  52  74 103 139 175 213 261 314
#
# _framework density 23.278234999999999
#
# number of rings (size 3 to 8) (size 9 to 14) (size 15 to 20)
#    0.000    2.333    0.000    2.000    0.000    8.000 
#    0.000    3.333    0.000    0.000    0.000    0.000 
#    0.000    0.000    0.000    0.000    0.000    0.000 
#
# Total GULP energy -134036.546410 kJ/mol
# GULP energy per Si atom -5584.856100 kJ/mol
# Density = 2.322525 g / cm^3
# Si number density = 23.278235 Si / 1000 Ang^3
#
#
#
# Elastic Constant Matrix: (Units=GPa)
#
#
# Indices 1 2 3 4 5 6 
#
# 1 9.2013 8.9469 -6.8420 0.0000 0.0000 -4.7010
# 2 8.9469 9.2013 -6.8420 0.0000 0.0000 4.7010
# 3 -6.8420 -6.8420 43.2957 0.0000 0.0000 0.0000
# 4 0.0000 0.0000 0.0000 27.0097 0.0000 0.0000
# 5 0.0000 0.0000 0.0000 0.0000 27.0097 0.0000
# 6 -4.7010 4.7010 0.0000 0.0000 0.0000 15.9633
#
#
#
# Elastic Compliance Matrix: (Units=1/GPa)
#
#
# Indices 1 2 3 4 5 6 
#
# 1 -0.167575 0.230131 0.009886 0.000000 0.000000 -0.117119
# 2 0.230131 -0.167575 0.009886 0.000000 0.000000 0.117119
# 3 0.009886 0.009886 0.026221 0.000000 0.000000 0.000000
# 4 0.000000 0.000000 0.000000 0.037024 0.000000 0.000000
# 5 0.000000 0.000000 0.000000 0.000000 0.037024 0.000000
# 6 -0.117119 0.117119 0.000000 0.000000 0.000000 -0.006336
#
#
# Mechanical properties :
#
#
# Convention : Reuss Voigt Hill
#
# Bulk Modulus (GPa) = 5.23900 5.80267 5.52084
# Shear Modulus (GPa) = -7.38122 18.42557 5.52218
#
# Velocity S-wave (km/s) = -1.78262 2.81648 1.54188
# Velocity P-wave (km/s) = 1.40766 3.61592 2.35514
#
# Compressibility (1/GPa) = 0.19087597
#
# Stress axis : x y z
#
# Youngs Moduli (GPa) = -5.96749 -5.96749 38.13673
#
# Poissons Ratio (x) = 1.37330 -0.37701
# Poissons Ratio (y) = 1.37330 -0.37701
# Poissons Ratio (z) = 0.05899 0.05899
#
# Static dielectric constant tensor:
#      x y z
#    x 1.878070 0.000000 0.000000 
#    y 0.000000 1.878070 0.000000 
#    z 0.000000 0.000000 1.923450 
# 
# From -- ./inp_files/1606.got.cif
#   From: 2010.05.17/outbox.cif.g08.bks.cpg/sg81_cif.got.tgz:1606.got - 2010.06.03 18:51:07.
