data_PCOD9542388
_publ_section_title
;
Structure prediction by ZEFSAII (Michael W. Deem and Ramdas Pophale) SiO2 
 PCOD9542388
Probable space group: P -4
;
_chemical_formula_sum "Si O2"
_cell_formula_units_Z 23
_cell_length_a 11.030307
_cell_length_b 11.030307
_cell_length_c 8.557545
_cell_angle_alpha 90.000000
_cell_angle_beta 90.000000
_cell_angle_gamma 90.000000
_cell_volume 1041.176583
_symmetry_space_group_name_H-M "P -4"
_symmetry_group_IT_number 81
_symmetry_cell_setting 'tetragonal'
loop_
_space_group_symop_operation_xyz
x,y,z
y,-x,-z
-x,-y,z
-y,x,-z
loop_
_atom_site_type_symbol
_atom_site_label
_atom_site_fract_x
_atom_site_fract_y
_atom_site_fract_z
Si Si1 0.500000 0.500000 0.500000
Si Si2 0.772180 0.043347 0.833578
Si Si3 0.742992 0.779080 0.969515
Si Si4 0.500000 0.500000 0.000000
Si Si5 0.000000 0.000000 0.000000
Si Si6 0.101666 0.597539 0.743803
Si Si7 0.200650 0.996844 0.496288
Si Si8 0.322608 0.439764 0.748890
O O1 0.416897 0.419701 0.610854
O O2 0.713899 0.139471 0.950936
O O3 0.913077 0.070373 0.880039
O O4 0.739296 0.056017 0.654168
O O5 0.763265 0.903244 0.875115
O O6 0.663426 0.831374 0.112417
O O7 0.699946 0.683111 0.842091
O O8 0.389075 0.520852 0.882675
O O9 0.044246 0.699848 0.628002
O O10 0.208191 0.510448 0.678847
O O11 0.000000 0.500000 0.792965
O O12 0.111638 0.107906 0.549659
#
# Coordination Sequence:
#
# PCOD9542388 Si02
#       8
#     1   4   4   1   1   4   4   4
#     4  10  28  46  76 106 128 194 264 306 392 454
#     4  10  21  37  68 100 136 184 232 284 363 448
#     4  11  23  44  71 104 142 188 243 306 371 454
#     4  10  20  46  72  94 120 206 252 286 364 458
#     4   8  16  32  62 100 128 176 238 256 328 460
#     4  12  27  44  69 109 149 190 250 319 373 450
#     4  11  24  42  69 105 153 195 235 301 394 459
#     4  11  24  47  73  98 142 188 252 318 375 447
#
# _framework density 22.090391
#
# number of rings (size 3 to 8) (size 9 to 14) (size 15 to 20)
#    0.000    1.217    3.478    2.087    9.739    0.000 
#    0.000    2.609    0.000    0.000    0.000    0.000 
#    0.000    0.000    0.000    0.000    0.000    0.000 
#
# Total GULP energy -128121.509002 kJ/mol
# GULP energy per Si atom -5570.500391 kJ/mol
# Density = 2.204011 g / cm^3
# Si number density = 22.090391 Si / 1000 Ang^3
#
#
#
# Elastic Constant Matrix: (Units=GPa)
#
#
# Indices 1 2 3 4 5 6 
#
# 1 94.5367 48.0681 53.6460 0.0000 0.0000 -2.7291
# 2 48.0681 94.5367 53.6460 0.0000 0.0000 2.7291
# 3 53.6460 53.6460 131.5164 0.0000 0.0000 0.0000
# 4 0.0000 0.0000 0.0000 23.1973 0.0000 0.0000
# 5 0.0000 0.0000 0.0000 0.0000 23.1973 0.0000
# 6 -2.7291 2.7291 0.0000 0.0000 0.0000 26.7536
#
#
#
# Elastic Compliance Matrix: (Units=1/GPa)
#
#
# Indices 1 2 3 4 5 6 
#
# 1 0.015949 -0.005832 -0.004127 0.000000 0.000000 0.002222
# 2 -0.005832 0.015949 -0.004127 0.000000 0.000000 -0.002222
# 3 -0.004127 -0.004127 0.010970 0.000000 0.000000 0.000000
# 4 0.000000 0.000000 0.000000 0.043108 0.000000 0.000000
# 5 0.000000 0.000000 0.000000 0.000000 0.043108 0.000000
# 6 0.002222 -0.002222 0.000000 0.000000 0.000000 0.037831
#
#
# Mechanical properties :
#
#
# Convention : Reuss Voigt Hill
#
# Bulk Modulus (GPa) = 68.03896 70.14557 69.09227
# Shear Modulus (GPa) = 25.00159 25.64496 25.32327
#
# Velocity S-wave (km/s) = 3.36785 3.41091 3.38945
# Velocity P-wave (km/s) = 6.78162 6.88006 6.83102
#
# Compressibility (1/GPa) = 0.01469746
#
# Stress axis : x y z
#
# Youngs Moduli (GPa) = 62.69935 62.69935 91.15456
#
# Poissons Ratio (x) = 0.36565 0.37619
# Poissons Ratio (y) = 0.36565 0.37619
# Poissons Ratio (z) = 0.25875 0.25875
#
# Static dielectric constant tensor:
#      x y z
#    x 1.900320 0.000000 0.000000 
#    y 0.000000 1.900320 0.000000 
#    z 0.000000 0.000000 1.824540 
# 
# From -- ./inp_files/926.got.cif
#   From: 2010.05.17/outbox.cif.g08.bks.cpg/sg81_cif.got.tgz:926.got - 2010.06.03 18:51:07.
