data_PCOD9542623
_publ_section_title
;
Structure prediction by ZEFSAII (Michael W. Deem and Ramdas Pophale) SiO2 
 PCOD9542623
Probable space group: I -4 
;
_chemical_formula_sum "Si O2"
_cell_formula_units_Z 56
_cell_length_a 22.604808
_cell_length_b 22.604808
_cell_length_c 5.438967
_cell_angle_alpha 90.000000
_cell_angle_beta 90.000000
_cell_angle_gamma 90.000000
_cell_volume 2779.188916
_symmetry_space_group_name_H-M "I -4 "
_symmetry_group_IT_number 82
_symmetry_cell_setting 'tetragonal'
loop_
_space_group_symop_operation_xyz
x,y,z
y,-x,-z
-x,-y,z
-y,x,-z
1/2+x,1/2+y,1/2+z
1/2+y,1/2-x,1/2-z
1/2-x,1/2-y,1/2+z
1/2-y,1/2+x,1/2-z
loop_
_atom_site_type_symbol
_atom_site_label
_atom_site_fract_x
_atom_site_fract_y
_atom_site_fract_z
Si Si1 0.301577 0.728184 0.315365
Si Si2 0.807957 0.188505 0.312589
Si Si3 0.379842 0.206233 0.695376
Si Si4 0.247319 0.930430 0.301138
Si Si5 0.487098 0.904628 0.298438
Si Si6 0.215062 0.452415 0.888690
Si Si7 0.324857 0.085456 0.885637
O O1 0.260875 0.786751 0.316559
O O2 0.333837 0.718039 0.570898
O O3 0.252420 0.674852 0.319221
O O4 0.334387 0.714599 0.062333
O O5 0.805377 0.118056 0.291533
O O6 0.413612 0.212241 0.435763
O O7 0.354446 0.142660 0.764217
O O8 0.417685 0.226097 0.929717
O O9 0.298469 0.093863 0.164558
O O10 0.236558 0.000465 0.296503
O O11 0.548706 0.938777 0.301634
O O12 0.488336 0.847502 0.125490
O O13 0.462695 0.876407 0.552058
O O14 0.219259 0.436223 0.173144
#
# Coordination Sequence:
#
# PCOD9542623 Si02
#       7
#     8   8   8   8   8   8   8
#     4   8  14  24  38  58  77  89 103 127 164 216
#     4   8  14  24  38  58  77  89 103 127 164 216
#     4  10  18  28  44  57  70  91 113 140 182 223
#     4  10  18  28  44  57  70  91 113 140 182 224
#     4   9  20  32  40  48  60  82 112 153 193 218
#     4  10  21  31  41  52  67  86 116 150 181 219
#     4  10  21  31  41  52  67  86 116 151 180 220
#
# _framework density 20.149763
#
# number of rings (size 3 to 8) (size 9 to 14) (size 15 to 20)
#    0.857    1.857    0.000    2.571    2.000    1.143 
#    0.000    1.429    0.000    0.000    0.000    0.000 
#    0.000    0.000    0.000    0.000    0.000    0.000 
#
# Total GULP energy -155966.773197 kJ/mol
# GULP energy per Si atom -5570.241900 kJ/mol
# Density = 2.010390 g / cm^3
# Si number density = 20.149763 Si / 1000 Ang^3
#
#
#
# Elastic Constant Matrix: (Units=GPa)
#
#
# Indices 1 2 3 4 5 6 
#
# 1 25.9517 8.8160 17.1048 0.0000 0.0000 -8.2437
# 2 8.8160 25.9517 17.1048 0.0000 0.0000 8.2437
# 3 17.1048 17.1048 178.8109 0.0000 0.0000 0.0000
# 4 0.0000 0.0000 0.0000 24.7571 0.0000 0.0000
# 5 0.0000 0.0000 0.0000 0.0000 24.7571 0.0000
# 6 -8.2437 8.2437 0.0000 0.0000 0.0000 21.3810
#
#
#
# Elastic Compliance Matrix: (Units=1/GPa)
#
#
# Indices 1 2 3 4 5 6 
#
# 1 0.062263 -0.030512 -0.003037 0.000000 0.000000 0.035770
# 2 -0.030512 0.062263 -0.003037 0.000000 0.000000 -0.035770
# 3 -0.003037 -0.003037 0.006174 0.000000 0.000000 0.000000
# 4 0.000000 0.000000 0.000000 0.040392 0.000000 0.000000
# 5 0.000000 0.000000 0.000000 0.000000 0.040392 0.000000
# 6 0.035770 -0.035770 0.000000 0.000000 0.000000 0.074353
#
#
# Mechanical properties :
#
#
# Convention : Reuss Voigt Hill
#
# Bulk Modulus (GPa) = 17.38336 35.19618 26.28977
# Shear Modulus (GPa) = 13.22106 26.69164 19.95635
#
# Velocity S-wave (km/s) = 2.56430 3.64354 3.15048
# Velocity P-wave (km/s) = 4.17293 5.93344 5.12928
#
# Compressibility (1/GPa) = 0.05752628
#
# Stress axis : x y z
#
# Youngs Moduli (GPa) = 16.06103 16.06103 161.98059
#
# Poissons Ratio (x) = 0.49005 0.49198
# Poissons Ratio (y) = 0.49005 0.49198
# Poissons Ratio (z) = 0.04878 0.04878
#
# Static dielectric constant tensor:
#      x y z
#    x 1.769160 0.000000 0.000000 
#    y 0.000000 1.769160 0.000000 
#    z 0.000000 0.000000 1.823350 
# 
# From -- ./inp_files/457.got.cif
#   From: 2010.05.17/outbox.cif.g08.bks.cpg/sg82_1_cif.got.tgz:457.got - 2010.06.03 18:52:26.
