data_PCOD9542658
_publ_section_title
;
Structure prediction by ZEFSAII (Michael W. Deem and Ramdas Pophale) SiO2 
 PCOD9542658
Probable space group: I -4 
;
_chemical_formula_sum "Si O2"
_cell_formula_units_Z 42
_cell_length_a 11.342852
_cell_length_b 11.342852
_cell_length_c 17.843401
_cell_angle_alpha 90.000000
_cell_angle_beta 90.000000
_cell_angle_gamma 90.000000
_cell_volume 2295.737174
_symmetry_space_group_name_H-M "I -4 "
_symmetry_group_IT_number 82
_symmetry_cell_setting 'tetragonal'
loop_
_space_group_symop_operation_xyz
x,y,z
y,-x,-z
-x,-y,z
-y,x,-z
1/2+x,1/2+y,1/2+z
1/2+y,1/2-x,1/2-z
1/2-x,1/2-y,1/2+z
1/2-y,1/2+x,1/2-z
loop_
_atom_site_type_symbol
_atom_site_label
_atom_site_fract_x
_atom_site_fract_y
_atom_site_fract_z
Si Si1 0.915573 0.100155 0.691513
Si Si2 0.747737 0.010616 0.823590
Si Si3 0.500000 0.000000 0.750000
Si Si4 0.845307 0.107103 0.976879
Si Si5 0.746700 0.219897 0.113688
Si Si6 0.974506 0.678229 0.772082
O O1 0.829494 0.041496 0.753027
O O2 0.837077 0.171357 0.632578
O O3 0.993211 0.197806 0.735344
O O4 0.000000 0.000000 0.659644
O O5 0.612946 0.033794 0.800313
O O6 0.795586 0.084830 0.894449
O O7 0.759294 0.874292 0.848092
O O8 0.768115 0.194121 0.026935
O O9 0.980573 0.150412 0.980003
O O10 0.694226 0.104231 0.154486
O O11 0.893792 0.595951 0.718259
#
# Coordination Sequence:
#
# PCOD9542658 Si02
#       6
#     8   8   2   8   8   8
#     4  11  20  32  57  88 122 157 198 247 304 361
#     4  11  21  36  57  87 122 159 199 252 298 362
#     4  12  24  40  56  88 120 160 210 236 304 368
#     4   9  19  34  59  91 121 153 195 256 311 350
#     4  10  19  35  56  89 122 151 201 248 304 361
#     4   9  18  31  50  80 118 150 193 246 294 346
#
# _framework density 18.294777
#
# number of rings (size 3 to 8) (size 9 to 14) (size 15 to 20)
#    0.000    1.905    3.810    1.143    2.667    0.000 
#    0.000    3.810    0.000    2.286    0.000    2.667 
#    0.000    0.000    0.000    0.000    0.000    0.000 
#
# Total GULP energy -117173.802152 kJ/mol
# GULP energy per Si atom -5579.704864 kJ/mol
# Density = 1.825314 g / cm^3
# Si number density = 18.294777 Si / 1000 Ang^3
#
#
#
# Elastic Constant Matrix: (Units=GPa)
#
#
# Indices 1 2 3 4 5 6 
#
# 1 82.6096 36.7291 29.9526 0.0000 0.0000 -2.7337
# 2 36.7291 82.6096 29.9526 0.0000 0.0000 2.7337
# 3 29.9526 29.9526 64.8775 0.0000 0.0000 0.0000
# 4 0.0000 0.0000 0.0000 20.0427 0.0000 0.0000
# 5 0.0000 0.0000 0.0000 0.0000 20.0427 0.0000
# 6 -2.7337 2.7337 0.0000 0.0000 0.0000 31.6592
#
#
#
# Elastic Compliance Matrix: (Units=1/GPa)
#
#
# Indices 1 2 3 4 5 6 
#
# 1 0.016465 -0.005558 -0.005036 0.000000 0.000000 0.001902
# 2 -0.005558 0.016465 -0.005036 0.000000 0.000000 -0.001902
# 3 -0.005036 -0.005036 0.020063 0.000000 0.000000 0.000000
# 4 0.000000 0.000000 0.000000 0.049894 0.000000 0.000000
# 5 0.000000 0.000000 0.000000 0.000000 0.049893 0.000000
# 6 0.001902 -0.001902 0.000000 0.000000 0.000000 0.031915
#
#
# Mechanical properties :
#
#
# Convention : Reuss Voigt Hill
#
# Bulk Modulus (GPa) = 46.00811 47.04059 46.52435
# Shear Modulus (GPa) = 22.40166 23.24641 22.82404
#
# Velocity S-wave (km/s) = 3.50306 3.56850 3.53593
# Velocity P-wave (km/s) = 6.44707 6.53814 6.49277
#
# Compressibility (1/GPa) = 0.02173530
#
# Stress axis : x y z
#
# Youngs Moduli (GPa) = 60.73545 60.73545 49.84205
#
# Poissons Ratio (x) = 0.33754 0.25099
# Poissons Ratio (y) = 0.33754 0.25099
# Poissons Ratio (z) = 0.30584 0.30584
#
# Static dielectric constant tensor:
#      x y z
#    x 1.642620 0.000000 0.000000 
#    y 0.000000 1.642620 0.000000 
#    z 0.000000 0.000000 1.592940 
# 
# From -- ./inp_files/2576.got.cif
#   From: 2010.05.17/outbox.cif.g08.bks.cpg/sg82_2_cif.got.tgz:2576.got - 2010.06.03 18:52:26.
