data_PCOD9542708
_publ_section_title
;
Structure prediction by ZEFSAII (Michael W. Deem and Ramdas Pophale) SiO2 
 PCOD9542708
Probable space group: I -4 
;
_chemical_formula_sum "Si O2"
_cell_formula_units_Z 40
_cell_length_a 7.282322
_cell_length_b 7.282322
_cell_length_c 28.794669
_cell_angle_alpha 90.000000
_cell_angle_beta 90.000000
_cell_angle_gamma 90.000000
_cell_volume 1527.045040
_symmetry_space_group_name_H-M "I -4 "
_symmetry_group_IT_number 82
_symmetry_cell_setting 'tetragonal'
loop_
_space_group_symop_operation_xyz
x,y,z
y,-x,-z
-x,-y,z
-y,x,-z
1/2+x,1/2+y,1/2+z
1/2+y,1/2-x,1/2-z
1/2-x,1/2-y,1/2+z
1/2-y,1/2+x,1/2-z
loop_
_atom_site_type_symbol
_atom_site_label
_atom_site_fract_x
_atom_site_fract_y
_atom_site_fract_z
Si Si1 0.500000 0.000000 0.588629
Si Si2 0.150860 0.726608 0.854151
Si Si3 0.280994 0.124247 0.505124
Si Si4 0.747220 0.327359 0.756138
Si Si5 0.357218 0.745578 0.658558
Si Si6 0.000000 0.500000 0.928032
O O1 0.396839 0.135780 0.552418
O O2 0.656876 0.085803 0.622882
O O3 0.283155 0.677359 0.811168
O O4 0.926889 0.719046 0.845176
O O5 0.159498 0.595339 0.897836
O O6 0.183082 0.941761 0.857732
O O7 0.091895 0.229670 0.500000
O O8 0.408947 0.155572 0.460444
O O9 0.749153 0.545118 0.746449
O O10 0.638523 0.226307 0.714680
#
# Coordination Sequence:
#
# PCOD9542708 Si02
#       6
#     4   8   8   8   8   4
#     4  11  22  38  59  86 122 158 197 257 314 358
#     4  10  20  35  56  83 113 152 201 243 298 371
#     4  10  22  39  59  87 122 158 203 254 306 366
#     4   9  18  35  57  80 110 150 196 246 296 358
#     4  10  21  35  54  83 116 150 196 250 304 358
#     4  11  20  36  63  86 116 164 205 249 306 366
#
# _framework density 26.194382000000001
#
# number of rings (size 3 to 8) (size 9 to 14) (size 15 to 20)
#    0.000    2.000    0.000    4.800    0.000    1.600 
#    0.000    0.000    0.000   12.000    0.000    0.000 
#    0.000    0.000    0.000    0.000    0.000    0.000 
#
# Total GULP energy -111532.856223 kJ/mol
# GULP energy per Si atom -5576.642811 kJ/mol
# Density = 2.613476 g / cm^3
# Si number density = 26.194382 Si / 1000 Ang^3
#
#
#
# Elastic Constant Matrix: (Units=GPa)
#
#
# Indices 1 2 3 4 5 6 
#
# 1 48.1702 3.0330 40.8575 0.0000 0.0000 -11.3790
# 2 3.0330 48.1702 40.8575 0.0000 0.0000 11.3790
# 3 40.8575 40.8575 213.0534 0.0000 0.0000 0.0000
# 4 0.0000 0.0000 0.0000 44.4248 0.0000 0.0000
# 5 0.0000 0.0000 0.0000 0.0000 44.4248 0.0000
# 6 -11.3790 11.3790 0.0000 0.0000 0.0000 37.9020
#
#
#
# Elastic Compliance Matrix: (Units=1/GPa)
#
#
# Indices 1 2 3 4 5 6 
#
# 1 0.027125 0.001018 -0.005397 0.000000 0.000000 0.007838
# 2 0.001018 0.027125 -0.005397 0.000000 0.000000 -0.007838
# 3 -0.005397 -0.005397 0.006764 0.000000 0.000000 0.000000
# 4 0.000000 0.000000 0.000000 0.022510 0.000000 0.000000
# 5 0.000000 0.000000 0.000000 0.000000 0.022510 0.000000
# 6 0.007838 -0.007838 0.000000 0.000000 0.000000 0.031090
#
#
# Mechanical properties :
#
#
# Convention : Reuss Voigt Hill
#
# Bulk Modulus (GPa) = 24.11863 53.20999 38.66431
# Shear Modulus (GPa) = 29.32636 40.32672 34.82654
#
# Velocity S-wave (km/s) = 3.34962 3.92793 3.65024
# Velocity P-wave (km/s) = 4.91808 6.39758 5.70599
#
# Compressibility (1/GPa) = 0.04146173
#
# Stress axis : x y z
#
# Youngs Moduli (GPa) = 36.86666 36.86666 147.84919
#
# Poissons Ratio (x) = -0.03754 0.79795
# Poissons Ratio (y) = -0.03754 0.79795
# Poissons Ratio (z) = 0.19897 0.19897
#
# Static dielectric constant tensor:
#      x y z
#    x 2.164350 0.000000 0.000000 
#    y 0.000000 2.164350 0.000000 
#    z 0.000000 0.000000 2.236070 
# 
# From -- ./inp_files/3719.got.cif
#   From: 2010.05.17/outbox.cif.g08.bks.cpg/sg82_2_cif.got.tgz:3719.got - 2010.06.03 18:52:26.
