data_PCOD9542609
_publ_section_title
;
Structure prediction by ZEFSAII (Michael W. Deem and Ramdas Pophale) SiO2 
 PCOD9542609
Probable space group: I -4 
;
_chemical_formula_sum "Si O2"
_cell_formula_units_Z 32
_cell_length_a 12.815557
_cell_length_b 12.815557
_cell_length_c 8.244309
_cell_angle_alpha 90.000000
_cell_angle_beta 90.000000
_cell_angle_gamma 90.000000
_cell_volume 1354.032954
_symmetry_space_group_name_H-M "I -4 "
_symmetry_group_IT_number 82
_symmetry_cell_setting 'tetragonal'
loop_
_space_group_symop_operation_xyz
x,y,z
y,-x,-z
-x,-y,z
-y,x,-z
1/2+x,1/2+y,1/2+z
1/2+y,1/2-x,1/2-z
1/2-x,1/2-y,1/2+z
1/2-y,1/2+x,1/2-z
loop_
_atom_site_type_symbol
_atom_site_label
_atom_site_fract_x
_atom_site_fract_y
_atom_site_fract_z
Si Si1 0.416350 0.595498 0.312690
Si Si2 0.733307 0.967399 0.735010
Si Si3 0.565700 0.904268 0.481361
Si Si4 0.298027 0.613262 0.661038
O O1 0.500000 0.500000 0.318301
O O2 0.320597 0.556385 0.204616
O O3 0.360083 0.613957 0.486405
O O4 0.496159 0.686340 0.268682
O O5 0.648902 0.957733 0.598339
O O6 0.796438 0.858553 0.745393
O O7 0.671849 0.995623 0.901535
O O8 0.624227 0.824440 0.363116
O O9 0.500000 0.000000 0.415772
#
# Coordination Sequence:
#
# PCOD9542609 Si02
#       4
#     8   8   8   8
#     4   9  12  24  45  74  93 120 171 221 233 280
#     4  10  17  28  49  79 106 128 178 221 255 295
#     4  11  19  30  48  84 107 133 168 225 261 304
#     4  10  16  28  50  75 103 139 175 213 255 307
#
# _framework density 23.633103999999999
#
# number of rings (size 3 to 8) (size 9 to 14) (size 15 to 20)
#    0.000    2.000   10.000    0.000    0.000    0.000 
#    0.000    0.000    0.000   15.000    0.000    1.750 
#    0.000    0.000    0.000    0.000    0.000    0.000 
#
# Total GULP energy -89277.448835 kJ/mol
# GULP energy per Si atom -5579.840552 kJ/mol
# Density = 2.357931 g / cm^3
# Si number density = 23.633104 Si / 1000 Ang^3
#
#
#
# Elastic Constant Matrix: (Units=GPa)
#
#
# Indices 1 2 3 4 5 6 
#
# 1 83.3483 3.2729 32.5326 0.0000 0.0000 12.1910
# 2 3.2729 83.3483 32.5326 0.0000 0.0000 -12.1910
# 3 32.5326 32.5326 29.9053 0.0000 0.0000 0.0000
# 4 0.0000 0.0000 0.0000 -0.2622 0.0000 0.0000
# 5 0.0000 0.0000 0.0000 0.0000 -0.2622 0.0000
# 6 12.1910 -12.1910 0.0000 0.0000 0.0000 41.1484
#
#
#
# Elastic Compliance Matrix: (Units=1/GPa)
#
#
# Indices 1 2 3 4 5 6 
#
# 1 0.038429 0.024703 -0.068678 0.000000 0.000000 -0.004067
# 2 0.024703 0.038429 -0.068678 0.000000 0.000000 0.004067
# 3 -0.068678 -0.068678 0.182863 0.000000 0.000000 0.000000
# 4 0.000000 0.000000 0.000000 -3.813462 0.000000 0.000000
# 5 0.000000 0.000000 0.000000 0.000000 -3.813462 0.000000
# 6 -0.004067 0.004067 0.000000 0.000000 0.000000 0.026712
#
#
# Mechanical properties :
#
#
# Convention : Reuss Voigt Hill
#
# Bulk Modulus (GPa) = 29.05838 37.03087 33.04463
# Shear Modulus (GPa) = -0.70386 16.67571 7.98593
#
# Velocity S-wave (km/s) = -0.54633 2.65921 1.84023
# Velocity P-wave (km/s) = 3.45317 5.01314 4.30441
#
# Compressibility (1/GPa) = 0.03441348
#
# Stress axis : x y z
#
# Youngs Moduli (GPa) = 26.02187 26.02187 5.46858
#
# Poissons Ratio (x) = -0.64281 0.37557
# Poissons Ratio (y) = -0.64281 0.37557
# Poissons Ratio (z) = 1.78714 1.78714
#
# Static dielectric constant tensor:
#      x y z
#    x 1.935030 0.000000 0.000000 
#    y 0.000000 1.935030 0.000000 
#    z 0.000000 0.000000 1.921490 
# 
# From -- ./inp_files/1498.got.cif
#   From: 2010.05.17/outbox.cif.g08.bks.cpg/sg82_1_cif.got.tgz:1498.got - 2010.06.03 18:52:26.
