data_PCOD9542628
_publ_section_title
;
Structure prediction by ZEFSAII (Michael W. Deem and Ramdas Pophale) SiO2 
 PCOD9542628
Probable space group: I -4 
;
_chemical_formula_sum "Si O2"
_cell_formula_units_Z 60
_cell_length_a 11.437896
_cell_length_b 11.437896
_cell_length_c 24.588722
_cell_angle_alpha 90.000000
_cell_angle_beta 90.000000
_cell_angle_gamma 90.000000
_cell_volume 3216.830987
_symmetry_space_group_name_H-M "I -4 "
_symmetry_group_IT_number 82
_symmetry_cell_setting 'tetragonal'
loop_
_space_group_symop_operation_xyz
x,y,z
y,-x,-z
-x,-y,z
-y,x,-z
1/2+x,1/2+y,1/2+z
1/2+y,1/2-x,1/2-z
1/2-x,1/2-y,1/2+z
1/2-y,1/2+x,1/2-z
loop_
_atom_site_type_symbol
_atom_site_label
_atom_site_fract_x
_atom_site_fract_y
_atom_site_fract_z
Si Si1 0.861898 0.978329 0.804352
Si Si2 0.136042 0.470615 0.454731
Si Si3 0.500000 0.500000 0.105061
Si Si4 0.338839 0.204145 0.040619
Si Si5 0.213934 0.723044 0.132290
Si Si6 0.223017 0.101411 0.452751
Si Si7 0.213660 0.017829 0.680663
Si Si8 0.662351 0.775047 0.624463
O O1 0.819063 0.864684 0.838025
O O2 0.811478 0.963854 0.743760
O O3 0.805118 0.089447 0.834681
O O4 0.000000 0.000000 0.802180
O O5 0.189987 0.416641 0.509634
O O6 0.154139 0.367291 0.410970
O O7 0.199653 0.580132 0.427608
O O8 0.000000 0.500000 0.460843
O O9 0.561350 0.404601 0.067710
O O10 0.599642 0.548466 0.144712
O O11 0.479862 0.210734 0.039419
O O12 0.278847 0.217808 0.099063
O O13 0.294759 0.315593 0.004768
O O14 0.319993 0.773177 0.096377
O O15 0.258439 0.619141 0.171289
O O16 0.310874 0.103981 0.655859
#
# Coordination Sequence:
#
# PCOD9542628 Si02
#       8
#     8   8   4   8   8   8   8   8
#     4  11  24  42  60  83 123 166 206 251 306 366
#     4  10  19  37  56  83 124 156 190 246 294 356
#     4  10  18  31  58  90 126 142 181 256 320 368
#     4  11  21  35  58  90 121 162 194 245 308 366
#     4   9  21  36  59  88 116 155 195 253 305 360
#     4  10  19  32  57  90 120 151 193 242 313 368
#     4  11  19  38  64  93 113 149 205 262 316 350
#     4  11  23  40  60  89 124 158 209 252 297 373
#
# _framework density 18.651896000000001
#
# number of rings (size 3 to 8) (size 9 to 14) (size 15 to 20)
#    0.000    1.600    3.333    2.400    1.867    0.000 
#    9.600    1.333    0.000    0.000    0.000    0.000 
#    0.000    0.000    0.000    0.000    0.000    0.000 
#
# Total GULP energy -167399.662246 kJ/mol
# GULP energy per Si atom -5579.988742 kJ/mol
# Density = 1.860944 g / cm^3
# Si number density = 18.651896 Si / 1000 Ang^3
#
#
#
# Elastic Constant Matrix: (Units=GPa)
#
#
# Indices 1 2 3 4 5 6 
#
# 1 66.4325 23.5845 33.4858 0.0000 0.0000 3.5715
# 2 23.5845 66.4325 33.4858 0.0000 0.0000 -3.5715
# 3 33.4858 33.4858 91.1249 0.0000 0.0000 0.0000
# 4 0.0000 0.0000 0.0000 17.6433 0.0000 0.0000
# 5 0.0000 0.0000 0.0000 0.0000 17.6433 0.0000
# 6 3.5715 -3.5715 0.0000 0.0000 0.0000 17.6373
#
#
#
# Elastic Compliance Matrix: (Units=1/GPa)
#
#
# Indices 1 2 3 4 5 6 
#
# 1 0.019721 -0.004432 -0.005618 0.000000 0.000000 -0.004891
# 2 -0.004432 0.019721 -0.005618 0.000000 0.000000 0.004891
# 3 -0.005618 -0.005618 0.015103 0.000000 0.000000 0.000000
# 4 0.000000 0.000000 0.000000 0.056679 0.000000 0.000000
# 5 0.000000 0.000000 0.000000 0.000000 0.056679 0.000000
# 6 -0.004891 0.004891 0.000000 0.000000 0.000000 0.058679
#
#
# Mechanical properties :
#
#
# Convention : Reuss Voigt Hill
#
# Bulk Modulus (GPa) = 43.08875 45.01133 44.05004
# Shear Modulus (GPa) = 18.82138 19.48038 19.15088
#
# Velocity S-wave (km/s) = 3.18006 3.23525 3.20777
# Velocity P-wave (km/s) = 6.05272 6.17580 6.11457
#
# Compressibility (1/GPa) = 0.02320791
#
# Stress axis : x y z
#
# Youngs Moduli (GPa) = 50.70656 50.70656 66.21186
#
# Poissons Ratio (x) = 0.22475 0.37199
# Poissons Ratio (y) = 0.22475 0.37199
# Poissons Ratio (z) = 0.28488 0.28488
#
# Static dielectric constant tensor:
#      x y z
#    x 1.657490 0.000000 0.000000 
#    y 0.000000 1.657490 0.000000 
#    z 0.000000 0.000000 1.643720 
# 
# From -- ./inp_files/3180.got.cif
#   From: 2010.05.17/outbox.cif.g08.bks.cpg/sg82_2_cif.got.tgz:3180.got - 2010.06.03 18:52:26.
