data_PCOD9542099
_publ_section_title
;
Structure prediction by ZEFSAII (Michael W. Deem and Ramdas Pophale) SiO2 
 PCOD9542099
Probable space group: I 41
;
_chemical_formula_sum "Si O2"
_cell_formula_units_Z 40
_cell_length_a 8.505046
_cell_length_b 8.505046
_cell_length_c 26.634216
_cell_angle_alpha 90.000000
_cell_angle_beta 90.000000
_cell_angle_gamma 90.000000
_cell_volume 1926.607520
_symmetry_space_group_name_H-M "I 41"
_symmetry_group_IT_number 80
_symmetry_cell_setting 'tetragonal'
loop_
_space_group_symop_operation_xyz
x,y,z
-y,1/2+x,1/4+z
-x,-y,z
y,1/2-x,1/4+z
1/2+x,1/2+y,1/2+z
1/2-y,x,3/4+z
1/2-x,1/2-y,1/2+z
1/2+y,-x,3/4+z
loop_
_atom_site_type_symbol
_atom_site_label
_atom_site_fract_x
_atom_site_fract_y
_atom_site_fract_z
Si Si1 0.424199 0.731020 0.954770
Si Si2 0.065573 0.658588 0.175185
Si Si3 0.660308 0.083781 0.402833
Si Si4 0.637808 0.618847 0.611355
Si Si5 0.065193 0.321592 0.555472
O O1 0.305232 0.588151 0.942678
O O2 0.526700 0.765084 0.905074
O O3 0.303654 0.880846 0.960166
O O4 0.524668 0.732018 0.004441
O O5 0.769690 0.374845 0.146922
O O6 0.939693 0.730198 0.137200
O O7 0.000000 0.500000 0.198929
O O8 0.727027 0.010773 0.351951
O O9 0.500000 0.000000 0.418849
O O10 0.500000 0.500000 0.596079
O O11 0.751039 0.664823 0.566748
O O12 0.000000 0.500000 0.555156
#
# Coordination Sequence:
#
# PCOD9542099 Si02
#       5
#     8   8   8   8   8
#     4   9  22  39  63  98 137 172 236 280 344 425
#     4   9  18  38  64  87 135 175 217 282 353 394
#     4  10  22  41  63  94 140 177 227 296 345 418
#     4  10  19  39  63  98 137 172 224 297 332 421
#     4  12  20  39  70  93 134 185 234 280 364 422
#
# _framework density 20.761883999999998
#
# number of rings (size 3 to 8) (size 9 to 14) (size 15 to 20)
#    1.200    0.800    2.000    3.000    0.000    0.000 
#    3.600    9.000    0.000    0.000    0.000    0.000 
#    0.000    0.000    0.000    0.000    0.000    0.000 
#
# Total GULP energy -111540.932677 kJ/mol
# GULP energy per Si atom -5577.046634 kJ/mol
# Density = 2.071463 g / cm^3
# Si number density = 20.761884 Si / 1000 Ang^3
#
#
#
# Elastic Constant Matrix: (Units=GPa)
#
#
# Indices 1 2 3 4 5 6 
#
# 1 68.6109 63.6387 44.9800 0.0000 0.0000 -4.4625
# 2 63.6387 68.6109 44.9800 0.0000 0.0000 4.4625
# 3 44.9800 44.9800 100.3519 0.0000 0.0000 0.0000
# 4 0.0000 0.0000 0.0000 19.6438 0.0000 0.0000
# 5 0.0000 0.0000 0.0000 0.0000 19.6438 0.0000
# 6 -4.4625 4.4625 0.0000 0.0000 0.0000 43.1204
#
#
#
# Elastic Compliance Matrix: (Units=1/GPa)
#
#
# Indices 1 2 3 4 5 6 
#
# 1 0.128940 -0.118062 -0.004876 0.000000 0.000000 0.025562
# 2 -0.118062 0.128940 -0.004876 0.000000 0.000000 -0.025562
# 3 -0.004876 -0.004876 0.014336 0.000000 0.000000 0.000000
# 4 0.000000 0.000000 0.000000 0.050907 0.000000 0.000000
# 5 0.000000 0.000000 0.000000 0.000000 0.050907 0.000000
# 6 0.025562 -0.025562 0.000000 0.000000 0.000000 0.028482
#
#
# Mechanical properties :
#
#
# Convention : Reuss Voigt Hill
#
# Bulk Modulus (GPa) = 60.28161 60.53012 60.40586
# Shear Modulus (GPa) = 7.53388 22.07992 14.80690
#
# Velocity S-wave (km/s) = 1.90698 3.26465 2.67343
# Velocity P-wave (km/s) = 5.82637 6.59002 6.21992
#
# Compressibility (1/GPa) = 0.01658881
#
# Stress axis : x y z
#
# Youngs Moduli (GPa) = 7.75553 7.75553 69.75522
#
# Poissons Ratio (x) = 0.91563 0.34011
# Poissons Ratio (y) = 0.91563 0.34011
# Poissons Ratio (z) = 0.03781 0.03781
#
# Static dielectric constant tensor:
#      x y z
#    x 1.787350 0.000000 0.000000 
#    y 0.000000 1.787350 0.000000 
#    z 0.000000 0.000000 1.714460 
# 
# From -- ./inp_files/2006.got.cif
#   From: 2010.05.17/outbox.cif.g08.bks.cpg/sg80_cif.got.tgz:2006.got - 2010.06.03 18:49:13.
