data_PCOD9542775
_publ_section_title
;
Structure prediction by ZEFSAII (Michael W. Deem and Ramdas Pophale) SiO2 
 PCOD9542775
Probable space group: I -4 
;
_chemical_formula_sum "Si O2"
_cell_formula_units_Z 38
_cell_length_a 8.216088
_cell_length_b 8.216088
_cell_length_c 25.488883
_cell_angle_alpha 90.000000
_cell_angle_beta 90.000000
_cell_angle_gamma 90.000000
_cell_volume 1720.604159
_symmetry_space_group_name_H-M "I -4 "
_symmetry_group_IT_number 82
_symmetry_cell_setting 'tetragonal'
loop_
_space_group_symop_operation_xyz
x,y,z
y,-x,-z
-x,-y,z
-y,x,-z
1/2+x,1/2+y,1/2+z
1/2+y,1/2-x,1/2-z
1/2-x,1/2-y,1/2+z
1/2-y,1/2+x,1/2-z
loop_
_atom_site_type_symbol
_atom_site_label
_atom_site_fract_x
_atom_site_fract_y
_atom_site_fract_z
Si Si1 0.085050 0.234056 0.523379
Si Si2 0.323738 0.534857 0.310485
Si Si3 0.500000 0.000000 0.250000
Si Si4 0.325740 0.688631 0.197651
Si Si5 0.000000 0.500000 0.041253
Si Si6 0.225169 0.105923 0.623059
O O1 0.107684 0.209484 0.585130
O O2 0.899474 0.188031 0.508967
O O3 0.121844 0.409146 0.498737
O O4 0.500000 0.500000 0.335492
O O5 0.346364 0.587559 0.250721
O O6 0.235661 0.362316 0.310091
O O7 0.220835 0.680037 0.336232
O O8 0.569726 0.146766 0.212112
O O9 0.344924 0.555351 0.151059
O O10 0.137514 0.443098 0.081055
#
# Coordination Sequence:
#
# PCOD9542775 Si02
#       6
#     8   8   2   8   4   8
#     4   9  21  46  69 103 143 186 253 316 379 458
#     4  12  24  44  69 107 153 198 259 311 386 474
#     4  12  28  48  66 116 164 196 254 336 372 456
#     4  12  24  46  72 104 154 203 258 312 389 474
#     4  10  20  44  74 100 142 181 261 316 376 450
#     4  11  23  45  78 108 140 212 250 313 398 458
#
# _framework density 22.085265
#
# number of rings (size 3 to 8) (size 9 to 14) (size 15 to 20)
#    0.000    1.053    6.316    0.000    0.000    0.000 
#   30.316    1.053    0.000    0.000    0.000    0.000 
#    0.000    0.000    0.000    0.000    0.000    0.000 
#
# Total GULP energy -105904.877565 kJ/mol
# GULP energy per Si atom -5573.940924 kJ/mol
# Density = 2.203500 g / cm^3
# Si number density = 22.085265 Si / 1000 Ang^3
#
#
#
# Elastic Constant Matrix: (Units=GPa)
#
#
# Indices 1 2 3 4 5 6 
#
# 1 107.1819 32.7139 55.9889 0.0000 0.0000 -11.9698
# 2 32.7139 107.1819 55.9889 0.0000 0.0000 11.9698
# 3 55.9889 55.9889 142.3261 0.0000 0.0000 0.0000
# 4 0.0000 0.0000 0.0000 -880.3580 0.0004 0.0000
# 5 0.0000 0.0000 0.0000 0.0004 -880.3568 0.0000
# 6 -11.9698 11.9698 0.0000 0.0000 0.0000 26.9830
#
#
#
# Elastic Compliance Matrix: (Units=1/GPa)
#
#
# Indices 1 2 3 4 5 6 
#
# 1 0.013048 -0.002614 -0.004104 0.000000 0.000000 0.006948
# 2 -0.002614 0.013048 -0.004104 0.000000 0.000000 -0.006948
# 3 -0.004104 -0.004104 0.010255 0.000000 0.000000 0.000000
# 4 0.000000 0.000000 0.000000 -0.001136 0.000000 0.000000
# 5 0.000000 0.000000 0.000000 0.000000 -0.001136 0.000000
# 6 0.006948 -0.006948 0.000000 0.000000 0.000000 0.043225
#
#
# Mechanical properties :
#
#
# Convention : Reuss Voigt Hill
#
# Bulk Modulus (GPa) = 68.00514 71.78595 69.89555
# Shear Modulus (GPa) = 48.14571 -332.61317 -142.23373
#
# Velocity S-wave (km/s) = 4.67410 -12.28540 -8.03380
# Velocity P-wave (km/s) = 7.74523 12.98718 7.37151
#
# Compressibility (1/GPa) = 0.01470477
#
# Stress axis : x y z
#
# Youngs Moduli (GPa) = 76.64129 76.64129 97.51046
#
# Poissons Ratio (x) = 0.20037 0.40022
# Poissons Ratio (y) = 0.20037 0.40022
# Poissons Ratio (z) = 0.31456 0.31456
#
# Static dielectric constant tensor:
#      x y z
#    x 5.657760 0.000000 0.000000 
#    y 0.000000 5.657760 0.000000 
#    z 0.000000 0.000000 1.840250 
# 
# From -- ./inp_files/3392.got.cif
#   From: 2010.05.17/outbox.cif.g08.bks.cpg/sg82_2_cif.got.tgz:3392.got - 2010.06.03 18:52:26.
