data_PCOD9542640
_publ_section_title
;
Structure prediction by ZEFSAII (Michael W. Deem and Ramdas Pophale) SiO2 
 PCOD9542640
Probable space group: I -4 
;
_chemical_formula_sum "Si O2"
_cell_formula_units_Z 60
_cell_length_a 11.591793
_cell_length_b 11.591793
_cell_length_c 20.145542
_cell_angle_alpha 90.000000
_cell_angle_beta 90.000000
_cell_angle_gamma 90.000000
_cell_volume 2706.949729
_symmetry_space_group_name_H-M "I -4 "
_symmetry_group_IT_number 82
_symmetry_cell_setting 'tetragonal'
loop_
_space_group_symop_operation_xyz
x,y,z
y,-x,-z
-x,-y,z
-y,x,-z
1/2+x,1/2+y,1/2+z
1/2+y,1/2-x,1/2-z
1/2-x,1/2-y,1/2+z
1/2-y,1/2+x,1/2-z
loop_
_atom_site_type_symbol
_atom_site_label
_atom_site_fract_x
_atom_site_fract_y
_atom_site_fract_z
Si Si1 0.021982 0.863454 0.893135
Si Si2 0.263817 0.812292 0.070345
Si Si3 0.052294 0.771429 0.749924
Si Si4 0.000000 0.000000 0.671299
Si Si5 0.635953 0.010511 0.369286
Si Si6 0.746917 0.752273 0.074918
Si Si7 0.293192 0.184969 0.796790
Si Si8 0.040909 0.747650 0.332087
O O1 0.015811 0.788079 0.825171
O O2 0.152249 0.844487 0.914763
O O3 0.936706 0.795184 0.942429
O O4 0.000000 0.000000 0.884756
O O5 0.394935 0.814951 0.096602
O O6 0.188020 0.769977 0.132777
O O7 0.264722 0.738110 0.003804
O O8 0.190014 0.775840 0.738721
O O9 0.005011 0.885275 0.714267
O O10 0.998260 0.667619 0.708470
O O11 0.873615 0.997074 0.639441
O O12 0.696215 0.125976 0.397171
O O13 0.500000 0.000000 0.379575
O O14 0.786313 0.640058 0.116348
O O15 0.249226 0.095540 0.742100
O O16 0.426664 0.173689 0.818673
#
# Coordination Sequence:
#
# PCOD9542640 Si02
#       8
#     8   8   8   4   8   8   8   8
#     4  12  26  44  74 104 143 190 243 298 356 432
#     4  11  28  46  70 103 146 187 240 296 366 436
#     4  10  20  40  69 107 137 178 228 297 360 416
#     4  10  18  36  70 101 139 174 220 300 348 424
#     4  11  24  48  72 106 145 184 239 306 368 428
#     4  12  27  47  73 103 143 194 240 299 361 443
#     4  10  24  43  69 105 141 180 235 295 352 428
#     4  11  23  45  71 107 139 185 243 289 364 427
#
# _framework density 22.165168000000001
#
# number of rings (size 3 to 8) (size 9 to 14) (size 15 to 20)
#    0.000    1.067    4.667    0.800    5.600    0.267 
#    2.400    0.000    0.000    0.000    0.000    0.000 
#    0.000    0.000    0.000    0.000    0.000    0.000 
#
# Total GULP energy -167576.869868 kJ/mol
# GULP energy per Si atom -5585.895662 kJ/mol
# Density = 2.211472 g / cm^3
# Si number density = 22.165168 Si / 1000 Ang^3
#
#
#
# Elastic Constant Matrix: (Units=GPa)
#
#
# Indices 1 2 3 4 5 6 
#
# 1 92.6175 11.7727 33.0014 0.0000 0.0000 -0.6683
# 2 11.7727 92.6175 33.0014 0.0000 0.0000 0.6683
# 3 33.0014 33.0014 113.3029 0.0000 0.0000 0.0000
# 4 0.0000 0.0000 0.0000 24.8340 0.0000 0.0000
# 5 0.0000 0.0000 0.0000 0.0000 24.8340 0.0000
# 6 -0.6683 0.6683 0.0000 0.0000 0.0000 15.5110
#
#
#
# Elastic Compliance Matrix: (Units=1/GPa)
#
#
# Indices 1 2 3 4 5 6 
#
# 1 0.012060 -0.000318 -0.003420 0.000000 0.000000 0.000533
# 2 -0.000318 0.012060 -0.003420 0.000000 0.000000 -0.000533
# 3 -0.003420 -0.003420 0.010818 0.000000 0.000000 0.000000
# 4 0.000000 0.000000 0.000000 0.040267 0.000000 0.000000
# 5 0.000000 0.000000 0.000000 0.000000 0.040267 0.000000
# 6 0.000533 -0.000533 0.000000 0.000000 0.000000 0.064516
#
#
# Mechanical properties :
#
#
# Convention : Reuss Voigt Hill
#
# Bulk Modulus (GPa) = 48.49242 50.45430 49.47336
# Shear Modulus (GPa) = 24.85345 27.75332 26.30339
#
# Velocity S-wave (km/s) = 3.35219 3.54236 3.44859
# Velocity P-wave (km/s) = 6.07521 6.28835 6.18270
#
# Compressibility (1/GPa) = 0.02062178
#
# Stress axis : x y z
#
# Youngs Moduli (GPa) = 82.91877 82.91877 92.43709
#
# Poissons Ratio (x) = 0.02638 0.31613
# Poissons Ratio (y) = 0.02638 0.31613
# Poissons Ratio (z) = 0.28358 0.28358
#
# Static dielectric constant tensor:
#      x y z
#    x 1.827520 0.000000 0.000000 
#    y 0.000000 1.827520 0.000000 
#    z 0.000000 0.000000 1.826160 
# 
# From -- ./inp_files/3170.got.cif
#   From: 2010.05.17/outbox.cif.g08.bks.cpg/sg82_2_cif.got.tgz:3170.got - 2010.06.03 18:52:26.
