data_PCOD9542057
_publ_section_title
;
Structure prediction by ZEFSAII (Michael W. Deem and Ramdas Pophale) SiO2 
 PCOD9542057
Probable space group: I 41
;
_chemical_formula_sum "Si O2"
_cell_formula_units_Z 48
_cell_length_a 24.793141
_cell_length_b 24.793141
_cell_length_c 5.236990
_cell_angle_alpha 90.000000
_cell_angle_beta 90.000000
_cell_angle_gamma 90.000000
_cell_volume 3219.176918
_symmetry_space_group_name_H-M "I 41"
_symmetry_group_IT_number 80
_symmetry_cell_setting 'tetragonal'
loop_
_space_group_symop_operation_xyz
x,y,z
-y,1/2+x,1/4+z
-x,-y,z
y,1/2-x,1/4+z
1/2+x,1/2+y,1/2+z
1/2-y,x,3/4+z
1/2-x,1/2-y,1/2+z
1/2+y,-x,3/4+z
loop_
_atom_site_type_symbol
_atom_site_label
_atom_site_fract_x
_atom_site_fract_y
_atom_site_fract_z
Si Si1 0.250413 0.332983 0.480200
Si Si2 0.250253 0.399686 0.980767
Si Si3 0.869323 0.578292 0.103736
Si Si4 0.059714 0.526952 0.176865
Si Si5 0.577837 0.869357 0.102647
Si Si6 0.940233 0.026748 0.423585
O O1 0.295874 0.295403 0.605009
O O2 0.231894 0.366443 0.727863
O O3 0.269133 0.366389 0.232681
O O4 0.304958 0.428071 0.883081
O O5 0.195218 0.427309 0.079143
O O6 0.898481 0.520499 0.124227
O O7 0.888713 0.612791 0.350813
O O8 0.892206 0.606783 0.850603
O O9 0.069201 0.554858 0.446656
O O10 0.000000 0.500000 0.206296
O O11 0.054084 0.568530 0.945727
O O12 0.520029 0.898906 0.100401
O O13 0.000000 0.000000 0.454390
#
# Coordination Sequence:
#
# PCOD9542057 Si02
#       6
#     8   8   8   8   8   8
#     4  12  23  38  50  56  78 118 170 206 221 256
#     4  12  25  34  44  70  88 118 150 186 253 268
#     4  12  21  33  50  64  92 115 147 196 228 273
#     4  10  16  30  49  72  82 103 141 189 232 262
#     4  12  21  33  50  64  92 115 147 196 228 273
#     4  10  16  30  49  72  82 103 141 189 232 262
#
# _framework density 14.910645000000001
#
# number of rings (size 3 to 8) (size 9 to 14) (size 15 to 20)
#    0.000    0.667    6.667    7.000    0.000    0.000 
#    0.000    0.000    0.000    0.000    0.000    0.000 
#    0.000    0.000    0.000    0.000    0.000    3.333 
#
# Total GULP energy -133764.408211 kJ/mol
# GULP energy per Si atom -5573.517009 kJ/mol
# Density = 1.487671 g / cm^3
# Si number density = 14.910645 Si / 1000 Ang^3
#
#
#
# Elastic Constant Matrix: (Units=GPa)
#
#
# Indices 1 2 3 4 5 6 
#
# 1 49.9770 37.1334 2.1879 0.0000 0.0000 0.1311
# 2 37.1334 49.9770 2.1879 0.0000 0.0000 -0.1311
# 3 2.1879 2.1879 107.1573 0.0000 0.0000 0.0000
# 4 0.0000 0.0000 0.0000 20.4494 0.0000 0.0000
# 5 0.0000 0.0000 0.0000 0.0000 20.4494 0.0000
# 6 0.1311 -0.1311 0.0000 0.0000 0.0000 14.5903
#
#
#
# Elastic Compliance Matrix: (Units=1/GPa)
#
#
# Indices 1 2 3 4 5 6 
#
# 1 0.044683 -0.033191 -0.000235 0.000000 0.000000 -0.000700
# 2 -0.033191 0.044683 -0.000235 0.000000 0.000000 0.000700
# 3 -0.000235 -0.000235 0.009342 0.000000 0.000000 0.000000
# 4 0.000000 0.000000 0.000000 0.048901 0.000000 0.000000
# 5 0.000000 0.000000 0.000000 0.000000 0.048901 0.000000
# 6 -0.000700 0.000700 0.000000 0.000000 0.000000 0.068551
#
#
# Mechanical properties :
#
#
# Convention : Reuss Voigt Hill
#
# Bulk Modulus (GPa) = 31.86127 32.23665 32.04896
# Shear Modulus (GPa) = 14.58391 22.13799 18.36095
#
# Velocity S-wave (km/s) = 3.13083 3.85737 3.51294
# Velocity P-wave (km/s) = 5.87231 6.44251 6.16401
#
# Compressibility (1/GPa) = 0.03138607
#
# Stress axis : x y z
#
# Youngs Moduli (GPa) = 22.37998 22.37998 107.04742
#
# Poissons Ratio (x) = 0.74282 0.02512
# Poissons Ratio (y) = 0.74282 0.02512
# Poissons Ratio (z) = 0.00525 0.00525
#
# Static dielectric constant tensor:
#      x y z
#    x 1.466840 0.000000 0.000000 
#    y 0.000000 1.466840 0.000000 
#    z 0.000000 0.000000 1.596070 
# 
# From -- ./inp_files/386.got.cif
#   From: 2010.05.17/outbox.cif.g08.bks.cpg/sg80_cif.got.tgz:386.got - 2010.06.03 18:49:13.
