data_PCOD9542150
_publ_section_title
;
Structure prediction by ZEFSAII (Michael W. Deem and Ramdas Pophale) SiO2 
 PCOD9542150
Probable space group: I 41
;
_chemical_formula_sum "Si O2"
_cell_formula_units_Z 56
_cell_length_a 15.176627
_cell_length_b 15.176627
_cell_length_c 10.634747
_cell_angle_alpha 90.000000
_cell_angle_beta 90.000000
_cell_angle_gamma 90.000000
_cell_volume 2449.501352
_symmetry_space_group_name_H-M "I 41"
_symmetry_group_IT_number 80
_symmetry_cell_setting 'tetragonal'
loop_
_space_group_symop_operation_xyz
x,y,z
-y,1/2+x,1/4+z
-x,-y,z
y,1/2-x,1/4+z
1/2+x,1/2+y,1/2+z
1/2-y,x,3/4+z
1/2-x,1/2-y,1/2+z
1/2+y,-x,3/4+z
loop_
_atom_site_type_symbol
_atom_site_label
_atom_site_fract_x
_atom_site_fract_y
_atom_site_fract_z
Si Si1 0.498267 0.196066 0.137860
Si Si2 0.000000 0.000000 0.009090
Si Si3 0.500000 0.500000 0.908460
Si Si4 0.681278 0.242957 0.023040
Si Si5 0.248056 0.922109 0.618152
Si Si6 0.796129 0.813038 0.263686
Si Si7 0.168868 0.937350 0.883791
Si Si8 0.505043 0.654878 0.712339
O O1 0.585741 0.203305 0.051853
O O2 0.509468 0.260966 0.255265
O O3 0.489194 0.100012 0.205866
O O4 0.415897 0.215619 0.049407
O O5 0.090726 0.000285 0.931170
O O6 0.003383 0.912519 0.095751
O O7 0.491339 0.589703 0.828239
O O8 0.750658 0.205094 0.126319
O O9 0.683369 0.345929 0.064943
O O10 0.203667 0.957403 0.743642
O O11 0.341012 0.874600 0.639447
O O12 0.784239 0.762221 0.395405
O O13 0.897287 0.805966 0.220413
O O14 0.260406 0.942994 0.959967
#
# Coordination Sequence:
#
# PCOD9542150 Si02
#       8
#     8   4   4   8   8   8   8   8
#     4  10  23  43  63  99 147 180 247 300 375 465
#     4  11  24  43  70 108 148 207 248 311 394 463
#     4   9  22  39  66  96 128 193 228 295 368 439
#     4  10  21  38  63  99 142 183 235 290 374 454
#     4  11  23  41  66 105 139 193 237 310 395 448
#     4  11  26  51  75 105 140 204 267 318 381 450
#     4  12  23  44  69 104 149 184 257 315 379 463
#     4  10  23  45  68 102 144 182 253 309 377 457
#
# _framework density 22.861796999999999
#
# number of rings (size 3 to 8) (size 9 to 14) (size 15 to 20)
#    0.000    1.429    4.286    0.857    2.000    6.286 
#    7.714    0.000    0.000    0.000    0.000    0.000 
#    0.000    0.000    0.000    0.000    0.000    0.000 
#
# Total GULP energy -156351.226821 kJ/mol
# GULP energy per Si atom -5583.972386 kJ/mol
# Density = 2.280976 g / cm^3
# Si number density = 22.861797 Si / 1000 Ang^3
#
#
#
# Elastic Constant Matrix: (Units=GPa)
#
#
# Indices 1 2 3 4 5 6 
#
# 1 99.1611 29.8828 45.0561 0.0000 0.0000 4.4728
# 2 29.8828 99.1611 45.0561 0.0000 0.0000 -4.4728
# 3 45.0561 45.0561 127.2536 0.0000 0.0000 0.0000
# 4 0.0000 0.0000 0.0000 19.8872 0.0000 0.0000
# 5 0.0000 0.0000 0.0000 0.0000 19.8872 0.0000
# 6 4.4728 -4.4728 0.0000 0.0000 0.0000 35.8237
#
#
#
# Elastic Compliance Matrix: (Units=1/GPa)
#
#
# Indices 1 2 3 4 5 6 
#
# 1 0.012483 -0.002188 -0.003645 0.000000 0.000000 -0.001832
# 2 -0.002188 0.012483 -0.003645 0.000000 0.000000 0.001832
# 3 -0.003645 -0.003645 0.010439 0.000000 0.000000 0.000000
# 4 0.000000 0.000000 0.000000 0.050284 0.000000 0.000000
# 5 0.000000 0.000000 0.000000 0.000000 0.050284 0.000000
# 6 -0.001832 0.001832 0.000000 0.000000 0.000000 0.028372
#
#
# Mechanical properties :
#
#
# Convention : Reuss Voigt Hill
#
# Bulk Modulus (GPa) = 60.79476 62.84065 61.81770
# Shear Modulus (GPa) = 26.48540 28.82503 27.65522
#
# Velocity S-wave (km/s) = 3.40737 3.55468 3.48180
# Velocity P-wave (km/s) = 6.49078 6.66292 6.57741
#
# Compressibility (1/GPa) = 0.01644879
#
# Stress axis : x y z
#
# Youngs Moduli (GPa) = 80.11010 80.11010 95.79067
#
# Poissons Ratio (x) = 0.17530 0.34915
# Poissons Ratio (y) = 0.17530 0.34915
# Poissons Ratio (z) = 0.29200 0.29200
#
# Static dielectric constant tensor:
#      x y z
#    x 1.915680 0.000000 0.000000 
#    y 0.000000 1.915680 0.000000 
#    z 0.000000 0.000000 1.877310 
# 
# From -- ./inp_files/1082.got.cif
#   From: 2010.05.17/outbox.cif.g08.bks.cpg/sg80_cif.got.tgz:1082.got - 2010.06.03 18:49:13.
