data_PCOD9542187
_publ_section_title
;
Structure prediction by ZEFSAII (Michael W. Deem and Ramdas Pophale) SiO2 
 PCOD9542187
Probable space group: I 41
;
_chemical_formula_sum "Si O2"
_cell_formula_units_Z 48
_cell_length_a 12.692862
_cell_length_b 12.692862
_cell_length_c 13.778420
_cell_angle_alpha 90.000000
_cell_angle_beta 90.000000
_cell_angle_gamma 90.000000
_cell_volume 2219.823965
_symmetry_space_group_name_H-M "I 41"
_symmetry_group_IT_number 80
_symmetry_cell_setting 'tetragonal'
loop_
_space_group_symop_operation_xyz
x,y,z
-y,1/2+x,1/4+z
-x,-y,z
y,1/2-x,1/4+z
1/2+x,1/2+y,1/2+z
1/2-y,x,3/4+z
1/2-x,1/2-y,1/2+z
1/2+y,-x,3/4+z
loop_
_atom_site_type_symbol
_atom_site_label
_atom_site_fract_x
_atom_site_fract_y
_atom_site_fract_z
Si Si1 0.000000 0.000000 0.868760
Si Si2 0.708772 0.558880 0.297760
Si Si3 0.941120 0.791228 0.454859
Si Si4 0.750000 0.845019 0.001310
Si Si5 0.874755 0.350640 0.486143
Si Si6 0.649360 0.125245 0.766477
Si Si7 0.500000 0.000000 0.133859
O O1 0.072497 0.928404 0.938678
O O2 0.916671 0.935361 0.804831
O O3 0.769548 0.649219 0.239133
O O4 0.752452 0.582760 0.406624
O O5 0.744701 0.444352 0.262433
O O6 0.917240 0.747548 0.345996
O O7 0.850781 0.730452 0.513486
O O8 0.055648 0.755299 0.490187
O O9 0.935361 0.916671 0.447789
O O10 0.891103 0.391103 0.376310
O O11 0.750000 0.335646 0.501310
O O12 0.927503 0.428404 0.563941
#
# Coordination Sequence:
#
# PCOD9542187 Si02
#       7
#     4   8   8   8   8   8   4
#     4  12  23  40  66  95 130 174 214 278 333 382
#     4  11  22  41  64  96 129 171 220 274 331 387
#     4  11  22  41  64  96 129 171 220 274 331 387
#     4  10  22  40  70  96 128 170 232 278 318 394
#     4  12  24  39  63  99 133 166 215 273 330 390
#     4  12  24  39  63  99 133 166 215 273 330 390
#     4  12  23  40  66  95 130 174 214 278 333 382
#
# _framework density 21.623335999999998
#
# number of rings (size 3 to 8) (size 9 to 14) (size 15 to 20)
#    0.000    0.667    6.667    2.500    4.667    0.000 
#    3.000    0.000    0.000    0.000    0.000    0.000 
#    0.000    0.000    0.000    0.000    0.000    0.000 
#
# Total GULP energy -134081.590497 kJ/mol
# GULP energy per Si atom -5586.732937 kJ/mol
# Density = 2.157412 g / cm^3
# Si number density = 21.623336 Si / 1000 Ang^3
#
#
#
# Elastic Constant Matrix: (Units=GPa)
#
#
# Indices 1 2 3 4 5 6 
#
# 1 159.2699 71.3354 14.9749 0.0000 0.0000 0.0000
# 2 71.3354 159.2699 14.9749 0.0000 0.0000 0.0000
# 3 14.9749 14.9749 23.3719 0.0000 0.0000 0.0000
# 4 0.0000 0.0000 0.0000 24.3202 0.0000 0.0000
# 5 0.0000 0.0000 0.0000 0.0000 24.3202 0.0000
# 6 0.0000 0.0000 0.0000 0.0000 0.0000 39.7572
#
#
#
# Elastic Compliance Matrix: (Units=1/GPa)
#
#
# Indices 1 2 3 4 5 6 
#
# 1 0.008051 -0.003321 -0.003031 0.000000 0.000000 0.000000
# 2 -0.003321 0.008051 -0.003031 0.000000 0.000000 0.000000
# 3 -0.003031 -0.003031 0.046670 0.000000 0.000000 0.000000
# 4 0.000000 0.000000 0.000000 0.041118 0.000000 0.000000
# 5 0.000000 0.000000 0.000000 0.000000 0.041118 0.000000
# 6 0.000000 0.000000 0.000000 0.000000 0.000000 0.025153
#
#
# Mechanical properties :
#
#
# Convention : Reuss Voigt Hill
#
# Bulk Modulus (GPa) = 22.72342 60.49802 41.61072
# Shear Modulus (GPa) = 24.55858 33.72126 29.13992
#
# Velocity S-wave (km/s) = 3.37374 3.95332 3.67497
# Velocity P-wave (km/s) = 5.07028 6.99122 6.10675
#
# Compressibility (1/GPa) = 0.04400747
#
# Stress axis : x y z
#
# Youngs Moduli (GPa) = 124.20732 124.20732 21.42707
#
# Poissons Ratio (x) = 0.41250 0.06494
# Poissons Ratio (y) = 0.41250 0.06494
# Poissons Ratio (z) = 0.37643 0.37643
#
# Static dielectric constant tensor:
#      x y z
#    x 1.836340 0.000000 0.000000 
#    y 0.000000 1.836340 0.000000 
#    z 0.000000 0.000000 1.801930 
# 
# From -- ./inp_files/1546.got.cif
#   From: 2010.05.17/outbox.cif.g08.bks.cpg/sg80_cif.got.tgz:1546.got - 2010.06.03 18:49:13.
