data_PCOD9542246
_publ_section_title
;
Structure prediction by ZEFSAII (Michael W. Deem and Ramdas Pophale) SiO2 
 PCOD9542246
Probable space group: I 41
;
_chemical_formula_sum "Si O2"
_cell_formula_units_Z 56
_cell_length_a 12.114861
_cell_length_b 12.114861
_cell_length_c 20.784706
_cell_angle_alpha 90.000000
_cell_angle_beta 90.000000
_cell_angle_gamma 90.000000
_cell_volume 3050.568328
_symmetry_space_group_name_H-M "I 41"
_symmetry_group_IT_number 80
_symmetry_cell_setting 'tetragonal'
loop_
_space_group_symop_operation_xyz
x,y,z
-y,1/2+x,1/4+z
-x,-y,z
y,1/2-x,1/4+z
1/2+x,1/2+y,1/2+z
1/2-y,x,3/4+z
1/2-x,1/2-y,1/2+z
1/2+y,-x,3/4+z
loop_
_atom_site_type_symbol
_atom_site_label
_atom_site_fract_x
_atom_site_fract_y
_atom_site_fract_z
Si Si1 0.740736 0.186134 0.139630
Si Si2 0.646048 0.430491 0.429287
Si Si3 0.127520 0.009942 0.077074
Si Si4 0.236131 0.841868 0.521442
Si Si5 0.631569 0.766247 0.591833
Si Si6 0.486156 0.871293 0.490317
Si Si7 0.255364 0.021580 0.619471
O O1 0.837769 0.260735 0.170704
O O2 0.699093 0.254505 0.076710
O O3 0.662416 0.179389 0.201892
O O4 0.792735 0.072469 0.115340
O O5 0.629878 0.470530 0.502299
O O6 0.695095 0.531924 0.388637
O O7 0.537439 0.366798 0.400313
O O8 0.157480 0.137635 0.088539
O O9 0.000000 0.000000 0.098470
O O10 0.368630 0.824477 0.513570
O O11 0.232160 0.962212 0.552593
O O12 0.583276 0.802366 0.522932
O O13 0.728155 0.849125 0.611175
O O14 0.492367 0.845130 0.415676
O O15 0.500000 0.000000 0.505797
#
# Coordination Sequence:
#
# PCOD9542246 Si02
#       7
#     8   8   8   8   8   8   8
#     4  11  20  34  58  88 118 162 205 243 300 367
#     4  11  19  33  55  86 126 153 189 249 309 363
#     4  12  22  34  55  88 128 160 200 251 311 372
#     4  11  19  35  60  84 120 153 201 250 302 363
#     4  12  21  33  55  92 126 155 190 254 316 373
#     4  12  20  34  60  91 117 154 198 254 313 370
#     4  11  22  36  57  88 121 152 196 253 311 362
#
# _framework density 18.357234999999999
#
# number of rings (size 3 to 8) (size 9 to 14) (size 15 to 20)
#    0.000    0.571   10.000    3.000    0.000    0.000 
#    0.000    0.000    6.286    0.000    0.000    1.000 
#    0.000    0.000    0.000    0.000    0.000    0.000 
#
# Total GULP energy -156172.299316 kJ/mol
# GULP energy per Si atom -5577.582118 kJ/mol
# Density = 1.831545 g / cm^3
# Si number density = 18.357235 Si / 1000 Ang^3
#
#
#
# Elastic Constant Matrix: (Units=GPa)
#
#
# Indices 1 2 3 4 5 6 
#
# 1 79.6084 16.3790 30.4524 0.0000 0.0000 4.3051
# 2 16.3790 79.6084 30.4524 0.0000 0.0000 -4.3051
# 3 30.4524 30.4524 104.5303 0.0000 0.0000 0.0000
# 4 0.0000 0.0000 0.0000 20.5831 0.0000 0.0000
# 5 0.0000 0.0000 0.0000 0.0000 20.5831 0.0000
# 6 4.3051 -4.3051 0.0000 0.0000 0.0000 15.4464
#
#
#
# Elastic Compliance Matrix: (Units=1/GPa)
#
#
# Indices 1 2 3 4 5 6 
#
# 1 0.014610 -0.001829 -0.003723 0.000000 0.000000 -0.004582
# 2 -0.001829 0.014610 -0.003723 0.000000 0.000000 0.004582
# 3 -0.003723 -0.003723 0.011736 0.000000 0.000000 0.000000
# 4 0.000000 0.000000 0.000000 0.048584 0.000000 0.000000
# 5 0.000000 0.000000 0.000000 0.000000 0.048584 0.000000
# 6 -0.004582 0.004582 0.000000 0.000000 0.000000 0.067294
#
#
# Mechanical properties :
#
#
# Convention : Reuss Voigt Hill
#
# Bulk Modulus (GPa) = 44.63527 46.47943 45.55735
# Shear Modulus (GPa) = 21.60414 23.75339 22.67876
#
# Velocity S-wave (km/s) = 3.43428 3.60106 3.51866
# Velocity P-wave (km/s) = 6.33193 6.53181 6.43264
#
# Compressibility (1/GPa) = 0.02240381
#
# Stress axis : x y z
#
# Youngs Moduli (GPa) = 68.44660 68.44660 85.20792
#
# Poissons Ratio (x) = 0.12522 0.31725
# Poissons Ratio (y) = 0.12522 0.31725
# Poissons Ratio (z) = 0.25485 0.25485
#
# Static dielectric constant tensor:
#      x y z
#    x 1.661280 0.000000 0.000000 
#    y 0.000000 1.661280 0.000000 
#    z 0.000000 0.000000 1.707750 
# 
# From -- ./inp_files/1811.got.cif
#   From: 2010.05.17/outbox.cif.g08.bks.cpg/sg80_cif.got.tgz:1811.got - 2010.06.03 18:49:13.
