data_PCOD9542848
_publ_section_title
;
Structure prediction by ZEFSAII (Michael W. Deem and Ramdas Pophale) SiO2 
 PCOD9542848
Probable space group: I -4 
;
_chemical_formula_sum "Si O2"
_cell_formula_units_Z 48
_cell_length_a 15.235037
_cell_length_b 15.235037
_cell_length_c 10.645423
_cell_angle_alpha 90.000000
_cell_angle_beta 90.000000
_cell_angle_gamma 90.000000
_cell_volume 2470.870302
_symmetry_space_group_name_H-M "I -4 "
_symmetry_group_IT_number 82
_symmetry_cell_setting 'tetragonal'
loop_
_space_group_symop_operation_xyz
x,y,z
y,-x,-z
-x,-y,z
-y,x,-z
1/2+x,1/2+y,1/2+z
1/2+y,1/2-x,1/2-z
1/2-x,1/2-y,1/2+z
1/2-y,1/2+x,1/2-z
loop_
_atom_site_type_symbol
_atom_site_label
_atom_site_fract_x
_atom_site_fract_y
_atom_site_fract_z
Si Si1 0.633385 0.538270 0.462493
Si Si2 0.339740 0.754488 0.378827
Si Si3 0.850407 0.657841 0.115433
Si Si4 0.731348 0.405137 0.002481
Si Si5 0.233650 0.495282 0.261497
Si Si6 0.091975 0.763805 0.597548
O O1 0.601974 0.450671 0.533957
O O2 0.711563 0.587264 0.533005
O O3 0.671327 0.514623 0.326128
O O4 0.254569 0.691268 0.380918
O O5 0.304896 0.845848 0.435063
O O6 0.376147 0.753864 0.237908
O O7 0.804809 0.597953 0.221329
O O8 0.952356 0.670617 0.143740
O O9 0.822556 0.613161 0.985335
O O10 0.759884 0.445527 0.136449
O O11 0.649696 0.341044 0.032906
O O12 0.712256 0.489844 0.916539
#
# Coordination Sequence:
#
# PCOD9542848 Si02
#       6
#     8   8   8   8   8   8
#     4  11  23  37  64 100 128 165 216 278 330 388
#     4  11  22  42  63  92 136 168 217 266 339 397
#     4  10  22  37  62  87 125 173 216 268 322 388
#     4  10  22  40  63  96 127 177 215 271 332 392
#     4  11  21  41  62  93 133 167 230 265 324 405
#     4  10  22  39  63  94 130 168 223 264 333 398
#
# _framework density 19.426355000000001
#
# number of rings (size 3 to 8) (size 9 to 14) (size 15 to 20)
#    0.000    1.500    3.333    1.000    2.333    6.000 
#    0.000    0.000    0.000    2.500    0.000    0.000 
#    0.000    0.000    0.000    0.000    0.000    0.000 
#
# Total GULP energy -133995.252426 kJ/mol
# GULP energy per Si atom -5583.135518 kJ/mol
# Density = 1.938214 g / cm^3
# Si number density = 19.426355 Si / 1000 Ang^3
#
#
#
# Elastic Constant Matrix: (Units=GPa)
#
#
# Indices 1 2 3 4 5 6 
#
# 1 90.5712 37.5242 43.4337 0.0000 0.0000 -0.7409
# 2 37.5242 90.5712 43.4337 0.0000 0.0000 0.7409
# 3 43.4337 43.4337 94.5094 0.0000 0.0000 0.0000
# 4 0.0000 0.0000 0.0000 33.4185 0.0000 0.0000
# 5 0.0000 0.0000 0.0000 0.0000 33.4185 0.0000
# 6 -0.7409 0.7409 0.0000 0.0000 0.0000 29.8881
#
#
#
# Elastic Compliance Matrix: (Units=1/GPa)
#
#
# Indices 1 2 3 4 5 6 
#
# 1 0.015103 -0.003762 -0.005212 0.000000 0.000000 0.000468
# 2 -0.003762 0.015103 -0.005212 0.000000 0.000000 -0.000468
# 3 -0.005212 -0.005212 0.015372 0.000000 0.000000 0.000000
# 4 0.000000 0.000000 0.000000 0.029924 0.000000 0.000000
# 5 0.000000 0.000000 0.000000 0.000000 0.029924 0.000000
# 6 0.000468 -0.000468 0.000000 0.000000 0.000000 0.033481
#
#
# Mechanical properties :
#
#
# Convention : Reuss Voigt Hill
#
# Bulk Modulus (GPa) = 58.12023 58.27054 58.19539
# Shear Modulus (GPa) = 28.89970 29.42904 29.16437
#
# Velocity S-wave (km/s) = 3.86120 3.89640 3.87884
# Velocity P-wave (km/s) = 7.06128 7.09248 7.07690
#
# Compressibility (1/GPa) = 0.01720571
#
# Stress axis : x y z
#
# Youngs Moduli (GPa) = 66.21302 66.21302 65.05508
#
# Poissons Ratio (x) = 0.24906 0.33907
# Poissons Ratio (y) = 0.24906 0.33907
# Poissons Ratio (z) = 0.34511 0.34511
#
# Static dielectric constant tensor:
#      x y z
#    x 1.676620 0.000000 0.000000 
#    y 0.000000 1.676620 0.000000 
#    z 0.000000 0.000000 1.691650 
# 
# From -- ./inp_files/1787.got.cif
#   From: 2010.05.17/outbox.cif.g08.bks.cpg/sg82_1_cif.got.tgz:1787.got - 2010.06.03 18:52:26.
