data_PCOD9542164
_publ_section_title
;
Structure prediction by ZEFSAII (Michael W. Deem and Ramdas Pophale) SiO2 
 PCOD9542164
Probable space group: I 41
;
_chemical_formula_sum "Si O2"
_cell_formula_units_Z 60
_cell_length_a 12.056568
_cell_length_b 12.056568
_cell_length_c 19.465180
_cell_angle_alpha 90.000000
_cell_angle_beta 90.000000
_cell_angle_gamma 90.000000
_cell_volume 2829.474759
_symmetry_space_group_name_H-M "I 41"
_symmetry_group_IT_number 80
_symmetry_cell_setting 'tetragonal'
loop_
_space_group_symop_operation_xyz
x,y,z
-y,1/2+x,1/4+z
-x,-y,z
y,1/2-x,1/4+z
1/2+x,1/2+y,1/2+z
1/2-y,x,3/4+z
1/2-x,1/2-y,1/2+z
1/2+y,-x,3/4+z
loop_
_atom_site_type_symbol
_atom_site_label
_atom_site_fract_x
_atom_site_fract_y
_atom_site_fract_z
Si Si1 0.847575 0.029302 0.571420
Si Si2 0.679555 0.174961 0.961102
Si Si3 0.781440 0.167497 0.818287
Si Si4 0.122693 0.528067 0.695366
Si Si5 0.000000 0.500000 0.439132
Si Si6 0.151968 0.306600 0.412983
Si Si7 0.296044 0.253823 0.283958
Si Si8 0.623292 0.517661 0.229601
O O1 0.821546 0.905627 0.543820
O O2 0.736683 0.103868 0.567907
O O3 0.938365 0.093427 0.525096
O O4 0.877938 0.019559 0.650757
O O5 0.748199 0.135337 0.895145
O O6 0.632186 0.294126 0.933488
O O7 0.580575 0.088395 0.976841
O O8 0.753336 0.195570 0.027838
O O9 0.795327 0.059942 0.772015
O O10 0.199782 0.428247 0.669231
O O11 0.000000 0.500000 0.666302
O O12 0.919118 0.583545 0.398547
O O13 0.246717 0.289460 0.356925
O O14 0.200345 0.304244 0.490347
O O15 0.339059 0.357214 0.239772
O O16 0.500000 0.500000 0.257936
#
# Coordination Sequence:
#
# PCOD9542164 Si02
#       8
#     8   8   8   8   4   8   8   8
#     4  11  22  41  67 102 137 170 228 283 363 418
#     4  10  23  42  69  92 137 173 229 280 330 414
#     4  11  22  43  66 101 133 175 220 277 347 416
#     4  10  21  42  65 100 133 176 229 285 354 407
#     4  10  24  48  62  96 128 190 240 270 332 408
#     4  11  25  45  68  97 145 181 238 290 349 431
#     4  12  24  43  68 105 137 181 228 294 358 422
#     4  12  24  39  70 100 140 175 220 288 346 428
#
# _framework density 21.205349999999999
#
# number of rings (size 3 to 8) (size 9 to 14) (size 15 to 20)
#    0.000    1.067    5.333    1.200    0.000    2.133 
#    9.600    0.000    2.933    0.000    0.000    0.000 
#    0.000    0.000    0.000    0.000    0.000    0.000 
#
# Total GULP energy -167224.833169 kJ/mol
# GULP energy per Si atom -5574.161106 kJ/mol
# Density = 2.115709 g / cm^3
# Si number density = 21.205350 Si / 1000 Ang^3
#
#
#
# Elastic Constant Matrix: (Units=GPa)
#
#
# Indices 1 2 3 4 5 6 
#
# 1 85.0706 21.1586 13.8838 0.0000 0.0000 3.9112
# 2 21.1586 85.0706 13.8838 0.0000 0.0000 -3.9112
# 3 13.8838 13.8838 88.3093 0.0000 0.0000 0.0000
# 4 0.0000 0.0000 0.0000 18.3523 0.0000 0.0000
# 5 0.0000 0.0000 0.0000 0.0000 18.3523 0.0000
# 6 3.9112 -3.9112 0.0000 0.0000 0.0000 37.3439
#
#
#
# Elastic Compliance Matrix: (Units=1/GPa)
#
#
# Indices 1 2 3 4 5 6 
#
# 1 0.012833 -0.003016 -0.001543 0.000000 0.000000 -0.001660
# 2 -0.003016 0.012833 -0.001543 0.000000 0.000000 0.001660
# 3 -0.001543 -0.001543 0.011809 0.000000 0.000000 0.000000
# 4 0.000000 0.000000 0.000000 0.054489 0.000000 0.000000
# 5 0.000000 0.000000 0.000000 0.000000 0.054489 0.000000
# 6 -0.001660 0.001660 0.000000 0.000000 0.000000 0.027126
#
#
# Mechanical properties :
#
#
# Convention : Reuss Voigt Hill
#
# Bulk Modulus (GPa) = 39.57331 39.58923 39.58127
# Shear Modulus (GPa) = 25.74537 28.77796 27.26166
#
# Velocity S-wave (km/s) = 3.48817 3.68789 3.58942
# Velocity P-wave (km/s) = 5.90979 6.06993 5.99039
#
# Compressibility (1/GPa) = 0.02526956
#
# Stress axis : x y z
#
# Youngs Moduli (GPa) = 77.92182 77.92182 84.68016
#
# Poissons Ratio (x) = 0.23504 0.13070
# Poissons Ratio (y) = 0.23504 0.13070
# Poissons Ratio (z) = 0.12027 0.12027
#
# Static dielectric constant tensor:
#      x y z
#    x 1.807040 0.000000 0.000000 
#    y 0.000000 1.807040 0.000000 
#    z 0.000000 0.000000 1.727390 
# 
# From -- ./inp_files/1866.got.cif
#   From: 2010.05.17/outbox.cif.g08.bks.cpg/sg80_cif.got.tgz:1866.got - 2010.06.03 18:49:13.
