data_PCOD9542888
_publ_section_title
;
Structure prediction by ZEFSAII (Michael W. Deem and Ramdas Pophale) SiO2 
 PCOD9542888
Probable space group: I -4 
;
_chemical_formula_sum "Si O2"
_cell_formula_units_Z 32
_cell_length_a 14.495453
_cell_length_b 14.495453
_cell_length_c 6.899947
_cell_angle_alpha 90.000000
_cell_angle_beta 90.000000
_cell_angle_gamma 90.000000
_cell_volume 1449.804152
_symmetry_space_group_name_H-M "I -4 "
_symmetry_group_IT_number 82
_symmetry_cell_setting 'tetragonal'
loop_
_space_group_symop_operation_xyz
x,y,z
y,-x,-z
-x,-y,z
-y,x,-z
1/2+x,1/2+y,1/2+z
1/2+y,1/2-x,1/2-z
1/2-x,1/2-y,1/2+z
1/2-y,1/2+x,1/2-z
loop_
_atom_site_type_symbol
_atom_site_label
_atom_site_fract_x
_atom_site_fract_y
_atom_site_fract_z
Si Si1 0.640270 0.676151 0.226208
Si Si2 0.911293 0.601385 0.183974
Si Si3 0.231464 0.051180 0.460311
Si Si4 0.821861 0.789706 0.167517
O O1 0.546334 0.709911 0.132148
O O2 0.721067 0.743715 0.150933
O O3 0.640923 0.682480 0.457456
O O4 0.672951 0.575427 0.153585
O O5 0.898161 0.521654 0.347302
O O6 0.883260 0.704174 0.242481
O O7 0.838911 0.571893 0.015630
O O8 0.191673 0.125032 0.307524
#
# Coordination Sequence:
#
# PCOD9542888 Si02
#       4
#     8   8   8   8
#     4  11  24  46  71 102 142 185 241 293 363 427
#     4  10  22  42  70 106 145 188 238 296 359 431
#     4  11  25  45  74 102 142 189 238 300 362 426
#     4  11  23  47  71 104 142 192 236 298 359 431
#
# _framework density 22.071947999999999
#
# number of rings (size 3 to 8) (size 9 to 14) (size 15 to 20)
#    0.000    1.250    5.000    1.500    3.500    6.500 
#    4.500    0.000    0.000    0.000    0.000    0.000 
#    0.000    0.000    0.000    0.000    0.000    0.000 
#
# Total GULP energy -89358.533644 kJ/mol
# GULP energy per Si atom -5584.908353 kJ/mol
# Density = 2.202171 g / cm^3
# Si number density = 22.071948 Si / 1000 Ang^3
#
#
#
# Elastic Constant Matrix: (Units=GPa)
#
#
# Indices 1 2 3 4 5 6 
#
# 1 136.0067 36.2861 50.7162 0.0000 0.0000 -7.0839
# 2 36.2861 136.0067 50.7162 0.0000 0.0000 7.0839
# 3 50.7162 50.7162 110.7938 0.0000 0.0000 0.0000
# 4 0.0000 0.0000 0.0000 31.7338 0.0000 0.0000
# 5 0.0000 0.0000 0.0000 0.0000 31.7338 0.0000
# 6 -7.0839 7.0839 0.0000 0.0000 0.0000 20.7160
#
#
#
# Elastic Compliance Matrix: (Units=1/GPa)
#
#
# Indices 1 2 3 4 5 6 
#
# 1 0.009243 -0.001297 -0.003637 0.000000 0.000000 0.003604
# 2 -0.001297 0.009243 -0.003637 0.000000 0.000000 -0.003604
# 3 -0.003637 -0.003637 0.012355 0.000000 0.000000 0.000000
# 4 0.000000 0.000000 0.000000 0.031512 0.000000 0.000000
# 5 0.000000 0.000000 0.000000 0.000000 0.031512 0.000000
# 6 0.003604 -0.003604 0.000000 0.000000 0.000000 0.050737
#
#
# Mechanical properties :
#
#
# Convention : Reuss Voigt Hill
#
# Bulk Modulus (GPa) = 73.00299 73.13826 73.07062
# Shear Modulus (GPa) = 30.06424 33.17596 31.62010
#
# Velocity S-wave (km/s) = 3.69467 3.88117 3.78907
# Velocity P-wave (km/s) = 7.16572 7.30019 7.23327
#
# Compressibility (1/GPa) = 0.01369807
#
# Stress axis : x y z
#
# Youngs Moduli (GPa) = 108.19399 108.19399 80.93607
#
# Poissons Ratio (x) = 0.14037 0.29436
# Poissons Ratio (y) = 0.14037 0.29436
# Poissons Ratio (z) = 0.39350 0.39350
#
# Static dielectric constant tensor:
#      x y z
#    x 1.854490 0.000000 0.000000 
#    y 0.000000 1.854490 0.000000 
#    z 0.000000 0.000000 1.862870 
# 
# From -- ./inp_files/783.got.cif
#   From: 2010.05.17/outbox.cif.g08.bks.cpg/sg82_1_cif.got.tgz:783.got - 2010.06.03 18:52:26.
