data_PCOD9542230
_publ_section_title
;
Structure prediction by ZEFSAII (Michael W. Deem and Ramdas Pophale) SiO2 
 PCOD9542230
Probable space group: I 41
;
_chemical_formula_sum "Si O2"
_cell_formula_units_Z 40
_cell_length_a 12.966959
_cell_length_b 12.966959
_cell_length_c 9.684340
_cell_angle_alpha 90.000000
_cell_angle_beta 90.000000
_cell_angle_gamma 90.000000
_cell_volume 1628.344545
_symmetry_space_group_name_H-M "I 41"
_symmetry_group_IT_number 80
_symmetry_cell_setting 'tetragonal'
loop_
_space_group_symop_operation_xyz
x,y,z
-y,1/2+x,1/4+z
-x,-y,z
y,1/2-x,1/4+z
1/2+x,1/2+y,1/2+z
1/2-y,x,3/4+z
1/2-x,1/2-y,1/2+z
1/2+y,-x,3/4+z
loop_
_atom_site_type_symbol
_atom_site_label
_atom_site_fract_x
_atom_site_fract_y
_atom_site_fract_z
Si Si1 0.214254 0.329734 0.069760
Si Si2 0.120450 0.006124 0.480022
Si Si3 0.352276 0.804393 0.034087
Si Si4 0.609204 0.055645 0.781618
Si Si5 0.159220 0.985294 0.774985
O O1 0.230382 0.290544 0.222764
O O2 0.317670 0.390698 0.023527
O O3 0.101149 0.382545 0.054358
O O4 0.196820 0.960371 0.364533
O O5 0.117754 0.945817 0.628219
O O6 0.000000 0.000000 0.435379
O O7 0.277598 0.818660 0.166930
O O8 0.367615 0.901206 0.933376
O O9 0.718604 0.003552 0.750688
O O10 0.588234 0.134334 0.653670
O O11 0.500000 0.000000 0.790558
#
# Coordination Sequence:
#
# PCOD9542230 Si02
#       5
#     8   8   8   8   8
#     4  10  24  46  75 112 153 207 256 327 393 473
#     4  11  27  47  76 111 155 208 263 323 397 474
#     4  12  30  48  75 109 152 206 264 338 397 476
#     4  12  25  49  78 115 156 208 264 324 402 483
#     4  11  26  48  81 117 157 210 259 330 400 481
#
# _framework density 24.564824999999999
#
# number of rings (size 3 to 8) (size 9 to 14) (size 15 to 20)
#    0.000    0.800    2.000    3.600   11.200    6.400 
#    0.000    0.000    0.000    0.000    0.000    0.000 
#    0.000    0.000    0.000    0.000    0.000    0.000 
#
# Total GULP energy -111445.503656 kJ/mol
# GULP energy per Si atom -5572.275183 kJ/mol
# Density = 2.450891 g / cm^3
# Si number density = 24.564825 Si / 1000 Ang^3
#
#
#
# Elastic Constant Matrix: (Units=GPa)
#
#
# Indices 1 2 3 4 5 6 
#
# 1 101.1016 37.6524 32.0473 0.0000 0.0000 -5.0775
# 2 37.6524 101.1016 32.0473 0.0000 0.0000 5.0775
# 3 32.0473 32.0473 165.9754 0.0000 0.0000 0.0000
# 4 0.0000 0.0000 0.0000 46.2964 0.0000 0.0000
# 5 0.0000 0.0000 0.0000 0.0000 46.2964 0.0000
# 6 -5.0775 5.0775 0.0000 0.0000 0.0000 28.6295
#
#
#
# Elastic Compliance Matrix: (Units=1/GPa)
#
#
# Indices 1 2 3 4 5 6 
#
# 1 0.012067 -0.004154 -0.001528 0.000000 0.000000 0.002877
# 2 -0.004154 0.012067 -0.001528 0.000000 0.000000 -0.002877
# 3 -0.001528 -0.001528 0.006615 0.000000 0.000000 0.000000
# 4 0.000000 0.000000 0.000000 0.021600 0.000000 0.000000
# 5 0.000000 0.000000 0.000000 0.000000 0.021600 0.000000
# 6 0.002877 -0.002877 0.000000 0.000000 0.000000 0.035949
#
#
# Mechanical properties :
#
#
# Convention : Reuss Voigt Hill
#
# Bulk Modulus (GPa) = 61.24012 63.51919 62.37966
# Shear Modulus (GPa) = 38.53242 42.00656 40.26949
#
# Velocity S-wave (km/s) = 3.96485 4.13974 4.05324
# Velocity P-wave (km/s) = 6.77822 6.98311 6.88142
#
# Compressibility (1/GPa) = 0.01632916
#
# Stress axis : x y z
#
# Youngs Moduli (GPa) = 82.87127 82.87127 151.17180
#
# Poissons Ratio (x) = 0.34426 0.23096
# Poissons Ratio (y) = 0.34426 0.23096
# Poissons Ratio (z) = 0.12661 0.12661
#
# Static dielectric constant tensor:
#      x y z
#    x 2.014000 0.000000 0.000000 
#    y 0.000000 2.014000 0.000000 
#    z 0.000000 0.000000 1.974690 
# 
# From -- ./inp_files/589.got.cif
#   From: 2010.05.17/outbox.cif.g08.bks.cpg/sg80_cif.got.tgz:589.got - 2010.06.03 18:49:13.
