data_PCOD9542578
_publ_section_title
;
Structure prediction by ZEFSAII (Michael W. Deem and Ramdas Pophale) SiO2 
 PCOD9542578
Probable space group: P -4
;
_chemical_formula_sum "Si O2"
_cell_formula_units_Z 19
_cell_length_a 8.240308
_cell_length_b 8.240308
_cell_length_c 12.337705
_cell_angle_alpha 90.000000
_cell_angle_beta 90.000000
_cell_angle_gamma 90.000000
_cell_volume 837.763184
_symmetry_space_group_name_H-M "P -4"
_symmetry_group_IT_number 81
_symmetry_cell_setting 'tetragonal'
loop_
_space_group_symop_operation_xyz
x,y,z
y,-x,-z
-x,-y,z
-y,x,-z
loop_
_atom_site_type_symbol
_atom_site_label
_atom_site_fract_x
_atom_site_fract_y
_atom_site_fract_z
Si Si1 0.968282 0.323199 0.263333
Si Si2 0.500000 0.000000 0.336415
Si Si3 0.735019 0.745899 0.919767
Si Si4 0.801598 0.099834 0.442690
Si Si5 0.109337 0.744081 0.840045
Si Si6 0.500000 0.500000 0.000000
O O1 0.110682 0.212166 0.213557
O O2 0.000000 0.500000 0.315812
O O3 0.854696 0.368422 0.161560
O O4 0.877336 0.204082 0.345915
O O5 0.386861 0.894168 0.415522
O O6 0.605937 0.893458 0.252242
O O7 0.917002 0.757695 0.871552
O O8 0.730230 0.814679 0.040790
O O9 0.646250 0.573478 0.928961
O O10 0.905031 0.164315 0.545608
#
# Coordination Sequence:
#
# PCOD9542578 Si02
#       6
#     4   2   4   4   4   1
#     4  12  27  48  77 116 156 212 274 336 420 510
#     4  12  26  46  86 118 152 210 278 350 420 492
#     4  12  25  43  72 111 164 221 265 330 411 500
#     4  11  26  51  81 108 150 205 274 348 423 489
#     4  12  24  45  76 116 161 220 279 320 411 522
#     4  12  28  44  60 108 176 206 276 344 388 484
#
# _framework density 22.679438999999999
#
# number of rings (size 3 to 8) (size 9 to 14) (size 15 to 20)
#    0.000    0.211    4.211    5.684    2.947    0.000 
#    0.000    0.000    0.000    0.000    0.000    0.000 
#    0.000    0.000    0.000    0.000    0.000    0.000 
#
# Total GULP energy -105890.619993 kJ/mol
# GULP energy per Si atom -5573.190526 kJ/mol
# Density = 2.262782 g / cm^3
# Si number density = 22.679439 Si / 1000 Ang^3
#
#
#
# Elastic Constant Matrix: (Units=GPa)
#
#
# Indices 1 2 3 4 5 6 
#
# 1 131.7533 43.5389 44.4789 0.0000 0.0000 -2.7034
# 2 43.5389 131.7533 44.4789 0.0000 0.0000 2.7034
# 3 44.4789 44.4789 124.7169 0.0000 0.0000 0.0000
# 4 0.0000 0.0000 0.0000 36.7674 0.0000 0.0000
# 5 0.0000 0.0000 0.0000 0.0000 36.7674 0.0000
# 6 -2.7034 2.7034 0.0000 0.0000 0.0000 29.6122
#
#
#
# Elastic Compliance Matrix: (Units=1/GPa)
#
#
# Indices 1 2 3 4 5 6 
#
# 1 0.009183 -0.002217 -0.002484 0.000000 0.000000 0.001041
# 2 -0.002217 0.009183 -0.002484 0.000000 0.000000 -0.001041
# 3 -0.002484 -0.002484 0.009790 0.000000 0.000000 0.000000
# 4 0.000000 0.000000 0.000000 0.027198 0.000000 0.000000
# 5 0.000000 0.000000 0.000000 0.000000 0.027198 0.000000
# 6 0.001041 -0.001041 0.000000 0.000000 0.000000 0.033960
#
#
# Mechanical properties :
#
#
# Convention : Reuss Voigt Hill
#
# Bulk Modulus (GPa) = 72.54617 72.57963 72.56290
# Shear Modulus (GPa) = 36.90666 37.67785 37.29226
#
# Velocity S-wave (km/s) = 4.03838 4.08035 4.05942
# Velocity P-wave (km/s) = 7.33497 7.36688 7.35094
#
# Compressibility (1/GPa) = 0.01378433
#
# Stress axis : x y z
#
# Youngs Moduli (GPa) = 108.90155 108.90155 102.14461
#
# Poissons Ratio (x) = 0.24146 0.25374
# Poissons Ratio (y) = 0.24146 0.25374
# Poissons Ratio (z) = 0.27053 0.27053
#
# Static dielectric constant tensor:
#      x y z
#    x 1.894760 0.000000 0.000000 
#    y 0.000000 1.894760 0.000000 
#    z 0.000000 0.000000 1.845660 
# 
# From -- ./inp_files/1293.got.cif
#   From: 2010.05.17/outbox.cif.g08.bks.cpg/sg81_cif.got.tgz:1293.got - 2010.06.03 18:51:07.
