data_PCOD9542821
_publ_section_title
;
Structure prediction by ZEFSAII (Michael W. Deem and Ramdas Pophale) SiO2 
 PCOD9542821
Probable space group: I -4 
;
_chemical_formula_sum "Si O2"
_cell_formula_units_Z 56
_cell_length_a 14.198794
_cell_length_b 14.198794
_cell_length_c 14.439406
_cell_angle_alpha 90.000000
_cell_angle_beta 90.000000
_cell_angle_gamma 90.000000
_cell_volume 2911.067291
_symmetry_space_group_name_H-M "I -4 "
_symmetry_group_IT_number 82
_symmetry_cell_setting 'tetragonal'
loop_
_space_group_symop_operation_xyz
x,y,z
y,-x,-z
-x,-y,z
-y,x,-z
1/2+x,1/2+y,1/2+z
1/2+y,1/2-x,1/2-z
1/2-x,1/2-y,1/2+z
1/2-y,1/2+x,1/2-z
loop_
_atom_site_type_symbol
_atom_site_label
_atom_site_fract_x
_atom_site_fract_y
_atom_site_fract_z
Si Si1 0.425250 0.264735 0.718402
Si Si2 0.869713 0.255507 0.274435
Si Si3 0.254873 0.830951 0.111608
Si Si4 0.075478 0.126864 0.031628
Si Si5 0.649457 0.633595 0.901017
Si Si6 0.315919 0.580381 0.899477
Si Si7 0.452228 0.150454 0.243294
O O1 0.345279 0.189354 0.691098
O O2 0.524200 0.219649 0.747522
O O3 0.441153 0.337972 0.635182
O O4 0.388873 0.320367 0.807871
O O5 0.817122 0.220396 0.181468
O O6 0.865329 0.167324 0.345505
O O7 0.340877 0.760236 0.094076
O O8 0.289259 0.922023 0.167611
O O9 0.201272 0.858428 0.019377
O O10 0.976563 0.119868 0.977082
O O11 0.635127 0.521744 0.894311
O O12 0.605083 0.681337 0.992035
O O13 0.215412 0.567274 0.846764
O O14 0.558446 0.114369 0.254531
#
# Coordination Sequence:
#
# PCOD9542821 Si02
#       7
#     8   8   8   8   8   8   8
#     4  11  24  44  64  95 130 179 219 277 334 403
#     4  10  23  41  67  92 130 171 222 272 337 397
#     4  10  21  40  60  96 129 167 216 273 333 395
#     4  11  24  38  65  97 132 174 228 281 339 393
#     4  11  24  39  64  93 134 174 219 265 335 403
#     4  11  23  41  65  99 131 175 218 277 331 407
#     4  10  21  40  68  98 130 172 226 281 334 389
#
# _framework density 19.236930000000001
#
# number of rings (size 3 to 8) (size 9 to 14) (size 15 to 20)
#    0.000    1.429    2.857    1.714    4.000    3.429 
#    0.000    0.000    0.000    0.000    0.000    0.000 
#    0.000    0.000    0.000    0.000    0.000    0.000 
#
# Total GULP energy -156312.536209 kJ/mol
# GULP energy per Si atom -5582.590579 kJ/mol
# Density = 1.919315 g / cm^3
# Si number density = 19.236930 Si / 1000 Ang^3
#
#
#
# Elastic Constant Matrix: (Units=GPa)
#
#
# Indices 1 2 3 4 5 6 
#
# 1 77.7742 22.4255 17.5796 0.0000 0.0000 0.1705
# 2 22.4255 77.7742 17.5796 0.0000 0.0000 -0.1705
# 3 17.5796 17.5796 58.8452 0.0000 0.0000 0.0000
# 4 0.0000 0.0000 0.0000 19.0410 0.0000 0.0000
# 5 0.0000 0.0000 0.0000 0.0000 19.0410 0.0000
# 6 0.1705 -0.1705 0.0000 0.0000 0.0000 13.7231
#
#
#
# Elastic Compliance Matrix: (Units=1/GPa)
#
#
# Indices 1 2 3 4 5 6 
#
# 1 0.014609 -0.003460 -0.003331 0.000000 0.000000 -0.000225
# 2 -0.003460 0.014609 -0.003331 0.000000 0.000000 0.000225
# 3 -0.003331 -0.003331 0.018984 0.000000 0.000000 0.000000
# 4 0.000000 0.000000 0.000000 0.052518 0.000000 0.000000
# 5 0.000000 0.000000 0.000000 0.000000 0.052518 0.000000
# 6 -0.000225 0.000225 0.000000 0.000000 0.000000 0.072875
#
#
# Mechanical properties :
#
#
# Convention : Reuss Voigt Hill
#
# Bulk Modulus (GPa) = 35.76692 36.61810 36.19251
# Shear Modulus (GPa) = 19.55606 20.81493 20.18549
#
# Velocity S-wave (km/s) = 3.19186 3.29299 3.24282
# Velocity P-wave (km/s) = 5.67602 5.79094 5.73377
#
# Compressibility (1/GPa) = 0.02795880
#
# Stress axis : x y z
#
# Youngs Moduli (GPa) = 68.45232 68.45232 52.67673
#
# Poissons Ratio (x) = 0.23684 0.17545
# Poissons Ratio (y) = 0.23684 0.17545
# Poissons Ratio (z) = 0.22799 0.22799
#
# Static dielectric constant tensor:
#      x y z
#    x 1.675610 0.000000 0.000000 
#    y 0.000000 1.675610 0.000000 
#    z 0.000000 0.000000 1.643720 
# 
# From -- ./inp_files/2326.got.cif
#   From: 2010.05.17/outbox.cif.g08.bks.cpg/sg82_2_cif.got.tgz:2326.got - 2010.06.03 18:52:26.
