data_PCOD9542835
_publ_section_title
;
Structure prediction by ZEFSAII (Michael W. Deem and Ramdas Pophale) SiO2 
 PCOD9542835
Probable space group: I -4 
;
_chemical_formula_sum "Si O2"
_cell_formula_units_Z 60
_cell_length_a 11.754993
_cell_length_b 11.754993
_cell_length_c 20.613990
_cell_angle_alpha 90.000000
_cell_angle_beta 90.000000
_cell_angle_gamma 90.000000
_cell_volume 2848.438261
_symmetry_space_group_name_H-M "I -4 "
_symmetry_group_IT_number 82
_symmetry_cell_setting 'tetragonal'
loop_
_space_group_symop_operation_xyz
x,y,z
y,-x,-z
-x,-y,z
-y,x,-z
1/2+x,1/2+y,1/2+z
1/2+y,1/2-x,1/2-z
1/2-x,1/2-y,1/2+z
1/2-y,1/2+x,1/2-z
loop_
_atom_site_type_symbol
_atom_site_label
_atom_site_fract_x
_atom_site_fract_y
_atom_site_fract_z
Si Si1 0.867062 0.196457 0.248040
Si Si2 0.119204 0.660788 0.982509
Si Si3 0.173602 0.976480 0.473948
Si Si4 0.181333 0.867023 0.750315
Si Si5 0.000000 0.500000 0.603190
Si Si6 0.499105 0.247540 0.168843
Si Si7 0.340267 0.398267 0.405010
Si Si8 0.346023 0.405936 0.607367
O O1 0.806127 0.316047 0.263751
O O2 0.788583 0.099611 0.281670
O O3 0.872252 0.187205 0.169851
O O4 0.999738 0.183345 0.268274
O O5 0.200785 0.555258 0.995924
O O6 0.163020 0.743868 0.924797
O O7 0.010176 0.605883 0.946657
O O8 0.124256 0.739628 0.045211
O O9 0.180891 0.983691 0.396799
O O10 0.090394 0.876384 0.496300
O O11 0.106801 0.850201 0.815510
O O12 0.119009 0.787020 0.698447
O O13 0.001101 0.385877 0.647693
O O14 0.361063 0.532343 0.414045
O O15 0.463241 0.340999 0.415899
#
# Coordination Sequence:
#
# PCOD9542835 Si02
#       8
#     8   8   8   8   4   8   8   8
#     4  11  25  42  69 105 138 195 240 293 371 437
#     4  11  23  41  67  97 140 180 229 307 360 432
#     4  10  25  42  63  96 134 185 240 280 353 446
#     4  11  24  42  70 101 147 187 239 303 364 447
#     4  10  26  44  65 112 140 183 242 304 392 434
#     4  11  24  46  74 102 149 187 242 316 373 446
#     4  10  22  40  67  95 130 180 238 283 355 438
#     4  10  21  42  63 101 130 174 238 290 356 425
#
# _framework density 21.064173
#
# number of rings (size 3 to 8) (size 9 to 14) (size 15 to 20)
#    0.000    1.467    1.333    2.800    7.467    5.600 
#    0.000    3.333    0.000    0.000    0.000    0.000 
#    0.000    0.000    0.000    0.000    0.000    0.000 
#
# Total GULP energy -167349.641759 kJ/mol
# GULP energy per Si atom -5578.321392 kJ/mol
# Density = 2.101623 g / cm^3
# Si number density = 21.064173 Si / 1000 Ang^3
#
#
#
# Elastic Constant Matrix: (Units=GPa)
#
#
# Indices 1 2 3 4 5 6 
#
# 1 101.8885 39.4859 38.6206 0.0000 0.0000 -1.6131
# 2 39.4859 101.8885 38.6206 0.0000 0.0000 1.6131
# 3 38.6206 38.6206 89.8358 0.0000 0.0000 0.0000
# 4 0.0000 0.0000 0.0000 91.0760 0.0000 0.0000
# 5 0.0000 0.0000 0.0000 0.0000 91.0760 0.0000
# 6 -1.6131 1.6131 0.0000 0.0000 0.0000 18.0825
#
#
#
# Elastic Compliance Matrix: (Units=1/GPa)
#
#
# Indices 1 2 3 4 5 6 
#
# 1 0.012672 -0.003427 -0.003974 0.000000 0.000000 0.001436
# 2 -0.003427 0.012672 -0.003974 0.000000 0.000000 -0.001436
# 3 -0.003974 -0.003974 0.014549 0.000000 0.000000 0.000000
# 4 0.000000 0.000000 0.000000 0.010980 0.000000 0.000000
# 5 0.000000 0.000000 0.000000 0.000000 0.010980 0.000000
# 6 0.001436 -0.001436 0.000000 0.000000 0.000000 0.055558
#
#
# Mechanical properties :
#
#
# Convention : Reuss Voigt Hill
#
# Bulk Modulus (GPa) = 58.34035 58.56299 58.45167
# Shear Modulus (GPa) = 34.27566 51.83930 43.05748
#
# Velocity S-wave (km/s) = 4.03824 4.96625 4.52609
# Velocity P-wave (km/s) = 7.03560 7.79406 7.42452
#
# Compressibility (1/GPa) = 0.01714079
#
# Stress axis : x y z
#
# Youngs Moduli (GPa) = 78.91391 78.91391 68.73511
#
# Poissons Ratio (x) = 0.27045 0.27318
# Poissons Ratio (y) = 0.27045 0.27318
# Poissons Ratio (z) = 0.31363 0.31363
#
# Static dielectric constant tensor:
#      x y z
#    x 1.772620 0.000000 0.000000 
#    y 0.000000 1.772620 0.000000 
#    z 0.000000 0.000000 1.787850 
# 
# From -- ./inp_files/3179.got.cif
#   From: 2010.05.17/outbox.cif.g08.bks.cpg/sg82_2_cif.got.tgz:3179.got - 2010.06.03 18:52:26.
