data_PCOD9542075
_publ_section_title
;
Structure prediction by ZEFSAII (Michael W. Deem and Ramdas Pophale) SiO2 
 PCOD9542075
Probable space group: I 41
;
_chemical_formula_sum "Si O2"
_cell_formula_units_Z 64
_cell_length_a 19.649021
_cell_length_b 19.649021
_cell_length_c 7.493347
_cell_angle_alpha 90.000000
_cell_angle_beta 90.000000
_cell_angle_gamma 90.000000
_cell_volume 2893.061580
_symmetry_space_group_name_H-M "I 41"
_symmetry_group_IT_number 80
_symmetry_cell_setting 'tetragonal'
loop_
_space_group_symop_operation_xyz
x,y,z
-y,1/2+x,1/4+z
-x,-y,z
y,1/2-x,1/4+z
1/2+x,1/2+y,1/2+z
1/2-y,x,3/4+z
1/2-x,1/2-y,1/2+z
1/2+y,-x,3/4+z
loop_
_atom_site_type_symbol
_atom_site_label
_atom_site_fract_x
_atom_site_fract_y
_atom_site_fract_z
Si Si1 0.252010 0.662359 0.795900
Si Si2 0.879364 0.602935 0.607184
Si Si3 0.950728 0.434284 0.086896
Si Si4 0.024173 0.787405 0.428796
Si Si5 0.923161 0.022845 0.438487
Si Si6 0.549356 0.837170 0.784798
Si Si7 0.665574 0.747137 0.694569
Si Si8 0.637971 0.105607 0.895818
O O1 0.194547 0.712166 0.717987
O O2 0.221236 0.586652 0.815204
O O3 0.314580 0.656693 0.651572
O O4 0.846189 0.533339 0.682063
O O5 0.950003 0.614944 0.710871
O O6 0.908326 0.607618 0.402120
O O7 0.814677 0.653403 0.587004
O O8 0.884718 0.429647 0.212504
O O9 0.000000 0.500000 0.108494
O O10 0.994952 0.372756 0.163797
O O11 0.939571 0.424750 0.877415
O O12 0.063144 0.802985 0.242671
O O13 0.984659 0.716468 0.419921
O O14 0.899774 0.073395 0.283096
O O15 0.000000 0.000000 0.390830
O O16 0.596619 0.787866 0.669434
O O17 0.697444 0.715837 0.522074
#
# Coordination Sequence:
#
# PCOD9542075 Si02
#       8
#     8   8   8   8   8   8   8   8
#     4  10  22  41  60  87 117 166 215 260 315 377
#     4  10  18  34  61  86 119 165 208 251 318 375
#     4  11  22  35  60  94 125 152 205 264 318 372
#     4  10  19  35  66  85 117 171 207 251 329 376
#     4  11  21  35  59  96 120 154 202 263 317 379
#     4  10  19  37  59  89 119 162 213 256 308 388
#     4   9  20  34  55  83 119 168 206 245 306 379
#     4  11  20  40  64  82 123 168 201 261 325 376
#
# _framework density 22.121894999999999
#
# number of rings (size 3 to 8) (size 9 to 14) (size 15 to 20)
#    0.000    1.750    3.750    1.125    0.000    1.000 
#    4.500    0.000    2.750    3.000    0.000    0.000 
#    0.000    0.000    0.000    0.000    0.000    0.000 
#
# Total GULP energy -178398.831739 kJ/mol
# GULP energy per Si atom -5574.963492 kJ/mol
# Density = 2.207154 g / cm^3
# Si number density = 22.121895 Si / 1000 Ang^3
#
#
#
# Elastic Constant Matrix: (Units=GPa)
#
#
# Indices 1 2 3 4 5 6 
#
# 1 73.4356 3.1074 6.5609 0.0000 0.0000 -6.7846
# 2 3.1074 73.4356 6.5609 0.0000 0.0000 6.7846
# 3 6.5609 6.5609 42.8123 0.0000 0.0000 0.0000
# 4 0.0000 0.0000 0.0000 22.7401 0.0000 0.0000
# 5 0.0000 0.0000 0.0000 0.0000 22.7401 0.0000
# 6 -6.7846 6.7846 0.0000 0.0000 0.0000 39.5539
#
#
#
# Elastic Compliance Matrix: (Units=1/GPa)
#
#
# Indices 1 2 3 4 5 6 
#
# 1 0.014061 -0.000644 -0.002056 0.000000 0.000000 0.002522
# 2 -0.000644 0.014061 -0.002056 0.000000 0.000000 -0.002522
# 3 -0.002056 -0.002056 0.023988 0.000000 0.000000 0.000000
# 4 0.000000 0.000000 0.000000 0.043975 0.000000 0.000000
# 5 0.000000 0.000000 0.000000 0.000000 0.043975 0.000000
# 6 0.002522 -0.002522 0.000000 0.000000 0.000000 0.026147
#
#
# Mechanical properties :
#
#
# Convention : Reuss Voigt Hill
#
# Bulk Modulus (GPa) = 23.47555 24.68242 24.07898
# Shear Modulus (GPa) = 26.32676 28.57044 27.44860
#
# Velocity S-wave (km/s) = 3.45349 3.59764 3.52630
# Velocity P-wave (km/s) = 5.15142 5.33283 5.24291
#
# Compressibility (1/GPa) = 0.04259751
#
# Stress axis : x y z
#
# Youngs Moduli (GPa) = 71.11674 71.11674 41.68759
#
# Poissons Ratio (x) = 0.04582 0.08572
# Poissons Ratio (y) = 0.04582 0.08572
# Poissons Ratio (z) = 0.14623 0.14623
#
# Static dielectric constant tensor:
#      x y z
#    x 1.863010 0.000000 0.000000 
#    y 0.000000 1.863010 0.000000 
#    z 0.000000 0.000000 1.810480 
# 
# From -- ./inp_files/824.got.cif
#   From: 2010.05.17/outbox.cif.g08.bks.cpg/sg80_cif.got.tgz:824.got - 2010.06.03 18:49:13.
