data_PCOD9542123
_publ_section_title
;
Structure prediction by ZEFSAII (Michael W. Deem and Ramdas Pophale) SiO2 
 PCOD9542123
Probable space group: I 41
;
_chemical_formula_sum "Si O2"
_cell_formula_units_Z 56
_cell_length_a 11.025892
_cell_length_b 11.025892
_cell_length_c 22.075038
_cell_angle_alpha 90.000000
_cell_angle_beta 90.000000
_cell_angle_gamma 90.000000
_cell_volume 2683.668868
_symmetry_space_group_name_H-M "I 41"
_symmetry_group_IT_number 80
_symmetry_cell_setting 'tetragonal'
loop_
_space_group_symop_operation_xyz
x,y,z
-y,1/2+x,1/4+z
-x,-y,z
y,1/2-x,1/4+z
1/2+x,1/2+y,1/2+z
1/2-y,x,3/4+z
1/2-x,1/2-y,1/2+z
1/2+y,-x,3/4+z
loop_
_atom_site_type_symbol
_atom_site_label
_atom_site_fract_x
_atom_site_fract_y
_atom_site_fract_z
Si Si1 0.368383 0.518882 0.051940
Si Si2 0.376418 0.309801 0.960954
Si Si3 0.309802 0.376418 0.463764
Si Si4 0.481118 0.631617 0.372778
Si Si5 0.794903 0.401467 0.401258
Si Si6 0.098533 0.705096 0.523460
Si Si7 0.250000 0.987439 0.087359
O O1 0.500000 0.500000 0.083234
O O2 0.250000 0.474572 0.087359
O O3 0.356870 0.661811 0.041392
O O4 0.378294 0.442787 0.989686
O O5 0.242217 0.257783 0.962359
O O6 0.434315 0.292136 0.894967
O O7 0.457850 0.224636 0.006095
O O8 0.442787 0.378294 0.435032
O O9 0.224636 0.457850 0.418623
O O10 0.292136 0.434315 0.529751
O O11 0.500000 0.500000 0.341484
O O12 0.338189 0.643130 0.383326
O O13 0.834818 0.334819 0.462359
O O14 0.897934 0.361783 0.354555
O O15 0.138217 0.602066 0.570163
#
# Coordination Sequence:
#
# PCOD9542123 Si02
#       7
#     8   8   8   8   8   8   8
#     4  10  21  43  65  94 133 171 222 273 325 407
#     4  10  23  41  61  99 132 166 218 272 333 388
#     4  10  23  41  61  99 132 166 218 272 333 388
#     4  10  21  43  65  94 133 171 222 273 325 407
#     4   9  19  40  63  92 122 167 222 256 325 399
#     4   9  19  40  63  92 122 167 222 256 325 399
#     4  10  20  40  66  90 128 178 212 276 320 400
#
# _framework density 20.866956999999999
#
# number of rings (size 3 to 8) (size 9 to 14) (size 15 to 20)
#    0.000    2.286    1.429    0.000    2.000    5.143 
#   30.857    0.000    0.000    0.000    0.000    0.000 
#    0.000    0.000    0.000    0.000    0.000    0.000 
#
# Total GULP energy -156213.921908 kJ/mol
# GULP energy per Si atom -5579.068640 kJ/mol
# Density = 2.081946 g / cm^3
# Si number density = 20.866957 Si / 1000 Ang^3
#
#
#
# Elastic Constant Matrix: (Units=GPa)
#
#
# Indices 1 2 3 4 5 6 
#
# 1 78.7651 34.2321 35.3341 0.0000 0.0000 -0.0001
# 2 34.2321 78.7651 35.3341 0.0000 0.0000 0.0001
# 3 35.3341 35.3341 79.8440 0.0000 0.0000 0.0000
# 4 0.0000 0.0000 0.0000 13.0192 0.0000 0.0000
# 5 0.0000 0.0000 0.0000 0.0000 13.0192 0.0000
# 6 -0.0001 0.0001 0.0000 0.0000 0.0000 28.0766
#
#
#
# Elastic Compliance Matrix: (Units=1/GPa)
#
#
# Indices 1 2 3 4 5 6 
#
# 1 0.017346 -0.005109 -0.005415 0.000000 0.000000 0.000000
# 2 -0.005109 0.017346 -0.005415 0.000000 0.000000 0.000000
# 3 -0.005415 -0.005415 0.017317 0.000000 0.000000 0.000000
# 4 0.000000 0.000000 0.000000 0.076810 0.000000 0.000000
# 5 0.000000 0.000000 0.000000 0.000000 0.076810 0.000000
# 6 0.000000 0.000000 0.000000 0.000000 0.000000 0.035617
#
#
# Mechanical properties :
#
#
# Convention : Reuss Voigt Hill
#
# Bulk Modulus (GPa) = 49.67804 49.68609 49.68207
# Shear Modulus (GPa) = 17.86773 19.65459 18.76116
#
# Velocity S-wave (km/s) = 2.92938 3.07237 3.00173
# Velocity P-wave (km/s) = 5.94142 6.03726 5.98953
#
# Compressibility (1/GPa) = 0.02012962
#
# Stress axis : x y z
#
# Youngs Moduli (GPa) = 57.65083 57.65083 57.74611
#
# Poissons Ratio (x) = 0.29456 0.31270
# Poissons Ratio (y) = 0.29456 0.31270
# Poissons Ratio (z) = 0.31218 0.31218
#
# Static dielectric constant tensor:
#      x y z
#    x 1.778130 0.000000 0.000000 
#    y 0.000000 1.778130 0.000000 
#    z 0.000000 0.000000 1.743870 
# 
# From -- ./inp_files/1808.got.cif
#   From: 2010.05.17/outbox.cif.g08.bks.cpg/sg80_cif.got.tgz:1808.got - 2010.06.03 18:49:13.
