data_PCOD9542887
_publ_section_title
;
Structure prediction by ZEFSAII (Michael W. Deem and Ramdas Pophale) SiO2 
 PCOD9542887
Probable space group: I -4 
;
_chemical_formula_sum "Si O2"
_cell_formula_units_Z 20
_cell_length_a 9.292692
_cell_length_b 9.292692
_cell_length_c 9.068030
_cell_angle_alpha 90.000000
_cell_angle_beta 90.000000
_cell_angle_gamma 90.000000
_cell_volume 783.061793
_symmetry_space_group_name_H-M "I -4 "
_symmetry_group_IT_number 82
_symmetry_cell_setting 'tetragonal'
loop_
_space_group_symop_operation_xyz
x,y,z
y,-x,-z
-x,-y,z
-y,x,-z
1/2+x,1/2+y,1/2+z
1/2+y,1/2-x,1/2-z
1/2-x,1/2-y,1/2+z
1/2-y,1/2+x,1/2-z
loop_
_atom_site_type_symbol
_atom_site_label
_atom_site_fract_x
_atom_site_fract_y
_atom_site_fract_z
Si Si1 0.071657 0.307429 0.554563
Si Si2 0.163342 0.268408 0.869958
Si Si3 0.000000 0.000000 0.500000
Si Si4 0.000000 0.000000 0.000000
O O1 0.838024 0.344475 0.793494
O O2 0.912640 0.374719 0.533452
O O3 0.030615 0.141458 0.589706
O O4 0.792799 0.320397 0.082600
O O5 0.136732 0.940212 0.090385
#
# Coordination Sequence:
#
# PCOD9542887 Si02
#       4
#     8   8   2   2
#     4  10  22  42  69  97 136 179 224 277 341 400
#     4  11  24  43  69 103 138 180 226 280 340 408
#     4   8  18  40  68  98 130 176 224 282 334 400
#     4  12  26  40  68 106 138 180 232 274 330 408
#
# _framework density 25.540768
#
# number of rings (size 3 to 8) (size 9 to 14) (size 15 to 20)
#    0.000    1.600    0.000    3.600    0.000   12.000 
#    0.000    0.000    0.000   38.400    0.000    0.000 
#    0.000    0.000    0.000    0.000    0.000    0.000 
#
# Total GULP energy -55753.937623 kJ/mol
# GULP energy per Si atom -5575.393762 kJ/mol
# Density = 2.548264 g / cm^3
# Si number density = 25.540768 Si / 1000 Ang^3
#
#
#
# Elastic Constant Matrix: (Units=GPa)
#
#
# Indices 1 2 3 4 5 6 
#
# 1 130.9294 31.0031 21.9536 0.0000 0.0000 -31.6544
# 2 31.0031 130.9294 21.9536 0.0000 0.0000 31.6544
# 3 21.9536 21.9536 62.5739 0.0000 0.0000 0.0000
# 4 0.0000 0.0000 0.0000 23.9873 0.0000 0.0000
# 5 0.0000 0.0000 0.0000 0.0000 23.9873 0.0000
# 6 -31.6544 31.6544 0.0000 0.0000 0.0000 71.3287
#
#
#
# Elastic Compliance Matrix: (Units=1/GPa)
#
#
# Indices 1 2 3 4 5 6 
#
# 1 0.010373 -0.003548 -0.002394 0.000000 0.000000 0.006178
# 2 -0.003548 0.010373 -0.002394 0.000000 0.000000 -0.006178
# 3 -0.002394 -0.002394 0.017661 0.000000 0.000000 0.000000
# 4 0.000000 0.000000 0.000000 0.041689 0.000000 0.000000
# 5 0.000000 0.000000 0.000000 0.000000 0.041689 0.000000
# 6 0.006178 -0.006178 0.000000 0.000000 0.000000 0.019503
#
#
# Mechanical properties :
#
#
# Convention : Reuss Voigt Hill
#
# Bulk Modulus (GPa) = 46.01302 52.69481 49.35392
# Shear Modulus (GPa) = 30.26514 40.49551 35.38033
#
# Velocity S-wave (km/s) = 3.44608 3.98618 3.72593
# Velocity P-wave (km/s) = 5.82139 6.47014 6.15432
#
# Compressibility (1/GPa) = 0.02173298
#
# Stress axis : x y z
#
# Youngs Moduli (GPa) = 96.40322 96.40322 56.62131
#
# Poissons Ratio (x) = 0.34208 0.13557
# Poissons Ratio (y) = 0.34208 0.13557
# Poissons Ratio (z) = 0.23083 0.23083
#
# Static dielectric constant tensor:
#      x y z
#    x 2.151930 0.000000 0.000000 
#    y 0.000000 2.151930 0.000000 
#    z 0.000000 0.000000 2.023100 
# 
# From -- ./inp_files/1944.got.cif
#   From: 2010.05.17/outbox.cif.g08.bks.cpg/sg82_1_cif.got.tgz:1944.got - 2010.06.03 18:52:26.
