data_PCOD9542553
_publ_section_title
;
Structure prediction by ZEFSAII (Michael W. Deem and Ramdas Pophale) SiO2 
 PCOD9542553
Probable space group: P -4
;
_chemical_formula_sum "Si O2"
_cell_formula_units_Z 22
_cell_length_a 7.123508
_cell_length_b 7.123508
_cell_length_c 15.710791
_cell_angle_alpha 90.000000
_cell_angle_beta 90.000000
_cell_angle_gamma 90.000000
_cell_volume 797.234132
_symmetry_space_group_name_H-M "P -4"
_symmetry_group_IT_number 81
_symmetry_cell_setting 'tetragonal'
loop_
_space_group_symop_operation_xyz
x,y,z
y,-x,-z
-x,-y,z
-y,x,-z
loop_
_atom_site_type_symbol
_atom_site_label
_atom_site_fract_x
_atom_site_fract_y
_atom_site_fract_z
Si Si1 0.159152 0.721876 0.084996
Si Si2 0.836799 0.271119 0.903307
Si Si3 0.866465 0.266234 0.718183
Si Si4 0.166548 0.717185 0.267987
Si Si5 0.643129 0.765892 0.473393
Si Si6 0.500000 0.000000 0.595723
O O1 0.213855 0.635673 0.175217
O O2 0.933440 0.741688 0.089588
O O3 0.231343 0.938023 0.091744
O O4 0.210068 0.633946 0.993856
O O5 0.803946 0.352865 0.809450
O O6 0.801252 0.329015 0.625405
O O7 0.093879 0.281133 0.714395
O O8 0.800647 0.047602 0.728495
O O9 0.165776 0.551158 0.336168
O O10 0.733262 0.575797 0.506219
O O11 0.677903 0.944709 0.534343
#
# Coordination Sequence:
#
# PCOD9542553 Si02
#       6
#     4   4   4   4   4   2
#     4   7  10  20  40  78 115 146 171 232 287 351
#     4   7  10  19  44  76 113 142 183 225 294 344
#     4   9  17  34  56  85 112 154 195 249 296 351
#     4   9  18  31  55  85 121 146 193 241 298 357
#     4  11  25  43  59  81 117 160 206 254 309 360
#     4  12  24  38  56  86 110 160 192 248 300 358
#
# _framework density 27.595410000000001
#
# number of rings (size 3 to 8) (size 9 to 14) (size 15 to 20)
#    0.000    3.091    1.818    3.273    2.545    0.000 
#    0.000    1.818    0.000    1.091    4.727    0.000 
#    0.000    2.909    0.000    0.000    0.000    0.182 
#
# Total GULP energy -122657.957516 kJ/mol
# GULP energy per Si atom -5575.361705 kJ/mol
# Density = 2.753260 g / cm^3
# Si number density = 27.595410 Si / 1000 Ang^3
#
#
#
# Elastic Constant Matrix: (Units=GPa)
#
#
# Indices 1 2 3 4 5 6 
#
# 1 68.1960 5.0277 40.1213 0.0000 0.0000 -2.2878
# 2 5.0277 68.1960 40.1213 0.0000 0.0000 2.2878
# 3 40.1213 40.1213 367.8946 0.0000 0.0000 0.0000
# 4 0.0000 0.0000 0.0000 19.2853 0.0000 0.0000
# 5 0.0000 0.0000 0.0000 0.0000 19.2853 0.0000
# 6 -2.2878 2.2878 0.0000 0.0000 0.0000 15.3650
#
#
#
# Elastic Compliance Matrix: (Units=1/GPa)
#
#
# Indices 1 2 3 4 5 6 
#
# 1 0.015757 -0.000246 -0.001692 0.000000 0.000000 0.002383
# 2 -0.000246 0.015757 -0.001692 0.000000 0.000000 -0.002383
# 3 -0.001692 -0.001692 0.003087 0.000000 0.000000 0.000000
# 4 0.000000 0.000000 0.000000 0.051853 0.000000 0.000000
# 5 0.000000 0.000000 0.000000 0.000000 0.051853 0.000000
# 6 0.002383 -0.002383 0.000000 0.000000 0.000000 0.065792
#
#
# Mechanical properties :
#
#
# Convention : Reuss Voigt Hill
#
# Bulk Modulus (GPa) = 36.57387 74.98081 55.77734
# Shear Modulus (GPa) = 22.67860 38.72154 30.70007
#
# Velocity S-wave (km/s) = 2.86986 3.74998 3.33904
# Velocity P-wave (km/s) = 4.92583 6.78087 5.92639
#
# Compressibility (1/GPa) = 0.02734193
#
# Stress axis : x y z
#
# Youngs Moduli (GPa) = 63.46436 63.46436 323.92737
#
# Poissons Ratio (x) = 0.01564 0.54793
# Poissons Ratio (y) = 0.01564 0.54793
# Poissons Ratio (z) = 0.10735 0.10735
#
# Static dielectric constant tensor:
#      x y z
#    x 2.847790 0.000000 0.000000 
#    y 0.000000 2.847790 0.000000 
#    z 0.000000 0.000000 2.339030 
# 
# From -- ./inp_files/1609.got.cif
#   From: 2010.05.17/outbox.cif.g08.bks.cpg/sg81_cif.got.tgz:1609.got - 2010.06.03 18:51:07.
