data_PCOD9542738
_publ_section_title
;
Structure prediction by ZEFSAII (Michael W. Deem and Ramdas Pophale) SiO2 
 PCOD9542738
Probable space group: I -4 
;
_chemical_formula_sum "Si O2"
_cell_formula_units_Z 48
_cell_length_a 8.801766
_cell_length_b 8.801766
_cell_length_c 28.126255
_cell_angle_alpha 90.000000
_cell_angle_beta 90.000000
_cell_angle_gamma 90.000000
_cell_volume 2178.971484
_symmetry_space_group_name_H-M "I -4 "
_symmetry_group_IT_number 82
_symmetry_cell_setting 'tetragonal'
loop_
_space_group_symop_operation_xyz
x,y,z
y,-x,-z
-x,-y,z
-y,x,-z
1/2+x,1/2+y,1/2+z
1/2+y,1/2-x,1/2-z
1/2-x,1/2-y,1/2+z
1/2-y,1/2+x,1/2-z
loop_
_atom_site_type_symbol
_atom_site_label
_atom_site_fract_x
_atom_site_fract_y
_atom_site_fract_z
Si Si1 0.550325 0.825526 0.178757
Si Si2 0.399213 0.250793 0.072641
Si Si3 0.598484 0.725192 0.694686
Si Si4 0.000000 0.000000 0.269951
Si Si5 0.500000 0.500000 0.000000
Si Si6 0.937603 0.655111 0.100104
Si Si7 0.246423 0.049530 0.998389
Si Si8 0.500000 0.000000 0.750000
O O1 0.525805 0.797689 0.122139
O O2 0.729139 0.829137 0.190917
O O3 0.492850 0.663484 0.202255
O O4 0.500000 0.000000 0.190971
O O5 0.490035 0.357041 0.035797
O O6 0.241808 0.337728 0.087717
O O7 0.347304 0.107166 0.041494
O O8 0.499343 0.636853 0.732530
O O9 0.535405 0.720967 0.641011
O O10 0.597830 0.894381 0.715358
O O11 0.000000 0.500000 0.120685
O O12 0.029784 0.674538 0.051826
O O13 0.111518 0.169806 0.991372
#
# Coordination Sequence:
#
# PCOD9542738 Si02
#       8
#     8   8   8   4   2   8   8   2
#     4  11  27  47  72 104 152 195 255 320 391 466
#     4  10  23  40  61 100 135 188 244 293 376 456
#     4  11  25  43  71 102 137 187 247 309 383 460
#     4  12  27  46  72 105 139 196 250 307 394 452
#     4  12  22  40  64  92 148 196 248 306 368 460
#     4  10  20  38  64  97 130 175 231 294 366 440
#     4   9  19  37  63  91 132 169 221 285 352 428
#     4  12  20  48  72 100 140 176 240 316 368 456
#
# _framework density 22.028744
#
# number of rings (size 3 to 8) (size 9 to 14) (size 15 to 20)
#    0.000    1.500    2.500    1.500    2.333    7.333 
#    0.000    5.000    0.000    0.000    0.000    0.000 
#    0.000    0.000    0.000    0.000    0.000    0.000 
#
# Total GULP energy -133834.676438 kJ/mol
# GULP energy per Si atom -5576.444852 kJ/mol
# Density = 2.197861 g / cm^3
# Si number density = 22.028744 Si / 1000 Ang^3
#
#
#
# Elastic Constant Matrix: (Units=GPa)
#
#
# Indices 1 2 3 4 5 6 
#
# 1 62.3263 36.2942 35.9958 0.0000 0.0000 18.4598
# 2 36.2942 62.3263 35.9958 0.0000 0.0000 -18.4598
# 3 35.9958 35.9958 118.7987 0.0000 0.0000 0.0000
# 4 0.0000 0.0000 0.0000 37.7554 0.0000 0.0000
# 5 0.0000 0.0000 0.0000 0.0000 37.7554 0.0000
# 6 18.4598 -18.4598 0.0000 0.0000 0.0000 8.7664
#
#
#
# Elastic Compliance Matrix: (Units=1/GPa)
#
#
# Indices 1 2 3 4 5 6 
#
# 1 -0.003159 0.016179 -0.003945 0.000000 0.000000 0.040721
# 2 0.016179 -0.003159 -0.003945 0.000000 0.000000 -0.040721
# 3 -0.003945 -0.003945 0.010808 0.000000 0.000000 0.000000
# 4 0.000000 0.000000 0.000000 0.026486 0.000000 0.000000
# 5 0.000000 0.000000 0.000000 0.000000 0.026486 0.000000
# 6 0.040721 -0.040721 0.000000 0.000000 0.000000 -0.057425
#
#
# Mechanical properties :
#
#
# Convention : Reuss Voigt Hill
#
# Bulk Modulus (GPa) = 47.46591 51.11368 49.28979
# Shear Modulus (GPa) = -525.29034 25.86648 -249.71193
#
# Velocity S-wave (km/s) = -15.45880 3.43040 -10.65849
# Velocity P-wave (km/s) = 17.23481 6.24049 11.35990
#
# Compressibility (1/GPa) = 0.02106775
#
# Stress axis : x y z
#
# Youngs Moduli (GPa) = -316.53072 -316.53090 92.52221
#
# Poissons Ratio (x) = 5.12111 0.36499
# Poissons Ratio (y) = 5.12111 0.36499
# Poissons Ratio (z) = -1.24869 -1.24869
#
# Static dielectric constant tensor:
#      x y z
#    x 1.812370 0.000000 0.000000 
#    y 0.000000 1.812370 0.000000 
#    z 0.000000 0.000000 1.817310 
# 
# From -- ./inp_files/4114.got.cif
#   From: 2010.05.17/outbox.cif.g08.bks.cpg/sg82_3_cif.got.tgz:4114.got - 2010.06.03 18:52:26.
