data_PCOD9542178
_publ_section_title
;
Structure prediction by ZEFSAII (Michael W. Deem and Ramdas Pophale) SiO2 
 PCOD9542178
Probable space group: I 41
;
_chemical_formula_sum "Si O2"
_cell_formula_units_Z 64
_cell_length_a 24.270040
_cell_length_b 24.270040
_cell_length_c 5.006543
_cell_angle_alpha 90.000000
_cell_angle_beta 90.000000
_cell_angle_gamma 90.000000
_cell_volume 2949.028263
_symmetry_space_group_name_H-M "I 41"
_symmetry_group_IT_number 80
_symmetry_cell_setting 'tetragonal'
loop_
_space_group_symop_operation_xyz
x,y,z
-y,1/2+x,1/4+z
-x,-y,z
y,1/2-x,1/4+z
1/2+x,1/2+y,1/2+z
1/2-y,x,3/4+z
1/2-x,1/2-y,1/2+z
1/2+y,-x,3/4+z
loop_
_atom_site_type_symbol
_atom_site_label
_atom_site_fract_x
_atom_site_fract_y
_atom_site_fract_z
Si Si1 0.281000 0.921678 0.780840
Si Si2 0.276297 0.030350 0.532572
Si Si3 0.436896 0.786755 0.058858
Si Si4 0.957215 0.070727 0.799751
Si Si5 0.388015 0.904442 0.056841
Si Si6 0.413378 0.446859 0.230733
Si Si7 0.596711 0.721994 0.804105
Si Si8 0.392883 0.151254 0.984475
O O1 0.249834 0.900740 0.517091
O O2 0.329850 0.889856 0.921637
O O3 0.305575 0.981022 0.691789
O O4 0.236861 0.933567 0.012448
O O5 0.303349 0.052419 0.264226
O O6 0.222796 0.997544 0.428830
O O7 0.267046 0.075564 0.755488
O O8 0.422043 0.849172 0.062822
O O9 0.928271 0.114516 0.602726
O O10 0.021987 0.070653 0.735099
O O11 0.923841 0.013213 0.743199
O O12 0.947371 0.082182 0.111164
O O13 0.381043 0.419657 0.481539
O O14 0.377657 0.425029 0.980900
O O15 0.605839 0.782507 0.932902
O O16 0.639797 0.672581 0.775681
#
# Coordination Sequence:
#
# PCOD9542178 Si02
#       8
#     8   8   8   8   8   8   8   8
#     4  10  22  38  60  97 131 172 221 278 317 403
#     4  10  22  40  67  94 132 165 222 282 328 398
#     4  10  22  38  60  97 131 172 221 278 317 403
#     4  11  26  40  64 102 139 176 217 264 347 426
#     4  12  24  37  68  94 135 180 215 282 333 394
#     4  11  26  44  65  98 141 178 211 272 339 438
#     4  12  26  44  69  98 126 179 226 292 342 402
#     4  12  28  45  73  96 135 180 235 282 349 409
#
# _framework density 21.702062000000002
#
# number of rings (size 3 to 8) (size 9 to 14) (size 15 to 20)
#    0.750    0.250    1.250    4.500   10.500    2.000 
#    0.000    2.500    0.000    1.500    0.000    0.000 
#    0.000    0.000    0.000    0.000    0.000    0.000 
#
# Total GULP energy -178453.662931 kJ/mol
# GULP energy per Si atom -5576.676967 kJ/mol
# Density = 2.165267 g / cm^3
# Si number density = 21.702062 Si / 1000 Ang^3
#
#
#
# Elastic Constant Matrix: (Units=GPa)
#
#
# Indices 1 2 3 4 5 6 
#
# 1 68.3941 40.8768 18.6111 0.0000 0.0000 -5.4366
# 2 40.8768 68.3941 18.6111 0.0000 0.0000 5.4366
# 3 18.6111 18.6111 128.7066 0.0000 0.0000 0.0000
# 4 0.0000 0.0000 0.0000 10.2510 0.0000 0.0000
# 5 0.0000 0.0000 0.0000 0.0000 10.2510 0.0000
# 6 -5.4366 5.4366 0.0000 0.0000 0.0000 14.5208
#
#
#
# Elastic Compliance Matrix: (Units=1/GPa)
#
#
# Indices 1 2 3 4 5 6 
#
# 1 0.026138 -0.016512 -0.001392 0.000000 0.000000 0.015968
# 2 -0.016512 0.026138 -0.001392 0.000000 0.000000 -0.015968
# 3 -0.001392 -0.001392 0.008172 0.000000 0.000000 0.000000
# 4 0.000000 0.000000 0.000000 0.097551 0.000000 0.000000
# 5 0.000000 0.000000 0.000000 0.000000 0.097551 0.000000
# 6 0.015968 -0.015968 0.000000 0.000000 0.000000 0.080824
#
#
# Mechanical properties :
#
#
# Convention : Reuss Voigt Hill
#
# Bulk Modulus (GPa) = 45.75399 46.85473 46.30436
# Shear Modulus (GPa) = 13.08034 19.49762 16.28898
#
# Velocity S-wave (km/s) = 2.45771 3.00062 2.74263
# Velocity P-wave (km/s) = 5.40207 5.80016 5.60465
#
# Compressibility (1/GPa) = 0.02185602
#
# Stress axis : x y z
#
# Youngs Moduli (GPa) = 38.25820 38.25820 122.36692
#
# Poissons Ratio (x) = 0.63174 0.17032
# Poissons Ratio (y) = 0.63174 0.17032
# Poissons Ratio (z) = 0.05325 0.05325
#
# Static dielectric constant tensor:
#      x y z
#    x 1.841900 0.000000 0.000000 
#    y 0.000000 1.841900 0.000000 
#    z 0.000000 0.000000 1.785130 
# 
# From -- ./inp_files/421.got.cif
#   From: 2010.05.17/outbox.cif.g08.bks.cpg/sg80_cif.got.tgz:421.got - 2010.06.03 18:49:13.
