data_PCOD9542061
_publ_section_title
;
Structure prediction by ZEFSAII (Michael W. Deem and Ramdas Pophale) SiO2 
 PCOD9542061
Probable space group: I 41
;
_chemical_formula_sum "Si O2"
_cell_formula_units_Z 64
_cell_length_a 10.871572
_cell_length_b 10.871572
_cell_length_c 27.351584
_cell_angle_alpha 90.000000
_cell_angle_beta 90.000000
_cell_angle_gamma 90.000000
_cell_volume 3232.713191
_symmetry_space_group_name_H-M "I 41"
_symmetry_group_IT_number 80
_symmetry_cell_setting 'tetragonal'
loop_
_space_group_symop_operation_xyz
x,y,z
-y,1/2+x,1/4+z
-x,-y,z
y,1/2-x,1/4+z
1/2+x,1/2+y,1/2+z
1/2-y,x,3/4+z
1/2-x,1/2-y,1/2+z
1/2+y,-x,3/4+z
loop_
_atom_site_type_symbol
_atom_site_label
_atom_site_fract_x
_atom_site_fract_y
_atom_site_fract_z
Si Si1 0.625541 0.060402 0.264420
Si Si2 0.835498 0.686304 0.524573
Si Si3 0.266668 0.842281 0.353384
Si Si4 0.312913 0.802380 0.941062
Si Si5 0.619130 0.575461 0.876736
Si Si6 0.111307 0.675767 0.282887
Si Si7 0.903588 0.657076 0.418899
Si Si8 0.338344 0.087263 0.812311
O O1 0.622838 0.133881 0.315778
O O2 0.684339 0.145030 0.223083
O O3 0.500000 0.000000 0.250326
O O4 0.715521 0.944915 0.272107
O O5 0.876721 0.605067 0.570899
O O6 0.844681 0.625181 0.471186
O O7 0.701207 0.738408 0.539506
O O8 0.269794 0.744196 0.396504
O O9 0.160773 0.783751 0.318299
O O10 0.226953 0.974313 0.375439
O O11 0.446645 0.855342 0.923251
O O12 0.230685 0.878164 0.978862
O O13 0.500000 0.500000 0.890722
O O14 0.627330 0.698453 0.908721
O O15 0.187453 0.549204 0.292554
O O16 0.974356 0.631982 0.295372
O O17 0.847677 0.589711 0.371371
#
# Coordination Sequence:
#
# PCOD9542061 Si02
#       8
#     8   8   8   8   8   8   8   8
#     4   9  20  34  54  82 114 145 176 233 285 331
#     4   9  20  32  51  85 109 144 185 225 280 335
#     4  10  18  33  53  82 108 140 186 227 271 335
#     4  10  19  32  57  84 109 147 184 224 282 337
#     4  10  17  31  53  82 120 136 171 236 290 321
#     4  10  21  36  53  77 113 150 180 224 273 329
#     4  10  19  31  56  86 110 148 180 229 296 339
#     4  10  20  39  53  76 119 148 184 232 275 327
#
# _framework density 19.797612999999998
#
# number of rings (size 3 to 8) (size 9 to 14) (size 15 to 20)
#    0.000    2.250    2.500    1.500    3.500    1.000 
#    2.250    3.750    0.000    2.250    0.000    0.000 
#    0.000    0.000    0.000    0.000    0.000    0.000 
#
# Total GULP energy -178334.250955 kJ/mol
# GULP energy per Si atom -5572.945342 kJ/mol
# Density = 1.975255 g / cm^3
# Si number density = 19.797613 Si / 1000 Ang^3
#
#
#
# Elastic Constant Matrix: (Units=GPa)
#
#
# Indices 1 2 3 4 5 6 
#
# 1 47.7503 9.0283 21.2313 0.0000 0.0000 5.0558
# 2 9.0283 47.7503 21.2313 0.0000 0.0000 -5.0558
# 3 21.2313 21.2313 136.7342 0.0000 0.0000 0.0000
# 4 0.0000 0.0000 0.0000 16.0690 0.0000 0.0000
# 5 0.0000 0.0000 0.0000 0.0000 16.0690 0.0000
# 6 5.0558 -5.0558 0.0000 0.0000 0.0000 14.1587
#
#
#
# Elastic Compliance Matrix: (Units=1/GPa)
#
#
# Indices 1 2 3 4 5 6 
#
# 1 0.024204 -0.004277 -0.003094 0.000000 0.000000 -0.010170
# 2 -0.004277 0.024204 -0.003094 0.000000 0.000000 0.010170
# 3 -0.003094 -0.003094 0.008274 0.000000 0.000000 0.000000
# 4 0.000000 0.000000 0.000000 0.062231 0.000000 0.000000
# 5 0.000000 0.000000 0.000000 0.000000 0.062231 0.000000
# 6 -0.010170 0.010170 0.000000 0.000000 0.000000 0.077891
#
#
# Mechanical properties :
#
#
# Convention : Reuss Voigt Hill
#
# Bulk Modulus (GPa) = 27.97161 37.24630 32.60895
# Shear Modulus (GPa) = 17.13016 21.30896 19.21956
#
# Velocity S-wave (km/s) = 2.94473 3.28432 3.11915
# Velocity P-wave (km/s) = 5.07162 5.76513 5.42946
#
# Compressibility (1/GPa) = 0.03575054
#
# Stress axis : x y z
#
# Youngs Moduli (GPa) = 41.31633 41.31633 120.85615
#
# Poissons Ratio (x) = 0.17672 0.37393
# Poissons Ratio (y) = 0.17672 0.37393
# Poissons Ratio (z) = 0.12783 0.12783
#
# Static dielectric constant tensor:
#      x y z
#    x 1.758140 0.000000 0.000000 
#    y 0.000000 1.758140 0.000000 
#    z 0.000000 0.000000 1.757400 
# 
# From -- ./inp_files/2381.got.cif
#   From: 2010.05.17/outbox.cif.g08.bks.cpg/sg80_cif.got.tgz:2381.got - 2010.06.03 18:49:13.
