data_PCOD9542224
_publ_section_title
;
Structure prediction by ZEFSAII (Michael W. Deem and Ramdas Pophale) SiO2 
 PCOD9542224
Probable space group: I 41
;
_chemical_formula_sum "Si O2"
_cell_formula_units_Z 48
_cell_length_a 10.758180
_cell_length_b 10.758180
_cell_length_c 17.225451
_cell_angle_alpha 90.000000
_cell_angle_beta 90.000000
_cell_angle_gamma 90.000000
_cell_volume 1993.646774
_symmetry_space_group_name_H-M "I 41"
_symmetry_group_IT_number 80
_symmetry_cell_setting 'tetragonal'
loop_
_space_group_symop_operation_xyz
x,y,z
-y,1/2+x,1/4+z
-x,-y,z
y,1/2-x,1/4+z
1/2+x,1/2+y,1/2+z
1/2-y,x,3/4+z
1/2-x,1/2-y,1/2+z
1/2+y,-x,3/4+z
loop_
_atom_site_type_symbol
_atom_site_label
_atom_site_fract_x
_atom_site_fract_y
_atom_site_fract_z
Si Si1 0.852784 0.319911 0.584730
Si Si2 0.000000 0.500000 0.099353
Si Si3 0.647216 0.319911 0.233626
Si Si4 0.000000 0.500000 0.469003
Si Si5 0.937183 0.767436 0.925555
Si Si6 0.289866 0.210134 0.284178
Si Si7 0.732564 0.562817 0.642801
O O1 0.780451 0.219549 0.534178
O O2 0.913140 0.250000 0.659178
O O3 0.934524 0.402301 0.526347
O O4 0.757203 0.422136 0.619112
O O5 0.086822 0.417594 0.155972
O O6 0.097699 0.565476 0.042009
O O7 0.742796 0.422136 0.199244
O O8 0.917594 0.586822 0.412383
O O9 0.898638 0.700410 0.846090
O O10 0.840982 0.715087 0.988423
O O11 0.299589 0.101362 0.222266
O O12 0.159018 0.215087 0.329933
#
# Coordination Sequence:
#
# PCOD9542224 Si02
#       7
#     8   4   8   4   8   8   8
#     4  12  27  48  73 109 151 197 254 308 373 450
#     4  12  26  45  73 106 148 200 240 312 376 441
#     4  12  27  48  73 109 151 197 254 308 373 450
#     4  12  26  45  73 106 148 200 240 312 376 441
#     4  11  24  43  70 107 148 190 249 302 375 442
#     4  10  24  43  72 109 146 198 244 308 372 450
#     4  11  24  43  70 107 148 190 249 302 375 442
#
# _framework density 24.07648
#
# number of rings (size 3 to 8) (size 9 to 14) (size 15 to 20)
#    0.000    0.667    6.667    0.000    4.667    2.667 
#    0.000    0.000    0.000    0.000    0.000    0.000 
#    0.000    0.000    0.000    0.000    0.000    0.000 
#
# Total GULP energy -134252.932962 kJ/mol
# GULP energy per Si atom -5593.872207 kJ/mol
# Density = 2.402168 g / cm^3
# Si number density = 24.076480 Si / 1000 Ang^3
#
#
#
# Elastic Constant Matrix: (Units=GPa)
#
#
# Indices 1 2 3 4 5 6 
#
# 1 71.6950 10.4082 19.2349 0.0000 0.0000 0.0000
# 2 10.4082 71.6950 19.2349 0.0000 0.0000 0.0000
# 3 19.2349 19.2349 98.8981 0.0000 0.0000 0.0000
# 4 0.0000 0.0000 0.0000 36.4091 0.0000 0.0000
# 5 0.0000 0.0000 0.0000 0.0000 36.4091 0.0000
# 6 0.0000 0.0000 0.0000 0.0000 0.0000 48.1515
#
#
#
# Elastic Compliance Matrix: (Units=1/GPa)
#
#
# Indices 1 2 3 4 5 6 
#
# 1 0.014859 -0.001458 -0.002606 0.000000 0.000000 0.000000
# 2 -0.001458 0.014859 -0.002606 0.000000 0.000000 0.000000
# 3 -0.002606 -0.002606 0.011125 0.000000 0.000000 0.000000
# 4 0.000000 0.000000 0.000000 0.027466 0.000000 0.000000
# 5 0.000000 0.000000 0.000000 0.000000 0.027466 0.000000
# 6 0.000000 0.000000 0.000000 0.000000 0.000000 0.020768
#
#
# Mechanical properties :
#
#
# Convention : Reuss Voigt Hill
#
# Bulk Modulus (GPa) = 36.36132 37.78268 37.07200
# Shear Modulus (GPa) = 35.95812 37.08795 36.52303
#
# Velocity S-wave (km/s) = 3.86877 3.92908 3.89904
# Velocity P-wave (km/s) = 5.92383 6.02581 5.97504
#
# Compressibility (1/GPa) = 0.02750175
#
# Stress axis : x y z
#
# Youngs Moduli (GPa) = 67.29979 67.29979 89.88550
#
# Poissons Ratio (x) = 0.09811 0.23428
# Poissons Ratio (y) = 0.09811 0.23428
# Poissons Ratio (z) = 0.17541 0.17541
#
# Static dielectric constant tensor:
#      x y z
#    x 1.954590 0.000000 0.000000 
#    y 0.000000 1.954590 0.000000 
#    z 0.000000 0.000000 1.950410 
# 
# From -- ./inp_files/1544.got.cif
#   From: 2010.05.17/outbox.cif.g08.bks.cpg/sg80_cif.got.tgz:1544.got - 2010.06.03 18:49:13.
