data_PCOD9542203
_publ_section_title
;
Structure prediction by ZEFSAII (Michael W. Deem and Ramdas Pophale) SiO2 
 PCOD9542203
Probable space group: I 41
;
_chemical_formula_sum "Si O2"
_cell_formula_units_Z 36
_cell_length_a 7.178308
_cell_length_b 7.178308
_cell_length_c 27.881133
_cell_angle_alpha 90.000000
_cell_angle_beta 90.000000
_cell_angle_gamma 90.000000
_cell_volume 1436.661969
_symmetry_space_group_name_H-M "I 41"
_symmetry_group_IT_number 80
_symmetry_cell_setting 'tetragonal'
loop_
_space_group_symop_operation_xyz
x,y,z
-y,1/2+x,1/4+z
-x,-y,z
y,1/2-x,1/4+z
1/2+x,1/2+y,1/2+z
1/2-y,x,3/4+z
1/2-x,1/2-y,1/2+z
1/2+y,-x,3/4+z
loop_
_atom_site_type_symbol
_atom_site_label
_atom_site_fract_x
_atom_site_fract_y
_atom_site_fract_z
Si Si1 0.126146 0.777869 0.437650
Si Si2 0.789423 0.868591 0.943822
Si Si3 0.000000 0.000000 0.356785
Si Si4 0.000000 0.000000 0.524104
Si Si5 0.000000 0.500000 0.113299
Si Si6 0.305852 0.275902 0.552777
O O1 0.232034 0.585269 0.440633
O O2 0.157207 0.912953 0.392607
O O3 0.905422 0.730435 0.433543
O O4 0.130574 0.879559 0.488509
O O5 0.936852 0.839463 0.901458
O O6 0.851907 0.820119 0.997445
O O7 0.941950 0.817797 0.325747
O O8 0.854249 0.881013 0.553065
O O9 0.016854 0.315719 0.079723
#
# Coordination Sequence:
#
# PCOD9542203 Si02
#       6
#     8   8   4   4   4   8
#     4   9  19  40  69  91 133 188 231 300 372 439
#     4  10  22  45  63  97 144 185 239 305 371 446
#     4  11  20  40  70  99 133 190 248 296 367 458
#     4   9  20  38  65  96 126 173 242 296 357 442
#     4  12  26  44  65 107 145 189 246 310 376 442
#     4  11  24  42  67 102 143 193 243 304 382 444
#
# _framework density 25.058088999999999
#
# number of rings (size 3 to 8) (size 9 to 14) (size 15 to 20)
#    0.000    1.778    2.222    2.667    3.111    1.778 
#    4.000    1.111    0.000    0.000    0.000    0.000 
#    0.000    0.000    0.000    0.000    0.000    0.000 
#
# Total GULP energy -100321.386378 kJ/mol
# GULP energy per Si atom -5573.410354 kJ/mol
# Density = 2.500106 g / cm^3
# Si number density = 25.058089 Si / 1000 Ang^3
#
#
#
# Elastic Constant Matrix: (Units=GPa)
#
#
# Indices 1 2 3 4 5 6 
#
# 1 78.7809 21.4690 39.3697 0.0000 0.0000 13.7234
# 2 21.4690 78.7809 39.3697 0.0000 0.0000 -13.7234
# 3 39.3697 39.3697 167.9049 0.0000 0.0000 0.0000
# 4 0.0000 0.0000 0.0000 29.1483 0.0000 0.0000
# 5 0.0000 0.0000 0.0000 0.0000 29.1482 0.0000
# 6 13.7234 -13.7234 0.0000 0.0000 0.0000 43.2369
#
#
#
# Elastic Compliance Matrix: (Units=1/GPa)
#
#
# Indices 1 2 3 4 5 6 
#
# 1 0.016401 -0.004175 -0.002867 0.000000 0.000000 -0.006531
# 2 -0.004175 0.016401 -0.002867 0.000000 0.000000 0.006531
# 3 -0.002867 -0.002867 0.007300 0.000000 0.000000 0.000000
# 4 0.000000 0.000000 0.000000 0.034307 0.000000 0.000000
# 5 0.000000 0.000000 0.000000 0.000000 0.034307 0.000000
# 6 -0.006531 0.006531 0.000000 0.000000 0.000000 0.027274
#
#
# Mechanical properties :
#
#
# Convention : Reuss Voigt Hill
#
# Bulk Modulus (GPa) = 49.29449 58.43151 53.86300
# Shear Modulus (GPa) = 30.75581 35.32389 33.03985
#
# Velocity S-wave (km/s) = 3.50720 3.75864 3.63510
# Velocity P-wave (km/s) = 6.00961 6.49658 6.25783
#
# Compressibility (1/GPa) = 0.02028624
#
# Stress axis : x y z
#
# Youngs Moduli (GPa) = 60.97028 60.97030 136.98268
#
# Poissons Ratio (x) = 0.25453 0.39272
# Poissons Ratio (y) = 0.25453 0.39272
# Poissons Ratio (z) = 0.17480 0.17480
#
# Static dielectric constant tensor:
#      x y z
#    x 2.090930 0.000000 0.000000 
#    y 0.000000 2.090930 0.000000 
#    z 0.000000 0.000000 2.030020 
# 
# From -- ./inp_files/2276.got.cif
#   From: 2010.05.17/outbox.cif.g08.bks.cpg/sg80_cif.got.tgz:2276.got - 2010.06.03 18:49:13.
