data_PCOD9542367
_publ_section_title
;
Structure prediction by ZEFSAII (Michael W. Deem and Ramdas Pophale) SiO2 
 PCOD9542367
Probable space group: P -4
;
_chemical_formula_sum "Si O2"
_cell_formula_units_Z 20
_cell_length_a 8.382377
_cell_length_b 8.382377
_cell_length_c 14.113340
_cell_angle_alpha 90.000000
_cell_angle_beta 90.000000
_cell_angle_gamma 90.000000
_cell_volume 991.663168
_symmetry_space_group_name_H-M "P -4"
_symmetry_group_IT_number 81
_symmetry_cell_setting 'tetragonal'
loop_
_space_group_symop_operation_xyz
x,y,z
y,-x,-z
-x,-y,z
-y,x,-z
loop_
_atom_site_type_symbol
_atom_site_label
_atom_site_fract_x
_atom_site_fract_y
_atom_site_fract_z
Si Si1 0.693628 0.314999 0.336520
Si Si2 0.000000 0.000000 0.000000
Si Si3 0.357720 0.116848 0.001813
Si Si4 0.753772 0.080422 0.481632
Si Si5 0.328282 0.426579 0.871652
Si Si6 0.500000 0.500000 0.500000
Si Si7 0.500000 0.000000 0.629149
O O1 0.714890 0.137152 0.376565
O O2 0.596661 0.317175 0.240592
O O3 0.609392 0.400487 0.426492
O O4 0.865466 0.398256 0.317798
O O5 0.960837 0.187135 0.968697
O O6 0.320638 0.256959 0.925875
O O7 0.500000 0.000000 0.963497
O O8 0.448333 0.199851 0.089498
O O9 0.899575 0.188959 0.515762
O O10 0.616116 0.093755 0.558121
O O11 0.500000 0.500000 0.893068
#
# Coordination Sequence:
#
# PCOD9542367 Si02
#       7
#     4   1   4   4   4   1   2
#     4  11  23  38  63  99 126 180 229 281 343 420
#     4  12  24  48  84 108 144 194 240 296 384 436
#     4  12  24  47  75 105 146 187 233 303 368 433
#     4   9  19  38  61  83 129 176 213 276 348 399
#     4  12  23  44  70 102 140 183 238 292 365 439
#     4  12  20  40  60  94 132 172 228 284 328 402
#     4  10  20  38  60  90 128 172 222 280 336 408
#
# _framework density 20.168137000000002
#
# number of rings (size 3 to 8) (size 9 to 14) (size 15 to 20)
#    0.000    1.000    7.000    0.000    1.400    0.000 
#    1.800    4.000    0.000    0.000    0.000    0.000 
#    0.000    0.000    0.000    0.000    0.000    0.000 
#
# Total GULP energy -111397.950436 kJ/mol
# GULP energy per Si atom -5569.897522 kJ/mol
# Density = 2.012223 g / cm^3
# Si number density = 20.168137 Si / 1000 Ang^3
#
#
#
# Elastic Constant Matrix: (Units=GPa)
#
#
# Indices 1 2 3 4 5 6 
#
# 1 68.6489 67.6612 39.6208 0.0000 0.0000 -19.5285
# 2 67.6612 68.6489 39.6208 0.0000 0.0000 19.5285
# 3 39.6208 39.6208 112.7938 0.0000 0.0000 0.0000
# 4 0.0000 0.0000 0.0000 20.0223 0.0000 0.0000
# 5 0.0000 0.0000 0.0000 0.0000 20.0223 0.0000
# 6 -19.5285 19.5285 0.0000 0.0000 0.0000 17.8282
#
#
#
# Elastic Compliance Matrix: (Units=1/GPa)
#
#
# Indices 1 2 3 4 5 6 
#
# 1 -0.007354 0.016573 -0.003238 0.000000 0.000000 -0.026209
# 2 0.016573 -0.007354 -0.003238 0.000000 0.000000 0.026209
# 3 -0.003238 -0.003238 0.011141 0.000000 0.000000 0.000000
# 4 0.000000 0.000000 0.000000 0.049944 0.000000 0.000000
# 5 0.000000 0.000000 0.000000 0.000000 0.049944 0.000000
# 6 -0.026209 0.026209 0.000000 0.000000 0.000000 -0.001326
#
#
# Mechanical properties :
#
#
# Convention : Reuss Voigt Hill
#
# Bulk Modulus (GPa) = 60.14967 60.43301 60.29134
# Shear Modulus (GPa) = 62.23174 18.45381 40.34278
#
# Velocity S-wave (km/s) = 5.56089 3.02818 4.47735
# Velocity P-wave (km/s) = 8.43327 6.50047 7.52915
#
# Compressibility (1/GPa) = 0.01662519
#
# Stress axis : x y z
#
# Youngs Moduli (GPa) = -135.97938 -135.97938 89.76097
#
# Poissons Ratio (x) = 2.25355 0.29067
# Poissons Ratio (y) = 2.25355 0.29067
# Poissons Ratio (z) = -0.44033 -0.44033
#
# Static dielectric constant tensor:
#      x y z
#    x 1.802520 0.000000 0.000000 
#    y 0.000000 1.802520 0.000000 
#    z 0.000000 0.000000 1.702120 
# 
# From -- ./inp_files/1483.got.cif
#   From: 2010.05.17/outbox.cif.g08.bks.cpg/sg81_cif.got.tgz:1483.got - 2010.06.03 18:51:07.
