data_PCOD9542978
_publ_section_title
;
Structure prediction by ZEFSAII (Michael W. Deem and Ramdas Pophale) SiO2 
 PCOD9542978
Probable space group: I -4 
;
_chemical_formula_sum "Si O2"
_cell_formula_units_Z 40
_cell_length_a 10.533848
_cell_length_b 10.533848
_cell_length_c 14.884647
_cell_angle_alpha 90.000000
_cell_angle_beta 90.000000
_cell_angle_gamma 90.000000
_cell_volume 1651.629511
_symmetry_space_group_name_H-M "I -4 "
_symmetry_group_IT_number 82
_symmetry_cell_setting 'tetragonal'
loop_
_space_group_symop_operation_xyz
x,y,z
y,-x,-z
-x,-y,z
-y,x,-z
1/2+x,1/2+y,1/2+z
1/2+y,1/2-x,1/2-z
1/2-x,1/2-y,1/2+z
1/2-y,1/2+x,1/2-z
loop_
_atom_site_type_symbol
_atom_site_label
_atom_site_fract_x
_atom_site_fract_y
_atom_site_fract_z
Si Si1 0.550014 0.827360 0.796102
Si Si2 0.252011 0.913688 0.118181
Si Si3 0.075669 0.803716 0.710296
Si Si4 0.156367 0.901221 0.452853
Si Si5 0.795737 0.601560 0.464560
O O1 0.406281 0.863757 0.775151
O O2 0.587331 0.681633 0.787483
O O3 0.595827 0.884046 0.890450
O O4 0.351599 0.814671 0.162379
O O5 0.126555 0.834541 0.089995
O O6 0.226760 0.020370 0.192591
O O7 0.300898 0.980519 0.027705
O O8 0.959287 0.839500 0.645685
O O9 0.274457 0.812527 0.472688
O O10 0.024768 0.837588 0.481485
#
# Coordination Sequence:
#
# PCOD9542978 Si02
#       5
#     8   8   8   8   8
#     4  10  24  47  71 109 146 200 251 315 381 448
#     4  11  26  49  73 112 151 202 253 316 388 461
#     4  11  25  50  76 108 152 199 258 308 389 465
#     4  11  23  47  75 107 140 194 249 308 378 462
#     4  11  26  48  71 112 150 193 253 312 393 457
#
# _framework density 24.218505
#
# number of rings (size 3 to 8) (size 9 to 14) (size 15 to 20)
#    0.000    1.200    4.000    1.200    2.800   11.200 
#    3.600    0.000    0.000    0.000    0.000    0.000 
#    0.000    0.000    0.000    0.000    0.000    0.000 
#
# Total GULP energy -112053.302646 kJ/mol
# GULP energy per Si atom -5602.665132 kJ/mol
# Density = 2.416338 g / cm^3
# Si number density = 24.218505 Si / 1000 Ang^3
#
#
#
# Elastic Constant Matrix: (Units=GPa)
#
#
# Indices 1 2 3 4 5 6 
#
# 1 73.9154 23.5554 32.6533 0.0000 0.0000 1.7050
# 2 23.5554 73.9154 32.6533 0.0000 0.0000 -1.7050
# 3 32.6533 32.6533 138.7637 0.0000 0.0000 0.0000
# 4 0.0000 0.0000 0.0000 45.8554 0.0000 0.0000
# 5 0.0000 0.0000 0.0000 0.0000 45.8554 0.0000
# 6 1.7050 -1.7050 0.0000 0.0000 0.0000 19.2774
#
#
#
# Elastic Compliance Matrix: (Units=1/GPa)
#
#
# Indices 1 2 3 4 5 6 
#
# 1 0.016078 -0.003898 -0.002866 0.000000 0.000000 -0.001767
# 2 -0.003898 0.016078 -0.002866 0.000000 0.000000 0.001767
# 3 -0.002866 -0.002866 0.008555 0.000000 0.000000 0.000000
# 4 0.000000 0.000000 0.000000 0.021808 0.000000 0.000000
# 5 0.000000 0.000000 0.000000 0.000000 0.021808 0.000000
# 6 -0.001767 0.001767 0.000000 0.000000 0.000000 0.052187
#
#
# Mechanical properties :
#
#
# Convention : Reuss Voigt Hill
#
# Bulk Modulus (GPa) = 46.61881 51.59097 49.10489
# Shear Modulus (GPa) = 30.68890 35.37982 33.03436
#
# Velocity S-wave (km/s) = 3.56359 3.82627 3.69726
# Velocity P-wave (km/s) = 6.01858 6.39288 6.20855
#
# Compressibility (1/GPa) = 0.02145057
#
# Stress axis : x y z
#
# Youngs Moduli (GPa) = 62.19584 62.19584 116.88557
#
# Poissons Ratio (x) = 0.24247 0.33501
# Poissons Ratio (y) = 0.24247 0.33501
# Poissons Ratio (z) = 0.17826 0.17826
#
# Static dielectric constant tensor:
#      x y z
#    x 1.915630 0.000000 0.000000 
#    y 0.000000 1.915630 0.000000 
#    z 0.000000 0.000000 1.981660 
# 
# From -- ./inp_files/2200.got.cif
#   From: 2010.05.17/outbox.cif.g08.bks.cpg/sg82_2_cif.got.tgz:2200.got - 2010.06.03 18:52:26.
