data_PCOD9542450
_publ_section_title
;
Structure prediction by ZEFSAII (Michael W. Deem and Ramdas Pophale) SiO2 
 PCOD9542450
Probable space group: P -4
;
_chemical_formula_sum "Si O2"
_cell_formula_units_Z 18
_cell_length_a 11.739434
_cell_length_b 11.739434
_cell_length_c 4.965828
_cell_angle_alpha 90.000000
_cell_angle_beta 90.000000
_cell_angle_gamma 90.000000
_cell_volume 684.362163
_symmetry_space_group_name_H-M "P -4"
_symmetry_group_IT_number 81
_symmetry_cell_setting 'tetragonal'
loop_
_space_group_symop_operation_xyz
x,y,z
y,-x,-z
-x,-y,z
-y,x,-z
loop_
_atom_site_type_symbol
_atom_site_label
_atom_site_fract_x
_atom_site_fract_y
_atom_site_fract_z
Si Si1 0.962648 0.310373 0.952203
Si Si2 0.718987 0.599783 0.306972
Si Si3 0.137985 0.194657 0.355098
Si Si4 0.500000 0.500000 0.500000
Si Si5 0.000000 0.000000 0.500000
Si Si6 0.159629 0.466453 0.794762
O O1 0.891533 0.202587 0.849129
O O2 0.877239 0.418849 0.953642
O O3 0.057232 0.374522 0.766406
O O4 0.039364 0.267575 0.203200
O O5 0.761361 0.719592 0.429443
O O6 0.588147 0.572190 0.329008
O O7 0.789809 0.514132 0.500462
O O8 0.753125 0.592937 0.997973
O O9 0.079616 0.110847 0.572284
#
# Coordination Sequence:
#
# PCOD9542450 Si02
#       6
#     4   4   4   1   1   4
#     4  10  22  41  67  96 135 178 226 279 342 409
#     4  11  26  45  69 100 137 179 229 284 340 405
#     4  11  23  41  65 102 138 179 227 284 342 411
#     4  12  28  46  72 102 136 182 232 286 344 406
#     4  12  24  38  68 100 140 182 228 282 348 414
#     4  10  24  46  70  97 135 182 227 279 341 408
#
# _framework density 26.301859
#
# number of rings (size 3 to 8) (size 9 to 14) (size 15 to 20)
#    0.000    1.333    0.000    4.000    0.000   18.667 
#    0.000    0.000    0.000    0.000    0.000    0.000 
#    0.000    0.000    0.000    0.000    0.000    0.000 
#
# Total GULP energy -100305.536578 kJ/mol
# GULP energy per Si atom -5572.529810 kJ/mol
# Density = 2.624200 g / cm^3
# Si number density = 26.301859 Si / 1000 Ang^3
#
#
#
# Elastic Constant Matrix: (Units=GPa)
#
#
# Indices 1 2 3 4 5 6 
#
# 1 118.1544 55.9117 29.4299 0.0000 0.0000 3.6453
# 2 55.9117 118.1544 29.4299 0.0000 0.0000 -3.6453
# 3 29.4299 29.4299 95.9006 0.0000 0.0000 0.0000
# 4 0.0000 0.0000 0.0000 17.7256 0.0000 0.0000
# 5 0.0000 0.0000 0.0000 0.0000 17.7256 0.0000
# 6 3.6453 -3.6453 0.0000 0.0000 0.0000 62.7432
#
#
#
# Elastic Compliance Matrix: (Units=1/GPa)
#
#
# Indices 1 2 3 4 5 6 
#
# 1 0.011293 -0.004883 -0.001967 0.000000 0.000000 -0.000940
# 2 -0.004883 0.011293 -0.001967 0.000000 0.000000 0.000940
# 3 -0.001967 -0.001967 0.011635 0.000000 0.000000 0.000000
# 4 0.000000 0.000000 0.000000 0.056416 0.000000 0.000000
# 5 0.000000 0.000000 0.000000 0.000000 0.056416 0.000000
# 6 -0.000940 0.000940 0.000000 0.000000 0.000000 0.016047
#
#
# Mechanical properties :
#
#
# Convention : Reuss Voigt Hill
#
# Bulk Modulus (GPa) = 60.28993 62.41694 61.35344
# Shear Modulus (GPa) = 26.84373 34.13471 30.48922
#
# Velocity S-wave (km/s) = 3.19815 3.60642 3.40840
# Velocity P-wave (km/s) = 6.05059 6.41281 6.23433
#
# Compressibility (1/GPa) = 0.01658652
#
# Stress axis : x y z
#
# Youngs Moduli (GPa) = 88.54902 88.54902 85.94897
#
# Poissons Ratio (x) = 0.43239 0.16907
# Poissons Ratio (y) = 0.43239 0.16907
# Poissons Ratio (z) = 0.17419 0.17419
#
# Static dielectric constant tensor:
#      x y z
#    x 2.132270 0.000000 0.000000 
#    y 0.000000 2.132270 0.000000 
#    z 0.000000 0.000000 2.033960 
# 
# From -- ./inp_files/230.got.cif
#   From: 2010.05.17/outbox.cif.g08.bks.cpg/sg81_cif.got.tgz:230.got - 2010.06.03 18:51:07.
