data_PCOD9542895
_publ_section_title
;
Structure prediction by ZEFSAII (Michael W. Deem and Ramdas Pophale) SiO2 
 PCOD9542895
Probable space group: I -4 
;
_chemical_formula_sum "Si O2"
_cell_formula_units_Z 40
_cell_length_a 14.724966
_cell_length_b 14.724966
_cell_length_c 7.915560
_cell_angle_alpha 90.000000
_cell_angle_beta 90.000000
_cell_angle_gamma 90.000000
_cell_volume 1716.288318
_symmetry_space_group_name_H-M "I -4 "
_symmetry_group_IT_number 82
_symmetry_cell_setting 'tetragonal'
loop_
_space_group_symop_operation_xyz
x,y,z
y,-x,-z
-x,-y,z
-y,x,-z
1/2+x,1/2+y,1/2+z
1/2+y,1/2-x,1/2-z
1/2-x,1/2-y,1/2+z
1/2-y,1/2+x,1/2-z
loop_
_atom_site_type_symbol
_atom_site_label
_atom_site_fract_x
_atom_site_fract_y
_atom_site_fract_z
Si Si1 0.372690 0.056030 0.199527
Si Si2 0.624602 0.717468 0.584124
Si Si3 0.316642 0.478281 0.659622
Si Si4 0.110684 0.915255 0.431124
Si Si5 0.819277 0.712490 0.435586
O O1 0.595554 0.048962 0.177810
O O2 0.271316 0.047166 0.272836
O O3 0.358756 0.127304 0.044517
O O4 0.525839 0.728386 0.502807
O O5 0.628331 0.613066 0.644305
O O6 0.710060 0.719045 0.454750
O O7 0.647867 0.782055 0.742074
O O8 0.379261 0.555132 0.738198
O O9 0.195058 0.854355 0.479122
O O10 0.011502 0.879551 0.471458
#
# Coordination Sequence:
#
# PCOD9542895 Si02
#       5
#     8   8   8   8   8
#     4  10  22  43  71 100 136 193 243 301 365 428
#     4  11  26  44  72 106 149 196 244 307 370 449
#     4  11  24  43  68 107 146 192 239 301 369 445
#     4  11  23  39  68 104 141 187 233 302 367 440
#     4  11  23  46  70 105 141 197 246 299 369 447
#
# _framework density 23.306107000000001
#
# number of rings (size 3 to 8) (size 9 to 14) (size 15 to 20)
#    0.000    1.200    4.000    1.200    5.600    0.400 
#    0.000    0.000    0.000    0.000    0.000    0.000 
#    0.000    0.000    0.000    0.000    0.000    0.000 
#
# Total GULP energy -111631.298537 kJ/mol
# GULP energy per Si atom -5581.564927 kJ/mol
# Density = 2.325306 g / cm^3
# Si number density = 23.306107 Si / 1000 Ang^3
#
#
#
# Elastic Constant Matrix: (Units=GPa)
#
#
# Indices 1 2 3 4 5 6 
#
# 1 124.4719 32.1236 23.0934 0.0000 0.0000 9.9903
# 2 32.1236 124.4719 23.0934 0.0000 0.0000 -9.9903
# 3 23.0934 23.0934 70.2915 0.0000 0.0000 0.0000
# 4 0.0000 0.0000 0.0000 35.0849 0.0000 0.0000
# 5 0.0000 0.0000 0.0000 0.0000 35.0849 0.0000
# 6 9.9903 -9.9903 0.0000 0.0000 0.0000 36.4143
#
#
#
# Elastic Compliance Matrix: (Units=1/GPa)
#
#
# Indices 1 2 3 4 5 6 
#
# 1 0.009291 -0.002220 -0.002323 0.000000 0.000000 -0.003158
# 2 -0.002220 0.009291 -0.002323 0.000000 0.000000 0.003158
# 3 -0.002323 -0.002323 0.015753 0.000000 0.000000 0.000000
# 4 0.000000 0.000000 0.000000 0.028502 0.000000 0.000000
# 5 0.000000 0.000000 0.000000 0.000000 0.028502 0.000000
# 6 -0.003158 0.003158 0.000000 0.000000 0.000000 0.029195
#
#
# Mechanical properties :
#
#
# Convention : Reuss Voigt Hill
#
# Bulk Modulus (GPa) = 48.53754 52.87292 50.70523
# Shear Modulus (GPa) = 35.42679 37.37845 36.40262
#
# Velocity S-wave (km/s) = 3.90303 4.00910 3.95642
# Velocity P-wave (km/s) = 6.41739 6.64575 6.53257
#
# Compressibility (1/GPa) = 0.02060261
#
# Stress axis : x y z
#
# Youngs Moduli (GPa) = 107.62544 107.62544 63.48022
#
# Poissons Ratio (x) = 0.23897 0.14747
# Poissons Ratio (y) = 0.23897 0.14747
# Poissons Ratio (z) = 0.25003 0.25003
#
# Static dielectric constant tensor:
#      x y z
#    x 1.870890 0.000000 0.000000 
#    y 0.000000 1.870890 0.000000 
#    z 0.000000 0.000000 2.001140 
# 
# From -- ./inp_files/957.got.cif
#   From: 2010.05.17/outbox.cif.g08.bks.cpg/sg82_1_cif.got.tgz:957.got - 2010.06.03 18:52:26.
