data_PCOD9542094
_publ_section_title
;
Structure prediction by ZEFSAII (Michael W. Deem and Ramdas Pophale) SiO2 
 PCOD9542094
Probable space group: I 41
;
_chemical_formula_sum "Si O2"
_cell_formula_units_Z 64
_cell_length_a 22.950762
_cell_length_b 22.950762
_cell_length_c 6.267560
_cell_angle_alpha 90.000000
_cell_angle_beta 90.000000
_cell_angle_gamma 90.000000
_cell_volume 3301.358737
_symmetry_space_group_name_H-M "I 41"
_symmetry_group_IT_number 80
_symmetry_cell_setting 'tetragonal'
loop_
_space_group_symop_operation_xyz
x,y,z
-y,1/2+x,1/4+z
-x,-y,z
y,1/2-x,1/4+z
1/2+x,1/2+y,1/2+z
1/2-y,x,3/4+z
1/2-x,1/2-y,1/2+z
1/2+y,-x,3/4+z
loop_
_atom_site_type_symbol
_atom_site_label
_atom_site_fract_x
_atom_site_fract_y
_atom_site_fract_z
Si Si1 0.404747 0.799127 0.213340
Si Si2 0.307318 0.190005 0.567951
Si Si3 0.507470 0.655507 0.294546
Si Si4 0.402491 0.295794 0.970845
Si Si5 0.020776 0.319126 0.449706
Si Si6 0.040341 0.750108 0.100094
Si Si7 0.179610 0.594219 0.735167
Si Si8 0.118042 0.397174 0.327891
O O1 0.409488 0.779307 0.459041
O O2 0.386363 0.741054 0.087356
O O3 0.361699 0.852463 0.181413
O O4 0.469143 0.816104 0.123301
O O5 0.256190 0.184262 0.743353
O O6 0.290716 0.157558 0.347697
O O7 0.362336 0.154614 0.664073
O O8 0.554891 0.665282 0.113450
O O9 0.498753 0.714903 0.430491
O O10 0.447565 0.648681 0.162393
O O11 0.540498 0.613196 0.459156
O O12 0.432986 0.233147 0.976227
O O13 0.399397 0.329314 0.748312
O O14 0.058277 0.377384 0.437456
O O15 0.990785 0.301463 0.226776
O O16 0.059917 0.798345 0.274349
#
# Coordination Sequence:
#
# PCOD9542094 Si02
#       8
#     8   8   8   8   8   8   8   8
#     4  10  23  40  66  99 128 167 204 261 319 405
#     4  11  26  35  49  79 122 166 211 275 342 382
#     4  10  19  37  62  86 114 166 210 252 321 372
#     4  11  20  38  57  83 116 168 212 268 318 388
#     4  11  21  36  62  91 118 166 223 259 320 388
#     4  10  19  40  66  84 122 164 204 250 323 385
#     4  10  21  41  64  98 128 163 206 251 327 396
#     4  11  23  35  60  84 120 165 220 270 311 381
#
# _framework density 19.385957000000001
#
# number of rings (size 3 to 8) (size 9 to 14) (size 15 to 20)
#    0.000    1.500    5.000    1.500    5.250    6.000 
#    2.250    0.000    0.000   11.250    0.000    0.000 
#    0.000    0.000    0.000    0.000    0.000    0.000 
#
# Total GULP energy -178350.016707 kJ/mol
# GULP energy per Si atom -5573.438022 kJ/mol
# Density = 1.934183 g / cm^3
# Si number density = 19.385957 Si / 1000 Ang^3
#
#
#
# Elastic Constant Matrix: (Units=GPa)
#
#
# Indices 1 2 3 4 5 6 
#
# 1 70.0112 53.8992 24.4460 0.0000 0.0000 -4.0661
# 2 53.8992 70.0112 24.4460 0.0000 0.0000 4.0661
# 3 24.4460 24.4460 81.8118 0.0000 0.0000 0.0000
# 4 0.0000 0.0000 0.0000 13.4453 0.0000 0.0000
# 5 0.0000 0.0000 0.0000 0.0000 13.4453 0.0000
# 6 -4.0661 4.0661 0.0000 0.0000 0.0000 14.8228
#
#
#
# Elastic Compliance Matrix: (Units=1/GPa)
#
#
# Indices 1 2 3 4 5 6 
#
# 1 0.040595 -0.031445 -0.002734 0.000000 0.000000 0.019762
# 2 -0.031445 0.040595 -0.002734 0.000000 0.000000 -0.019762
# 3 -0.002734 -0.002734 0.013857 0.000000 0.000000 0.000000
# 4 0.000000 0.000000 0.000000 0.074376 0.000000 0.000000
# 5 0.000000 0.000000 0.000000 0.000000 0.074376 0.000000
# 6 0.019762 -0.019762 0.000000 0.000000 0.000000 0.078306
#
#
# Mechanical properties :
#
#
# Convention : Reuss Voigt Hill
#
# Bulk Modulus (GPa) = 47.12581 47.49075 47.30828
# Shear Modulus (GPa) = 12.40688 16.27886 14.34287
#
# Velocity S-wave (km/s) = 2.53255 2.90094 2.72299
# Velocity P-wave (km/s) = 5.73705 5.98091 5.86025
#
# Compressibility (1/GPa) = 0.02121979
#
# Stress axis : x y z
#
# Youngs Moduli (GPa) = 24.63388 24.63388 72.16594
#
# Poissons Ratio (x) = 0.77462 0.19729
# Poissons Ratio (y) = 0.77462 0.19729
# Poissons Ratio (z) = 0.06734 0.06734
#
# Static dielectric constant tensor:
#      x y z
#    x 1.687280 0.000000 0.000000 
#    y 0.000000 1.687280 0.000000 
#    z 0.000000 0.000000 1.734360 
# 
# From -- ./inp_files/423.got.cif
#   From: 2010.05.17/outbox.cif.g08.bks.cpg/sg80_cif.got.tgz:423.got - 2010.06.03 18:49:13.
