data_PCOD9542655
_publ_section_title
;
Structure prediction by ZEFSAII (Michael W. Deem and Ramdas Pophale) SiO2 
 PCOD9542655
Probable space group: I -4 
;
_chemical_formula_sum "Si O2"
_cell_formula_units_Z 60
_cell_length_a 14.720411
_cell_length_b 14.720411
_cell_length_c 13.493833
_cell_angle_alpha 90.000000
_cell_angle_beta 90.000000
_cell_angle_gamma 90.000000
_cell_volume 2923.985420
_symmetry_space_group_name_H-M "I -4 "
_symmetry_group_IT_number 82
_symmetry_cell_setting 'tetragonal'
loop_
_space_group_symop_operation_xyz
x,y,z
y,-x,-z
-x,-y,z
-y,x,-z
1/2+x,1/2+y,1/2+z
1/2+y,1/2-x,1/2-z
1/2-x,1/2-y,1/2+z
1/2-y,1/2+x,1/2-z
loop_
_atom_site_type_symbol
_atom_site_label
_atom_site_fract_x
_atom_site_fract_y
_atom_site_fract_z
Si Si1 0.946624 0.380946 0.198421
Si Si2 0.384677 0.750788 0.843264
Si Si3 0.497879 0.651366 0.988461
Si Si4 0.427675 0.159852 0.525834
Si Si5 0.192590 0.937745 0.317741
Si Si6 0.631976 0.031895 0.201756
Si Si7 0.965594 0.871928 0.052946
Si Si8 0.000000 0.000000 0.232691
O O1 0.888076 0.468780 0.224326
O O2 0.896032 0.291322 0.233653
O O3 0.990205 0.381501 0.091307
O O4 0.362698 0.832953 0.918611
O O5 0.312319 0.669901 0.837033
O O6 0.474114 0.702740 0.888259
O O7 0.513669 0.718679 0.079746
O O8 0.585796 0.587030 0.985807
O O9 0.438382 0.127074 0.413024
O O10 0.440124 0.268254 0.538782
O O11 0.263549 0.960549 0.233475
O O12 0.090472 0.972368 0.292114
O O13 0.568786 0.095197 0.272054
O O14 0.974989 0.914087 0.162716
O O15 0.062360 0.893839 0.001918
#
# Coordination Sequence:
#
# PCOD9542655 Si02
#       8
#     8   8   8   8   8   8   8   4
#     4   9  20  37  59  83 110 147 189 242 306 369
#     4  10  21  37  58  87 115 147 198 257 309 366
#     4   9  18  34  56  81 113 152 188 233 300 371
#     4  11  22  39  61  87 119 153 205 262 311 377
#     4  11  21  37  60  90 124 159 207 259 317 390
#     4  11  26  44  62  87 124 175 220 261 317 390
#     4   9  19  35  56  82 112 155 198 243 309 377
#     4  10  19  34  61  90 126 160 194 254 328 396
#
# _framework density 20.519938
#
# number of rings (size 3 to 8) (size 9 to 14) (size 15 to 20)
#    0.000    2.133    0.000    4.800    0.000    7.467 
#    0.000    8.000    0.000    0.000    0.000    0.000 
#    0.000    0.000    0.000    0.000    0.000    0.000 
#
# Total GULP energy -167376.928487 kJ/mol
# GULP energy per Si atom -5579.230950 kJ/mol
# Density = 2.047323 g / cm^3
# Si number density = 20.519938 Si / 1000 Ang^3
#
#
#
# Elastic Constant Matrix: (Units=GPa)
#
#
# Indices 1 2 3 4 5 6 
#
# 1 60.7325 17.7917 15.7617 0.0000 0.0000 -8.1916
# 2 17.7917 60.7325 15.7617 0.0000 0.0000 8.1916
# 3 15.7617 15.7617 85.0657 0.0000 0.0000 0.0000
# 4 0.0000 0.0000 0.0000 21.5883 0.0000 0.0000
# 5 0.0000 0.0000 0.0000 0.0000 21.5883 0.0000
# 6 -8.1916 8.1916 0.0000 0.0000 0.0000 15.5633
#
#
#
# Elastic Compliance Matrix: (Units=1/GPa)
#
#
# Indices 1 2 3 4 5 6 
#
# 1 0.021449 -0.007691 -0.002549 0.000000 0.000000 0.015337
# 2 -0.007691 0.021449 -0.002549 0.000000 0.000000 -0.015337
# 3 -0.002549 -0.002549 0.012700 0.000000 0.000000 0.000000
# 4 0.000000 0.000000 0.000000 0.046321 0.000000 0.000000
# 5 0.000000 0.000000 0.000000 0.000000 0.046321 0.000000
# 6 0.015337 -0.015337 0.000000 0.000000 0.000000 0.080399
#
#
# Mechanical properties :
#
#
# Convention : Reuss Voigt Hill
#
# Bulk Modulus (GPa) = 33.31122 33.90677 33.60900
# Shear Modulus (GPa) = 18.92328 22.22902 20.57615
#
# Velocity S-wave (km/s) = 3.04005 3.29491 3.17004
# Velocity P-wave (km/s) = 5.34709 5.57090 5.46014
#
# Compressibility (1/GPa) = 0.03001991
#
# Stress axis : x y z
#
# Youngs Moduli (GPa) = 46.62248 46.62247 78.73821
#
# Poissons Ratio (x) = 0.35855 0.20072
# Poissons Ratio (y) = 0.35855 0.20072
# Poissons Ratio (z) = 0.11885 0.11885
#
# Static dielectric constant tensor:
#      x y z
#    x 1.737290 0.000000 0.000000 
#    y 0.000000 1.737290 0.000000 
#    z 0.000000 0.000000 1.766540 
# 
# From -- ./inp_files/2342.got.cif
#   From: 2010.05.17/outbox.cif.g08.bks.cpg/sg82_2_cif.got.tgz:2342.got - 2010.06.03 18:52:26.
