data_PCOD9542897
_publ_section_title
;
Structure prediction by ZEFSAII (Michael W. Deem and Ramdas Pophale) SiO2 
 PCOD9542897
Probable space group: I -4 
;
_chemical_formula_sum "Si O2"
_cell_formula_units_Z 36
_cell_length_a 14.224328
_cell_length_b 14.224328
_cell_length_c 6.254390
_cell_angle_alpha 90.000000
_cell_angle_beta 90.000000
_cell_angle_gamma 90.000000
_cell_volume 1265.460154
_symmetry_space_group_name_H-M "I -4 "
_symmetry_group_IT_number 82
_symmetry_cell_setting 'tetragonal'
loop_
_space_group_symop_operation_xyz
x,y,z
y,-x,-z
-x,-y,z
-y,x,-z
1/2+x,1/2+y,1/2+z
1/2+y,1/2-x,1/2-z
1/2-x,1/2-y,1/2+z
1/2-y,1/2+x,1/2-z
loop_
_atom_site_type_symbol
_atom_site_label
_atom_site_fract_x
_atom_site_fract_y
_atom_site_fract_z
Si Si1 0.077861 0.706399 0.228893
Si Si2 0.572731 0.313978 0.341433
Si Si3 0.000000 0.000000 0.000000
Si Si4 0.552435 0.858793 0.248579
Si Si5 0.500000 0.000000 0.750000
Si Si6 0.748775 0.125395 0.629873
O O1 0.178309 0.667181 0.310530
O O2 0.033513 0.602551 0.155575
O O3 0.988142 0.753502 0.343274
O O4 0.114716 0.789946 0.073899
O O5 0.522512 0.412512 0.352453
O O6 0.493251 0.233819 0.347205
O O7 0.652371 0.324297 0.161747
O O8 0.453053 0.901587 0.150451
O O9 0.628639 0.811921 0.088824
#
# Coordination Sequence:
#
# PCOD9542897 Si02
#       6
#     8   8   2   8   2   8
#     4  10  22  43  74 106 150 197 261 333 407 482
#     4  12  26  47  72 109 153 206 265 326 407 493
#     4  12  28  48  70 100 152 216 250 328 400 496
#     4  11  27  48  80 117 158 204 274 346 406 485
#     4   8  20  36  76 114 144 188 272 338 424 452
#     4  11  25  44  72 113 148 207 264 332 404 483
#
# _framework density 28.448149999999998
#
# number of rings (size 3 to 8) (size 9 to 14) (size 15 to 20)
#    0.000    1.111    4.444    0.000    9.333    5.333 
#    0.000    0.000    0.000    0.000    0.000    0.000 
#    0.000    0.000    0.000    0.000    0.000    0.000 
#
# Total GULP energy -100239.768850 kJ/mol
# GULP energy per Si atom -5568.876047 kJ/mol
# Density = 2.838340 g / cm^3
# Si number density = 28.448150 Si / 1000 Ang^3
#
#
#
# Elastic Constant Matrix: (Units=GPa)
#
#
# Indices 1 2 3 4 5 6 
#
# 1 148.2184 67.8052 24.3799 0.0000 0.0000 12.8026
# 2 67.8052 148.2184 24.3799 0.0000 0.0000 -12.8026
# 3 24.3799 24.3799 24.7681 0.0000 0.0000 0.0000
# 4 0.0000 0.0000 0.0000 34.3283 0.0000 0.0000
# 5 0.0000 0.0000 0.0000 0.0000 34.3283 0.0000
# 6 12.8026 -12.8026 0.0000 0.0000 0.0000 56.7113
#
#
#
# Elastic Compliance Matrix: (Units=1/GPa)
#
#
# Indices 1 2 3 4 5 6 
#
# 1 0.009675 -0.003724 -0.005858 0.000000 0.000000 -0.003025
# 2 -0.003724 0.009675 -0.005858 0.000000 0.000000 0.003025
# 3 -0.005858 -0.005858 0.051907 0.000000 0.000000 0.000000
# 4 0.000000 0.000000 0.000000 0.029131 0.000000 0.000000
# 5 0.000000 0.000000 0.000000 0.000000 0.029131 0.000000
# 6 -0.003025 0.003025 0.000000 0.000000 0.000000 0.018999
#
#
# Mechanical properties :
#
#
# Convention : Reuss Voigt Hill
#
# Bulk Modulus (GPa) = 24.76626 61.59277 43.17952
# Shear Modulus (GPa) = 25.92598 38.71623 32.32111
#
# Velocity S-wave (km/s) = 3.02212 3.69309 3.37433
# Velocity P-wave (km/s) = 4.57190 6.31531 5.51296
#
# Compressibility (1/GPa) = 0.04037751
#
# Stress axis : x y z
#
# Youngs Moduli (GPa) = 103.35741 103.35741 19.26513
#
# Poissons Ratio (x) = 0.38488 0.11286
# Poissons Ratio (y) = 0.38488 0.11286
# Poissons Ratio (z) = 0.60548 0.60548
#
# Static dielectric constant tensor:
#      x y z
#    x 2.177830 0.000000 0.000000 
#    y 0.000000 2.177830 0.000000 
#    z 0.000000 0.000000 2.968590 
# 
# From -- ./inp_files/874.got.cif
#   From: 2010.05.17/outbox.cif.g08.bks.cpg/sg82_1_cif.got.tgz:874.got - 2010.06.03 18:52:26.
