data_PCOD9542919
_publ_section_title
;
Structure prediction by ZEFSAII (Michael W. Deem and Ramdas Pophale) SiO2 
 PCOD9542919
Probable space group: I -4 
;
_chemical_formula_sum "Si O2"
_cell_formula_units_Z 40
_cell_length_a 10.631270
_cell_length_b 10.631270
_cell_length_c 14.263284
_cell_angle_alpha 90.000000
_cell_angle_beta 90.000000
_cell_angle_gamma 90.000000
_cell_volume 1612.092010
_symmetry_space_group_name_H-M "I -4 "
_symmetry_group_IT_number 82
_symmetry_cell_setting 'tetragonal'
loop_
_space_group_symop_operation_xyz
x,y,z
y,-x,-z
-x,-y,z
-y,x,-z
1/2+x,1/2+y,1/2+z
1/2+y,1/2-x,1/2-z
1/2-x,1/2-y,1/2+z
1/2-y,1/2+x,1/2-z
loop_
_atom_site_type_symbol
_atom_site_label
_atom_site_fract_x
_atom_site_fract_y
_atom_site_fract_z
Si Si1 0.500000 0.000000 0.750000
Si Si2 0.241703 0.849157 0.270008
Si Si3 0.272354 0.923496 0.454958
Si Si4 0.076436 0.265909 0.135705
Si Si5 0.500000 0.500000 0.281272
Si Si6 0.823963 0.702799 0.947991
Si Si7 0.500000 0.500000 0.000000
O O1 0.621992 0.996177 0.818057
O O2 0.332388 0.896569 0.353367
O O3 0.206541 0.715192 0.318543
O O4 0.288627 0.837613 0.163463
O O5 0.129196 0.950465 0.264665
O O6 0.274155 0.806172 0.524919
O O7 0.320984 0.058333 0.483699
O O8 0.121352 0.947664 0.447183
O O9 0.075332 0.249801 0.023043
O O10 0.038188 0.128483 0.168947
#
# Coordination Sequence:
#
# PCOD9542919 Si02
#       7
#     2   8   8   8   4   8   2
#     4  12  24  52  76 112 142 196 268 336 376 488
#     4  11  23  41  68 106 147 194 253 319 396 469
#     4   9  19  37  64  94 139 186 253 319 375 453
#     4  11  26  45  76 111 148 202 263 327 394 466
#     4  12  25  45  73 105 156 200 253 329 401 461
#     4  10  23  40  66 103 142 200 257 315 390 474
#     4   8  14  32  62  96 124 182 254 316 370 440
#
# _framework density 24.812479
#
# number of rings (size 3 to 8) (size 9 to 14) (size 15 to 20)
#    0.000    1.600    2.000    1.800    2.800    5.600 
#    0.000    2.000    0.000   10.200    0.000    0.000 
#    0.000    0.000    0.000    0.000    0.000    0.000 
#
# Total GULP energy -111418.293110 kJ/mol
# GULP energy per Si atom -5570.914655 kJ/mol
# Density = 2.475600 g / cm^3
# Si number density = 24.812479 Si / 1000 Ang^3
#
#
#
# Elastic Constant Matrix: (Units=GPa)
#
#
# Indices 1 2 3 4 5 6 
#
# 1 59.8900 17.6949 18.4441 0.0000 0.0000 11.8753
# 2 17.6949 59.8900 18.4441 0.0000 0.0000 -11.8753
# 3 18.4441 18.4441 145.4515 0.0000 0.0000 0.0000
# 4 0.0000 0.0000 0.0000 -36.9261 0.0000 0.0000
# 5 0.0000 0.0000 0.0000 0.0000 -36.9261 0.0000
# 6 11.8753 -11.8753 0.0000 0.0000 0.0000 21.1693
#
#
#
# Elastic Compliance Matrix: (Units=1/GPa)
#
#
# Indices 1 2 3 4 5 6 
#
# 1 0.024176 -0.010460 -0.001739 0.000000 0.000000 -0.019430
# 2 -0.010460 0.024176 -0.001739 0.000000 0.000000 0.019430
# 3 -0.001739 -0.001739 0.007316 0.000000 0.000000 0.000000
# 4 0.000000 0.000000 0.000000 -0.027081 0.000000 0.000000
# 5 0.000000 0.000000 0.000000 0.000000 -0.027081 0.000000
# 6 -0.019430 0.019430 0.000000 0.000000 0.000000 0.069037
#
#
# Mechanical properties :
#
#
# Convention : Reuss Voigt Hill
#
# Bulk Modulus (GPa) = 35.98252 41.59972 38.79112
# Shear Modulus (GPa) = 46.43206 3.50663 24.96934
#
# Velocity S-wave (km/s) = 4.33057 1.19009 3.17570
# Velocity P-wave (km/s) = 6.28795 4.32325 5.39578
#
# Compressibility (1/GPa) = 0.02779127
#
# Stress axis : x y z
#
# Youngs Moduli (GPa) = 41.36325 41.36325 136.68210
#
# Poissons Ratio (x) = 0.43266 0.23773
# Poissons Ratio (y) = 0.43266 0.23773
# Poissons Ratio (z) = 0.07194 0.07194
#
# Static dielectric constant tensor:
#      x y z
#    x 1.997070 0.000000 0.000000 
#    y 0.000000 1.997070 0.000000 
#    z 0.000000 0.000000 2.017930 
# 
# From -- ./inp_files/2234.got.cif
#   From: 2010.05.17/outbox.cif.g08.bks.cpg/sg82_2_cif.got.tgz:2234.got - 2010.06.03 18:52:26.
