data_PCOD9542867
_publ_section_title
;
Structure prediction by ZEFSAII (Michael W. Deem and Ramdas Pophale) SiO2 
 PCOD9542867
Probable space group: I -4 
;
_chemical_formula_sum "Si O2"
_cell_formula_units_Z 36
_cell_length_a 8.562442
_cell_length_b 8.562442
_cell_length_c 17.577090
_cell_angle_alpha 90.000000
_cell_angle_beta 90.000000
_cell_angle_gamma 90.000000
_cell_volume 1288.671613
_symmetry_space_group_name_H-M "I -4 "
_symmetry_group_IT_number 82
_symmetry_cell_setting 'tetragonal'
loop_
_space_group_symop_operation_xyz
x,y,z
y,-x,-z
-x,-y,z
-y,x,-z
1/2+x,1/2+y,1/2+z
1/2+y,1/2-x,1/2-z
1/2-x,1/2-y,1/2+z
1/2-y,1/2+x,1/2-z
loop_
_atom_site_type_symbol
_atom_site_label
_atom_site_fract_x
_atom_site_fract_y
_atom_site_fract_z
Si Si1 0.729608 0.289030 0.667723
Si Si2 0.608286 0.700297 0.624357
Si Si3 0.500000 0.500000 0.000000
Si Si4 0.954099 0.674821 0.964058
Si Si5 0.460623 0.673049 0.849865
Si Si6 0.000000 0.500000 0.750000
O O1 0.548392 0.339120 0.670472
O O2 0.789100 0.294483 0.579381
O O3 0.861523 0.400467 0.706978
O O4 0.728626 0.104530 0.680311
O O5 0.546547 0.802894 0.553547
O O6 0.699766 0.565271 0.578578
O O7 0.740137 0.799606 0.668287
O O8 0.454156 0.637737 0.941195
O O9 0.000000 0.500000 0.945879
O O10 0.500000 0.500000 0.820602
#
# Coordination Sequence:
#
# PCOD9542867 Si02
#       6
#     8   8   2   8   8   2
#     4  12  25  48  75 112 164 223 295 348 414 520
#     4  12  25  41  75 131 167 212 272 360 448 511
#     4   8  20  32  68 116 180 208 240 332 446 544
#     4  12  24  41  71 120 173 208 262 345 446 518
#     4  10  22  40  72 116 167 211 266 337 434 513
#     4  12  32  56  84 112 168 260 300 354 428 516
#
# _framework density 27.935742000000001
#
# number of rings (size 3 to 8) (size 9 to 14) (size 15 to 20)
#    0.667    0.000    3.333    5.333    3.111    0.000 
#    0.000    2.222    0.000    0.000   17.333    0.000 
#    0.000    0.000    0.000    0.000    0.000    0.000 
#
# Total GULP energy -100708.310052 kJ/mol
# GULP energy per Si atom -5594.906114 kJ/mol
# Density = 2.787216 g / cm^3
# Si number density = 27.935742 Si / 1000 Ang^3
#
#
#
# Elastic Constant Matrix: (Units=GPa)
#
#
# Indices 1 2 3 4 5 6 
#
# 1 133.2077 15.4417 29.9235 0.0000 0.0000 15.6238
# 2 15.4417 133.2077 29.9235 0.0000 0.0000 -15.6238
# 3 29.9235 29.9235 120.2361 0.0000 0.0000 0.0000
# 4 0.0000 0.0000 0.0000 48.9889 0.0000 0.0000
# 5 0.0000 0.0000 0.0000 0.0000 48.9889 0.0000
# 6 15.6238 -15.6238 0.0000 0.0000 0.0000 55.1290
#
#
#
# Elastic Compliance Matrix: (Units=1/GPa)
#
#
# Indices 1 2 3 4 5 6 
#
# 1 0.008329 -0.000853 -0.001861 0.000000 0.000000 -0.002602
# 2 -0.000853 0.008329 -0.001861 0.000000 0.000000 0.002602
# 3 -0.001861 -0.001861 0.009243 0.000000 0.000000 0.000000
# 4 0.000000 0.000000 0.000000 0.020413 0.000000 0.000000
# 5 0.000000 0.000000 0.000000 0.000000 0.020413 0.000000
# 6 -0.002602 0.002602 0.000000 0.000000 0.000000 0.019614
#
#
# Mechanical properties :
#
#
# Convention : Reuss Voigt Hill
#
# Bulk Modulus (GPa) = 59.69020 59.69209 59.69115
# Shear Modulus (GPa) = 49.46885 51.37887 50.42386
#
# Velocity S-wave (km/s) = 4.21266 4.29322 4.25313
# Velocity P-wave (km/s) = 6.71382 6.78157 6.74778
#
# Compressibility (1/GPa) = 0.01675317
#
# Stress axis : x y z
#
# Youngs Moduli (GPa) = 120.06080 120.06080 108.18877
#
# Poissons Ratio (x) = 0.10238 0.20130
# Poissons Ratio (y) = 0.10238 0.20130
# Poissons Ratio (z) = 0.22339 0.22339
#
# Static dielectric constant tensor:
#      x y z
#    x 2.241560 0.000000 0.000000 
#    y 0.000000 2.241560 0.000000 
#    z 0.000000 0.000000 2.276320 
# 
# From -- ./inp_files/2992.got.cif
#   From: 2010.05.17/outbox.cif.g08.bks.cpg/sg82_2_cif.got.tgz:2992.got - 2010.06.03 18:52:26.
