data_PCOD9542390
_publ_section_title
;
Structure prediction by ZEFSAII (Michael W. Deem and Ramdas Pophale) SiO2 
 PCOD9542390
Probable space group: P -4
;
_chemical_formula_sum "Si O2"
_cell_formula_units_Z 26
_cell_length_a 8.567304
_cell_length_b 8.567304
_cell_length_c 18.660180
_cell_angle_alpha 90.000000
_cell_angle_beta 90.000000
_cell_angle_gamma 90.000000
_cell_volume 1369.632913
_symmetry_space_group_name_H-M "P -4"
_symmetry_group_IT_number 81
_symmetry_cell_setting 'tetragonal'
loop_
_space_group_symop_operation_xyz
x,y,z
y,-x,-z
-x,-y,z
-y,x,-z
loop_
_atom_site_type_symbol
_atom_site_label
_atom_site_fract_x
_atom_site_fract_y
_atom_site_fract_z
Si Si1 0.500000 0.000000 0.684096
Si Si2 0.470398 0.744186 0.020990
Si Si3 0.565430 0.763579 0.802992
Si Si4 0.930333 0.748360 0.424090
Si Si5 0.500000 0.000000 0.295478
Si Si6 0.000000 0.500000 0.080160
Si Si7 0.559795 0.743737 0.182578
Si Si8 0.745585 0.070070 0.414224
O O1 0.580765 0.871454 0.733777
O O2 0.617736 0.093659 0.634205
O O3 0.538243 0.788631 0.098704
O O4 0.610411 0.660092 0.977047
O O5 0.408854 0.887549 0.974331
O O6 0.670826 0.610637 0.800572
O O7 0.389838 0.692414 0.811821
O O8 0.593991 0.886234 0.867151
O O9 0.911450 0.682925 0.504589
O O10 0.817587 0.895547 0.413230
O O11 0.105886 0.814567 0.412246
O O12 0.583409 0.879058 0.240904
O O13 0.622899 0.082072 0.349829
#
# Coordination Sequence:
#
# PCOD9542390 Si02
#       8
#     2   4   4   4   2   2   4   4
#     4  11  19  30  53  85 100 136 170 239 255 312
#     4  11  19  36  61  78 101 137 184 221 259 328
#     4  10  21  35  55  76 109 136 177 213 272 315
#     4   9  18  35  55  74 107 141 195 206 265 308
#     4  12  22  32  56  84 116 134 178 226 286 304
#     4  11  19  34  59  79  94 136 178 217 253 316
#     4  11  21  38  52  82 107 142 173 220 267 334
#     4   9  19  35  53  76 105 153 174 225 250 330
#
# _framework density 18.983188999999999
#
# number of rings (size 3 to 8) (size 9 to 14) (size 15 to 20)
#    0.000    1.692    3.077    4.615    0.000    0.000 
#    0.000    0.000    0.000    2.308    0.000   12.923 
#    0.000    0.000    0.000    0.000    0.000    0.000 
#
# Total GULP energy -144859.135612 kJ/mol
# GULP energy per Si atom -5571.505216 kJ/mol
# Density = 1.893998 g / cm^3
# Si number density = 18.983189 Si / 1000 Ang^3
#
#
#
# Elastic Constant Matrix: (Units=GPa)
#
#
# Indices 1 2 3 4 5 6 
#
# 1 35.5497 -10.3932 11.9532 0.0000 0.0000 0.6110
# 2 -10.3932 35.5497 11.9532 0.0000 0.0000 -0.6110
# 3 11.9532 11.9532 121.8990 0.0000 0.0000 0.0000
# 4 0.0000 0.0000 0.0000 22.4315 0.0000 0.0000
# 5 0.0000 0.0000 0.0000 0.0000 22.4315 0.0000
# 6 0.6110 -0.6110 0.0000 0.0000 0.0000 9.2316
#
#
#
# Elastic Compliance Matrix: (Units=1/GPa)
#
#
# Indices 1 2 3 4 5 6 
#
# 1 0.032820 0.011016 -0.004298 0.000000 0.000000 -0.001443
# 2 0.011016 0.032820 -0.004298 0.000000 0.000000 0.001443
# 3 -0.004298 -0.004298 0.009047 0.000000 0.000000 0.000000
# 4 0.000000 0.000000 0.000000 0.044580 0.000000 0.000000
# 5 0.000000 0.000000 0.000000 0.000000 0.044580 0.000000
# 6 -0.001443 0.001443 0.000000 0.000000 0.000000 0.108515
#
#
# Mechanical properties :
#
#
# Convention : Reuss Voigt Hill
#
# Bulk Modulus (GPa) = 12.57472 24.44719 18.51096
# Shear Modulus (GPa) = 17.00488 22.78458 19.89473
#
# Velocity S-wave (km/s) = 2.99622 3.46822 3.24082
# Velocity P-wave (km/s) = 4.31373 5.38000 4.87610
#
# Compressibility (1/GPa) = 0.07952462
#
# Stress axis : x y z
#
# Youngs Moduli (GPa) = 30.46898 30.46898 110.53987
#
# Poissons Ratio (x) = -0.33564 0.47515
# Poissons Ratio (y) = -0.33564 0.47515
# Poissons Ratio (z) = 0.13097 0.13097
#
# Static dielectric constant tensor:
#      x y z
#    x 1.661830 0.000000 0.000000 
#    y 0.000000 1.661830 0.000000 
#    z 0.000000 0.000000 1.692820 
# 
# From -- ./inp_files/1782.got.cif
#   From: 2010.05.17/outbox.cif.g08.bks.cpg/sg81_cif.got.tgz:1782.got - 2010.06.03 18:51:07.
