data_PCOD9542286
_publ_section_title
;
Structure prediction by ZEFSAII (Michael W. Deem and Ramdas Pophale) SiO2 
 PCOD9542286
Probable space group: I 41
;
_chemical_formula_sum "Si O2"
_cell_formula_units_Z 36
_cell_length_a 8.969710
_cell_length_b 8.969710
_cell_length_c 19.824290
_cell_angle_alpha 90.000000
_cell_angle_beta 90.000000
_cell_angle_gamma 90.000000
_cell_volume 1594.977079
_symmetry_space_group_name_H-M "I 41"
_symmetry_group_IT_number 80
_symmetry_cell_setting 'tetragonal'
loop_
_space_group_symop_operation_xyz
x,y,z
-y,1/2+x,1/4+z
-x,-y,z
y,1/2-x,1/4+z
1/2+x,1/2+y,1/2+z
1/2-y,x,3/4+z
1/2-x,1/2-y,1/2+z
1/2+y,-x,3/4+z
loop_
_atom_site_type_symbol
_atom_site_label
_atom_site_fract_x
_atom_site_fract_y
_atom_site_fract_z
Si Si1 0.185093 0.306720 0.718250
Si Si2 0.983131 0.839278 0.018208
Si Si3 0.821877 0.365346 0.930256
Si Si4 0.356845 0.553095 0.656293
Si Si5 0.500000 0.500000 0.067126
O O1 0.261542 0.399919 0.657618
O O2 0.127569 0.427281 0.771916
O O3 0.034407 0.227398 0.693292
O O4 0.290414 0.187003 0.755283
O O5 0.076061 0.704642 0.987474
O O6 0.061457 0.875079 0.090390
O O7 0.000000 0.000000 0.981302
O O8 0.680256 0.257424 0.927172
O O9 0.921814 0.374562 0.863034
O O10 0.500000 0.500000 0.700684
#
# Coordination Sequence:
#
# PCOD9542286 Si02
#       5
#     8   8   8   8   4
#     4  12  25  50  70 114 155 203 269 322 405 483
#     4  11  26  46  75 109 156 203 259 334 402 474
#     4  12  24  47  76 110 150 207 265 325 406 478
#     4  11  26  46  71 108 154 202 261 324 397 470
#     4  12  26  42  84 104 152 204 262 334 384 482
#
# _framework density 22.570857
#
# number of rings (size 3 to 8) (size 9 to 14) (size 15 to 20)
#    0.000    0.444    4.444    2.667    6.222    1.778 
#    0.000    0.000    0.000    0.000    0.000    0.000 
#    0.000    0.000    0.000    0.000    0.000    0.000 
#
# Total GULP energy -100349.111601 kJ/mol
# GULP energy per Si atom -5574.950644 kJ/mol
# Density = 2.251948 g / cm^3
# Si number density = 22.570857 Si / 1000 Ang^3
#
#
#
# Elastic Constant Matrix: (Units=GPa)
#
#
# Indices 1 2 3 4 5 6 
#
# 1 138.8947 65.3426 35.5802 0.0000 0.0000 10.6844
# 2 65.3426 138.8947 35.5802 0.0000 0.0000 -10.6844
# 3 35.5802 35.5802 74.8083 0.0000 0.0000 0.0000
# 4 0.0000 0.0000 0.0000 36.4005 0.0000 0.0000
# 5 0.0000 0.0000 0.0000 0.0000 36.4005 0.0000
# 6 10.6844 -10.6844 0.0000 0.0000 0.0000 75.8790
#
#
#
# Elastic Compliance Matrix: (Units=1/GPa)
#
#
# Indices 1 2 3 4 5 6 
#
# 1 0.010022 -0.004153 -0.002791 0.000000 0.000000 -0.001996
# 2 -0.004153 0.010022 -0.002791 0.000000 0.000000 0.001996
# 3 -0.002791 -0.002791 0.016023 0.000000 0.000000 0.000000
# 4 0.000000 0.000000 0.000000 0.027472 0.000000 0.000000
# 5 0.000000 0.000000 0.000000 0.000000 0.027472 0.000000
# 6 -0.001996 0.001996 0.000000 0.000000 0.000000 0.013741
#
#
# Mechanical properties :
#
#
# Convention : Reuss Voigt Hill
#
# Bulk Modulus (GPa) = 60.25885 69.51152 64.88519
# Shear Modulus (GPa) = 38.53373 44.14229 41.33801
#
# Velocity S-wave (km/s) = 4.13635 4.42715 4.28422
# Velocity P-wave (km/s) = 7.04046 7.54962 7.29948
#
# Compressibility (1/GPa) = 0.01659507
#
# Stress axis : x y z
#
# Youngs Moduli (GPa) = 99.77791 99.77791 62.41140
#
# Poissons Ratio (x) = 0.41442 0.17421
# Poissons Ratio (y) = 0.41442 0.17421
# Poissons Ratio (z) = 0.27851 0.27851
#
# Static dielectric constant tensor:
#      x y z
#    x 1.865750 0.000000 0.000000 
#    y 0.000000 1.865750 0.000000 
#    z 0.000000 0.000000 1.942380 
# 
# From -- ./inp_files/1727.got.cif
#   From: 2010.05.17/outbox.cif.g08.bks.cpg/sg80_cif.got.tgz:1727.got - 2010.06.03 18:49:13.
