data_PCOD9542555
_publ_section_title
;
Structure prediction by ZEFSAII (Michael W. Deem and Ramdas Pophale) SiO2 
 PCOD9542555
Probable space group: P -4
;
_chemical_formula_sum "Si O2"
_cell_formula_units_Z 17
_cell_length_a 8.016221
_cell_length_b 8.016221
_cell_length_c 10.063740
_cell_angle_alpha 90.000000
_cell_angle_beta 90.000000
_cell_angle_gamma 90.000000
_cell_volume 646.693911
_symmetry_space_group_name_H-M "P -4"
_symmetry_group_IT_number 81
_symmetry_cell_setting 'tetragonal'
loop_
_space_group_symop_operation_xyz
x,y,z
y,-x,-z
-x,-y,z
-y,x,-z
loop_
_atom_site_type_symbol
_atom_site_label
_atom_site_fract_x
_atom_site_fract_y
_atom_site_fract_z
Si Si1 0.338975 0.121853 0.407117
Si Si2 0.798328 0.826337 0.683864
Si Si3 0.000000 0.000000 0.000000
Si Si4 0.649689 0.126838 0.075154
Si Si5 0.140618 0.351456 0.221493
O O1 0.326272 0.180608 0.559114
O O2 0.288596 0.281577 0.315995
O O3 0.500000 0.000000 0.391561
O O4 0.312085 0.760607 0.202817
O O5 0.977667 0.796272 0.619319
O O6 0.790772 0.001130 0.759255
O O7 0.815832 0.014187 0.064896
O O8 0.625653 0.203351 0.929144
O O9 0.500000 0.000000 0.099901
O O10 0.000000 0.500000 0.243195
#
# Coordination Sequence:
#
# PCOD9542555 Si02
#       5
#     4   4   1   4   4
#     4  12  27  46  75 116 164 220 288 358 439 536
#     4  12  24  44  72 112 157 212 284 352 428 532
#     4  12  20  44  76 110 164 216 272 346 448 548
#     4  11  25  43  77 122 158 210 286 368 443 532
#     4  11  25  47  77 116 160 213 284 361 443 535
#
# _framework density 26.287552000000002
#
# number of rings (size 3 to 8) (size 9 to 14) (size 15 to 20)
#    0.000    0.471    4.706    3.529    0.000    0.941 
#    0.000    2.353    0.000    0.706    0.000    0.000 
#    0.000    0.000    0.000    0.000    0.000    0.000 
#
# Total GULP energy -94774.156508 kJ/mol
# GULP energy per Si atom -5574.950383 kJ/mol
# Density = 2.622772 g / cm^3
# Si number density = 26.287552 Si / 1000 Ang^3
#
#
#
# Elastic Constant Matrix: (Units=GPa)
#
#
# Indices 1 2 3 4 5 6 
#
# 1 127.9456 39.1233 49.8651 0.0000 0.0000 9.3902
# 2 39.1233 127.9456 49.8651 0.0000 0.0000 -9.3902
# 3 49.8651 49.8651 265.0656 0.0000 0.0000 0.0000
# 4 0.0000 0.0000 0.0000 25.7999 0.0000 0.0000
# 5 0.0000 0.0000 0.0000 0.0000 25.7999 0.0000
# 6 9.3902 -9.3902 0.0000 0.0000 0.0000 47.6306
#
#
#
# Elastic Compliance Matrix: (Units=1/GPa)
#
#
# Indices 1 2 3 4 5 6 
#
# 1 0.009245 -0.002503 -0.001268 0.000000 0.000000 -0.002316
# 2 -0.002503 0.009245 -0.001268 0.000000 0.000000 0.002316
# 3 -0.001268 -0.001268 0.004250 0.000000 0.000000 0.000000
# 4 0.000000 0.000000 0.000000 0.038760 0.000000 0.000000
# 5 0.000000 0.000000 0.000000 0.000000 0.038760 0.000000
# 6 -0.002316 0.002316 0.000000 0.000000 0.000000 0.021908
#
#
# Mechanical properties :
#
#
# Convention : Reuss Voigt Hill
#
# Bulk Modulus (GPa) = 78.97933 88.74039 83.85986
# Shear Modulus (GPa) = 36.63851 45.31963 40.97907
#
# Velocity S-wave (km/s) = 3.73736 4.15661 3.95255
# Velocity P-wave (km/s) = 6.98093 7.54105 7.26639
#
# Compressibility (1/GPa) = 0.01266154
#
# Stress axis : x y z
#
# Youngs Moduli (GPa) = 108.16131 108.16131 235.29910
#
# Poissons Ratio (x) = 0.27069 0.29847
# Poissons Ratio (y) = 0.27069 0.29847
# Poissons Ratio (z) = 0.13720 0.13720
#
# Static dielectric constant tensor:
#      x y z
#    x 2.178530 0.000000 0.000000 
#    y 0.000000 2.178530 0.000000 
#    z 0.000000 0.000000 2.218540 
# 
# From -- ./inp_files/1123.got.cif
#   From: 2010.05.17/outbox.cif.g08.bks.cpg/sg81_cif.got.tgz:1123.got - 2010.06.03 18:51:07.
