data_PCOD9542102
_publ_section_title
;
Structure prediction by ZEFSAII (Michael W. Deem and Ramdas Pophale) SiO2 
 PCOD9542102
Probable space group: I 41
;
_chemical_formula_sum "Si O2"
_cell_formula_units_Z 40
_cell_length_a 12.441720
_cell_length_b 12.441720
_cell_length_c 15.418270
_cell_angle_alpha 90.000000
_cell_angle_beta 90.000000
_cell_angle_gamma 90.000000
_cell_volume 2386.692637
_symmetry_space_group_name_H-M "I 41"
_symmetry_group_IT_number 80
_symmetry_cell_setting 'tetragonal'
loop_
_space_group_symop_operation_xyz
x,y,z
-y,1/2+x,1/4+z
-x,-y,z
y,1/2-x,1/4+z
1/2+x,1/2+y,1/2+z
1/2-y,x,3/4+z
1/2-x,1/2-y,1/2+z
1/2+y,-x,3/4+z
loop_
_atom_site_type_symbol
_atom_site_label
_atom_site_fract_x
_atom_site_fract_y
_atom_site_fract_z
Si Si1 0.198903 0.152521 0.236760
Si Si2 0.576204 0.896917 0.162308
Si Si3 0.140292 0.293736 0.085351
Si Si4 0.983556 0.242724 0.810089
Si Si5 0.951044 0.380696 0.972150
O O1 0.142100 0.086004 0.312733
O O2 0.300330 0.089340 0.195439
O O3 0.126061 0.208112 0.162667
O O4 0.248100 0.258487 0.282406
O O5 0.528210 0.805345 0.225731
O O6 0.500000 0.000000 0.169768
O O7 0.180515 0.415619 0.105472
O O8 0.035746 0.312140 0.027754
O O9 0.937197 0.325124 0.879696
O O10 0.898794 0.156538 0.776222
O O11 0.000000 0.500000 0.958146
#
# Coordination Sequence:
#
# PCOD9542102 Si02
#       5
#     8   8   8   8   8
#     4   9  18  33  57  81 100 142 179 226 259 318
#     4  10  21  33  56  80 111 138 180 221 276 320
#     4   9  16  33  56  78 103 131 188 222 257 312
#     4  10  20  32  54  82 109 139 175 225 274 315
#     4  10  20  33  56  81 108 141 179 228 270 320
#
# _framework density 16.759594
#
# number of rings (size 3 to 8) (size 9 to 14) (size 15 to 20)
#    0.000    2.400    2.000    0.600   11.200    0.000 
#    0.000    2.000    8.800    0.000    0.000    0.000 
#    0.000    0.000    0.000    0.000    0.000    0.000 
#
# Total GULP energy -111347.492734 kJ/mol
# GULP energy per Si atom -5567.374637 kJ/mol
# Density = 1.672145 g / cm^3
# Si number density = 16.759594 Si / 1000 Ang^3
#
#
#
# Elastic Constant Matrix: (Units=GPa)
#
#
# Indices 1 2 3 4 5 6 
#
# 1 49.1888 35.3055 41.9186 0.0000 0.0000 2.4218
# 2 35.3055 49.1888 41.9186 0.0000 0.0000 -2.4218
# 3 41.9186 41.9186 104.6622 0.0000 0.0000 0.0000
# 4 0.0000 0.0000 0.0000 24.3571 0.0000 0.0000
# 5 0.0000 0.0000 0.0000 0.0000 24.3571 0.0000
# 6 2.4218 -2.4218 0.0000 0.0000 0.0000 23.4787
#
#
#
# Elastic Compliance Matrix: (Units=1/GPa)
#
#
# Indices 1 2 3 4 5 6 
#
# 1 0.047179 -0.027539 -0.007866 0.000000 0.000000 -0.007707
# 2 -0.027539 0.047179 -0.007866 0.000000 0.000000 0.007707
# 3 -0.007866 -0.007866 0.015856 0.000000 0.000000 0.000000
# 4 0.000000 0.000000 0.000000 0.041056 0.000000 0.000000
# 5 0.000000 0.000000 0.000000 0.000000 0.041056 0.000000
# 6 -0.007707 0.007707 0.000000 0.000000 0.000000 0.044182
#
#
# Mechanical properties :
#
#
# Convention : Reuss Voigt Hill
#
# Bulk Modulus (GPa) = 42.24542 49.03612 45.64077
# Shear Modulus (GPa) = 15.10852 20.03172 17.57012
#
# Velocity S-wave (km/s) = 3.00573 3.46097 3.24135
# Velocity P-wave (km/s) = 6.10797 6.73002 6.42653
#
# Compressibility (1/GPa) = 0.02367121
#
# Stress axis : x y z
#
# Youngs Moduli (GPa) = 21.19592 21.19592 63.06951
#
# Poissons Ratio (x) = 0.58371 0.49611
# Poissons Ratio (y) = 0.58371 0.49611
# Poissons Ratio (z) = 0.16673 0.16673
#
# Static dielectric constant tensor:
#      x y z
#    x 1.559750 0.000000 0.000000 
#    y 0.000000 1.559750 0.000000 
#    z 0.000000 0.000000 1.602080 
# 
# From -- ./inp_files/1243.got.cif
#   From: 2010.05.17/outbox.cif.g08.bks.cpg/sg80_cif.got.tgz:1243.got - 2010.06.03 18:49:13.
