data_PCOD9542952
_publ_section_title
;
Structure prediction by ZEFSAII (Michael W. Deem and Ramdas Pophale) SiO2 
 PCOD9542952
Probable space group: I -4 
;
_chemical_formula_sum "Si O2"
_cell_formula_units_Z 40
_cell_length_a 8.741908
_cell_length_b 8.741908
_cell_length_c 22.129612
_cell_angle_alpha 90.000000
_cell_angle_beta 90.000000
_cell_angle_gamma 90.000000
_cell_volume 1691.166093
_symmetry_space_group_name_H-M "I -4 "
_symmetry_group_IT_number 82
_symmetry_cell_setting 'tetragonal'
loop_
_space_group_symop_operation_xyz
x,y,z
y,-x,-z
-x,-y,z
-y,x,-z
1/2+x,1/2+y,1/2+z
1/2+y,1/2-x,1/2-z
1/2-x,1/2-y,1/2+z
1/2-y,1/2+x,1/2-z
loop_
_atom_site_type_symbol
_atom_site_label
_atom_site_fract_x
_atom_site_fract_y
_atom_site_fract_z
Si Si1 0.605707 0.150378 0.943357
Si Si2 0.666314 0.122082 0.780360
Si Si3 0.402487 0.841695 0.078595
Si Si4 0.044201 0.831996 0.111362
Si Si5 0.864068 0.102886 0.337319
O O1 0.588413 0.277064 0.891253
O O2 0.500000 0.000000 0.933964
O O3 0.773738 0.071712 0.940868
O O4 0.577953 0.215879 0.009689
O O5 0.486849 0.173611 0.777671
O O6 0.732745 0.290259 0.791002
O O7 0.725953 0.012903 0.833317
O O8 0.221276 0.836562 0.093159
O O9 0.482703 0.739682 0.128291
O O10 0.500000 0.000000 0.079440
O O11 0.000000 0.000000 0.130638
O O12 0.000000 0.000000 0.310445
#
# Coordination Sequence:
#
# PCOD9542952 Si02
#       5
#     8   8   8   8   8
#     4  10  24  40  67 104 152 206 235 279 367 471
#     4  10  25  47  77  95 134 186 258 313 384 451
#     4  11  25  41  68 109 158 186 236 299 367 450
#     4  11  25  45  75 107 145 196 252 303 370 461
#     4  11  25  41  69 105 142 184 242 311 364 437
#
# _framework density 23.652318999999999
#
# number of rings (size 3 to 8) (size 9 to 14) (size 15 to 20)
#    0.000    1.400    0.000    3.600   28.000    0.800 
#    0.000    0.000    0.000    0.000    0.000    0.000 
#    0.000    0.000    0.000    0.000    0.000    0.000 
#
# Total GULP energy -111442.462803 kJ/mol
# GULP energy per Si atom -5572.123140 kJ/mol
# Density = 2.359849 g / cm^3
# Si number density = 23.652319 Si / 1000 Ang^3
#
#
#
# Elastic Constant Matrix: (Units=GPa)
#
#
# Indices 1 2 3 4 5 6 
#
# 1 91.1808 -3.4174 21.9476 0.0000 0.0000 6.5133
# 2 -3.4174 91.1808 21.9476 0.0000 0.0000 -6.5133
# 3 21.9476 21.9476 44.1343 0.0000 0.0000 0.0000
# 4 0.0000 0.0000 0.0000 14.2967 0.0000 0.0000
# 5 0.0000 0.0000 0.0000 0.0000 14.2967 0.0000
# 6 6.5133 -6.5133 0.0000 0.0000 0.0000 36.9704
#
#
#
# Elastic Compliance Matrix: (Units=1/GPa)
#
#
# Indices 1 2 3 4 5 6 
#
# 1 0.013000 0.002166 -0.007542 0.000000 0.000000 -0.001909
# 2 0.002166 0.013000 -0.007542 0.000000 0.000000 0.001909
# 3 -0.007542 -0.007542 0.030159 0.000000 0.000000 0.000000
# 4 0.000000 0.000000 0.000000 0.069946 0.000000 0.000000
# 5 0.000000 0.000000 0.000000 0.000000 0.069946 0.000000
# 6 -0.001909 0.001909 0.000000 0.000000 0.000000 0.027721
#
#
# Mechanical properties :
#
#
# Convention : Reuss Voigt Hill
#
# Bulk Modulus (GPa) = 32.97745 34.16129 33.56937
# Shear Modulus (GPa) = 19.25167 25.51395 22.38281
#
# Velocity S-wave (km/s) = 2.85607 3.28793 3.07958
# Velocity P-wave (km/s) = 4.98488 5.37480 5.18351
#
# Compressibility (1/GPa) = 0.03032375
#
# Stress axis : x y z
#
# Youngs Moduli (GPa) = 76.92186 76.92186 33.15706
#
# Poissons Ratio (x) = -0.16664 0.25008
# Poissons Ratio (y) = -0.16664 0.25008
# Poissons Ratio (z) = 0.58016 0.58016
#
# Static dielectric constant tensor:
#      x y z
#    x 2.095720 0.000000 0.000000 
#    y 0.000000 2.095720 0.000000 
#    z 0.000000 0.000000 1.934850 
# 
# From -- ./inp_files/3328.got.cif
#   From: 2010.05.17/outbox.cif.g08.bks.cpg/sg82_2_cif.got.tgz:3328.got - 2010.06.03 18:52:26.
