data_PCOD9542013
_publ_section_title
;
Structure prediction by ZEFSAII (Michael W. Deem and Ramdas Pophale) SiO2 
 PCOD9542013
Probable space group: I 4
;
_chemical_formula_sum "Si O2"
_cell_formula_units_Z 30
_cell_length_a 8.534765
_cell_length_b 8.534765
_cell_length_c 19.121869
_cell_angle_alpha 90.000000
_cell_angle_beta 90.000000
_cell_angle_gamma 90.000000
_cell_volume 1392.879266
_symmetry_space_group_name_H-M "I 4"
_symmetry_group_IT_number 79
_symmetry_cell_setting 'tetragonal'
loop_
_space_group_symop_operation_xyz
x,y,z
-y,x,z
-x,-y,z
y,-x,z
1/2+x,1/2+y,1/2+z
1/2-y,1/2+x,1/2+z
1/2-x,1/2-y,1/2+z
1/2+y,1/2-x,1/2+z
loop_
_atom_site_type_symbol
_atom_site_label
_atom_site_fract_x
_atom_site_fract_y
_atom_site_fract_z
Si Si1 0.742745 0.591079 0.260730
Si Si2 0.500000 0.500000 0.609692
Si Si3 0.882760 0.645186 0.109692
Si Si4 0.500000 0.000000 0.359693
Si Si5 0.091081 0.757256 0.458654
O O1 0.589284 0.693979 0.273983
O O2 0.784882 0.626250 0.180615
O O3 0.894792 0.610206 0.309424
O O4 0.475658 0.307992 0.609692
O O5 0.000000 0.500000 0.109690
O O6 0.784879 0.626253 0.038769
O O7 0.605208 0.889793 0.409961
O O8 0.910718 0.806020 0.445401
#
# Coordination Sequence:
#
# PCOD9542013 Si02
#       5
#     8   2   8   4   8
#     4  11  24  44  68 100 141 191 241 308 373 435
#     4  12  28  44  84 120 136 204 240 314 384 440
#     4  12  24  47  72 110 142 178 250 310 365 439
#     4  12  24  42  68 100 144 198 248 292 368 462
#     4  11  24  44  68 100 141 191 241 308 373 435
#
# _framework density 21.538117
#
# number of rings (size 3 to 8) (size 9 to 14) (size 15 to 20)
#    0.000    0.533    2.667    6.400    0.000    2.133 
#    0.000    0.000    0.000    0.000    0.000    0.000 
#    0.000    0.000    0.000    0.000    0.000    0.000 
#
# Total GULP energy -83603.173876 kJ/mol
# GULP energy per Si atom -5573.544925 kJ/mol
# Density = 2.148910 g / cm^3
# Si number density = 21.538117 Si / 1000 Ang^3
#
#
#
# Elastic Constant Matrix: (Units=GPa)
#
#
# Indices 1 2 3 4 5 6 
#
# 1 97.5922 18.7214 22.6503 0.0000 0.0000 2.0475
# 2 18.7214 97.5922 22.6503 0.0000 0.0000 -2.0475
# 3 22.6503 22.6503 145.6231 0.0000 0.0000 0.0000
# 4 0.0000 0.0000 0.0000 18.0506 0.0000 0.0000
# 5 0.0000 0.0000 0.0000 0.0000 18.0506 0.0000
# 6 2.0475 -2.0475 0.0000 0.0000 0.0000 17.1106
#
#
#
# Elastic Compliance Matrix: (Units=1/GPa)
#
#
# Indices 1 2 3 4 5 6 
#
# 1 0.010955 -0.001803 -0.001423 0.000000 0.000000 -0.001527
# 2 -0.001803 0.010955 -0.001423 0.000000 0.000000 0.001527
# 3 -0.001423 -0.001423 0.007310 0.000000 0.000000 0.000000
# 4 0.000000 0.000000 0.000000 0.055400 0.000000 0.000000
# 5 0.000000 0.000000 0.000000 0.000000 0.055400 0.000000
# 6 -0.001527 0.001527 0.000000 0.000000 0.000000 0.058809
#
#
# Mechanical properties :
#
#
# Convention : Reuss Voigt Hill
#
# Bulk Modulus (GPa) = 50.20174 52.09461 51.14818
# Shear Modulus (GPa) = 23.28089 29.09473 26.18781
#
# Velocity S-wave (km/s) = 3.29130 3.67938 3.49073
# Velocity P-wave (km/s) = 6.14837 6.50308 6.32821
#
# Compressibility (1/GPa) = 0.01991963
#
# Stress axis : x y z
#
# Youngs Moduli (GPa) = 91.28215 91.28215 136.80155
#
# Poissons Ratio (x) = 0.16460 0.19473
# Poissons Ratio (y) = 0.16460 0.19473
# Poissons Ratio (z) = 0.12994 0.12994
#
# Static dielectric constant tensor:
#      x y z
#    x 1.824230 0.000000 0.000000 
#    y 0.000000 1.824230 0.000000 
#    z 0.000000 0.000000 1.826470 
# 
# From -- ./inp_files/1686.got.cif
#   From: 2010.05.17/outbox.cif.g08.bks.cpg/sg79_cif.got.tgz:1686.got - 2010.06.03 18:47:27.
