data_PCOD9542463
_publ_section_title
;
Structure prediction by ZEFSAII (Michael W. Deem and Ramdas Pophale) SiO2 
 PCOD9542463
Probable space group: P -4
;
_chemical_formula_sum "Si O2"
_cell_formula_units_Z 17
_cell_length_a 10.859941
_cell_length_b 10.859941
_cell_length_c 6.976034
_cell_angle_alpha 90.000000
_cell_angle_beta 90.000000
_cell_angle_gamma 90.000000
_cell_volume 822.741720
_symmetry_space_group_name_H-M "P -4"
_symmetry_group_IT_number 81
_symmetry_cell_setting 'tetragonal'
loop_
_space_group_symop_operation_xyz
x,y,z
y,-x,-z
-x,-y,z
-y,x,-z
loop_
_atom_site_type_symbol
_atom_site_label
_atom_site_fract_x
_atom_site_fract_y
_atom_site_fract_z
Si Si1 0.904136 0.703765 0.309083
Si Si2 0.539209 0.738264 0.736870
Si Si3 0.365457 0.061675 0.004659
Si Si4 0.857476 0.311535 0.567167
Si Si5 0.500000 0.500000 0.000000
O O1 0.810600 0.589453 0.287905
O O2 0.828204 0.810988 0.411362
O O3 0.020861 0.670049 0.439732
O O4 0.963527 0.725057 0.098027
O O5 0.606776 0.749045 0.530504
O O6 0.518336 0.613696 0.853450
O O7 0.628655 0.817050 0.875095
O O8 0.346340 0.103959 0.219286
O O9 0.500000 0.000000 0.992065
#
# Coordination Sequence:
#
# PCOD9542463 Si02
#       5
#     4   4   4   4   1
#     4  10  23  39  61  92 123 166 222 270 332 400
#     4  10  23  41  61  95 130 167 212 268 341 403
#     4   9  19  39  63  85 119 166 211 263 330 400
#     4  11  22  40  64  89 126 172 218 271 332 402
#     4  12  24  40  66 100 140 170 224 292 334 404
#
# _framework density 20.66262
#
# number of rings (size 3 to 8) (size 9 to 14) (size 15 to 20)
#    0.000    1.882    0.000    4.941    0.000   11.765 
#    0.000    1.176    0.000    0.000    0.000    0.000 
#    0.000    0.000    0.000    0.000    0.000    0.000 
#
# Total GULP energy -94772.285911 kJ/mol
# GULP energy per Si atom -5574.840348 kJ/mol
# Density = 2.061559 g / cm^3
# Si number density = 20.662620 Si / 1000 Ang^3
#
#
#
# Elastic Constant Matrix: (Units=GPa)
#
#
# Indices 1 2 3 4 5 6 
#
# 1 76.2794 49.2481 37.1548 0.0000 0.0000 5.6424
# 2 49.2481 76.2794 37.1548 0.0000 0.0000 -5.6424
# 3 37.1548 37.1548 142.4911 0.0000 0.0000 0.0000
# 4 0.0000 0.0000 0.0000 13.4146 0.0000 0.0000
# 5 0.0000 0.0000 0.0000 0.0000 13.4146 0.0000
# 6 5.6424 -5.6424 0.0000 0.0000 0.0000 19.8844
#
#
#
# Elastic Compliance Matrix: (Units=1/GPa)
#
#
# Indices 1 2 3 4 5 6 
#
# 1 0.025693 -0.016273 -0.002456 0.000000 0.000000 -0.011908
# 2 -0.016273 0.025693 -0.002456 0.000000 0.000000 0.011908
# 3 -0.002456 -0.002456 0.008299 0.000000 0.000000 0.000000
# 4 0.000000 0.000000 0.000000 0.074546 0.000000 0.000000
# 5 0.000000 0.000000 0.000000 0.000000 0.074546 0.000000
# 6 -0.011908 0.011908 0.000000 0.000000 0.000000 0.057049
#
#
# Mechanical properties :
#
#
# Convention : Reuss Voigt Hill
#
# Bulk Modulus (GPa) = 57.75539 60.24056 58.99798
# Shear Modulus (GPa) = 15.92521 20.77553 18.35037
#
# Velocity S-wave (km/s) = 2.77921 3.17435 2.98333
# Velocity P-wave (km/s) = 6.18958 6.53092 6.36254
#
# Compressibility (1/GPa) = 0.01731440
#
# Stress axis : x y z
#
# Youngs Moduli (GPa) = 38.92105 38.92105 120.49628
#
# Poissons Ratio (x) = 0.63334 0.29599
# Poissons Ratio (y) = 0.63334 0.29599
# Poissons Ratio (z) = 0.09561 0.09561
#
# Static dielectric constant tensor:
#      x y z
#    x 1.778100 0.000000 0.000000 
#    y 0.000000 1.778100 0.000000 
#    z 0.000000 0.000000 1.774250 
# 
# From -- ./inp_files/191.got.cif
#   From: 2010.05.17/outbox.cif.g08.bks.cpg/sg81_cif.got.tgz:191.got - 2010.06.03 18:51:07.
