data_PCOD9542349
_publ_section_title
;
Structure prediction by ZEFSAII (Michael W. Deem and Ramdas Pophale) SiO2 
 PCOD9542349
Probable space group: P -4
;
_chemical_formula_sum "Si O2"
_cell_formula_units_Z 16
_cell_length_a 9.298524
_cell_length_b 9.298524
_cell_length_c 7.413946
_cell_angle_alpha 90.000000
_cell_angle_beta 90.000000
_cell_angle_gamma 90.000000
_cell_volume 641.028666
_symmetry_space_group_name_H-M "P -4"
_symmetry_group_IT_number 81
_symmetry_cell_setting 'tetragonal'
loop_
_space_group_symop_operation_xyz
x,y,z
y,-x,-z
-x,-y,z
-y,x,-z
loop_
_atom_site_type_symbol
_atom_site_label
_atom_site_fract_x
_atom_site_fract_y
_atom_site_fract_z
Si Si1 0.441062 0.323349 0.612779
Si Si2 0.213471 0.302020 0.133995
Si Si3 0.673471 0.976059 0.581510
Si Si4 0.665009 0.002598 0.193261
O O1 0.340432 0.463266 0.573156
O O2 0.556871 0.294919 0.776776
O O3 0.330089 0.193655 0.612242
O O4 0.302938 0.155956 0.115307
O O5 0.082411 0.267154 0.269987
O O6 0.132621 0.322300 0.945445
O O7 0.739349 0.011472 0.387533
O O8 0.500000 0.000000 0.596440
O O9 0.500000 0.000000 0.242348
#
# Coordination Sequence:
#
# PCOD9542349 Si02
#       4
#     4   4   4   4
#     4  10  19  39  76 113 142 192 253 311 383 446
#     4  11  24  45  72 103 151 194 249 308 369 456
#     4   9  20  41  70 102 138 196 241 305 371 445
#     4  11  24  47  70 105 145 198 245 309 377 451
#
# _framework density 24.959879999999998
#
# number of rings (size 3 to 8) (size 9 to 14) (size 15 to 20)
#    0.000    1.750    2.500    2.250    0.000    2.500 
#   18.000    0.000    0.000    0.000    0.000    0.000 
#    0.000    0.000    0.000    0.000    0.000    0.000 
#
# Total GULP energy -89170.181781 kJ/mol
# GULP energy per Si atom -5573.136361 kJ/mol
# Density = 2.490307 g / cm^3
# Si number density = 24.959880 Si / 1000 Ang^3
#
#
#
# Elastic Constant Matrix: (Units=GPa)
#
#
# Indices 1 2 3 4 5 6 
#
# 1 81.3901 21.1235 11.5624 0.0000 0.0000 -6.7192
# 2 21.1235 81.3901 11.5624 0.0000 0.0000 6.7192
# 3 11.5624 11.5624 108.8586 0.0000 0.0000 0.0000
# 4 0.0000 0.0000 0.0000 38.7304 0.0000 0.0000
# 5 0.0000 0.0000 0.0000 0.0000 38.7304 0.0000
# 6 -6.7192 6.7192 0.0000 0.0000 0.0000 37.7353
#
#
#
# Elastic Compliance Matrix: (Units=1/GPa)
#
#
# Indices 1 2 3 4 5 6 
#
# 1 0.013637 -0.003642 -0.001062 0.000000 0.000000 0.003077
# 2 -0.003642 0.013637 -0.001062 0.000000 0.000000 -0.003077
# 3 -0.001062 -0.001062 0.009412 0.000000 0.000000 0.000000
# 4 0.000000 0.000000 0.000000 0.025820 0.000000 0.000000
# 5 0.000000 0.000000 0.000000 0.000000 0.025820 0.000000
# 6 0.003077 -0.003077 0.000000 0.000000 0.000000 0.027596
#
#
# Mechanical properties :
#
#
# Convention : Reuss Voigt Hill
#
# Bulk Modulus (GPa) = 39.75495 40.01504 39.88500
# Shear Modulus (GPa) = 36.80917 38.19858 37.50388
#
# Velocity S-wave (km/s) = 3.84439 3.91628 3.88050
# Velocity P-wave (km/s) = 5.97226 6.04286 6.00767
#
# Compressibility (1/GPa) = 0.02515410
#
# Stress axis : x y z
#
# Youngs Moduli (GPa) = 73.33193 73.33193 106.25038
#
# Poissons Ratio (x) = 0.26710 0.11279
# Poissons Ratio (y) = 0.26710 0.11279
# Poissons Ratio (z) = 0.07784 0.07784
#
# Static dielectric constant tensor:
#      x y z
#    x 2.114220 0.000000 0.000000 
#    y 0.000000 2.114220 0.000000 
#    z 0.000000 0.000000 2.138560 
# 
# From -- ./inp_files/85.got.cif
#   From: 2010.05.17/outbox.cif.g08.bks.cpg/sg81_cif.got.tgz:85.got - 2010.06.03 18:51:07.
