data_PCOD9542157
_publ_section_title
;
Structure prediction by ZEFSAII (Michael W. Deem and Ramdas Pophale) SiO2 
 PCOD9542157
Probable space group: I 41
;
_chemical_formula_sum "Si O2"
_cell_formula_units_Z 52
_cell_length_a 20.320031
_cell_length_b 20.320031
_cell_length_c 4.903732
_cell_angle_alpha 90.000000
_cell_angle_beta 90.000000
_cell_angle_gamma 90.000000
_cell_volume 2024.768890
_symmetry_space_group_name_H-M "I 41"
_symmetry_group_IT_number 80
_symmetry_cell_setting 'tetragonal'
loop_
_space_group_symop_operation_xyz
x,y,z
-y,1/2+x,1/4+z
-x,-y,z
y,1/2-x,1/4+z
1/2+x,1/2+y,1/2+z
1/2-y,x,3/4+z
1/2-x,1/2-y,1/2+z
1/2+y,-x,3/4+z
loop_
_atom_site_type_symbol
_atom_site_label
_atom_site_fract_x
_atom_site_fract_y
_atom_site_fract_z
Si Si1 0.659175 0.709145 0.857310
Si Si2 0.555612 0.792169 0.608936
Si Si3 0.929321 0.621062 0.621852
Si Si4 0.570679 0.378937 0.393336
Si Si5 0.444389 0.707831 0.906251
Si Si6 0.000000 0.000000 0.632594
Si Si7 0.209144 0.840824 0.907879
O O1 0.728742 0.676241 0.790590
O O2 0.619620 0.744802 0.613229
O O3 0.615604 0.647835 0.954312
O O4 0.541988 0.820903 0.313008
O O5 0.500000 0.750001 0.757593
O O6 0.567973 0.854787 0.809923
O O7 0.967269 0.555521 0.694055
O O8 0.567972 0.354786 0.705264
O O9 0.647834 0.384396 0.310876
O O10 0.541987 0.320902 0.202178
O O11 0.532731 0.444478 0.321132
O O12 0.380380 0.755199 0.901960
O O13 0.176241 0.771257 0.974599
#
# Coordination Sequence:
#
# PCOD9542157 Si02
#       7
#     8   8   8   8   8   4   8
#     4  10  21  40  68 100 134 170 218 281 345 408
#     4  11  24  44  68 100 134 176 230 284 343 415
#     4  11  26  42  68  97 133 183 227 280 346 407
#     4  11  26  42  68  97 133 183 227 280 346 407
#     4  11  24  44  68 100 134 176 230 284 343 415
#     4  12  28  50  68  98 144 190 240 286 336 414
#     4  10  21  40  68 100 134 170 218 281 345 408
#
# _framework density 25.681944999999999
#
# number of rings (size 3 to 8) (size 9 to 14) (size 15 to 20)
#    0.000    1.231    0.000    4.615    0.000   18.462 
#    0.000    0.000    0.000    0.000    0.000    0.000 
#    0.000    0.000    0.000    0.000    0.000    0.000 
#
# Total GULP energy -145641.104386 kJ/mol
# GULP energy per Si atom -5601.580938 kJ/mol
# Density = 2.562349 g / cm^3
# Si number density = 25.681945 Si / 1000 Ang^3
#
#
#
# Elastic Constant Matrix: (Units=GPa)
#
#
# Indices 1 2 3 4 5 6 
#
# 1 116.9441 49.9696 11.5640 0.0000 0.0000 -7.0303
# 2 49.9696 116.9441 11.5640 0.0000 0.0000 7.0303
# 3 11.5640 11.5640 80.6258 0.0000 0.0000 0.0000
# 4 0.0000 0.0000 0.0000 18.3209 0.0000 0.0000
# 5 0.0000 0.0000 0.0000 0.0000 18.3209 0.0000
# 6 -7.0303 7.0303 0.0000 0.0000 0.0000 55.0115
#
#
#
# Elastic Compliance Matrix: (Units=1/GPa)
#
#
# Indices 1 2 3 4 5 6 
#
# 1 0.010728 -0.004615 -0.000877 0.000000 0.000000 0.001961
# 2 -0.004615 0.010728 -0.000877 0.000000 0.000000 -0.001961
# 3 -0.000877 -0.000877 0.012654 0.000000 0.000000 0.000000
# 4 0.000000 0.000000 0.000000 0.054583 0.000000 0.000000
# 5 0.000000 0.000000 0.000000 0.000000 0.054583 0.000000
# 6 0.001961 -0.001961 0.000000 0.000000 0.000000 0.018679
#
#
# Mechanical properties :
#
#
# Convention : Reuss Voigt Hill
#
# Bulk Modulus (GPa) = 46.78846 51.18992 48.98919
# Shear Modulus (GPa) = 27.50043 34.42506 30.96275
#
# Velocity S-wave (km/s) = 3.27587 3.66517 3.47598
# Velocity P-wave (km/s) = 5.70670 6.15523 5.93520
#
# Compressibility (1/GPa) = 0.02137279
#
# Stress axis : x y z
#
# Youngs Moduli (GPa) = 93.21701 93.21701 79.02346
#
# Poissons Ratio (x) = 0.43020 0.06928
# Poissons Ratio (y) = 0.43020 0.06928
# Poissons Ratio (z) = 0.08173 0.08173
#
# Static dielectric constant tensor:
#      x y z
#    x 2.052630 0.000000 0.000000 
#    y 0.000000 2.052630 0.000000 
#    z 0.000000 0.000000 1.990870 
# 
# From -- ./inp_files/342.got.cif
#   From: 2010.05.17/outbox.cif.g08.bks.cpg/sg80_cif.got.tgz:342.got - 2010.06.03 18:49:13.
