data_PCOD9542712
_publ_section_title
;
Structure prediction by ZEFSAII (Michael W. Deem and Ramdas Pophale) SiO2 
 PCOD9542712
Probable space group: I -4 
;
_chemical_formula_sum "Si O2"
_cell_formula_units_Z 60
_cell_length_a 14.916691
_cell_length_b 14.916691
_cell_length_c 13.399165
_cell_angle_alpha 90.000000
_cell_angle_beta 90.000000
_cell_angle_gamma 90.000000
_cell_volume 2981.416989
_symmetry_space_group_name_H-M "I -4 "
_symmetry_group_IT_number 82
_symmetry_cell_setting 'tetragonal'
loop_
_space_group_symop_operation_xyz
x,y,z
y,-x,-z
-x,-y,z
-y,x,-z
1/2+x,1/2+y,1/2+z
1/2+y,1/2-x,1/2-z
1/2-x,1/2-y,1/2+z
1/2-y,1/2+x,1/2-z
loop_
_atom_site_type_symbol
_atom_site_label
_atom_site_fract_x
_atom_site_fract_y
_atom_site_fract_z
Si Si1 0.437128 0.697683 0.629619
Si Si2 0.289914 0.584663 0.518190
Si Si3 0.159954 0.322746 0.152949
Si Si4 0.179619 0.306016 0.684606
Si Si5 0.000000 0.500000 0.924321
Si Si6 0.356255 0.876206 0.534496
Si Si7 0.232254 0.512937 0.190296
Si Si8 0.493644 0.183802 0.308582
O O1 0.355162 0.641922 0.586090
O O2 0.523909 0.666176 0.567055
O O3 0.408711 0.801156 0.600765
O O4 0.464490 0.688783 0.745863
O O5 0.217469 0.642270 0.456651
O O6 0.241177 0.516897 0.591656
O O7 0.242018 0.265554 0.200641
O O8 0.179130 0.426958 0.152087
O O9 0.072729 0.309268 0.221027
O O10 0.168560 0.319522 0.566178
O O11 0.199816 0.405311 0.727597
O O12 0.082693 0.286287 0.731879
O O13 0.976650 0.582492 0.849639
O O14 0.924094 0.454171 0.994318
O O15 0.274544 0.918866 0.597853
#
# Coordination Sequence:
#
# PCOD9542712 Si02
#       8
#     8   8   8   8   4   8   8   8
#     4  11  22  40  60  89 125 167 217 263 322 393
#     4  11  21  40  60  88 123 171 213 266 320 383
#     4  11  23  38  60  89 131 167 213 265 333 387
#     4  11  22  39  59  90 125 164 208 268 318 404
#     4  10  20  35  59  92 124 158 199 264 333 408
#     4  11  21  37  55  87 128 157 199 261 325 397
#     4  11  24  37  60  95 124 169 207 263 325 402
#     4  11  21  35  61  87 122 160 209 256 327 390
#
# _framework density 20.124659999999999
#
# number of rings (size 3 to 8) (size 9 to 14) (size 15 to 20)
#    0.000    1.067    5.333    3.200    1.867    1.067 
#    0.000    0.000    0.000    2.400    0.000    0.000 
#    0.000    0.000    0.000    0.000    0.000    0.000 
#
# Total GULP energy -167137.137984 kJ/mol
# GULP energy per Si atom -5571.237933 kJ/mol
# Density = 2.007886 g / cm^3
# Si number density = 20.124660 Si / 1000 Ang^3
#
#
#
# Elastic Constant Matrix: (Units=GPa)
#
#
# Indices 1 2 3 4 5 6 
#
# 1 62.3598 38.2336 14.4679 0.0000 0.0000 0.0410
# 2 38.2336 62.3598 14.4679 0.0000 0.0000 -0.0410
# 3 14.4679 14.4679 68.5879 0.0000 0.0000 0.0000
# 4 0.0000 0.0000 0.0000 29.0818 0.0000 0.0000
# 5 0.0000 0.0000 0.0000 0.0000 29.0818 0.0000
# 6 0.0410 -0.0410 0.0000 0.0000 0.0000 -6.0759
#
#
#
# Elastic Compliance Matrix: (Units=1/GPa)
#
#
# Indices 1 2 3 4 5 6 
#
# 1 0.026015 -0.015432 -0.002232 0.000000 0.000000 0.000280
# 2 -0.015432 0.026015 -0.002232 0.000000 0.000000 -0.000280
# 3 -0.002232 -0.002232 0.015522 0.000000 0.000000 0.000000
# 4 0.000000 0.000000 0.000000 0.034386 0.000000 0.000000
# 5 0.000000 0.000000 0.000000 0.000000 0.034386 0.000000
# 6 0.000280 -0.000280 0.000000 0.000000 0.000000 -0.164581
#
#
# Mechanical properties :
#
#
# Convention : Reuss Voigt Hill
#
# Bulk Modulus (GPa) = 36.02520 36.40513 36.21516
# Shear Modulus (GPa) = 240.49552 18.82676 129.66114
#
# Velocity S-wave (km/s) = 10.94360 3.06192 8.03547
# Velocity P-wave (km/s) = 13.32753 5.53440 10.20423
#
# Compressibility (1/GPa) = 0.02775835
#
# Stress axis : x y z
#
# Youngs Moduli (GPa) = 38.43869 38.43869 64.42625
#
# Poissons Ratio (x) = 0.59320 0.14383
# Poissons Ratio (y) = 0.59320 0.14383
# Poissons Ratio (z) = 0.08581 0.08581
#
# Static dielectric constant tensor:
#      x y z
#    x 1.746920 0.000000 0.000000 
#    y 0.000000 1.746920 0.000000 
#    z 0.000000 0.000000 1.763720 
# 
# From -- ./inp_files/2338.got.cif
#   From: 2010.05.17/outbox.cif.g08.bks.cpg/sg82_2_cif.got.tgz:2338.got - 2010.06.03 18:52:26.
