data_PCOD9542960
_publ_section_title
;
Structure prediction by ZEFSAII (Michael W. Deem and Ramdas Pophale) SiO2 
 PCOD9542960
Probable space group: I -4 
;
_chemical_formula_sum "Si O2"
_cell_formula_units_Z 34
_cell_length_a 8.698757
_cell_length_b 8.698757
_cell_length_c 19.219382
_cell_angle_alpha 90.000000
_cell_angle_beta 90.000000
_cell_angle_gamma 90.000000
_cell_volume 1454.299373
_symmetry_space_group_name_H-M "I -4 "
_symmetry_group_IT_number 82
_symmetry_cell_setting 'tetragonal'
loop_
_space_group_symop_operation_xyz
x,y,z
y,-x,-z
-x,-y,z
-y,x,-z
1/2+x,1/2+y,1/2+z
1/2+y,1/2-x,1/2-z
1/2-x,1/2-y,1/2+z
1/2-y,1/2+x,1/2-z
loop_
_atom_site_type_symbol
_atom_site_label
_atom_site_fract_x
_atom_site_fract_y
_atom_site_fract_z
Si Si1 0.794952 0.182479 0.391886
Si Si2 0.061817 0.751468 0.251024
Si Si3 0.730891 0.446734 0.646635
Si Si4 0.000000 0.500000 0.750000
Si Si5 0.839759 0.590041 0.974190
O O1 0.893783 0.166428 0.322693
O O2 0.628051 0.252306 0.370211
O O3 0.873191 0.292164 0.448165
O O4 0.773083 0.023103 0.432766
O O5 0.178861 0.606870 0.245263
O O6 0.092949 0.865609 0.187171
O O7 0.760220 0.361559 0.573657
O O8 0.875648 0.422157 0.699533
O O9 0.000000 0.500000 0.973962
#
# Coordination Sequence:
#
# PCOD9542960 Si02
#       5
#     8   8   8   2   8
#     4  11  24  44  69 104 140 192 242 299 369 438
#     4  11  27  45  71 107 150 192 245 315 367 426
#     4  11  21  45  74 101 139 190 243 300 368 444
#     4  12  16  44  72 100 132 188 246 304 360 416
#     4  10  24  43  71 101 149 191 238 306 369 434
#
# _framework density 23.378955000000001
#
# number of rings (size 3 to 8) (size 9 to 14) (size 15 to 20)
#    0.000    1.176    5.882    0.000    6.588    3.294 
#    0.000    4.706    0.000    0.000    0.000    0.000 
#    0.000    0.000    0.000    0.000    0.000    0.000 
#
# Total GULP energy -95162.569805 kJ/mol
# GULP energy per Si atom -5597.798224 kJ/mol
# Density = 2.332574 g / cm^3
# Si number density = 23.378955 Si / 1000 Ang^3
#
#
#
# Elastic Constant Matrix: (Units=GPa)
#
#
# Indices 1 2 3 4 5 6 
#
# 1 62.0732 32.0341 24.7085 0.0000 0.0000 5.0537
# 2 32.0341 62.0732 24.7085 0.0000 0.0000 -5.0537
# 3 24.7085 24.7085 124.2611 0.0000 0.0000 0.0000
# 4 0.0000 0.0000 0.0000 41.4675 0.0000 0.0000
# 5 0.0000 0.0000 0.0000 0.0000 41.4675 0.0000
# 6 5.0537 -5.0537 0.0000 0.0000 0.0000 32.6991
#
#
#
# Elastic Compliance Matrix: (Units=1/GPa)
#
#
# Indices 1 2 3 4 5 6 
#
# 1 0.023491 -0.011625 -0.002359 0.000000 0.000000 -0.005427
# 2 -0.011625 0.023491 -0.002359 0.000000 0.000000 0.005427
# 3 -0.002359 -0.002359 0.008986 0.000000 0.000000 0.000000
# 4 0.000000 0.000000 0.000000 0.024115 0.000000 0.000000
# 5 0.000000 0.000000 0.000000 0.000000 0.024115 0.000000
# 6 -0.005427 0.005427 0.000000 0.000000 0.000000 0.032259
#
#
# Mechanical properties :
#
#
# Convention : Reuss Voigt Hill
#
# Bulk Modulus (GPa) = 42.95753 45.70105 44.32929
# Shear Modulus (GPa) = 28.26383 34.25726 31.26054
#
# Velocity S-wave (km/s) = 3.48076 3.83208 3.66064
# Velocity P-wave (km/s) = 5.87950 6.25861 6.07202
#
# Compressibility (1/GPa) = 0.02327880
#
# Stress axis : x y z
#
# Youngs Moduli (GPa) = 42.57034 42.57034 111.28633
#
# Poissons Ratio (x) = 0.49490 0.26256
# Poissons Ratio (y) = 0.49490 0.26256
# Poissons Ratio (z) = 0.10044 0.10044
#
# Static dielectric constant tensor:
#      x y z
#    x 1.910730 0.000000 0.000000 
#    y 0.000000 1.910730 0.000000 
#    z 0.000000 0.000000 1.818620 
# 
# From -- ./inp_files/2944.got.cif
#   From: 2010.05.17/outbox.cif.g08.bks.cpg/sg82_2_cif.got.tgz:2944.got - 2010.06.03 18:52:26.
