data_PCOD9542591
_publ_section_title
;
Structure prediction by ZEFSAII (Michael W. Deem and Ramdas Pophale) SiO2 
 PCOD9542591
Probable space group: P -4
;
_chemical_formula_sum "Si O2"
_cell_formula_units_Z 24
_cell_length_a 13.131275
_cell_length_b 13.131275
_cell_length_c 6.369154
_cell_angle_alpha 90.000000
_cell_angle_beta 90.000000
_cell_angle_gamma 90.000000
_cell_volume 1098.235664
_symmetry_space_group_name_H-M "P -4"
_symmetry_group_IT_number 81
_symmetry_cell_setting 'tetragonal'
loop_
_space_group_symop_operation_xyz
x,y,z
y,-x,-z
-x,-y,z
-y,x,-z
loop_
_atom_site_type_symbol
_atom_site_label
_atom_site_fract_x
_atom_site_fract_y
_atom_site_fract_z
Si Si1 0.730121 0.093901 0.550624
Si Si2 0.658745 0.946890 0.888742
Si Si3 0.195848 0.082701 0.244985
Si Si4 0.500000 0.500000 0.000000
Si Si5 0.000000 0.000000 0.000000
Si Si6 0.544067 0.635186 0.382655
Si Si7 0.851933 0.486941 0.462573
Si Si8 0.500000 0.000000 0.176490
O O1 0.820616 0.174085 0.601468
O O2 0.612115 0.137834 0.549272
O O3 0.728830 0.013191 0.740391
O O4 0.759484 0.019400 0.357362
O O5 0.576266 0.886654 0.743709
O O6 0.728328 0.886575 0.053670
O O7 0.591790 0.026556 0.024263
O O8 0.088949 0.047710 0.143673
O O9 0.586984 0.451849 0.849131
O O10 0.612392 0.569736 0.538285
O O11 0.557396 0.748297 0.449789
O O12 0.920650 0.458432 0.659884
#
# Coordination Sequence:
#
# PCOD9542591 Si02
#       8
#     4   4   4   1   1   4   4   2
#     4  12  25  46  69 103 146 187 247 305 356 436
#     4  12  24  47  68  99 144 190 238 289 368 428
#     4  12  26  45  73 104 145 198 246 300 365 435
#     4   8  18  48  72  98 144 180 238 292 368 438
#     4  12  24  46  72 100 146 196 248 306 360 432
#     4   9  22  45  69 100 139 182 229 295 357 434
#     4  12  24  45  73 105 146 183 238 306 356 432
#     4  12  22  44  70  96 138 184 230 294 350 418
#
# _framework density 21.853232999999999
#
# number of rings (size 3 to 8) (size 9 to 14) (size 15 to 20)
#    0.000    0.833    6.667    1.000    0.000    5.333 
#    3.000    1.667    0.000    0.000    0.000    0.000 
#    0.000    0.000    0.000    0.000    0.000    0.000 
#
# Total GULP energy -133640.201532 kJ/mol
# GULP energy per Si atom -5568.341731 kJ/mol
# Density = 2.180349 g / cm^3
# Si number density = 21.853233 Si / 1000 Ang^3
#
#
#
# Elastic Constant Matrix: (Units=GPa)
#
#
# Indices 1 2 3 4 5 6 
#
# 1 75.7166 -22.5858 24.1982 0.0000 0.0000 11.8792
# 2 -22.5858 75.7166 24.1982 0.0000 0.0000 -11.8792
# 3 24.1982 24.1982 104.9613 0.0000 0.0000 0.0000
# 4 0.0000 0.0000 0.0000 24.2207 0.0000 0.0000
# 5 0.0000 0.0000 0.0000 0.0000 24.2207 0.0000
# 6 11.8792 -11.8792 0.0000 0.0000 0.0000 32.2473
#
#
#
# Elastic Compliance Matrix: (Units=1/GPa)
#
#
# Indices 1 2 3 4 5 6 
#
# 1 0.017496 0.006329 -0.005493 0.000000 0.000000 -0.004114
# 2 0.006329 0.017496 -0.005493 0.000000 0.000000 0.004114
# 3 -0.005493 -0.005493 0.012060 0.000000 0.000000 0.000000
# 4 0.000000 0.000000 0.000000 0.041287 0.000000 0.000000
# 5 0.000000 0.000000 0.000000 0.000000 0.041287 0.000000
# 6 -0.004114 0.004114 0.000000 0.000000 0.000000 0.034041
#
#
# Mechanical properties :
#
#
# Convention : Reuss Voigt Hill
#
# Bulk Modulus (GPa) = 26.49798 34.22395 30.36096
# Shear Modulus (GPa) = 26.94562 31.51000 29.22781
#
# Velocity S-wave (km/s) = 3.51526 3.80134 3.66110
# Velocity P-wave (km/s) = 5.35050 5.91285 5.63869
#
# Compressibility (1/GPa) = 0.03773872
#
# Stress axis : x y z
#
# Youngs Moduli (GPa) = 57.15663 57.15663 82.91940
#
# Poissons Ratio (x) = -0.36174 0.45545
# Poissons Ratio (y) = -0.36174 0.45545
# Poissons Ratio (z) = 0.31394 0.31394
#
# Static dielectric constant tensor:
#      x y z
#    x 1.787040 0.000000 0.000000 
#    y 0.000000 1.787040 0.000000 
#    z 0.000000 0.000000 1.791720 
# 
# From -- ./inp_files/307.got.cif
#   From: 2010.05.17/outbox.cif.g08.bks.cpg/sg81_cif.got.tgz:307.got - 2010.06.03 18:51:07.
