data_PCOD9542556
_publ_section_title
;
Structure prediction by ZEFSAII (Michael W. Deem and Ramdas Pophale) SiO2 
 PCOD9542556
Probable space group: P -4
;
_chemical_formula_sum "Si O2"
_cell_formula_units_Z 14
_cell_length_a 7.254737
_cell_length_b 7.254737
_cell_length_c 9.946873
_cell_angle_alpha 90.000000
_cell_angle_beta 90.000000
_cell_angle_gamma 90.000000
_cell_volume 523.515951
_symmetry_space_group_name_H-M "P -4"
_symmetry_group_IT_number 81
_symmetry_cell_setting 'tetragonal'
loop_
_space_group_symop_operation_xyz
x,y,z
y,-x,-z
-x,-y,z
-y,x,-z
loop_
_atom_site_type_symbol
_atom_site_label
_atom_site_fract_x
_atom_site_fract_y
_atom_site_fract_z
Si Si1 0.865349 0.732752 0.963800
Si Si2 0.778910 0.663648 0.371383
Si Si3 0.500000 0.000000 0.834452
Si Si4 0.625663 0.242474 0.334666
O O1 0.820615 0.692082 0.810503
O O2 0.081905 0.772906 0.983525
O O3 0.834756 0.559453 0.063046
O O4 0.693279 0.455451 0.355311
O O5 0.597386 0.778491 0.335009
O O6 0.842686 0.691509 0.524002
O O7 0.952274 0.664695 0.271583
#
# Coordination Sequence:
#
# PCOD9542556 Si02
#       4
#     4   4   2   4
#     4  11  25  44  65  98 143 181 225 287 356 414
#     4   9  20  39  71  98 132 171 239 286 332 412
#     4  12  24  40  62 106 130 178 232 280 350 420
#     4   9  19  43  69  98 129 182 229 289 341 401
#
# _framework density 26.742256999999999
#
# number of rings (size 3 to 8) (size 9 to 14) (size 15 to 20)
#    0.000    2.000    2.857    1.714    4.000    1.143 
#    5.143    2.857    0.000    3.429    0.000    0.000 
#    0.000    0.000    0.000    0.000    0.000    0.000 
#
# Total GULP energy -78047.231366 kJ/mol
# GULP energy per Si atom -5574.802240 kJ/mol
# Density = 2.668139 g / cm^3
# Si number density = 26.742257 Si / 1000 Ang^3
#
#
#
# Elastic Constant Matrix: (Units=GPa)
#
#
# Indices 1 2 3 4 5 6 
#
# 1 76.9026 4.9055 50.8179 0.0000 0.0000 1.7092
# 2 4.9055 76.9026 50.8179 0.0000 0.0000 -1.7092
# 3 50.8179 50.8179 315.8464 0.0000 0.0000 0.0000
# 4 0.0000 0.0000 0.0000 46.8812 0.0000 0.0000
# 5 0.0000 0.0000 0.0000 0.0000 46.8812 0.0000
# 6 1.7092 -1.7092 0.0000 0.0000 0.0000 24.6104
#
#
#
# Elastic Compliance Matrix: (Units=1/GPa)
#
#
# Indices 1 2 3 4 5 6 
#
# 1 0.014606 0.000671 -0.002458 0.000000 0.000000 -0.000968
# 2 0.000671 0.014606 -0.002458 0.000000 0.000000 0.000968
# 3 -0.002458 -0.002458 0.003957 0.000000 0.000000 0.000000
# 4 0.000000 0.000000 0.000000 0.021331 0.000000 0.000000
# 5 0.000000 0.000000 0.000000 0.000000 0.021331 0.000000
# 6 -0.000968 0.000968 0.000000 0.000000 0.000000 0.040768
#
#
# Mechanical properties :
#
#
# Convention : Reuss Voigt Hill
#
# Bulk Modulus (GPa) = 40.51877 75.85936 58.18907
# Shear Modulus (GPa) = 37.50500 47.88189 42.69344
#
# Velocity S-wave (km/s) = 3.74901 4.23602 3.99993
# Velocity P-wave (km/s) = 5.82448 7.23557 6.56803
#
# Compressibility (1/GPa) = 0.02467992
#
# Stress axis : x y z
#
# Youngs Moduli (GPa) = 68.46270 68.46270 252.71175
#
# Poissons Ratio (x) = -0.04594 0.62118
# Poissons Ratio (y) = -0.04594 0.62118
# Poissons Ratio (z) = 0.16829 0.16829
#
# Static dielectric constant tensor:
#      x y z
#    x 2.322560 0.000000 0.000000 
#    y 0.000000 2.322560 0.000000 
#    z 0.000000 0.000000 2.139930 
# 
# From -- ./inp_files/472.got.cif
#   From: 2010.05.17/outbox.cif.g08.bks.cpg/sg81_cif.got.tgz:472.got - 2010.06.03 18:51:07.
