data_PCOD9542028
_publ_section_title
;
Structure prediction by ZEFSAII (Michael W. Deem and Ramdas Pophale) SiO2 
 PCOD9542028
Probable space group: I 4
;
_chemical_formula_sum "Si O2"
_cell_formula_units_Z 40
_cell_length_a 11.153963
_cell_length_b 11.153963
_cell_length_c 13.918202
_cell_angle_alpha 90.000000
_cell_angle_beta 90.000000
_cell_angle_gamma 90.000000
_cell_volume 1731.575906
_symmetry_space_group_name_H-M "I 4"
_symmetry_group_IT_number 79
_symmetry_cell_setting 'tetragonal'
loop_
_space_group_symop_operation_xyz
x,y,z
-y,x,z
-x,-y,z
y,-x,z
1/2+x,1/2+y,1/2+z
1/2-y,1/2+x,1/2+z
1/2-x,1/2-y,1/2+z
1/2+y,1/2-x,1/2+z
loop_
_atom_site_type_symbol
_atom_site_label
_atom_site_fract_x
_atom_site_fract_y
_atom_site_fract_z
Si Si1 0.914711 0.391872 0.117060
Si Si2 0.813159 0.065544 0.953775
Si Si3 0.573614 0.676048 0.222608
Si Si4 0.801068 0.987611 0.248833
Si Si5 0.874880 0.538228 0.927315
O O1 0.797216 0.379229 0.180619
O O2 0.987587 0.275826 0.151230
O O3 0.000000 0.500000 0.147991
O O4 0.868655 0.439418 0.013106
O O5 0.818307 0.069338 0.837386
O O6 0.674626 0.109816 0.969695
O O7 0.927463 0.149985 0.981916
O O8 0.437436 0.651391 0.190801
O O9 0.724302 0.975368 0.346382
O O10 0.892150 0.877497 0.249433
O O11 0.000000 0.500000 0.878759
#
# Coordination Sequence:
#
# PCOD9542028 Si02
#       5
#     8   8   8   8   8
#     4  11  25  43  68 105 146 199 258 308 389 465
#     4   9  19  38  69 105 142 191 245 302 377 458
#     4   9  19  36  65 101 133 182 240 302 371 442
#     4  11  27  50  78 107 154 213 255 322 408 477
#     4  11  25  43  70 111 145 195 264 319 388 460
#
# _framework density 23.100344
#
# number of rings (size 3 to 8) (size 9 to 14) (size 15 to 20)
#    0.000    1.800    2.000    1.800    5.600    1.600 
#    7.200    2.000    0.000    9.600    0.000    0.000 
#    0.000    0.000    0.000    0.000    0.000    0.000 
#
# Total GULP energy -111650.978714 kJ/mol
# GULP energy per Si atom -5582.548936 kJ/mol
# Density = 2.304777 g / cm^3
# Si number density = 23.100344 Si / 1000 Ang^3
#
#
#
# Elastic Constant Matrix: (Units=GPa)
#
#
# Indices 1 2 3 4 5 6 
#
# 1 104.3515 56.3391 57.1401 0.0000 0.0000 7.2801
# 2 56.3391 104.3516 57.1401 0.0000 0.0000 -7.2801
# 3 57.1401 57.1401 123.9086 0.0000 0.0000 0.0000
# 4 0.0000 0.0000 0.0000 -16.9140 0.0000 0.0000
# 5 0.0000 0.0000 0.0000 0.0000 -16.9140 0.0000
# 6 7.2801 -7.2801 0.0000 0.0000 0.0000 -79.0677
#
#
#
# Elastic Compliance Matrix: (Units=1/GPa)
#
#
# Indices 1 2 3 4 5 6 
#
# 1 0.014761 -0.005501 -0.004270 0.000000 0.000000 0.001866
# 2 -0.005501 0.014761 -0.004270 0.000000 0.000000 -0.001866
# 3 -0.004270 -0.004270 0.012009 0.000000 0.000000 0.000000
# 4 0.000000 0.000000 0.000000 -0.059123 0.000000 0.000000
# 5 0.000000 0.000000 0.000000 0.000000 -0.059123 0.000000
# 6 0.001866 -0.001866 0.000000 0.000000 0.000000 -0.012304
#
#
# Mechanical properties :
#
#
# Convention : Reuss Voigt Hill
#
# Bulk Modulus (GPa) = 74.36043 74.87225 74.61634
# Shear Modulus (GPa) = -88.57017 -11.77963 -50.17490
#
# Velocity S-wave (km/s) = -6.19877 -2.26062 -4.66557
# Velocity P-wave (km/s) = 4.35579 5.06638 1.82966
#
# Compressibility (1/GPa) = 0.01344801
#
# Stress axis : x y z
#
# Youngs Moduli (GPa) = 67.74559 67.74559 83.27161
#
# Poissons Ratio (x) = 0.37267 0.35559
# Poissons Ratio (y) = 0.37267 0.35559
# Poissons Ratio (z) = 0.28929 0.28929
#
# Static dielectric constant tensor:
#      x y z
#    x 1.954020 0.000000 0.000000 
#    y 0.000000 1.954020 0.000000 
#    z 0.000000 0.000000 1.898810 
# 
# From -- ./inp_files/1316.got.cif
#   From: 2010.05.17/outbox.cif.g08.bks.cpg/sg79_cif.got.tgz:1316.got - 2010.06.03 18:47:27.
