data_PCOD9542214
_publ_section_title
;
Structure prediction by ZEFSAII (Michael W. Deem and Ramdas Pophale) SiO2 
 PCOD9542214
Probable space group: I 41
;
_chemical_formula_sum "Si O2"
_cell_formula_units_Z 48
_cell_length_a 11.113313
_cell_length_b 11.113313
_cell_length_c 17.838464
_cell_angle_alpha 90.000000
_cell_angle_beta 90.000000
_cell_angle_gamma 90.000000
_cell_volume 2203.152444
_symmetry_space_group_name_H-M "I 41"
_symmetry_group_IT_number 80
_symmetry_cell_setting 'tetragonal'
loop_
_space_group_symop_operation_xyz
x,y,z
-y,1/2+x,1/4+z
-x,-y,z
y,1/2-x,1/4+z
1/2+x,1/2+y,1/2+z
1/2-y,x,3/4+z
1/2-x,1/2-y,1/2+z
1/2+y,-x,3/4+z
loop_
_atom_site_type_symbol
_atom_site_label
_atom_site_fract_x
_atom_site_fract_y
_atom_site_fract_z
Si Si1 0.987827 0.243037 0.774810
Si Si2 0.446941 0.632972 0.119927
Si Si3 0.316635 0.925190 0.823605
Si Si4 0.248117 0.358475 0.765027
Si Si5 0.685422 0.568331 0.599304
Si Si6 0.384992 0.928638 0.664137
O O1 0.929453 0.194783 0.699493
O O2 0.898106 0.337617 0.814558
O O3 0.007695 0.150199 0.842318
O O4 0.120808 0.290059 0.756570
O O5 0.500000 0.500000 0.135268
O O6 0.539771 0.717201 0.075632
O O7 0.426475 0.829968 0.832272
O O8 0.293226 0.927616 0.733832
O O9 0.203147 0.902861 0.877772
O O10 0.369007 0.055563 0.843469
O O11 0.356615 0.274516 0.794889
O O12 0.275379 0.414992 0.684857
O O13 0.500000 0.000000 0.696076
#
# Coordination Sequence:
#
# PCOD9542214 Si02
#       6
#     8   8   8   8   8   8
#     4  11  23  41  69 103 144 190 246 303 363 434
#     4  10  23  43  64 105 141 189 251 297 369 438
#     4  11  26  45  69 107 141 188 243 297 360 427
#     4  11  23  42  73  99 142 193 240 296 362 437
#     4  11  23  43  69 102 140 185 249 290 359 438
#     4  12  24  45  72 104 147 188 239 299 362 422
#
# _framework density 21.786961999999999
#
# number of rings (size 3 to 8) (size 9 to 14) (size 15 to 20)
#    0.000    1.000    3.333    3.500    2.333    4.000 
#    0.000    3.333    0.000    0.000    0.000    0.000 
#    0.000    0.000    0.000    0.000    0.000    0.000 
#
# Total GULP energy -134088.475710 kJ/mol
# GULP energy per Si atom -5587.019821 kJ/mol
# Density = 2.173737 g / cm^3
# Si number density = 21.786962 Si / 1000 Ang^3
#
#
#
# Elastic Constant Matrix: (Units=GPa)
#
#
# Indices 1 2 3 4 5 6 
#
# 1 70.5785 17.4593 39.5378 0.0000 0.0000 -0.5667
# 2 17.4593 70.5785 39.5378 0.0000 0.0000 0.5667
# 3 39.5378 39.5378 162.3270 0.0000 0.0000 0.0000
# 4 0.0000 0.0000 0.0000 -43.1552 0.0000 0.0000
# 5 0.0000 0.0000 0.0000 0.0000 -43.1552 0.0000
# 6 -0.5667 0.5667 0.0000 0.0000 0.0000 32.4003
#
#
#
# Elastic Compliance Matrix: (Units=1/GPa)
#
#
# Indices 1 2 3 4 5 6 
#
# 1 0.016686 -0.002146 -0.003541 0.000000 0.000000 0.000329
# 2 -0.002146 0.016686 -0.003541 0.000000 0.000000 -0.000329
# 3 -0.003541 -0.003541 0.007886 0.000000 0.000000 0.000000
# 4 0.000000 0.000000 0.000000 -0.023172 0.000000 0.000000
# 5 0.000000 0.000000 0.000000 0.000000 -0.023172 0.000000
# 6 0.000329 -0.000329 0.000000 0.000000 0.000000 0.030875
#
#
# Mechanical properties :
#
#
# Convention : Reuss Voigt Hill
#
# Bulk Modulus (GPa) = 43.86112 55.17262 49.51687
# Shear Modulus (GPa) = 96.43706 3.01457 49.72581
#
# Velocity S-wave (km/s) = 6.66031 1.17757 4.78259
# Velocity P-wave (km/s) = 8.90628 5.21800 7.29895
#
# Compressibility (1/GPa) = 0.02279923
#
# Stress axis : x y z
#
# Youngs Moduli (GPa) = 59.93000 59.93000 126.81416
#
# Poissons Ratio (x) = 0.12864 0.44910
# Poissons Ratio (y) = 0.12864 0.44910
# Poissons Ratio (z) = 0.21224 0.21224
#
# Static dielectric constant tensor:
#      x y z
#    x 1.855920 0.000000 0.000000 
#    y 0.000000 1.855920 0.000000 
#    z 0.000000 0.000000 1.763980 
# 
# From -- ./inp_files/1531.got.cif
#   From: 2010.05.17/outbox.cif.g08.bks.cpg/sg80_cif.got.tgz:1531.got - 2010.06.03 18:49:13.
