data_PCOD9542611
_publ_section_title
;
Structure prediction by ZEFSAII (Michael W. Deem and Ramdas Pophale) SiO2 
 PCOD9542611
Probable space group: I -4 
;
_chemical_formula_sum "Si O2"
_cell_formula_units_Z 44
_cell_length_a 8.507420
_cell_length_b 8.507420
_cell_length_c 30.817320
_cell_angle_alpha 90.000000
_cell_angle_beta 90.000000
_cell_angle_gamma 90.000000
_cell_volume 2230.440363
_symmetry_space_group_name_H-M "I -4 "
_symmetry_group_IT_number 82
_symmetry_cell_setting 'tetragonal'
loop_
_space_group_symop_operation_xyz
x,y,z
y,-x,-z
-x,-y,z
-y,x,-z
1/2+x,1/2+y,1/2+z
1/2+y,1/2-x,1/2-z
1/2-x,1/2-y,1/2+z
1/2-y,1/2+x,1/2-z
loop_
_atom_site_type_symbol
_atom_site_label
_atom_site_fract_x
_atom_site_fract_y
_atom_site_fract_z
Si Si1 0.758128 0.081866 0.075467
Si Si2 0.500000 0.500000 0.286530
Si Si3 0.228915 0.579464 0.767980
Si Si4 0.076845 0.747726 0.504417
Si Si5 0.090095 0.238722 0.067750
Si Si6 0.750519 0.850404 0.149655
O O1 0.908672 0.197931 0.077258
O O2 0.828970 0.926018 0.051621
O O3 0.711209 0.007973 0.121910
O O4 0.618476 0.163119 0.049585
O O5 0.605058 0.605375 0.254689
O O6 0.399753 0.609649 0.318177
O O7 0.180136 0.400720 0.758017
O O8 0.215018 0.618492 0.818572
O O9 0.129317 0.628778 0.466749
O O10 0.900950 0.811145 0.500571
O O11 0.181625 0.265772 0.113078
#
# Coordination Sequence:
#
# PCOD9542611 Si02
#       6
#     8   4   8   8   8   8
#     4   9  18  36  62  87 109 152 199 258 278 361
#     4  10  16  36  60  85 122 154 187 256 296 362
#     4   9  19  34  60  89 118 156 196 240 299 364
#     4  11  24  39  52  82 128 164 195 242 310 354
#     4   9  18  36  61  86 110 151 203 249 288 355
#     4   9  17  37  59  92 114 144 204 254 295 348
#
# _framework density 19.727043999999999
#
# number of rings (size 3 to 8) (size 9 to 14) (size 15 to 20)
#    1.091    1.455    1.818    1.091    0.000    4.364 
#   13.091    1.818    8.000    8.727    0.000    0.000 
#    0.000    0.000    0.000    0.000    0.000    0.000 
#
# Total GULP energy -122560.991005 kJ/mol
# GULP energy per Si atom -5570.954137 kJ/mol
# Density = 1.968214 g / cm^3
# Si number density = 19.727044 Si / 1000 Ang^3
#
#
#
# Elastic Constant Matrix: (Units=GPa)
#
#
# Indices 1 2 3 4 5 6 
#
# 1 45.5056 17.1555 41.4807 0.0000 0.0000 -2.2693
# 2 17.1555 45.5056 41.4807 0.0000 0.0000 2.2693
# 3 41.4807 41.4807 138.7523 0.0000 0.0000 0.0000
# 4 0.0000 0.0000 0.0000 17.9921 0.0000 0.0000
# 5 0.0000 0.0000 0.0000 0.0000 17.9921 0.0000
# 6 -2.2693 2.2693 0.0000 0.0000 0.0000 21.4167
#
#
#
# Elastic Compliance Matrix: (Units=1/GPa)
#
#
# Indices 1 2 3 4 5 6 
#
# 1 0.031148 -0.004734 -0.007896 0.000000 0.000000 0.003802
# 2 -0.004734 0.031148 -0.007896 0.000000 0.000000 -0.003802
# 3 -0.007896 -0.007896 0.011928 0.000000 0.000000 0.000000
# 4 0.000000 0.000000 0.000000 0.055580 0.000000 0.000000
# 5 0.000000 0.000000 0.000000 0.000000 0.055580 0.000000
# 6 0.003802 -0.003802 0.000000 0.000000 0.000000 0.047498
#
#
# Mechanical properties :
#
#
# Convention : Reuss Voigt Hill
#
# Bulk Modulus (GPa) = 30.14804 47.77748 38.96276
# Shear Modulus (GPa) = 17.54430 20.12329 18.83380
#
# Velocity S-wave (km/s) = 2.98544 3.19734 3.09321
# Velocity P-wave (km/s) = 5.21532 6.15650 5.70535
#
# Compressibility (1/GPa) = 0.03316965
#
# Stress axis : x y z
#
# Youngs Moduli (GPa) = 32.10507 32.10507 83.83316
#
# Poissons Ratio (x) = 0.15199 0.66198
# Poissons Ratio (y) = 0.15199 0.66198
# Poissons Ratio (z) = 0.25352 0.25352
#
# Static dielectric constant tensor:
#      x y z
#    x 1.734020 0.000000 0.000000 
#    y 0.000000 1.734020 0.000000 
#    z 0.000000 0.000000 1.708060 
# 
# From -- ./inp_files/3947.got.cif
#   From: 2010.05.17/outbox.cif.g08.bks.cpg/sg82_2_cif.got.tgz:3947.got - 2010.06.03 18:52:26.
