data_PCOD9542589
_publ_section_title
;
Structure prediction by ZEFSAII (Michael W. Deem and Ramdas Pophale) SiO2 
 PCOD9542589
Probable space group: P -4
;
_chemical_formula_sum "Si O2"
_cell_formula_units_Z 16
_cell_length_a 8.492277
_cell_length_b 8.492277
_cell_length_c 9.478104
_cell_angle_alpha 90.000000
_cell_angle_beta 90.000000
_cell_angle_gamma 90.000000
_cell_volume 683.549190
_symmetry_space_group_name_H-M "P -4"
_symmetry_group_IT_number 81
_symmetry_cell_setting 'tetragonal'
loop_
_space_group_symop_operation_xyz
x,y,z
y,-x,-z
-x,-y,z
-y,x,-z
loop_
_atom_site_type_symbol
_atom_site_label
_atom_site_fract_x
_atom_site_fract_y
_atom_site_fract_z
Si Si1 0.297110 0.231543 0.616328
Si Si2 0.000000 0.000000 0.000000
Si Si3 0.725360 0.923178 0.318400
Si Si4 0.014790 0.285491 0.170038
Si Si5 0.500000 0.500000 0.500000
Si Si6 0.000000 0.500000 0.926985
O O1 0.326922 0.145303 0.467765
O O2 0.384693 0.396409 0.597844
O O3 0.109319 0.245162 0.649012
O O4 0.367578 0.119580 0.737346
O O5 0.859494 0.931075 0.910282
O O6 0.869658 0.810189 0.273009
O O7 0.609436 0.908722 0.184264
O O8 0.085499 0.387956 0.042087
#
# Coordination Sequence:
#
# PCOD9542589 Si02
#       6
#     4   1   4   4   1   2
#     4  12  26  50  82 115 160 217 287 364 416 524
#     4  12  20  44  78 116 156 192 290 332 404 504
#     4  12  25  48  81 119 154 222 291 353 417 505
#     4  12  24  44  79 119 157 219 277 351 421 508
#     4  12  32  48  68 122 172 204 268 358 472 484
#     4  12  28  44  74 120 174 206 262 364 438 500
#
# _framework density 23.407240000000002
#
# number of rings (size 3 to 8) (size 9 to 14) (size 15 to 20)
#    0.000    0.000    7.500    1.500    3.500    1.000 
#    0.000    0.000    0.000    1.500    0.000    0.000 
#    0.000    0.000    0.000    0.000    0.000    0.000 
#
# Total GULP energy -89267.083843 kJ/mol
# GULP energy per Si atom -5579.192740 kJ/mol
# Density = 2.335396 g / cm^3
# Si number density = 23.407240 Si / 1000 Ang^3
#
#
#
# Elastic Constant Matrix: (Units=GPa)
#
#
# Indices 1 2 3 4 5 6 
#
# 1 86.8845 17.5186 51.8619 0.0000 0.0000 -7.0407
# 2 17.5186 86.8845 51.8619 0.0000 0.0000 7.0407
# 3 51.8619 51.8619 189.5771 0.0000 0.0000 0.0000
# 4 0.0000 0.0000 0.0000 50.5587 0.0000 0.0000
# 5 0.0000 0.0000 0.0000 0.0000 50.5587 0.0000
# 6 -7.0407 7.0407 0.0000 0.0000 0.0000 34.8502
#
#
#
# Elastic Compliance Matrix: (Units=1/GPa)
#
#
# Indices 1 2 3 4 5 6 
#
# 1 0.014093 -0.000940 -0.003598 0.000000 0.000000 0.003037
# 2 -0.000940 0.014093 -0.003598 0.000000 0.000000 -0.003037
# 3 -0.003598 -0.003598 0.007244 0.000000 0.000000 0.000000
# 4 0.000000 0.000000 0.000000 0.019779 0.000000 0.000000
# 5 0.000000 0.000000 0.000000 0.000000 0.019779 0.000000
# 6 0.003037 -0.003037 0.000000 0.000000 0.000000 0.029921
#
#
# Mechanical properties :
#
#
# Convention : Reuss Voigt Hill
#
# Bulk Modulus (GPa) = 52.20069 67.31453 59.75761
# Shear Modulus (GPa) = 39.19503 43.33376 41.26440
#
# Velocity S-wave (km/s) = 4.09648 4.30734 4.20323
# Velocity P-wave (km/s) = 6.68763 7.31833 7.01008
#
# Compressibility (1/GPa) = 0.01915683
#
# Stress axis : x y z
#
# Youngs Moduli (GPa) = 70.95740 70.95740 138.05262
#
# Poissons Ratio (x) = 0.06669 0.49675
# Poissons Ratio (y) = 0.06669 0.49675
# Poissons Ratio (z) = 0.25532 0.25532
#
# Static dielectric constant tensor:
#      x y z
#    x 1.952690 0.000000 0.000000 
#    y 0.000000 1.952690 0.000000 
#    z 0.000000 0.000000 1.893590 
# 
# From -- ./inp_files/652.got.cif
#   From: 2010.05.17/outbox.cif.g08.bks.cpg/sg81_cif.got.tgz:652.got - 2010.06.03 18:51:07.
