data_PCOD9542066
_publ_section_title
;
Structure prediction by ZEFSAII (Michael W. Deem and Ramdas Pophale) SiO2 
 PCOD9542066
Probable space group: I 41
;
_chemical_formula_sum "Si O2"
_cell_formula_units_Z 56
_cell_length_a 15.489784
_cell_length_b 15.489784
_cell_length_c 9.117968
_cell_angle_alpha 90.000000
_cell_angle_beta 90.000000
_cell_angle_gamma 90.000000
_cell_volume 2187.705140
_symmetry_space_group_name_H-M "I 41"
_symmetry_group_IT_number 80
_symmetry_cell_setting 'tetragonal'
loop_
_space_group_symop_operation_xyz
x,y,z
-y,1/2+x,1/4+z
-x,-y,z
y,1/2-x,1/4+z
1/2+x,1/2+y,1/2+z
1/2-y,x,3/4+z
1/2-x,1/2-y,1/2+z
1/2+y,-x,3/4+z
loop_
_atom_site_type_symbol
_atom_site_label
_atom_site_fract_x
_atom_site_fract_y
_atom_site_fract_z
Si Si1 0.921414 0.063268 0.178810
Si Si2 0.514336 0.261685 0.818262
Si Si3 0.577282 0.727788 0.121093
Si Si4 0.340026 0.719894 0.349641
Si Si5 0.981661 0.087633 0.763025
Si Si6 0.036145 0.641021 0.746949
Si Si7 0.764059 0.677010 0.450233
O O1 0.900949 0.025102 0.339938
O O2 0.940817 0.162688 0.224815
O O3 0.833803 0.054540 0.082890
O O4 0.000000 0.000000 0.133869
O O5 0.421035 0.257082 0.744122
O O6 0.493505 0.285209 0.989097
O O7 0.566598 0.637698 0.206521
O O8 0.546056 0.795820 0.244388
O O9 0.657323 0.772411 0.036310
O O10 0.316292 0.760249 0.505976
O O11 0.419221 0.652563 0.349551
O O12 0.379378 0.798233 0.252574
O O13 0.924794 0.052553 0.626390
O O14 0.000000 0.000000 0.846070
O O15 0.684868 0.724361 0.527983
#
# Coordination Sequence:
#
# PCOD9542066 Si02
#       7
#     8   8   8   8   8   8   8
#     4  11  20  33  56  93 133 171 220 288 356 418
#     4  10  20  34  56  94 132 170 226 288 357 408
#     4   9  18  29  49  86 123 165 205 275 345 399
#     4   9  19  35  54  85 121 159 202 260 322 392
#     4  10  18  28  51  86 117 154 206 269 328 387
#     4   9  17  28  49  82 123 147 199 273 338 374
#     4  10  21  37  60  94 135 174 238 287 346 422
#
# _framework density 25.5976
#
# number of rings (size 3 to 8) (size 9 to 14) (size 15 to 20)
#    0.000    2.286    1.429    3.000    6.000    0.000 
#    0.000    0.000    0.000    3.429    0.000   16.000 
#    0.000    0.000    0.000    0.000    0.000    0.000 
#
# Total GULP energy -156359.181786 kJ/mol
# GULP energy per Si atom -5584.256492 kJ/mol
# Density = 2.553934 g / cm^3
# Si number density = 25.597600 Si / 1000 Ang^3
#
#
#
# Elastic Constant Matrix: (Units=GPa)
#
#
# Indices 1 2 3 4 5 6 
#
# 1 145.0749 64.2356 39.9194 0.0000 0.0000 -6.9791
# 2 64.2356 145.0749 39.9194 0.0000 0.0000 6.9791
# 3 39.9194 39.9194 65.6133 0.0000 0.0000 0.0000
# 4 0.0000 0.0000 0.0000 -10.5700 0.0000 0.0000
# 5 0.0000 0.0000 0.0000 0.0000 -10.5700 0.0000
# 6 -6.9791 6.9791 0.0000 0.0000 0.0000 34.1729
#
#
#
# Elastic Compliance Matrix: (Units=1/GPa)
#
#
# Indices 1 2 3 4 5 6 
#
# 1 0.009522 -0.003300 -0.003785 0.000000 0.000000 0.002619
# 2 -0.003300 0.009522 -0.003785 0.000000 0.000000 -0.002619
# 3 -0.003785 -0.003785 0.019847 0.000000 0.000000 0.000000
# 4 0.000000 0.000000 0.000000 -0.094608 0.000000 0.000000
# 5 0.000000 0.000000 0.000000 0.000000 -0.094608 0.000000
# 6 0.002619 -0.002619 0.000000 0.000000 0.000000 0.030333
#
#
# Mechanical properties :
#
#
# Convention : Reuss Voigt Hill
#
# Bulk Modulus (GPa) = 58.31286 71.54576 64.92931
# Shear Modulus (GPa) = -54.03394 16.71916 -18.65739
#
# Velocity S-wave (km/s) = -4.59944 2.55846 -2.70269
# Velocity P-wave (km/s) = 2.31870 6.06123 3.95993
#
# Compressibility (1/GPa) = 0.01714888
#
# Stress axis : x y z
#
# Youngs Moduli (GPa) = 105.02133 105.02133 50.38652
#
# Poissons Ratio (x) = 0.34662 0.19072
# Poissons Ratio (y) = 0.34662 0.19072
# Poissons Ratio (z) = 0.39752 0.39752
#
# Static dielectric constant tensor:
#      x y z
#    x 2.117950 0.000000 0.000000 
#    y 0.000000 2.117950 0.000000 
#    z 0.000000 0.000000 2.002700 
# 
# From -- ./inp_files/1049.got.cif
#   From: 2010.05.17/outbox.cif.g08.bks.cpg/sg80_cif.got.tgz:1049.got - 2010.06.03 18:49:13.
