data_PCOD9542229
_publ_section_title
;
Structure prediction by ZEFSAII (Michael W. Deem and Ramdas Pophale) SiO2 
 PCOD9542229
Probable space group: I 41
;
_chemical_formula_sum "Si O2"
_cell_formula_units_Z 40
_cell_length_a 17.445305
_cell_length_b 17.445305
_cell_length_c 4.889571
_cell_angle_alpha 90.000000
_cell_angle_beta 90.000000
_cell_angle_gamma 90.000000
_cell_volume 1488.085518
_symmetry_space_group_name_H-M "I 41"
_symmetry_group_IT_number 80
_symmetry_cell_setting 'tetragonal'
loop_
_space_group_symop_operation_xyz
x,y,z
-y,1/2+x,1/4+z
-x,-y,z
y,1/2-x,1/4+z
1/2+x,1/2+y,1/2+z
1/2-y,x,3/4+z
1/2-x,1/2-y,1/2+z
1/2+y,-x,3/4+z
loop_
_atom_site_type_symbol
_atom_site_label
_atom_site_fract_x
_atom_site_fract_y
_atom_site_fract_z
Si Si1 0.493824 0.369398 0.154880
Si Si2 0.732795 0.867875 0.130131
Si Si3 0.132277 0.775776 0.642092
Si Si4 0.902834 0.010079 0.516256
Si Si5 0.010240 0.697503 0.250658
O O1 0.564326 0.324819 0.300303
O O2 0.442320 0.444957 0.210336
O O3 0.542934 0.418767 0.928146
O O4 0.427647 0.310454 0.077162
O O5 0.803478 0.822845 0.262009
O O6 0.760969 0.931101 0.913312
O O7 0.174224 0.703419 0.780791
O O8 0.078216 0.745193 0.393040
O O9 0.860593 0.984158 0.244129
O O10 0.842308 0.039940 0.732672
#
# Coordination Sequence:
#
# PCOD9542229 Si02
#       5
#     8   8   8   8   8
#     4  10  24  46  72 108 152 198 252 305 378 450
#     4  11  25  46  75 113 152 198 248 317 377 448
#     4  11  25  46  75 113 152 198 248 317 377 448
#     4  11  24  51  75 107 146 203 247 306 363 458
#     4  11  26  50  73 111 148 196 245 309 375 447
#
# _framework density 26.880177
#
# number of rings (size 3 to 8) (size 9 to 14) (size 15 to 20)
#    0.000    1.200    4.000    0.000    5.600    3.200 
#    7.200    0.000    0.000    0.000    0.000    0.000 
#    0.000    0.000    0.000    0.000    0.000    0.000 
#
# Total GULP energy -111372.457597 kJ/mol
# GULP energy per Si atom -5568.622880 kJ/mol
# Density = 2.681900 g / cm^3
# Si number density = 26.880177 Si / 1000 Ang^3
#
#
#
# Elastic Constant Matrix: (Units=GPa)
#
#
# Indices 1 2 3 4 5 6 
#
# 1 216.9279 117.2368 43.4067 0.0000 0.0000 -8.7917
# 2 117.2368 216.9279 43.4067 0.0000 0.0000 8.7917
# 3 43.4067 43.4067 93.8957 0.0000 0.0000 0.0000
# 4 0.0000 0.0000 0.0000 20.6304 0.0000 0.0000
# 5 0.0000 0.0000 0.0000 0.0000 20.6304 0.0000
# 6 -8.7917 8.7917 0.0000 0.0000 0.0000 75.7716
#
#
#
# Elastic Compliance Matrix: (Units=1/GPa)
#
#
# Indices 1 2 3 4 5 6 
#
# 1 0.006821 -0.003420 -0.001572 0.000000 0.000000 0.001188
# 2 -0.003420 0.006821 -0.001572 0.000000 0.000000 -0.001188
# 3 -0.001572 -0.001572 0.012104 0.000000 0.000000 0.000000
# 4 0.000000 0.000000 0.000000 0.048472 0.000000 0.000000
# 5 0.000000 0.000000 0.000000 0.000000 0.048472 0.000000
# 6 0.001188 -0.001188 0.000000 0.000000 0.000000 0.013473
#
#
# Mechanical properties :
#
#
# Convention : Reuss Voigt Hill
#
# Bulk Modulus (GPa) = 79.25931 103.98354 91.62143
# Shear Modulus (GPa) = 32.57392 44.98658 38.78025
#
# Velocity S-wave (km/s) = 3.48490 4.09540 3.80242
# Velocity P-wave (km/s) = 6.76335 7.81864 7.31006
#
# Compressibility (1/GPa) = 0.01261681
#
# Stress axis : x y z
#
# Youngs Moduli (GPa) = 146.61096 146.61096 82.61898
#
# Poissons Ratio (x) = 0.50138 0.12990
# Poissons Ratio (y) = 0.50138 0.12990
# Poissons Ratio (z) = 0.23051 0.23051
#
# Static dielectric constant tensor:
#      x y z
#    x 2.328340 0.000000 0.000000 
#    y 0.000000 2.328340 0.000000 
#    z 0.000000 0.000000 2.044060 
# 
# From -- ./inp_files/201.got.cif
#   From: 2010.05.17/outbox.cif.g08.bks.cpg/sg80_cif.got.tgz:201.got - 2010.06.03 18:49:13.
