data_PCOD9542084
_publ_section_title
;
Structure prediction by ZEFSAII (Michael W. Deem and Ramdas Pophale) SiO2 
 PCOD9542084
Probable space group: I 41
;
_chemical_formula_sum "Si O2"
_cell_formula_units_Z 64
_cell_length_a 26.946851
_cell_length_b 26.946851
_cell_length_c 5.389184
_cell_angle_alpha 90.000000
_cell_angle_beta 90.000000
_cell_angle_gamma 90.000000
_cell_volume 3913.263153
_symmetry_space_group_name_H-M "I 41"
_symmetry_group_IT_number 80
_symmetry_cell_setting 'tetragonal'
loop_
_space_group_symop_operation_xyz
x,y,z
-y,1/2+x,1/4+z
-x,-y,z
y,1/2-x,1/4+z
1/2+x,1/2+y,1/2+z
1/2-y,x,3/4+z
1/2-x,1/2-y,1/2+z
1/2+y,-x,3/4+z
loop_
_atom_site_type_symbol
_atom_site_label
_atom_site_fract_x
_atom_site_fract_y
_atom_site_fract_z
Si Si1 0.957937 0.544020 0.121440
Si Si2 0.766393 0.180183 0.740753
Si Si3 0.206199 0.920300 0.979373
Si Si4 0.503402 0.939458 0.127711
Si Si5 0.073484 0.614256 0.963942
Si Si6 0.949942 0.191434 0.370151
Si Si7 0.341090 0.653606 0.876208
Si Si8 0.974361 0.133390 0.885810
O O1 0.975922 0.574901 0.359621
O O2 0.000000 0.500000 0.101556
O O3 0.960515 0.571034 0.858284
O O4 0.903858 0.520675 0.142514
O O5 0.797158 0.212338 0.940776
O O6 0.767760 0.121519 0.801861
O O7 0.796858 0.186424 0.484162
O O8 0.162052 0.950836 0.844370
O O9 0.248967 0.952991 0.106543
O O10 0.178628 0.886085 0.181637
O O11 0.454088 0.913164 0.235271
O O12 0.500000 0.000000 0.108560
O O13 0.122609 0.639557 0.861299
O O14 0.093847 0.571553 0.144695
O O15 0.891469 0.181591 0.317859
O O16 0.966767 0.165148 0.629693
O O17 0.975373 0.166722 0.130720
#
# Coordination Sequence:
#
# PCOD9542084 Si02
#       8
#     8   8   8   8   8   8   8   8
#     4  10  19  30  52  72 101 111 144 172 244 309
#     4  11  25  35  46  60  77 105 152 214 272 310
#     4  11  23  37  49  63  87 121 160 202 246 306
#     4  10  19  29  50  77  98 117 139 176 239 314
#     4  10  21  33  51  71  94 120 149 193 248 313
#     4  11  24  34  53  65  92 121 164 197 247 301
#     4  10  22  35  50  60  87 113 160 197 262 299
#     4  11  21  37  50  74  91 126 146 197 241 314
#
# _framework density 16.354635999999999
#
# number of rings (size 3 to 8) (size 9 to 14) (size 15 to 20)
#    0.000    1.500    3.750    2.250   17.500    0.000 
#    0.000    0.000    0.000    0.000    0.000    0.000 
#    0.000    0.000    0.000    0.000    0.000    0.000 
#
# Total GULP energy -178168.392680 kJ/mol
# GULP energy per Si atom -5567.762271 kJ/mol
# Density = 1.631741 g / cm^3
# Si number density = 16.354636 Si / 1000 Ang^3
#
#
#
# Elastic Constant Matrix: (Units=GPa)
#
#
# Indices 1 2 3 4 5 6 
#
# 1 33.2146 15.3543 4.3512 0.0000 0.0000 3.6662
# 2 15.3543 33.2146 4.3512 0.0000 0.0000 -3.6662
# 3 4.3512 4.3512 72.7424 0.0000 0.0000 0.0000
# 4 0.0000 0.0000 0.0000 40.1870 0.0000 0.0000
# 5 0.0000 0.0000 0.0000 0.0000 40.1870 0.0000
# 6 3.6662 -3.6662 0.0000 0.0000 0.0000 13.7998
#
#
#
# Elastic Compliance Matrix: (Units=1/GPa)
#
#
# Indices 1 2 3 4 5 6 
#
# 1 0.041828 -0.021016 -0.001245 0.000000 0.000000 -0.016696
# 2 -0.021016 0.041828 -0.001245 0.000000 0.000000 0.016696
# 3 -0.001245 -0.001245 0.013896 0.000000 0.000000 0.000000
# 4 0.000000 0.000000 0.000000 0.024884 0.000000 0.000000
# 5 0.000000 0.000000 0.000000 0.000000 0.024884 0.000000
# 6 -0.016696 0.016696 0.000000 0.000000 0.000000 0.081336
#
#
# Mechanical properties :
#
#
# Convention : Reuss Voigt Hill
#
# Bulk Modulus (GPa) = 19.78585 20.80942 20.29763
# Shear Modulus (GPa) = 17.09313 26.50909 21.80111
#
# Velocity S-wave (km/s) = 3.23639 4.03040 3.65502
# Velocity P-wave (km/s) = 5.10783 5.86603 5.50001
#
# Compressibility (1/GPa) = 0.05054117
#
# Stress axis : x y z
#
# Youngs Moduli (GPa) = 23.90717 23.90717 71.96278
#
# Poissons Ratio (x) = 0.50243 0.08959
# Poissons Ratio (y) = 0.50243 0.08959
# Poissons Ratio (z) = 0.02976 0.02976
#
# Static dielectric constant tensor:
#      x y z
#    x 1.570110 0.000000 0.000000 
#    y 0.000000 1.570110 0.000000 
#    z 0.000000 0.000000 1.699300 
# 
# From -- ./inp_files/440.got.cif
#   From: 2010.05.17/outbox.cif.g08.bks.cpg/sg80_cif.got.tgz:440.got - 2010.06.03 18:49:13.
