data_PCOD9542820
_publ_section_title
;
Structure prediction by ZEFSAII (Michael W. Deem and Ramdas Pophale) SiO2 
 PCOD9542820
Probable space group: I -4 
;
_chemical_formula_sum "Si O2"
_cell_formula_units_Z 40
_cell_length_a 8.123502
_cell_length_b 8.123502
_cell_length_c 24.064488
_cell_angle_alpha 90.000000
_cell_angle_beta 90.000000
_cell_angle_gamma 90.000000
_cell_volume 1588.046480
_symmetry_space_group_name_H-M "I -4 "
_symmetry_group_IT_number 82
_symmetry_cell_setting 'tetragonal'
loop_
_space_group_symop_operation_xyz
x,y,z
y,-x,-z
-x,-y,z
-y,x,-z
1/2+x,1/2+y,1/2+z
1/2+y,1/2-x,1/2-z
1/2-x,1/2-y,1/2+z
1/2-y,1/2+x,1/2-z
loop_
_atom_site_type_symbol
_atom_site_label
_atom_site_fract_x
_atom_site_fract_y
_atom_site_fract_z
Si Si1 0.086716 0.237082 0.473821
Si Si2 0.767899 0.650352 0.246114
Si Si3 0.650017 0.206878 0.876437
Si Si4 0.609485 0.337663 0.640244
Si Si5 0.319653 0.027674 0.060223
O O1 0.158236 0.411462 0.496553
O O2 0.922170 0.199633 0.512500
O O3 0.009581 0.243186 0.412140
O O4 0.779430 0.452456 0.251321
O O5 0.706463 0.672624 0.183330
O O6 0.681008 0.710380 0.302441
O O7 0.805875 0.250885 0.913597
O O8 0.681933 0.012344 0.865680
O O9 0.500000 0.500000 0.649507
O O10 0.708877 0.380919 0.584323
O O11 0.500000 0.000000 0.083280
#
# Coordination Sequence:
#
# PCOD9542820 Si02
#       5
#     8   8   8   8   8
#     4   9  19  39  64  90 123 163 217 270 324 388
#     4   9  18  36  61  94 117 157 219 265 320 384
#     4   9  19  40  64  88 124 170 212 268 324 391
#     4   9  19  39  62  88 131 168 213 266 323 404
#     4  10  21  40  57  90 131 163 213 262 328 401
#
# _framework density 25.188179999999999
#
# number of rings (size 3 to 8) (size 9 to 14) (size 15 to 20)
#    0.000    2.800    0.000    0.000    0.000    1.600 
#   32.400    0.000    0.000    0.000    0.000    0.000 
#    0.000    0.000    0.000    0.000    0.000    0.000 
#
# Total GULP energy -111649.633972 kJ/mol
# GULP energy per Si atom -5582.481699 kJ/mol
# Density = 2.513085 g / cm^3
# Si number density = 25.188180 Si / 1000 Ang^3
#
#
#
# Elastic Constant Matrix: (Units=GPa)
#
#
# Indices 1 2 3 4 5 6 
#
# 1 56.4242 18.9361 29.2178 0.0000 0.0000 -15.8140
# 2 18.9361 56.4242 29.2178 0.0000 0.0000 15.8140
# 3 29.2178 29.2178 162.2354 0.0000 0.0000 0.0000
# 4 0.0000 0.0000 0.0000 16.2018 0.0000 0.0000
# 5 0.0000 0.0000 0.0000 0.0000 16.2018 0.0000
# 6 -15.8140 15.8140 0.0000 0.0000 0.0000 39.4828
#
#
#
# Elastic Compliance Matrix: (Units=1/GPa)
#
#
# Indices 1 2 3 4 5 6 
#
# 1 0.027857 -0.012433 -0.002778 0.000000 0.000000 0.016137
# 2 -0.012433 0.027857 -0.002778 0.000000 0.000000 -0.016137
# 3 -0.002778 -0.002778 0.007164 0.000000 0.000000 0.000000
# 4 0.000000 0.000000 0.000000 0.061722 0.000000 0.000000
# 5 0.000000 0.000000 0.000000 0.000000 0.061722 0.000000
# 6 0.016137 -0.016137 0.000000 0.000000 0.000000 0.038254
#
#
# Mechanical properties :
#
#
# Convention : Reuss Voigt Hill
#
# Bulk Modulus (GPa) = 37.17400 47.75859 42.46629
# Shear Modulus (GPa) = 18.55153 27.55807 23.05480
#
# Velocity S-wave (km/s) = 2.71683 3.31129 3.02868
# Velocity P-wave (km/s) = 4.96307 5.79839 5.39692
#
# Compressibility (1/GPa) = 0.02690052
#
# Stress axis : x y z
#
# Youngs Moduli (GPa) = 35.89805 35.89803 139.57945
#
# Poissons Ratio (x) = 0.44633 0.38771
# Poissons Ratio (y) = 0.44633 0.38771
# Poissons Ratio (z) = 0.09971 0.09971
#
# Static dielectric constant tensor:
#      x y z
#    x 2.063190 0.000000 0.000000 
#    y 0.000000 2.063190 0.000000 
#    z 0.000000 0.000000 2.092260 
# 
# From -- ./inp_files/3366.got.cif
#   From: 2010.05.17/outbox.cif.g08.bks.cpg/sg82_2_cif.got.tgz:3366.got - 2010.06.03 18:52:26.
