data_PCOD9542662
_publ_section_title
;
Structure prediction by ZEFSAII (Michael W. Deem and Ramdas Pophale) SiO2 
 PCOD9542662
Probable space group: I -4 
;
_chemical_formula_sum "Si O2"
_cell_formula_units_Z 34
_cell_length_a 7.979241
_cell_length_b 7.979241
_cell_length_c 20.609340
_cell_angle_alpha 90.000000
_cell_angle_beta 90.000000
_cell_angle_gamma 90.000000
_cell_volume 1312.161373
_symmetry_space_group_name_H-M "I -4 "
_symmetry_group_IT_number 82
_symmetry_cell_setting 'tetragonal'
loop_
_space_group_symop_operation_xyz
x,y,z
y,-x,-z
-x,-y,z
-y,x,-z
1/2+x,1/2+y,1/2+z
1/2+y,1/2-x,1/2-z
1/2-x,1/2-y,1/2+z
1/2-y,1/2+x,1/2-z
loop_
_atom_site_type_symbol
_atom_site_label
_atom_site_fract_x
_atom_site_fract_y
_atom_site_fract_z
Si Si1 0.500000 0.500000 0.500000
Si Si2 0.128370 0.145488 0.264536
Si Si3 0.000000 0.500000 0.750000
Si Si4 0.257195 0.086893 0.515225
Si Si5 0.192186 0.816843 0.882989
Si Si6 0.500000 0.000000 0.412152
Si Si7 0.500000 0.000000 0.750000
O O1 0.615850 0.405290 0.447042
O O2 0.103001 0.162310 0.186101
O O3 0.075275 0.333421 0.285840
O O4 0.325002 0.096996 0.275527
O O5 0.000000 0.000000 0.288052
O O6 0.300012 0.120457 0.589574
O O7 0.102125 0.201713 0.495980
O O8 0.393792 0.113750 0.460557
O O9 0.112744 0.631750 0.874718
#
# Coordination Sequence:
#
# PCOD9542662 Si02
#       7
#     2   8   2   8   8   4   2
#     4  12  20  36  60  96 144 176 220 276 340 418
#     4  12  26  49  79 109 147 189 249 308 391 433
#     4  12  26  52  84 106 148 192 240 342 364 438
#     4   9  19  35  54  82 129 178 218 271 327 401
#     4  11  22  39  61  98 133 183 227 279 352 436
#     4  10  19  35  58  85 132 175 223 271 332 416
#     4  12  28  54  76 114 144 188 250 332 368 442
#
# _framework density 25.911448
#
# number of rings (size 3 to 8) (size 9 to 14) (size 15 to 20)
#    0.000    1.176    5.882    0.706    0.000    0.941 
#    4.235    7.059    0.000    0.000    0.000    0.000 
#    0.000    0.000    0.000    0.000    0.000    0.000 
#
# Total GULP energy -94791.800417 kJ/mol
# GULP energy per Si atom -5575.988260 kJ/mol
# Density = 2.585247 g / cm^3
# Si number density = 25.911448 Si / 1000 Ang^3
#
#
#
# Elastic Constant Matrix: (Units=GPa)
#
#
# Indices 1 2 3 4 5 6 
#
# 1 104.7024 64.0315 20.2030 0.0000 0.0000 27.0361
# 2 64.0315 104.7024 20.2030 0.0000 0.0000 -27.0361
# 3 20.2030 20.2030 122.5258 0.0000 0.0000 0.0000
# 4 0.0000 0.0000 0.0000 39.7293 0.0000 0.0000
# 5 0.0000 0.0000 0.0000 0.0000 39.7293 0.0000
# 6 27.0361 -27.0361 0.0000 0.0000 0.0000 21.3332
#
#
#
# Elastic Compliance Matrix: (Units=1/GPa)
#
#
# Indices 1 2 3 4 5 6 
#
# 1 -0.014864 0.021034 -0.001017 0.000000 0.000000 0.045495
# 2 0.021034 -0.014864 -0.001017 0.000000 0.000000 -0.045495
# 3 -0.001017 -0.001017 0.008497 0.000000 0.000000 0.000000
# 4 0.000000 0.000000 0.000000 0.025170 0.000000 0.000000
# 5 0.000000 0.000000 0.000000 0.000000 0.025170 0.000000
# 6 0.045495 -0.045495 0.000000 0.000000 0.000000 -0.068439
#
#
# Mechanical properties :
#
#
# Convention : Reuss Voigt Hill
#
# Bulk Modulus (GPa) = 59.63816 60.08949 59.86382
# Shear Modulus (GPa) = -69.69768 35.32454 -17.18657
#
# Velocity S-wave (km/s) = -5.19199 3.69627 -2.57822
# Velocity P-wave (km/s) = 3.58836 6.43873 3.78027
#
# Compressibility (1/GPa) = 0.01676779
#
# Stress axis : x y z
#
# Youngs Moduli (GPa) = -67.27645 -67.27645 117.68787
#
# Poissons Ratio (x) = 1.41510 0.11973
# Poissons Ratio (y) = 1.41510 0.11973
# Poissons Ratio (z) = -0.06845 -0.06845
#
# Static dielectric constant tensor:
#      x y z
#    x 1.840410 0.000000 0.000000 
#    y 0.000000 1.840410 0.000000 
#    z 0.000000 0.000000 2.153660 
# 
# From -- ./inp_files/3021.got.cif
#   From: 2010.05.17/outbox.cif.g08.bks.cpg/sg82_2_cif.got.tgz:3021.got - 2010.06.03 18:52:26.
