data_PCOD9542603
_publ_section_title
;
Structure prediction by ZEFSAII (Michael W. Deem and Ramdas Pophale) SiO2 
 PCOD9542603
Probable space group: P -4
;
_chemical_formula_sum "Si O2"
_cell_formula_units_Z 16
_cell_length_a 10.431903
_cell_length_b 10.431903
_cell_length_c 6.022920
_cell_angle_alpha 90.000000
_cell_angle_beta 90.000000
_cell_angle_gamma 90.000000
_cell_volume 655.441861
_symmetry_space_group_name_H-M "P -4"
_symmetry_group_IT_number 81
_symmetry_cell_setting 'tetragonal'
loop_
_space_group_symop_operation_xyz
x,y,z
y,-x,-z
-x,-y,z
-y,x,-z
loop_
_atom_site_type_symbol
_atom_site_label
_atom_site_fract_x
_atom_site_fract_y
_atom_site_fract_z
Si Si1 0.000000 0.500000 0.505528
Si Si2 0.168875 0.384644 0.875883
Si Si3 0.821847 0.041530 0.879963
Si Si4 0.249829 0.571912 0.229598
Si Si5 0.500000 0.500000 0.500000
Si Si6 0.000000 0.000000 0.500000
O O1 0.882366 0.441231 0.365243
O O2 0.929023 0.595452 0.676754
O O3 0.282971 0.295257 0.794071
O O4 0.097318 0.316232 0.081154
O O5 0.227260 0.512518 0.984542
O O6 0.871719 0.996643 0.644804
O O7 0.925323 0.149753 0.951789
O O8 0.369639 0.501944 0.352943
#
# Coordination Sequence:
#
# PCOD9542603 Si02
#       6
#     2   4   4   4   1   1
#     4  12  30  54  78 126 160 214 278 336 414 494
#     4  12  28  51  77 118 165 206 274 342 410 486
#     4   9  22  43  67 104 150 203 256 320 401 484
#     4  12  28  52  85 117 165 213 275 344 412 497
#     4  12  24  58  80 120 146 228 280 330 416 496
#     4   8  18  48  68 106 144 216 254 312 416 494
#
# _framework density 24.411010999999998
#
# number of rings (size 3 to 8) (size 9 to 14) (size 15 to 20)
#    0.000    1.250    2.500    2.250    7.000    4.000 
#    9.000    0.000    0.000    0.000    0.000    0.000 
#    0.000    0.000    0.000    0.000    0.000    0.000 
#
# Total GULP energy -89602.990791 kJ/mol
# GULP energy per Si atom -5600.186924 kJ/mol
# Density = 2.435545 g / cm^3
# Si number density = 24.411011 Si / 1000 Ang^3
#
#
#
# Elastic Constant Matrix: (Units=GPa)
#
#
# Indices 1 2 3 4 5 6 
#
# 1 146.0690 52.8268 51.2992 0.0000 0.0000 -21.2760
# 2 52.8268 146.0690 51.2992 0.0000 0.0000 21.2760
# 3 51.2992 51.2992 106.9990 0.0000 0.0000 0.0000
# 4 0.0000 0.0000 0.0000 42.6362 0.0000 0.0000
# 5 0.0000 0.0000 0.0000 0.0000 42.6362 0.0000
# 6 -21.2760 21.2760 0.0000 0.0000 0.0000 46.8615
#
#
#
# Elastic Compliance Matrix: (Units=1/GPa)
#
#
# Indices 1 2 3 4 5 6 
#
# 1 0.010104 -0.003424 -0.003203 0.000000 0.000000 0.006142
# 2 -0.003424 0.010104 -0.003203 0.000000 0.000000 -0.006142
# 3 -0.003203 -0.003203 0.012417 0.000000 0.000000 0.000000
# 4 0.000000 0.000000 0.000000 0.023454 0.000000 0.000000
# 5 0.000000 0.000000 0.000000 0.000000 0.023454 0.000000
# 6 0.006142 -0.006142 0.000000 0.000000 0.000000 0.026916
#
#
# Mechanical properties :
#
#
# Convention : Reuss Voigt Hill
#
# Bulk Modulus (GPa) = 77.12402 78.88745 78.00574
# Shear Modulus (GPa) = 38.33505 42.67423 40.50464
#
# Velocity S-wave (km/s) = 3.96713 4.18563 4.07784
# Velocity P-wave (km/s) = 7.25580 7.46631 7.36181
#
# Compressibility (1/GPa) = 0.01296613
#
# Stress axis : x y z
#
# Youngs Moduli (GPa) = 98.97382 98.97382 80.53684
#
# Poissons Ratio (x) = 0.33888 0.25792
# Poissons Ratio (y) = 0.33888 0.25792
# Poissons Ratio (z) = 0.31696 0.31696
#
# Static dielectric constant tensor:
#      x y z
#    x 1.947240 0.000000 0.000000 
#    y 0.000000 1.947240 0.000000 
#    z 0.000000 0.000000 1.957860 
# 
# From -- ./inp_files/135.got.cif
#   From: 2010.05.17/outbox.cif.g08.bks.cpg/sg81_cif.got.tgz:135.got - 2010.06.03 18:51:07.
