data_PCOD9542505
_publ_section_title
;
Structure prediction by ZEFSAII (Michael W. Deem and Ramdas Pophale) SiO2 
 PCOD9542505
Probable space group: P -4
;
_chemical_formula_sum "Si O2"
_cell_formula_units_Z 16
_cell_length_a 5.162386
_cell_length_b 5.162386
_cell_length_c 23.346730
_cell_angle_alpha 90.000000
_cell_angle_beta 90.000000
_cell_angle_gamma 90.000000
_cell_volume 622.195706
_symmetry_space_group_name_H-M "P -4"
_symmetry_group_IT_number 81
_symmetry_cell_setting 'tetragonal'
loop_
_space_group_symop_operation_xyz
x,y,z
y,-x,-z
-x,-y,z
-y,x,-z
loop_
_atom_site_type_symbol
_atom_site_label
_atom_site_fract_x
_atom_site_fract_y
_atom_site_fract_z
Si Si1 0.753237 0.820395 0.409323
Si Si2 0.000000 0.000000 0.196422
Si Si3 0.770747 0.163654 0.913615
Si Si4 0.500000 0.500000 0.000000
Si Si5 0.500000 0.500000 0.500000
Si Si6 0.263284 0.676077 0.721032
O O1 0.719323 0.607683 0.457995
O O2 0.748440 0.703190 0.345493
O O3 0.500000 0.000000 0.413221
O O4 0.000000 0.000000 0.416623
O O5 0.211492 0.098330 0.148816
O O6 0.063413 0.222015 0.242620
O O7 0.500000 0.000000 0.906333
O O8 0.711204 0.396280 0.955743
O O9 0.000000 0.000000 0.940779
O O10 0.500000 0.500000 0.741020
O O11 0.000000 0.500000 0.726437
#
# Coordination Sequence:
#
# PCOD9542505 Si02
#       6
#     4   2   4   1   1   4
#     4  11  27  50  76 119 158 225 279 350 426 508
#     4  10  26  46  79 116 161 202 282 340 420 504
#     4  10  28  46  76 117 153 215 273 339 419 492
#     4  12  28  48  78 104 172 212 284 334 432 500
#     4  12  28  48  78 112 172 216 300 346 440 512
#     4  11  25  46  78 111 160 209 270 345 426 500
#
# _framework density 25.71538
#
# number of rings (size 3 to 8) (size 9 to 14) (size 15 to 20)
#    0.750    0.500    2.500    0.000   12.250    0.000 
#    0.000    0.000    0.000    0.000    0.000    0.000 
#    0.000    0.000    0.000    0.000    0.000    0.000 
#
# Total GULP energy -89334.321059 kJ/mol
# GULP energy per Si atom -5583.395066 kJ/mol
# Density = 2.565685 g / cm^3
# Si number density = 25.715380 Si / 1000 Ang^3
#
#
#
# Elastic Constant Matrix: (Units=GPa)
#
#
# Indices 1 2 3 4 5 6 
#
# 1 145.3080 66.3607 38.3804 0.0000 0.0000 -6.2519
# 2 66.3607 145.3080 38.3804 0.0000 0.0000 6.2519
# 3 38.3804 38.3804 204.4336 0.0000 0.0000 0.0000
# 4 0.0000 0.0000 0.0000 -165.8231 0.0000 0.0000
# 5 0.0000 0.0000 0.0000 0.0000 -165.8231 0.0000
# 6 -6.2519 6.2519 0.0000 0.0000 0.0000 64.8992
#
#
#
# Elastic Compliance Matrix: (Units=1/GPa)
#
#
# Indices 1 2 3 4 5 6 
#
# 1 0.008966 -0.003897 -0.000952 0.000000 0.000000 0.001239
# 2 -0.003897 0.008966 -0.000952 0.000000 0.000000 -0.001239
# 3 -0.000952 -0.000952 0.005249 0.000000 0.000000 0.000000
# 4 0.000000 0.000000 0.000000 -0.006031 0.000000 0.000000
# 5 0.000000 0.000000 0.000000 0.000000 -0.006031 0.000000
# 6 0.001239 -0.001239 0.000000 0.000000 0.000000 0.015647
#
#
# Mechanical properties :
#
#
# Convention : Reuss Voigt Hill
#
# Bulk Modulus (GPa) = 86.34871 86.81028 86.57950
# Shear Modulus (GPa) = 118.40401 -29.88752 44.25824
#
# Velocity S-wave (km/s) = 6.79294 -3.41287 4.15309
# Velocity P-wave (km/s) = 9.75586 4.27799 7.53253
#
# Compressibility (1/GPa) = 0.01158095
#
# Stress axis : x y z
#
# Youngs Moduli (GPa) = 111.52969 111.52969 190.51511
#
# Poissons Ratio (x) = 0.43460 0.18132
# Poissons Ratio (y) = 0.43460 0.18132
# Poissons Ratio (z) = 0.10615 0.10615
#
# Static dielectric constant tensor:
#      x y z
#    x 2.485180 0.000000 0.000000 
#    y 0.000000 2.485180 0.000000 
#    z 0.000000 0.000000 1.996190 
# 
# From -- ./inp_files/1822.got.cif
#   From: 2010.05.17/outbox.cif.g08.bks.cpg/sg81_cif.got.tgz:1822.got - 2010.06.03 18:51:07.
