data_PCOD9542825
_publ_section_title
;
Structure prediction by ZEFSAII (Michael W. Deem and Ramdas Pophale) SiO2 
 PCOD9542825
Probable space group: I -4 
;
_chemical_formula_sum "Si O2"
_cell_formula_units_Z 34
_cell_length_a 8.572771
_cell_length_b 8.572771
_cell_length_c 18.912854
_cell_angle_alpha 90.000000
_cell_angle_beta 90.000000
_cell_angle_gamma 90.000000
_cell_volume 1389.951081
_symmetry_space_group_name_H-M "I -4 "
_symmetry_group_IT_number 82
_symmetry_cell_setting 'tetragonal'
loop_
_space_group_symop_operation_xyz
x,y,z
y,-x,-z
-x,-y,z
-y,x,-z
1/2+x,1/2+y,1/2+z
1/2+y,1/2-x,1/2-z
1/2-x,1/2-y,1/2+z
1/2-y,1/2+x,1/2-z
loop_
_atom_site_type_symbol
_atom_site_label
_atom_site_fract_x
_atom_site_fract_y
_atom_site_fract_z
Si Si1 0.188200 0.388252 0.401087
Si Si2 0.773513 0.095791 0.473256
Si Si3 0.500000 0.000000 0.250000
Si Si4 0.874396 0.268157 0.342714
Si Si5 0.165323 0.915155 0.204211
O O1 0.151476 0.377422 0.483815
O O2 0.178977 0.561601 0.368909
O O3 0.353241 0.328963 0.375479
O O4 0.056825 0.279171 0.363842
O O5 0.790608 0.139652 0.391805
O O6 0.916162 0.190410 0.510789
O O7 0.327688 0.002965 0.215182
O O8 0.846870 0.225475 0.261814
O O9 0.000000 0.000000 0.215643
#
# Coordination Sequence:
#
# PCOD9542825 Si02
#       5
#     8   8   2   8   8
#     4  10  21  42  64 101 135 184 237 292 367 428
#     4   9  20  37  65  95 133 182 236 289 351 428
#     4  12  28  44  68 112 132 188 236 278 376 420
#     4  10  21  40  69  97 135 188 232 294 365 431
#     4  12  26  45  70 103 146 187 237 309 358 439
#
# _framework density 24.461292
#
# number of rings (size 3 to 8) (size 9 to 14) (size 15 to 20)
#    0.000    1.647    0.000    4.235    9.882    1.882 
#    8.471    0.000    0.000    0.000    0.000    0.000 
#    0.000    0.000    0.000    0.000    0.000    0.000 
#
# Total GULP energy -94959.179487 kJ/mol
# GULP energy per Si atom -5585.834087 kJ/mol
# Density = 2.440562 g / cm^3
# Si number density = 24.461292 Si / 1000 Ang^3
#
#
#
# Elastic Constant Matrix: (Units=GPa)
#
#
# Indices 1 2 3 4 5 6 
#
# 1 100.2388 20.6900 6.5739 0.0000 0.0000 -3.6174
# 2 20.6900 100.2388 6.5739 0.0000 0.0000 3.6174
# 3 6.5739 6.5739 64.6545 0.0000 0.0000 0.0000
# 4 0.0000 0.0000 0.0000 30.4154 0.0000 0.0000
# 5 0.0000 0.0000 0.0000 0.0000 30.4154 0.0000
# 6 -3.6174 3.6174 0.0000 0.0000 0.0000 18.0523
#
#
#
# Elastic Compliance Matrix: (Units=1/GPa)
#
#
# Indices 1 2 3 4 5 6 
#
# 1 0.010583 -0.002221 -0.000850 0.000000 0.000000 0.002566
# 2 -0.002221 0.010583 -0.000850 0.000000 0.000000 -0.002566
# 3 -0.000850 -0.000850 0.015640 0.000000 0.000000 0.000000
# 4 0.000000 0.000000 0.000000 0.032878 0.000000 0.000000
# 5 0.000000 0.000000 0.000000 0.000000 0.032878 0.000000
# 6 0.002566 -0.002566 0.000000 0.000000 0.000000 0.056423
#
#
# Mechanical properties :
#
#
# Convention : Reuss Voigt Hill
#
# Bulk Modulus (GPa) = 34.52748 36.97864 35.75306
# Shear Modulus (GPa) = 28.33145 31.19624 29.76385
#
# Velocity S-wave (km/s) = 3.40695 3.57505 3.49201
# Velocity P-wave (km/s) = 5.44263 5.67374 5.55939
#
# Compressibility (1/GPa) = 0.02896244
#
# Stress axis : x y z
#
# Youngs Moduli (GPa) = 94.49114 94.49114 63.93975
#
# Poissons Ratio (x) = 0.20989 0.05436
# Poissons Ratio (y) = 0.20989 0.05436
# Poissons Ratio (z) = 0.08034 0.08034
#
# Static dielectric constant tensor:
#      x y z
#    x 1.988730 0.000000 0.000000 
#    y 0.000000 1.988730 0.000000 
#    z 0.000000 0.000000 1.898580 
# 
# From -- ./inp_files/2942.got.cif
#   From: 2010.05.17/outbox.cif.g08.bks.cpg/sg82_2_cif.got.tgz:2942.got - 2010.06.03 18:52:26.
