data_PCOD9542125
_publ_section_title
;
Structure prediction by ZEFSAII (Michael W. Deem and Ramdas Pophale) SiO2 
 PCOD9542125
Probable space group: I 41
;
_chemical_formula_sum "Si O2"
_cell_formula_units_Z 60
_cell_length_a 11.474560
_cell_length_b 11.474560
_cell_length_c 17.988559
_cell_angle_alpha 90.000000
_cell_angle_beta 90.000000
_cell_angle_gamma 90.000000
_cell_volume 2368.473104
_symmetry_space_group_name_H-M "I 41"
_symmetry_group_IT_number 80
_symmetry_cell_setting 'tetragonal'
loop_
_space_group_symop_operation_xyz
x,y,z
-y,1/2+x,1/4+z
-x,-y,z
y,1/2-x,1/4+z
1/2+x,1/2+y,1/2+z
1/2-y,x,3/4+z
1/2-x,1/2-y,1/2+z
1/2+y,-x,3/4+z
loop_
_atom_site_type_symbol
_atom_site_label
_atom_site_fract_x
_atom_site_fract_y
_atom_site_fract_z
Si Si1 0.076864 0.735138 0.689150
Si Si2 0.347010 0.113915 0.228050
Si Si3 0.500000 0.500000 0.703840
Si Si4 0.545236 0.121723 0.707053
Si Si5 0.589778 0.593209 0.139065
Si Si6 0.696090 0.016303 0.842768
Si Si7 0.609105 0.230619 0.013494
Si Si8 0.652861 0.719244 0.477019
O O1 0.106935 0.742825 0.602201
O O2 0.193263 0.719551 0.736486
O O3 0.980306 0.635705 0.706006
O O4 0.993908 0.848281 0.701208
O O5 0.330018 0.116433 0.317215
O O6 0.275320 0.226020 0.202911
O O7 0.293588 0.989147 0.211138
O O8 0.539560 0.599284 0.646488
O O9 0.402936 0.570435 0.749934
O O10 0.628044 0.088702 0.777366
O O11 0.585835 0.213315 0.644803
O O12 0.418712 0.168493 0.733920
O O13 0.500000 0.000000 0.672494
O O14 0.500000 0.500000 0.106773
O O15 0.716477 0.562031 0.170366
O O16 0.758096 0.906756 0.803946
#
# Coordination Sequence:
#
# PCOD9542125 Si02
#       8
#     8   8   4   8   8   8   8   8
#     4  10  23  46  69 108 145 193 245 316 372 450
#     4  10  20  40  76 104 140 187 251 309 372 444
#     4  12  26  44  68 104 148 196 244 302 380 466
#     4  10  22  44  74 111 150 192 255 314 385 458
#     4  10  21  40  68 105 143 196 245 310 379 454
#     4  11  23  47  71 107 148 194 246 318 376 461
#     4  11  25  42  69 108 148 196 240 307 383 452
#     4  10  20  40  69 108 142 191 251 308 376 453
#
# _framework density 25.332778000000001
#
# number of rings (size 3 to 8) (size 9 to 14) (size 15 to 20)
#    0.000    1.600    2.000    3.600    1.867    3.733 
#    7.200    1.333    0.000    0.000    0.000    0.000 
#    0.000    0.000    0.000    0.000    0.000    0.000 
#
# Total GULP energy -167036.402720 kJ/mol
# GULP energy per Si atom -5567.880091 kJ/mol
# Density = 2.527512 g / cm^3
# Si number density = 25.332778 Si / 1000 Ang^3
#
#
#
# Elastic Constant Matrix: (Units=GPa)
#
#
# Indices 1 2 3 4 5 6 
#
# 1 100.1439 29.4707 38.4990 0.0000 0.0000 -3.9401
# 2 29.4707 100.1439 38.4990 0.0000 0.0000 3.9401
# 3 38.4990 38.4990 95.3540 0.0000 0.0000 0.0000
# 4 0.0000 0.0000 0.0000 34.6195 0.0000 0.0000
# 5 0.0000 0.0000 0.0000 0.0000 34.6195 0.0000
# 6 -3.9401 3.9401 0.0000 0.0000 0.0000 43.6296
#
#
#
# Elastic Compliance Matrix: (Units=1/GPa)
#
#
# Indices 1 2 3 4 5 6 
#
# 1 0.012222 -0.002072 -0.004098 0.000000 0.000000 0.001291
# 2 -0.002072 0.012222 -0.004098 0.000000 0.000000 -0.001291
# 3 -0.004098 -0.004098 0.013796 0.000000 0.000000 0.000000
# 4 0.000000 0.000000 0.000000 0.028885 0.000000 0.000000
# 5 0.000000 0.000000 0.000000 0.000000 0.028885 0.000000
# 6 0.001291 -0.001291 0.000000 0.000000 0.000000 0.023153
#
#
# Mechanical properties :
#
#
# Convention : Reuss Voigt Hill
#
# Bulk Modulus (GPa) = 56.48482 56.50882 56.49682
# Shear Modulus (GPa) = 34.34056 35.18524 34.76290
#
# Velocity S-wave (km/s) = 3.68581 3.73087 3.70841
# Velocity P-wave (km/s) = 6.36075 6.39642 6.37861
#
# Compressibility (1/GPa) = 0.01770387
#
# Stress axis : x y z
#
# Youngs Moduli (GPa) = 81.82271 81.82271 72.48350
#
# Poissons Ratio (x) = 0.16954 0.29703
# Poissons Ratio (y) = 0.16954 0.29703
# Poissons Ratio (z) = 0.33530 0.33530
#
# Static dielectric constant tensor:
#      x y z
#    x 2.195070 0.000000 0.000000 
#    y 0.000000 2.195070 0.000000 
#    z 0.000000 0.000000 1.950710 
# 
# From -- ./inp_files/1857.got.cif
#   From: 2010.05.17/outbox.cif.g08.bks.cpg/sg80_cif.got.tgz:1857.got - 2010.06.03 18:49:13.
