data_PCOD9542118
_publ_section_title
;
Structure prediction by ZEFSAII (Michael W. Deem and Ramdas Pophale) SiO2 
 PCOD9542118
Probable space group: I 41
;
_chemical_formula_sum "Si O2"
_cell_formula_units_Z 52
_cell_length_a 18.036016
_cell_length_b 18.036016
_cell_length_c 7.690894
_cell_angle_alpha 90.000000
_cell_angle_beta 90.000000
_cell_angle_gamma 90.000000
_cell_volume 2501.831461
_symmetry_space_group_name_H-M "I 41"
_symmetry_group_IT_number 80
_symmetry_cell_setting 'tetragonal'
loop_
_space_group_symop_operation_xyz
x,y,z
-y,1/2+x,1/4+z
-x,-y,z
y,1/2-x,1/4+z
1/2+x,1/2+y,1/2+z
1/2-y,x,3/4+z
1/2-x,1/2-y,1/2+z
1/2+y,-x,3/4+z
loop_
_atom_site_type_symbol
_atom_site_label
_atom_site_fract_x
_atom_site_fract_y
_atom_site_fract_z
Si Si1 0.826082 0.079457 0.102830
Si Si2 0.500000 0.500000 0.302816
Si Si3 0.016236 0.841214 0.654159
Si Si4 0.169436 0.557316 0.536875
Si Si5 0.667342 0.308139 0.307305
Si Si6 0.559959 0.710521 0.494358
Si Si7 0.071158 0.353604 0.214448
O O1 0.741082 0.104885 0.092834
O O2 0.883082 0.105999 0.247616
O O3 0.850802 0.119143 0.923931
O O4 0.822119 0.990579 0.095438
O O5 0.523978 0.428358 0.195160
O O6 0.568609 0.532612 0.411713
O O7 0.002453 0.841072 0.448440
O O8 0.093352 0.799634 0.694630
O O9 0.959874 0.803874 0.791831
O O10 0.185292 0.510719 0.361917
O O11 0.679172 0.239005 0.436975
O O12 0.625903 0.652321 0.532827
O O13 0.575381 0.794172 0.557000
#
# Coordination Sequence:
#
# PCOD9542118 Si02
#       7
#     8   4   8   8   8   8   8
#     4  11  20  38  57  87 126 174 217 258 327 380
#     4  10  20  38  64  94 116 168 210 248 328 374
#     4  11  24  39  61  91 129 169 216 273 319 388
#     4  11  24  37  59  92 131 173 217 269 320 394
#     4  12  24  36  56  86 131 177 216 262 315 392
#     4  10  22  44  66  92 123 165 219 269 343 386
#     4  10  20  40  72  90 124 170 210 273 329 402
#
# _framework density 20.784772
#
# number of rings (size 3 to 8) (size 9 to 14) (size 15 to 20)
#    0.000    1.231    4.615    1.846    4.308    1.231 
#    0.000    4.615   13.538    0.000    0.000    0.000 
#    0.000    0.000    0.000    0.000    0.000    0.000 
#
# Total GULP energy -144859.283297 kJ/mol
# GULP energy per Si atom -5571.510896 kJ/mol
# Density = 2.073746 g / cm^3
# Si number density = 20.784772 Si / 1000 Ang^3
#
#
#
# Elastic Constant Matrix: (Units=GPa)
#
#
# Indices 1 2 3 4 5 6 
#
# 1 85.9774 21.6917 14.2172 0.0000 0.0000 10.3813
# 2 21.6917 85.9774 14.2172 0.0000 0.0000 -10.3813
# 3 14.2172 14.2172 75.8168 0.0000 0.0000 0.0000
# 4 0.0000 0.0000 0.0000 11.3159 0.0000 0.0000
# 5 0.0000 0.0000 0.0000 0.0000 11.3159 0.0000
# 6 10.3813 -10.3813 0.0000 0.0000 0.0000 30.9832
#
#
#
# Elastic Compliance Matrix: (Units=1/GPa)
#
#
# Indices 1 2 3 4 5 6 
#
# 1 0.013607 -0.003836 -0.001832 0.000000 0.000000 -0.005845
# 2 -0.003836 0.013607 -0.001832 0.000000 0.000000 0.005845
# 3 -0.001832 -0.001832 0.013877 0.000000 0.000000 0.000000
# 4 0.000000 0.000000 0.000000 0.088371 0.000000 0.000000
# 5 0.000000 0.000000 0.000000 0.000000 0.088371 0.000000
# 6 -0.005845 0.005845 0.000000 0.000000 0.000000 0.036192
#
#
# Mechanical properties :
#
#
# Convention : Reuss Voigt Hill
#
# Bulk Modulus (GPa) = 38.32792 38.66932 38.49862
# Shear Modulus (GPa) = 18.00349 23.89938 20.95143
#
# Velocity S-wave (km/s) = 2.94630 3.39462 3.17837
# Velocity P-wave (km/s) = 5.48221 5.83178 5.65970
#
# Compressibility (1/GPa) = 0.02609064
#
# Stress axis : x y z
#
# Youngs Moduli (GPa) = 73.48934 73.48934 72.06213
#
# Poissons Ratio (x) = 0.28189 0.13205
# Poissons Ratio (y) = 0.28189 0.13205
# Poissons Ratio (z) = 0.13466 0.13466
#
# Static dielectric constant tensor:
#      x y z
#    x 1.804970 0.000000 0.000000 
#    y 0.000000 1.804970 0.000000 
#    z 0.000000 0.000000 1.836120 
# 
# From -- ./inp_files/700.got.cif
#   From: 2010.05.17/outbox.cif.g08.bks.cpg/sg80_cif.got.tgz:700.got - 2010.06.03 18:49:13.
