data_PCOD9542933
_publ_section_title
;
Structure prediction by ZEFSAII (Michael W. Deem and Ramdas Pophale) SiO2 
 PCOD9542933
Probable space group: I -4 
;
_chemical_formula_sum "Si O2"
_cell_formula_units_Z 32
_cell_length_a 8.135132
_cell_length_b 8.135132
_cell_length_c 20.182473
_cell_angle_alpha 90.000000
_cell_angle_beta 90.000000
_cell_angle_gamma 90.000000
_cell_volume 1335.683584
_symmetry_space_group_name_H-M "I -4 "
_symmetry_group_IT_number 82
_symmetry_cell_setting 'tetragonal'
loop_
_space_group_symop_operation_xyz
x,y,z
y,-x,-z
-x,-y,z
-y,x,-z
1/2+x,1/2+y,1/2+z
1/2+y,1/2-x,1/2-z
1/2-x,1/2-y,1/2+z
1/2-y,1/2+x,1/2-z
loop_
_atom_site_type_symbol
_atom_site_label
_atom_site_fract_x
_atom_site_fract_y
_atom_site_fract_z
Si Si1 0.689506 0.796514 0.845593
Si Si2 0.107031 0.166107 0.208066
Si Si3 0.096191 0.248163 0.482607
Si Si4 0.801648 0.970519 0.081272
O O1 0.675839 0.685192 0.780990
O O2 0.562708 0.787200 0.905488
O O3 0.855561 0.755749 0.886447
O O4 0.697800 0.975925 0.813043
O O5 0.222734 0.150527 0.144311
O O6 0.000000 0.000000 0.209372
O O7 0.197020 0.393191 0.520985
O O8 0.919286 0.202594 0.512162
O O9 0.000000 0.000000 0.068469
#
# Coordination Sequence:
#
# PCOD9542933 Si02
#       4
#     8   8   8   8
#     4  10  23  42  69 102 139 195 242 305 368 445
#     4   9  22  42  69 100 143 189 242 307 368 444
#     4  11  27  45  72 110 153 200 254 314 374 450
#     4   9  23  46  71 102 149 196 246 309 377 447
#
# _framework density 23.95777
#
# number of rings (size 3 to 8) (size 9 to 14) (size 15 to 20)
#    0.000    2.750    0.000    0.000   14.000    4.500 
#    4.500    5.000    0.000    0.000    0.000    0.000 
#    0.000    0.000    0.000    0.000    0.000    0.000 
#
# Total GULP energy -89224.348804 kJ/mol
# GULP energy per Si atom -5576.521800 kJ/mol
# Density = 2.390324 g / cm^3
# Si number density = 23.957770 Si / 1000 Ang^3
#
#
#
# Elastic Constant Matrix: (Units=GPa)
#
#
# Indices 1 2 3 4 5 6 
#
# 1 74.0082 21.3810 39.5426 0.0000 0.0000 2.4258
# 2 21.3810 74.0082 39.5426 0.0000 0.0000 -2.4258
# 3 39.5426 39.5426 204.4445 0.0000 0.0000 0.0000
# 4 0.0000 0.0000 0.0000 16.9953 0.0000 0.0000
# 5 0.0000 0.0000 0.0000 0.0000 16.9953 0.0000
# 6 2.4258 -2.4258 0.0000 0.0000 0.0000 21.0791
#
#
#
# Elastic Compliance Matrix: (Units=1/GPa)
#
#
# Indices 1 2 3 4 5 6 
#
# 1 0.015845 -0.003360 -0.002415 0.000000 0.000000 -0.002210
# 2 -0.003360 0.015845 -0.002415 0.000000 0.000000 0.002210
# 3 -0.002415 -0.002415 0.005825 0.000000 0.000000 0.000000
# 4 0.000000 0.000000 0.000000 0.058840 0.000000 0.000000
# 5 0.000000 0.000000 0.000000 0.000000 0.058840 0.000000
# 6 -0.002210 0.002210 0.000000 0.000000 0.000000 0.047949
#
#
# Mechanical properties :
#
#
# Convention : Reuss Voigt Hill
#
# Bulk Modulus (GPa) = 47.31059 61.48813 54.39936
# Shear Modulus (GPa) = 22.06827 27.81360 24.94093
#
# Velocity S-wave (km/s) = 3.03831 3.41096 3.23001
# Velocity P-wave (km/s) = 5.66558 6.42135 6.05527
#
# Compressibility (1/GPa) = 0.02113692
#
# Stress axis : x y z
#
# Youngs Moduli (GPa) = 63.10970 63.10970 171.66059
#
# Poissons Ratio (x) = 0.21204 0.41454
# Poissons Ratio (y) = 0.21204 0.41454
# Poissons Ratio (z) = 0.15240 0.15240
#
# Static dielectric constant tensor:
#      x y z
#    x 2.041720 0.000000 0.000000 
#    y 0.000000 2.041720 0.000000 
#    z 0.000000 0.000000 2.102490 
# 
# From -- ./inp_files/3259.got.cif
#   From: 2010.05.17/outbox.cif.g08.bks.cpg/sg82_2_cif.got.tgz:3259.got - 2010.06.03 18:52:26.
