data_PCOD9542721
_publ_section_title
;
Structure prediction by ZEFSAII (Michael W. Deem and Ramdas Pophale) SiO2 
 PCOD9542721
Probable space group: I -4 
;
_chemical_formula_sum "Si O2"
_cell_formula_units_Z 56
_cell_length_a 14.561555
_cell_length_b 14.561555
_cell_length_c 11.790112
_cell_angle_alpha 90.000000
_cell_angle_beta 90.000000
_cell_angle_gamma 90.000000
_cell_volume 2499.962191
_symmetry_space_group_name_H-M "I -4 "
_symmetry_group_IT_number 82
_symmetry_cell_setting 'tetragonal'
loop_
_space_group_symop_operation_xyz
x,y,z
y,-x,-z
-x,-y,z
-y,x,-z
1/2+x,1/2+y,1/2+z
1/2+y,1/2-x,1/2-z
1/2-x,1/2-y,1/2+z
1/2-y,1/2+x,1/2-z
loop_
_atom_site_type_symbol
_atom_site_label
_atom_site_fract_x
_atom_site_fract_y
_atom_site_fract_z
Si Si1 0.571792 0.718498 0.101324
Si Si2 0.071792 0.781502 0.398677
Si Si3 0.859491 0.532442 0.280241
Si Si4 0.214843 0.643484 0.511746
Si Si5 0.467558 0.140509 0.280241
Si Si6 0.143282 0.000000 1.000000
Si Si7 0.714843 0.856516 0.988254
O O1 0.625440 0.625440 0.128256
O O2 0.526466 0.765899 0.209805
O O3 0.499999 0.705267 0.000001
O O4 0.647584 0.792166 0.058485
O O5 0.026466 0.734101 0.290196
O O6 0.147584 0.707834 0.441514
O O7 0.907239 0.434095 0.289461
O O8 0.841741 0.585133 0.397136
O O9 0.158258 0.585133 0.602863
O O10 0.283317 0.572405 0.446667
O O11 0.284549 0.715451 0.572244
O O12 0.565906 0.092761 0.289461
O O13 0.216683 0.072406 0.053333
O O14 0.071387 0.071387 0.940402
#
# Coordination Sequence:
#
# PCOD9542721 Si02
#       7
#     8   8   8   8   8   8   8
#     4  11  23  42  64  88 125 168 211 258 309 367
#     4  11  23  42  64  88 125 168 211 258 309 367
#     4  11  22  37  60  92 121 157 203 258 308 369
#     4  10  20  37  59  85 120 158 199 252 308 365
#     4  11  22  37  60  92 121 157 203 258 308 369
#     4   9  18  34  57  86 118 154 195 244 308 371
#     4  10  20  37  59  85 120 158 199 252 308 365
#
# _framework density 22.400338000000001
#
# number of rings (size 3 to 8) (size 9 to 14) (size 15 to 20)
#    0.000    1.571    2.857    2.571    0.000    0.286 
#    0.000    2.857    0.000    3.429    0.000    0.000 
#    0.000    0.000    0.000    0.000    0.000    0.000 
#
# Total GULP energy -155973.051682 kJ/mol
# GULP energy per Si atom -5570.466131 kJ/mol
# Density = 2.234935 g / cm^3
# Si number density = 22.400338 Si / 1000 Ang^3
#
#
#
# Elastic Constant Matrix: (Units=GPa)
#
#
# Indices 1 2 3 4 5 6 
#
# 1 90.2507 33.2922 3.1834 0.0000 0.0000 -0.0001
# 2 33.2922 90.2507 3.1834 0.0000 0.0000 0.0001
# 3 3.1834 3.1834 33.8140 0.0000 0.0000 0.0000
# 4 0.0000 0.0000 0.0000 10.1807 0.0000 0.0000
# 5 0.0000 0.0000 0.0000 0.0000 10.1807 0.0000
# 6 -0.0001 0.0001 0.0000 0.0000 0.0000 62.0151
#
#
#
# Elastic Compliance Matrix: (Units=1/GPa)
#
#
# Indices 1 2 3 4 5 6 
#
# 1 0.012845 -0.004711 -0.000766 0.000000 0.000000 0.000000
# 2 -0.004711 0.012845 -0.000766 0.000000 0.000000 0.000000
# 3 -0.000766 -0.000766 0.029718 0.000000 0.000000 0.000000
# 4 0.000000 0.000000 0.000000 0.098225 0.000000 0.000000
# 5 0.000000 0.000000 0.000000 0.000000 0.098225 0.000000
# 6 0.000000 0.000000 0.000000 0.000000 0.000000 0.016125
#
#
# Mechanical properties :
#
#
# Convention : Reuss Voigt Hill
#
# Bulk Modulus (GPa) = 23.29790 32.62595 27.96192
# Shear Modulus (GPa) = 16.96195 28.11904 22.54050
#
# Velocity S-wave (km/s) = 2.75475 3.54686 3.17560
# Velocity P-wave (km/s) = 4.53227 5.60091 5.09468
#
# Compressibility (1/GPa) = 0.04292232
#
# Stress axis : x y z
#
# Youngs Moduli (GPa) = 77.84983 77.84983 33.64995
#
# Poissons Ratio (x) = 0.36678 0.02577
# Poissons Ratio (y) = 0.36678 0.02577
# Poissons Ratio (z) = 0.05961 0.05961
#
# Static dielectric constant tensor:
#      x y z
#    x 1.849630 0.000000 0.000000 
#    y 0.000000 1.849630 0.000000 
#    z 0.000000 0.000000 1.834590 
# 
# From -- ./inp_files/1860.got.cif
#   From: 2010.05.17/outbox.cif.g08.bks.cpg/sg82_1_cif.got.tgz:1860.got - 2010.06.03 18:52:26.
