data_PCOD9542520
_publ_section_title
;
Structure prediction by ZEFSAII (Michael W. Deem and Ramdas Pophale) SiO2 
 PCOD9542520
Probable space group: P -4
;
_chemical_formula_sum "Si O2"
_cell_formula_units_Z 26
_cell_length_a 8.252280
_cell_length_b 8.252280
_cell_length_c 17.743474
_cell_angle_alpha 90.000000
_cell_angle_beta 90.000000
_cell_angle_gamma 90.000000
_cell_volume 1208.332801
_symmetry_space_group_name_H-M "P -4"
_symmetry_group_IT_number 81
_symmetry_cell_setting 'tetragonal'
loop_
_space_group_symop_operation_xyz
x,y,z
y,-x,-z
-x,-y,z
-y,x,-z
loop_
_atom_site_type_symbol
_atom_site_label
_atom_site_fract_x
_atom_site_fract_y
_atom_site_fract_z
Si Si1 0.258506 0.074623 0.188360
Si Si2 0.411585 0.231771 0.656389
Si Si3 0.025776 0.250351 0.978567
Si Si4 0.078852 0.741304 0.207032
Si Si5 0.000000 0.500000 0.090007
Si Si6 0.759079 0.411153 0.506868
Si Si7 0.586169 0.752372 0.327940
O O1 0.306103 0.052156 0.100284
O O2 0.376333 0.144610 0.252919
O O3 0.100098 0.189856 0.191115
O O4 0.196795 0.894880 0.207823
O O5 0.347135 0.102102 0.714581
O O6 0.382571 0.158487 0.573133
O O7 0.594673 0.295458 0.670675
O O8 0.311327 0.400925 0.668342
O O9 0.160696 0.112225 0.971346
O O10 0.096368 0.388550 0.031490
O O11 0.111675 0.604872 0.144679
O O12 0.595733 0.304009 0.500557
O O13 0.834571 0.384897 0.589405
#
# Coordination Sequence:
#
# PCOD9542520 Si02
#       7
#     4   4   4   4   2   4   4
#     4  11  22  40  58  85 117 157 199 245 300 364
#     4   9  18  33  58  91 121 159 207 250 295 351
#     4  11  21  42  63  86 114 153 199 239 301 373
#     4  11  22  37  60  85 115 153 202 242 294 362
#     4  12  22  38  68  86 108 150 194 246 290 364
#     4   7  12  28  53  81 118 165 203 238 291 352
#     4   9  18  34  58  88 126 159 200 254 300 349
#
# _framework density 21.517251000000002
#
# number of rings (size 3 to 8) (size 9 to 14) (size 15 to 20)
#    0.000    2.154    3.077    3.692    0.000    1.846 
#    0.000    1.538    0.000    7.846    0.000    0.000 
#    0.000    0.000    0.000    0.000    0.000    0.000 
#
# Total GULP energy -144901.342458 kJ/mol
# GULP energy per Si atom -5573.128556 kJ/mol
# Density = 2.146828 g / cm^3
# Si number density = 21.517251 Si / 1000 Ang^3
#
#
#
# Elastic Constant Matrix: (Units=GPa)
#
#
# Indices 1 2 3 4 5 6 
#
# 1 61.0578 17.5616 47.4458 0.0000 0.0000 0.5185
# 2 17.5616 61.0578 47.4458 0.0000 0.0000 -0.5185
# 3 47.4458 47.4458 223.8492 0.0000 0.0000 0.0000
# 4 0.0000 0.0000 0.0000 23.4797 0.0000 0.0000
# 5 0.0000 0.0000 0.0000 0.0000 23.4797 0.0000
# 6 0.5185 -0.5185 0.0000 0.0000 0.0000 24.7255
#
#
#
# Elastic Compliance Matrix: (Units=1/GPa)
#
#
# Indices 1 2 3 4 5 6 
#
# 1 0.020047 -0.002955 -0.003623 0.000000 0.000000 -0.000482
# 2 -0.002955 0.020047 -0.003623 0.000000 0.000000 0.000482
# 3 -0.003623 -0.003623 0.006003 0.000000 0.000000 0.000000
# 4 0.000000 0.000000 0.000000 0.042590 0.000000 0.000000
# 5 0.000000 0.000000 0.000000 0.000000 0.042590 0.000000
# 6 -0.000482 0.000482 0.000000 0.000000 0.000000 0.040464
#
#
# Mechanical properties :
#
#
# Convention : Reuss Voigt Hill
#
# Bulk Modulus (GPa) = 38.91630 63.43014 51.17322
# Shear Modulus (GPa) = 24.91186 29.90442 27.40814
#
# Velocity S-wave (km/s) = 3.40628 3.73203 3.57287
# Velocity P-wave (km/s) = 5.79618 6.93639 6.39176
#
# Compressibility (1/GPa) = 0.02569617
#
# Stress axis : x y z
#
# Youngs Moduli (GPa) = 49.88267 49.88267 166.58332
#
# Poissons Ratio (x) = 0.14740 0.60349
# Poissons Ratio (y) = 0.14740 0.60349
# Poissons Ratio (z) = 0.18071 0.18071
#
# Static dielectric constant tensor:
#      x y z
#    x 1.814690 0.000000 0.000000 
#    y 0.000000 1.814690 0.000000 
#    z 0.000000 0.000000 1.839390 
# 
# From -- ./inp_files/1774.got.cif
#   From: 2010.05.17/outbox.cif.g08.bks.cpg/sg81_cif.got.tgz:1774.got - 2010.06.03 18:51:07.
