data_PCOD9542981
_publ_section_title
;
Structure prediction by ZEFSAII (Michael W. Deem and Ramdas Pophale) SiO2 
 PCOD9542981
Probable space group: I -4 
;
_chemical_formula_sum "Si O2"
_cell_formula_units_Z 16
_cell_length_a 5.134370
_cell_length_b 5.134370
_cell_length_c 25.099477
_cell_angle_alpha 90.000000
_cell_angle_beta 90.000000
_cell_angle_gamma 90.000000
_cell_volume 661.666271
_symmetry_space_group_name_H-M "I -4 "
_symmetry_group_IT_number 82
_symmetry_cell_setting 'tetragonal'
loop_
_space_group_symop_operation_xyz
x,y,z
y,-x,-z
-x,-y,z
-y,x,-z
1/2+x,1/2+y,1/2+z
1/2+y,1/2-x,1/2-z
1/2-x,1/2-y,1/2+z
1/2-y,1/2+x,1/2-z
loop_
_atom_site_type_symbol
_atom_site_label
_atom_site_fract_x
_atom_site_fract_y
_atom_site_fract_z
Si Si1 0.000000 0.000000 0.500000
Si Si2 0.000000 0.500000 0.750000
Si Si3 0.500000 0.500000 0.681320
Si Si4 0.831904 0.767150 0.920051
O O1 0.905170 0.783574 0.458873
O O2 0.253094 0.414157 0.715984
O O3 0.372203 0.710139 0.640134
O O4 0.000000 0.500000 0.917003
O O5 0.000000 0.000000 0.943158
#
# Coordination Sequence:
#
# PCOD9542981 Si02
#       4
#     2   2   4   8
#     4  12  28  42  88 108 172 218 252 320 424 466
#     4  12  24  52  84 108 152 212 256 344 408 450
#     4  10  24  51  77 116 150 202 270 334 394 476
#     4  10  25  49  73 114 164 202 268 325 388 491
#
# _framework density 24.181374999999999
#
# number of rings (size 3 to 8) (size 9 to 14) (size 15 to 20)
#    1.500    0.000    2.500    0.000    7.000    3.000 
#    9.000    0.000    0.000    0.000    0.000    0.000 
#    0.000    0.000    0.000    0.000    0.000    0.000 
#
# Total GULP energy -44631.656208 kJ/mol
# GULP energy per Si atom -5578.957026 kJ/mol
# Density = 2.412634 g / cm^3
# Si number density = 24.181375 Si / 1000 Ang^3
#
#
#
# Elastic Constant Matrix: (Units=GPa)
#
#
# Indices 1 2 3 4 5 6 
#
# 1 143.0493 44.2186 50.7035 0.0000 0.0000 -4.5390
# 2 44.2186 143.0493 50.7035 0.0000 0.0000 4.5390
# 3 50.7035 50.7035 155.4379 0.0000 0.0000 0.0000
# 4 0.0000 0.0000 0.0000 37.6418 0.0000 0.0000
# 5 0.0000 0.0000 0.0000 0.0000 37.6418 0.0000
# 6 -4.5390 4.5390 0.0000 0.0000 0.0000 39.5039
#
#
#
# Elastic Compliance Matrix: (Units=1/GPa)
#
#
# Indices 1 2 3 4 5 6 
#
# 1 0.008356 -0.001870 -0.002116 0.000000 0.000000 0.001175
# 2 -0.001870 0.008356 -0.002116 0.000000 0.000000 -0.001175
# 3 -0.002116 -0.002116 0.007814 0.000000 0.000000 0.000000
# 4 0.000000 0.000000 0.000000 0.026566 0.000000 0.000000
# 5 0.000000 0.000000 0.000000 0.000000 0.026566 0.000000
# 6 0.001175 -0.001175 0.000000 0.000000 0.000000 0.025584
#
#
# Mechanical properties :
#
#
# Convention : Reuss Voigt Hill
#
# Bulk Modulus (GPa) = 81.15280 81.42083 81.28681
# Shear Modulus (GPa) = 41.82273 42.68490 42.25382
#
# Velocity S-wave (km/s) = 4.16329 4.20598 4.18469
# Velocity P-wave (km/s) = 7.53283 7.57173 7.55230
#
# Compressibility (1/GPa) = 0.01232243
#
# Stress axis : x y z
#
# Youngs Moduli (GPa) = 119.67605 119.67605 127.98160
#
# Poissons Ratio (x) = 0.22384 0.27075
# Poissons Ratio (y) = 0.22384 0.27075
# Poissons Ratio (z) = 0.25318 0.25318
#
# Static dielectric constant tensor:
#      x y z
#    x 2.022150 0.000000 0.000000 
#    y 0.000000 2.022150 0.000000 
#    z 0.000000 0.000000 1.969280 
# 
# From -- ./inp_files/2750.got.cif
#   From: 2010.05.17/outbox.cif.g08.bks.cpg/sg82_2_cif.got.tgz:2750.got - 2010.06.03 18:52:26.
