data_PCOD9542062
_publ_section_title
;
Structure prediction by ZEFSAII (Michael W. Deem and Ramdas Pophale) SiO2 
 PCOD9542062
Probable space group: I 41
;
_chemical_formula_sum "Si O2"
_cell_formula_units_Z 48
_cell_length_a 14.126683
_cell_length_b 14.126683
_cell_length_c 10.092770
_cell_angle_alpha 90.000000
_cell_angle_beta 90.000000
_cell_angle_gamma 90.000000
_cell_volume 2014.145201
_symmetry_space_group_name_H-M "I 41"
_symmetry_group_IT_number 80
_symmetry_cell_setting 'tetragonal'
loop_
_space_group_symop_operation_xyz
x,y,z
-y,1/2+x,1/4+z
-x,-y,z
y,1/2-x,1/4+z
1/2+x,1/2+y,1/2+z
1/2-y,x,3/4+z
1/2-x,1/2-y,1/2+z
1/2+y,-x,3/4+z
loop_
_atom_site_type_symbol
_atom_site_label
_atom_site_fract_x
_atom_site_fract_y
_atom_site_fract_z
Si Si1 0.176771 0.255491 0.497440
Si Si2 0.024961 0.802239 0.872305
Si Si3 0.598589 0.062030 0.907699
Si Si4 0.901643 0.039617 0.668711
Si Si5 0.740823 0.488766 0.611119
Si Si6 0.607334 0.830317 0.636470
O O1 0.182108 0.268053 0.653813
O O2 0.069139 0.238369 0.466022
O O3 0.227623 0.345802 0.421135
O O4 0.051422 0.844584 0.018119
O O5 0.059832 0.695563 0.840784
O O6 0.066286 0.874166 0.762921
O O7 0.910780 0.813378 0.881894
O O8 0.588415 0.175179 0.926160
O O9 0.500000 0.000000 0.914867
O O10 0.667464 0.032404 0.026898
O O11 0.858160 0.957744 0.763861
O O12 0.000000 0.000000 0.606047
O O13 0.664256 0.535782 0.509319
#
# Coordination Sequence:
#
# PCOD9542062 Si02
#       6
#     8   8   8   8   8   8
#     4  10  21  35  57  95 135 169 219 269 342 404
#     4  11  18  31  52  87 121 158 205 267 333 387
#     4  12  19  33  55  93 131 157 214 282 341 403
#     4  10  19  30  49  85 120 151 199 263 328 393
#     4  11  21  32  55  93 126 165 213 274 342 388
#     4  10  17  31  53  87 124 156 202 267 330 389
#
# _framework density 23.83145
#
# number of rings (size 3 to 8) (size 9 to 14) (size 15 to 20)
#    0.000    1.333    5.000    4.500    2.333    0.000 
#    0.000    0.000    0.000    0.000   86.667   15.167 
#    0.000    0.000    0.000    0.000    0.000    0.000 
#
# Total GULP energy -133656.385323 kJ/mol
# GULP energy per Si atom -5569.016055 kJ/mol
# Density = 2.377721 g / cm^3
# Si number density = 23.831450 Si / 1000 Ang^3
#
#
#
# Elastic Constant Matrix: (Units=GPa)
#
#
# Indices 1 2 3 4 5 6 
#
# 1 123.2290 51.6324 20.8747 0.0000 0.0000 20.6004
# 2 51.6324 123.2290 20.8747 0.0000 0.0000 -20.6004
# 3 20.8747 20.8747 32.4331 0.0000 0.0000 0.0000
# 4 0.0000 0.0000 0.0000 22.0488 0.0000 0.0000
# 5 0.0000 0.0000 0.0000 0.0000 22.0488 0.0000
# 6 20.6004 -20.6004 0.0000 0.0000 0.0000 -23.5958
#
#
#
# Elastic Compliance Matrix: (Units=1/GPa)
#
#
# Indices 1 2 3 4 5 6 
#
# 1 0.008027 -0.001270 -0.004349 0.000000 0.000000 0.008116
# 2 -0.001270 0.008027 -0.004349 0.000000 0.000000 -0.008116
# 3 -0.004349 -0.004349 0.036431 0.000000 0.000000 0.000000
# 4 0.000000 0.000000 0.000000 0.045354 0.000000 0.000000
# 5 0.000000 0.000000 0.000000 0.000000 0.045354 0.000000
# 6 0.008116 -0.008116 0.000000 0.000000 0.000000 -0.028208
#
#
# Mechanical properties :
#
#
# Convention : Reuss Voigt Hill
#
# Bulk Modulus (GPa) = 30.72282 51.73940 41.23111
# Shear Modulus (GPa) = 34.30071 16.46765 25.38418
#
# Velocity S-wave (km/s) = 3.79793 2.63155 3.26721
# Velocity P-wave (km/s) = 5.67028 5.56696 5.61886
#
# Compressibility (1/GPa) = 0.03254909
#
# Stress axis : x y z
#
# Youngs Moduli (GPa) = 124.58184 124.58184 27.44913
#
# Poissons Ratio (x) = 0.15818 0.11938
# Poissons Ratio (y) = 0.15818 0.11938
# Poissons Ratio (z) = 0.54182 0.54182
#
# Static dielectric constant tensor:
#      x y z
#    x 2.058390 0.000000 0.000000 
#    y 0.000000 2.058390 0.000000 
#    z 0.000000 0.000000 1.951490 
# 
# From -- ./inp_files/1018.got.cif
#   From: 2010.05.17/outbox.cif.g08.bks.cpg/sg80_cif.got.tgz:1018.got - 2010.06.03 18:49:13.
