data_PCOD9542336
_publ_section_title
;
Structure prediction by ZEFSAII (Michael W. Deem and Ramdas Pophale) SiO2 
 PCOD9542336
Probable space group: P -4
;
_chemical_formula_sum "Si O2"
_cell_formula_units_Z 24
_cell_length_a 17.239584
_cell_length_b 17.239584
_cell_length_c 5.242859
_cell_angle_alpha 90.000000
_cell_angle_beta 90.000000
_cell_angle_gamma 90.000000
_cell_volume 1558.194768
_symmetry_space_group_name_H-M "P -4"
_symmetry_group_IT_number 81
_symmetry_cell_setting 'tetragonal'
loop_
_space_group_symop_operation_xyz
x,y,z
y,-x,-z
-x,-y,z
-y,x,-z
loop_
_atom_site_type_symbol
_atom_site_label
_atom_site_fract_x
_atom_site_fract_y
_atom_site_fract_z
Si Si1 0.417503 0.099154 0.418511
Si Si2 0.354782 0.663380 0.056293
Si Si3 0.171132 0.384660 0.089007
Si Si4 0.804594 0.428848 0.085940
Si Si5 0.431935 0.608447 0.548647
Si Si6 0.923629 0.603840 0.585794
O O1 0.400255 0.154057 0.656856
O O2 0.510238 0.084140 0.429174
O O3 0.378428 0.014833 0.435062
O O4 0.403774 0.143787 0.155356
O O5 0.337820 0.750756 0.967882
O O6 0.411127 0.630135 0.836551
O O7 0.279931 0.608476 0.065417
O O8 0.395479 0.664069 0.333610
O O9 0.195644 0.476676 0.091144
O O10 0.128477 0.366056 0.352943
O O11 0.111528 0.373611 0.857388
O O12 0.523659 0.602895 0.510140
#
# Coordination Sequence:
#
# PCOD9542336 Si02
#       6
#     4   4   4   4   4   4
#     4   9  17  30  47  65  83 105 140 183 222 265
#     4  12  22  33  46  64  90 116 150 191 232 270
#     4  10  19  30  45  64  86 114 146 182 223 262
#     4  10  19  30  45  64  86 114 146 182 223 262
#     4  11  22  34  46  58  78 116 162 202 232 255
#     4   9  17  30  47  65  83 105 140 183 222 265
#
# _framework density 15.402438
#
# number of rings (size 3 to 8) (size 9 to 14) (size 15 to 20)
#    0.000    1.833    0.000    6.000    0.000    8.000 
#    0.000    0.000    0.000    0.000    0.000    0.000 
#    0.000    0.000    0.000    0.000    0.000   58.333 
#
# Total GULP energy -133972.473806 kJ/mol
# GULP energy per Si atom -5582.186409 kJ/mol
# Density = 1.536738 g / cm^3
# Si number density = 15.402438 Si / 1000 Ang^3
#
#
#
# Elastic Constant Matrix: (Units=GPa)
#
#
# Indices 1 2 3 4 5 6 
#
# 1 25.5237 2.0593 0.1864 0.0000 0.0000 0.4859
# 2 2.0593 25.5237 0.1864 0.0000 0.0000 -0.4859
# 3 0.1864 0.1864 39.2483 0.0000 0.0000 0.0000
# 4 0.0000 0.0000 0.0000 17.0874 0.0000 0.0000
# 5 0.0000 0.0000 0.0000 0.0000 17.0874 0.0000
# 6 0.4859 -0.4859 0.0000 0.0000 0.0000 7.2260
#
#
#
# Elastic Compliance Matrix: (Units=1/GPa)
#
#
# Indices 1 2 3 4 5 6 
#
# 1 0.039497 -0.003240 -0.000172 0.000000 0.000000 -0.002874
# 2 -0.003240 0.039497 -0.000172 0.000000 0.000000 0.002874
# 3 -0.000172 -0.000172 0.025480 0.000000 0.000000 0.000000
# 4 0.000000 0.000000 0.000000 0.058523 0.000000 0.000000
# 5 0.000000 0.000000 0.000000 0.000000 0.058523 0.000000
# 6 -0.002874 0.002874 0.000000 0.000000 0.000000 0.138776
#
#
# Mechanical properties :
#
#
# Convention : Reuss Voigt Hill
#
# Bulk Modulus (GPa) = 10.27697 10.57331 10.42514
# Shear Modulus (GPa) = 12.50316 14.13772 13.32044
#
# Velocity S-wave (km/s) = 2.85224 3.03295 2.94398
# Velocity P-wave (km/s) = 4.18734 4.37546 4.28244
#
# Compressibility (1/GPa) = 0.09730492
#
# Stress axis : x y z
#
# Youngs Moduli (GPa) = 25.31863 25.31863 39.24579
#
# Poissons Ratio (x) = 0.08203 0.00676
# Poissons Ratio (y) = 0.08203 0.00676
# Poissons Ratio (z) = 0.00436 0.00436
#
# Static dielectric constant tensor:
#      x y z
#    x 1.506740 0.000000 0.000000 
#    y 0.000000 1.506740 0.000000 
#    z 0.000000 0.000000 1.530950 
# 
# From -- ./inp_files/266.got.cif
#   From: 2010.05.17/outbox.cif.g08.bks.cpg/sg81_cif.got.tgz:266.got - 2010.06.03 18:51:07.
