data_PCOD9542131
_publ_section_title
;
Structure prediction by ZEFSAII (Michael W. Deem and Ramdas Pophale) SiO2 
 PCOD9542131
Probable space group: I 41
;
_chemical_formula_sum "Si O2"
_cell_formula_units_Z 32
_cell_length_a 9.867313
_cell_length_b 9.867313
_cell_length_c 11.929294
_cell_angle_alpha 90.000000
_cell_angle_beta 90.000000
_cell_angle_gamma 90.000000
_cell_volume 1161.482181
_symmetry_space_group_name_H-M "I 41"
_symmetry_group_IT_number 80
_symmetry_cell_setting 'tetragonal'
loop_
_space_group_symop_operation_xyz
x,y,z
-y,1/2+x,1/4+z
-x,-y,z
y,1/2-x,1/4+z
1/2+x,1/2+y,1/2+z
1/2-y,x,3/4+z
1/2-x,1/2-y,1/2+z
1/2+y,-x,3/4+z
loop_
_atom_site_type_symbol
_atom_site_label
_atom_site_fract_x
_atom_site_fract_y
_atom_site_fract_z
Si Si1 0.000000 0.000000 0.464420
Si Si2 0.120905 0.690818 0.541098
Si Si3 0.745362 0.831703 0.236310
Si Si4 0.500000 0.500000 0.352996
Si Si5 0.262871 0.593906 0.195214
O O1 0.922071 0.110640 0.386948
O O2 0.135969 0.836640 0.604282
O O3 0.973398 0.671411 0.487097
O O4 0.757613 0.715678 0.605042
O O5 0.266599 0.683846 0.482109
O O6 0.633700 0.475553 0.279394
O O7 0.590105 0.877704 0.262529
O O8 0.506043 0.640238 0.419366
#
# Coordination Sequence:
#
# PCOD9542131 Si02
#       5
#     4   8   8   4   8
#     4  10  20  41  79 120 162 235 286 347 446 543
#     4  10  20  43  79 113 162 226 285 352 437 526
#     4  10  22  43  81 125 168 227 300 359 438 531
#     4  10  24  49  85 110 168 215 286 353 442 507
#     4  10  22  47  81 116 161 223 282 361 434 525
#
# _framework density 27.551003999999999
#
# number of rings (size 3 to 8) (size 9 to 14) (size 15 to 20)
#    0.000    2.000    2.500    0.000    0.000    1.000 
#    4.500   17.500    5.500    6.000    0.000    0.000 
#    0.000    0.000    0.000    0.000    0.000    0.000 
#
# Total GULP energy -89228.994232 kJ/mol
# GULP energy per Si atom -5576.812140 kJ/mol
# Density = 2.748830 g / cm^3
# Si number density = 27.551004 Si / 1000 Ang^3
#
#
#
# Elastic Constant Matrix: (Units=GPa)
#
#
# Indices 1 2 3 4 5 6 
#
# 1 134.1503 49.8627 72.7410 0.0000 0.0000 3.7986
# 2 49.8627 134.1503 72.7410 0.0000 0.0000 -3.7986
# 3 72.7410 72.7410 170.5135 0.0000 0.0000 0.0000
# 4 0.0000 0.0000 0.0000 41.2565 0.0000 0.0000
# 5 0.0000 0.0000 0.0000 0.0000 41.2565 0.0000
# 6 3.7986 -3.7986 0.0000 0.0000 0.0000 50.4903
#
#
#
# Elastic Compliance Matrix: (Units=1/GPa)
#
#
# Indices 1 2 3 4 5 6 
#
# 1 0.010073 -0.001873 -0.003498 0.000000 0.000000 -0.000899
# 2 -0.001873 0.010073 -0.003498 0.000000 0.000000 0.000899
# 3 -0.003498 -0.003498 0.008849 0.000000 0.000000 0.000000
# 4 0.000000 0.000000 0.000000 0.024239 0.000000 0.000000
# 5 0.000000 0.000000 0.000000 0.000000 0.024239 0.000000
# 6 -0.000899 0.000899 0.000000 0.000000 0.000000 0.019941
#
#
# Mechanical properties :
#
#
# Convention : Reuss Voigt Hill
#
# Bulk Modulus (GPa) = 88.83522 92.16704 90.50113
# Shear Modulus (GPa) = 42.05127 42.83198 42.44162
#
# Velocity S-wave (km/s) = 3.91104 3.94717 3.92915
# Velocity P-wave (km/s) = 7.26009 7.36882 7.31465
#
# Compressibility (1/GPa) = 0.01125680
#
# Stress axis : x y z
#
# Youngs Moduli (GPa) = 99.27931 99.27931 113.00404
#
# Poissons Ratio (x) = 0.18590 0.39530
# Poissons Ratio (y) = 0.18590 0.39530
# Poissons Ratio (z) = 0.34729 0.34729
#
# Static dielectric constant tensor:
#      x y z
#    x 2.174780 0.000000 0.000000 
#    y 0.000000 2.174780 0.000000 
#    z 0.000000 0.000000 2.409570 
# 
# From -- ./inp_files/1709.got.cif
#   From: 2010.05.17/outbox.cif.g08.bks.cpg/sg80_cif.got.tgz:1709.got - 2010.06.03 18:49:13.
