data_PCOD9542151
_publ_section_title
;
Structure prediction by ZEFSAII (Michael W. Deem and Ramdas Pophale) SiO2 
 PCOD9542151
Probable space group: I 41
;
_chemical_formula_sum "Si O2"
_cell_formula_units_Z 32
_cell_length_a 16.878237
_cell_length_b 16.878237
_cell_length_c 5.348818
_cell_angle_alpha 90.000000
_cell_angle_beta 90.000000
_cell_angle_gamma 90.000000
_cell_volume 1523.743909
_symmetry_space_group_name_H-M "I 41"
_symmetry_group_IT_number 80
_symmetry_cell_setting 'tetragonal'
loop_
_space_group_symop_operation_xyz
x,y,z
-y,1/2+x,1/4+z
-x,-y,z
y,1/2-x,1/4+z
1/2+x,1/2+y,1/2+z
1/2-y,x,3/4+z
1/2-x,1/2-y,1/2+z
1/2+y,-x,3/4+z
loop_
_atom_site_type_symbol
_atom_site_label
_atom_site_fract_x
_atom_site_fract_y
_atom_site_fract_z
Si Si1 0.208693 0.478532 0.672490
Si Si2 0.977551 0.628478 0.206815
Si Si3 0.654819 0.820409 0.347520
Si Si4 0.471902 0.627213 0.440158
O O1 0.303710 0.474021 0.666574
O O2 0.174240 0.388709 0.644676
O O3 0.182658 0.530411 0.433698
O O4 0.172517 0.511608 0.930358
O O5 0.928916 0.547747 0.246977
O O6 0.067658 0.601822 0.162720
O O7 0.929250 0.665424 0.975305
O O8 0.729238 0.837328 0.528186
#
# Coordination Sequence:
#
# PCOD9542151 Si02
#       4
#     8   8   8   8
#     4  11  22  39  60  86 120 159 196 244 296 347
#     4  10  21  39  60  86 123 158 196 247 294 347
#     4  11  21  35  58  93 128 162 194 233 294 370
#     4  10  24  38  60  91 117 155 204 241 292 359
#
# _framework density 21.000904999999999
#
# number of rings (size 3 to 8) (size 9 to 14) (size 15 to 20)
#    0.000    1.500    0.000    6.000    0.000   14.000 
#    0.000    0.000    0.000    3.000    0.000    0.000 
#    0.000    0.000    0.000    0.000    0.000    0.000 
#
# Total GULP energy -89330.157275 kJ/mol
# GULP energy per Si atom -5583.134830 kJ/mol
# Density = 2.095311 g / cm^3
# Si number density = 21.000905 Si / 1000 Ang^3
#
#
#
# Elastic Constant Matrix: (Units=GPa)
#
#
# Indices 1 2 3 4 5 6 
#
# 1 97.2708 60.5998 56.0077 0.0000 0.0000 -4.7140
# 2 60.5998 97.2708 56.0077 0.0000 0.0000 4.7140
# 3 56.0077 56.0077 111.1814 0.0000 0.0000 0.0000
# 4 0.0000 0.0000 0.0000 19.1365 0.0000 0.0000
# 5 0.0000 0.0000 0.0000 0.0000 19.1365 0.0000
# 6 -4.7140 4.7140 0.0000 0.0000 0.0000 40.3523
#
#
#
# Elastic Compliance Matrix: (Units=1/GPa)
#
#
# Indices 1 2 3 4 5 6 
#
# 1 0.018986 -0.009128 -0.004966 0.000000 0.000000 0.003284
# 2 -0.009128 0.018986 -0.004966 0.000000 0.000000 -0.003284
# 3 -0.004966 -0.004966 0.013997 0.000000 0.000000 0.000000
# 4 0.000000 0.000000 0.000000 0.052256 0.000000 0.000000
# 5 0.000000 0.000000 0.000000 0.000000 0.052256 0.000000
# 6 0.003284 -0.003284 0.000000 0.000000 0.000000 0.025549
#
#
# Mechanical properties :
#
#
# Convention : Reuss Voigt Hill
#
# Bulk Modulus (GPa) = 72.20462 72.32815 72.26638
# Shear Modulus (GPa) = 22.24530 24.59890 23.42210
#
# Velocity S-wave (km/s) = 3.25815 3.42618 3.34322
# Velocity P-wave (km/s) = 6.97211 7.08286 7.02770
#
# Compressibility (1/GPa) = 0.01384953
#
# Stress axis : x y z
#
# Youngs Moduli (GPa) = 52.67084 52.67084 71.44169
#
# Poissons Ratio (x) = 0.48078 0.35477
# Poissons Ratio (y) = 0.48078 0.35477
# Poissons Ratio (z) = 0.26156 0.26156
#
# Static dielectric constant tensor:
#      x y z
#    x 1.782620 0.000000 0.000000 
#    y 0.000000 1.782620 0.000000 
#    z 0.000000 0.000000 1.823170 
# 
# From -- ./inp_files/155.got.cif
#   From: 2010.05.17/outbox.cif.g08.bks.cpg/sg80_cif.got.tgz:155.got - 2010.06.03 18:49:13.
