data_PCOD9542425
_publ_section_title
;
Structure prediction by ZEFSAII (Michael W. Deem and Ramdas Pophale) SiO2 
 PCOD9542425
Probable space group: P -4
;
_chemical_formula_sum "Si O2"
_cell_formula_units_Z 18
_cell_length_a 5.362535
_cell_length_b 5.362535
_cell_length_c 25.426499
_cell_angle_alpha 90.000000
_cell_angle_beta 90.000000
_cell_angle_gamma 90.000000
_cell_volume 731.184279
_symmetry_space_group_name_H-M "P -4"
_symmetry_group_IT_number 81
_symmetry_cell_setting 'tetragonal'
loop_
_space_group_symop_operation_xyz
x,y,z
y,-x,-z
-x,-y,z
-y,x,-z
loop_
_atom_site_type_symbol
_atom_site_label
_atom_site_fract_x
_atom_site_fract_y
_atom_site_fract_z
Si Si1 0.500000 0.500000 0.000000
Si Si2 0.840588 0.251649 0.804475
Si Si3 0.500000 0.500000 0.500000
Si Si4 0.745676 0.651740 0.313830
Si Si5 0.845744 0.764442 0.424270
Si Si6 0.829798 0.248052 0.918946
O O1 0.290893 0.376200 0.036852
O O2 0.726063 0.278290 0.746930
O O3 0.702529 0.235615 0.860696
O O4 0.000000 0.500000 0.809926
O O5 0.000000 0.000000 0.802056
O O6 0.613880 0.707815 0.461694
O O7 0.500000 0.500000 0.326929
O O8 0.769592 0.831444 0.363927
O O9 0.000000 0.500000 0.314267
O O10 0.000000 0.500000 0.423984
O O11 0.000000 0.000000 0.442984
O O12 0.000000 0.500000 0.921162
O O13 0.000000 0.000000 0.925586
#
# Coordination Sequence:
#
# PCOD9542425 Si02
#       6
#     1   4   1   4   4   4
#     4  12  28  44  78 100 152 220 252 346 380 492
#     4  10  21  43  70 104 148 196 251 324 393 476
#     4  12  28  52  78 116 160 224 268 346 392 488
#     4  11  23  44  72 113 151 199 253 324 398 479
#     4  11  28  50  79 114 159 209 270 328 402 477
#     4  10  26  47  72 110 151 201 266 323 400 474
#
# _framework density 24.617599999999999
#
# number of rings (size 3 to 8) (size 9 to 14) (size 15 to 20)
#    0.000    1.333    1.111    2.000    7.778    1.778 
#    0.000    0.000    0.000    0.000    0.000    0.000 
#    0.000    0.000    0.000    0.000    0.000    0.000 
#
# Total GULP energy -100663.157521 kJ/mol
# GULP energy per Si atom -5592.397640 kJ/mol
# Density = 2.456157 g / cm^3
# Si number density = 24.617600 Si / 1000 Ang^3
#
#
#
# Elastic Constant Matrix: (Units=GPa)
#
#
# Indices 1 2 3 4 5 6 
#
# 1 123.0180 44.0011 42.9977 0.0000 0.0000 1.1854
# 2 44.0011 123.0180 42.9977 0.0000 0.0000 -1.1854
# 3 42.9977 42.9977 240.3576 0.0000 0.0000 0.0000
# 4 0.0000 0.0000 0.0000 33.3131 0.0000 0.0000
# 5 0.0000 0.0000 0.0000 0.0000 33.3131 0.0000
# 6 1.1854 -1.1854 0.0000 0.0000 0.0000 53.3413
#
#
#
# Elastic Compliance Matrix: (Units=1/GPa)
#
#
# Indices 1 2 3 4 5 6 
#
# 1 0.009629 -0.003035 -0.001180 0.000000 0.000000 -0.000281
# 2 -0.003035 0.009629 -0.001180 0.000000 0.000000 0.000281
# 3 -0.001180 -0.001180 0.004583 0.000000 0.000000 0.000000
# 4 0.000000 0.000000 0.000000 0.030018 0.000000 0.000000
# 5 0.000000 0.000000 0.000000 0.000000 0.030018 0.000000
# 6 -0.000281 0.000281 0.000000 0.000000 0.000000 0.018760
#
#
# Mechanical properties :
#
#
# Convention : Reuss Voigt Hill
#
# Bulk Modulus (GPa) = 76.60999 82.93185 79.77092
# Shear Modulus (GPa) = 42.45325 47.75331 45.10328
#
# Velocity S-wave (km/s) = 4.15722 4.40910 4.28501
# Velocity P-wave (km/s) = 7.36416 7.72537 7.54693
#
# Compressibility (1/GPa) = 0.01305313
#
# Stress axis : x y z
#
# Youngs Moduli (GPa) = 103.84897 103.84897 218.21883
#
# Poissons Ratio (x) = 0.31514 0.25744
# Poissons Ratio (y) = 0.31514 0.25744
# Poissons Ratio (z) = 0.12251 0.12251
#
# Static dielectric constant tensor:
#      x y z
#    x 1.963780 0.000000 0.000000 
#    y 0.000000 1.963780 0.000000 
#    z 0.000000 0.000000 2.044850 
# 
# From -- ./inp_files/1886.got.cif
#   From: 2010.05.17/outbox.cif.g08.bks.cpg/sg81_cif.got.tgz:1886.got - 2010.06.03 18:51:07.
