data_PCOD9542104
_publ_section_title
;
Structure prediction by ZEFSAII (Michael W. Deem and Ramdas Pophale) SiO2 
 PCOD9542104
Probable space group: I 41
;
_chemical_formula_sum "Si O2"
_cell_formula_units_Z 52
_cell_length_a 21.790530
_cell_length_b 21.790530
_cell_length_c 6.192852
_cell_angle_alpha 90.000000
_cell_angle_beta 90.000000
_cell_angle_gamma 90.000000
_cell_volume 2940.534561
_symmetry_space_group_name_H-M "I 41"
_symmetry_group_IT_number 80
_symmetry_cell_setting 'tetragonal'
loop_
_space_group_symop_operation_xyz
x,y,z
-y,1/2+x,1/4+z
-x,-y,z
y,1/2-x,1/4+z
1/2+x,1/2+y,1/2+z
1/2-y,x,3/4+z
1/2-x,1/2-y,1/2+z
1/2+y,-x,3/4+z
loop_
_atom_site_type_symbol
_atom_site_label
_atom_site_fract_x
_atom_site_fract_y
_atom_site_fract_z
Si Si1 0.058654 0.612225 0.597270
Si Si2 0.331818 0.451687 0.546522
Si Si3 0.500000 0.500000 0.097874
Si Si4 0.831818 0.451687 0.399229
Si Si5 0.214788 0.963611 0.660760
Si Si6 0.612225 0.941346 0.598480
Si Si7 0.214788 0.463610 0.784991
O O1 0.118102 0.599307 0.453279
O O2 0.071577 0.660185 0.790434
O O3 0.002688 0.637936 0.453549
O O4 0.036754 0.548282 0.701447
O O5 0.313945 0.487603 0.327600
O O6 0.381899 0.400693 0.492474
O O7 0.268431 0.428990 0.654454
O O8 0.536754 0.548282 0.244301
O O9 0.768430 0.428991 0.291298
O O10 0.862064 0.502687 0.242199
O O11 0.813945 0.487604 0.618149
O O12 0.250000 0.000000 0.472875
O O13 0.660185 0.928422 0.405317
#
# Coordination Sequence:
#
# PCOD9542104 Si02
#       7
#     8   8   4   8   8   8   8
#     4  11  20  32  51  79 118 147 182 230 282 343
#     4  10  20  34  52  78 115 146 184 227 279 337
#     4  12  20  30  48  88 118 148 172 222 292 352
#     4  10  20  34  52  78 115 146 184 227 279 337
#     4   9  20  35  50  74 115 144 187 221 271 334
#     4  11  20  32  51  79 118 147 182 230 282 343
#     4   9  20  35  50  74 115 144 187 221 271 334
#
# _framework density 17.683859999999999
#
# number of rings (size 3 to 8) (size 9 to 14) (size 15 to 20)
#    0.000    1.846    3.077    1.846    0.000    0.000 
#    0.000    0.000    0.000    0.000    0.000    0.000 
#  332.308    0.000    0.000    0.000    0.000    0.000 
#
# Total GULP energy -144993.685347 kJ/mol
# GULP energy per Si atom -5576.680206 kJ/mol
# Density = 1.764361 g / cm^3
# Si number density = 17.683860 Si / 1000 Ang^3
#
#
#
# Elastic Constant Matrix: (Units=GPa)
#
#
# Indices 1 2 3 4 5 6 
#
# 1 82.6852 28.7728 22.8730 0.0000 0.0000 1.0215
# 2 28.7728 82.6852 22.8730 0.0000 0.0000 -1.0215
# 3 22.8730 22.8730 76.0362 0.0000 0.0000 0.0000
# 4 0.0000 0.0000 0.0000 28.0401 0.0000 0.0000
# 5 0.0000 0.0000 0.0000 0.0000 28.0401 0.0000
# 6 1.0215 -1.0215 0.0000 0.0000 0.0000 9.9740
#
#
#
# Elastic Compliance Matrix: (Units=1/GPa)
#
#
# Indices 1 2 3 4 5 6 
#
# 1 0.014428 -0.004193 -0.003079 0.000000 0.000000 -0.001907
# 2 -0.004193 0.014428 -0.003079 0.000000 0.000000 0.001907
# 3 -0.003079 -0.003079 0.015004 0.000000 0.000000 0.000000
# 4 0.000000 0.000000 0.000000 0.035663 0.000000 0.000000
# 5 0.000000 0.000000 0.000000 0.000000 0.035663 0.000000
# 6 -0.001907 0.001907 0.000000 0.000000 0.000000 0.100651
#
#
# Mechanical properties :
#
#
# Convention : Reuss Voigt Hill
#
# Bulk Modulus (GPa) = 43.17930 43.38270 43.28100
# Shear Modulus (GPa) = 20.47000 24.33669 22.40334
#
# Velocity S-wave (km/s) = 3.40597 3.71375 3.56319
# Velocity P-wave (km/s) = 6.31964 6.55553 6.43867
#
# Compressibility (1/GPa) = 0.02315925
#
# Stress axis : x y z
#
# Youngs Moduli (GPa) = 69.30819 69.30819 66.64833
#
# Poissons Ratio (x) = 0.29058 0.20522
# Poissons Ratio (y) = 0.29058 0.20522
# Poissons Ratio (z) = 0.21341 0.21341
#
# Static dielectric constant tensor:
#      x y z
#    x 1.607740 0.000000 0.000000 
#    y 0.000000 1.607740 0.000000 
#    z 0.000000 0.000000 1.636110 
# 
# From -- ./inp_files/309.got.cif
#   From: 2010.05.17/outbox.cif.g08.bks.cpg/sg80_cif.got.tgz:309.got - 2010.06.03 18:49:13.
