data_PCOD9542593
_publ_section_title
;
Structure prediction by ZEFSAII (Michael W. Deem and Ramdas Pophale) SiO2 
 PCOD9542593
Probable space group: P -4
;
_chemical_formula_sum "Si O2"
_cell_formula_units_Z 24
_cell_length_a 13.322358
_cell_length_b 13.322358
_cell_length_c 6.505169
_cell_angle_alpha 90.000000
_cell_angle_beta 90.000000
_cell_angle_gamma 90.000000
_cell_volume 1154.571369
_symmetry_space_group_name_H-M "P -4"
_symmetry_group_IT_number 81
_symmetry_cell_setting 'tetragonal'
loop_
_space_group_symop_operation_xyz
x,y,z
y,-x,-z
-x,-y,z
-y,x,-z
loop_
_atom_site_type_symbol
_atom_site_label
_atom_site_fract_x
_atom_site_fract_y
_atom_site_fract_z
Si Si1 0.193154 0.079440 0.756963
Si Si2 0.914860 0.733817 0.914807
Si Si3 0.527829 0.635153 0.122785
Si Si4 0.039226 0.657263 0.568007
Si Si5 0.000000 0.000000 0.500000
Si Si6 0.135048 0.505375 0.900711
Si Si7 0.500000 0.500000 0.500000
Si Si8 0.000000 0.500000 0.270614
O O1 0.166486 0.178001 0.890875
O O2 0.275320 0.106815 0.581899
O O3 0.092479 0.037368 0.644889
O O4 0.238211 0.990302 0.899912
O O5 0.877445 0.616866 0.907909
O O6 0.979880 0.735295 0.706568
O O7 0.535513 0.751477 0.116538
O O8 0.536449 0.587364 0.347878
O O9 0.603868 0.580021 0.969763
O O10 0.084646 0.573266 0.721694
O O11 0.969535 0.591684 0.415885
O O12 0.086384 0.535761 0.117361
#
# Coordination Sequence:
#
# PCOD9542593 Si02
#       8
#     4   4   4   4   1   4   1   2
#     4  12  26  44  71  99 145 188 240 290 357 421
#     4  12  25  45  67 103 140 183 240 296 344 422
#     4   9  22  44  66 100 138 175 221 279 345 408
#     4  12  24  46  67  97 138 185 231 282 359 412
#     4  12  24  46  68 100 142 196 232 294 356 420
#     4  12  24  43  70 103 139 180 236 289 350 415
#     4   8  18  44  68  90 140 172 218 280 332 414
#     4  12  22  46  68  90 142 178 220 296 336 410
#
# _framework density 20.786937000000002
#
# number of rings (size 3 to 8) (size 9 to 14) (size 15 to 20)
#    0.000    0.833    6.667    1.000    0.000    6.667 
#    3.000    0.000    0.000    0.000    0.000    0.000 
#    0.000    0.000    0.000    0.000    0.000    0.000 
#
# Total GULP energy -133795.704068 kJ/mol
# GULP energy per Si atom -5574.821003 kJ/mol
# Density = 2.073963 g / cm^3
# Si number density = 20.786937 Si / 1000 Ang^3
#
#
#
# Elastic Constant Matrix: (Units=GPa)
#
#
# Indices 1 2 3 4 5 6 
#
# 1 70.4199 -19.3480 21.3367 0.0000 0.0000 1.4418
# 2 -19.3480 70.4199 21.3367 0.0000 0.0000 -1.4418
# 3 21.3367 21.3367 103.6089 0.0000 0.0000 0.0000
# 4 0.0000 0.0000 0.0000 21.6080 0.0000 0.0000
# 5 0.0000 0.0000 0.0000 0.0000 21.6080 0.0000
# 6 1.4418 -1.4418 0.0000 0.0000 0.0000 -11.3726
#
#
#
# Elastic Compliance Matrix: (Units=1/GPa)
#
#
# Indices 1 2 3 4 5 6 
#
# 1 0.017372 0.006277 -0.004870 0.000000 0.000000 0.001407
# 2 0.006277 0.017372 -0.004870 0.000000 0.000000 -0.001407
# 3 -0.004870 -0.004870 0.011658 0.000000 0.000000 0.000000
# 4 0.000000 0.000000 0.000000 0.046279 0.000000 0.000000
# 5 0.000000 0.000000 0.000000 0.000000 0.046279 0.000000
# 6 0.001407 -0.001407 0.000000 0.000000 0.000000 -0.087574
#
#
# Mechanical properties :
#
#
# Convention : Reuss Voigt Hill
#
# Bulk Modulus (GPa) = 25.33203 32.34441 28.83822
# Shear Modulus (GPa) = 69.95801 21.11020 45.53411
#
# Velocity S-wave (km/s) = 5.80757 3.19023 4.68537
# Velocity P-wave (km/s) = 7.56197 5.40035 6.57066
#
# Compressibility (1/GPa) = 0.03947572
#
# Stress axis : x y z
#
# Youngs Moduli (GPa) = 57.56337 57.56337 85.78086
#
# Poissons Ratio (x) = -0.36135 0.41778
# Poissons Ratio (y) = -0.36135 0.41778
# Poissons Ratio (z) = 0.28035 0.28035
#
# Static dielectric constant tensor:
#      x y z
#    x 1.741420 0.000000 0.000000 
#    y 0.000000 1.741420 0.000000 
#    z 0.000000 0.000000 1.762510 
# 
# From -- ./inp_files/317.got.cif
#   From: 2010.05.17/outbox.cif.g08.bks.cpg/sg81_cif.got.tgz:317.got - 2010.06.03 18:51:07.
