data_PCOD9542574
_publ_section_title
;
Structure prediction by ZEFSAII (Michael W. Deem and Ramdas Pophale) SiO2 
 PCOD9542574
Probable space group: P -4
;
_chemical_formula_sum "Si O2"
_cell_formula_units_Z 15
_cell_length_a 8.363809
_cell_length_b 8.363809
_cell_length_c 8.413981
_cell_angle_alpha 90.000000
_cell_angle_beta 90.000000
_cell_angle_gamma 90.000000
_cell_volume 588.585745
_symmetry_space_group_name_H-M "P -4"
_symmetry_group_IT_number 81
_symmetry_cell_setting 'tetragonal'
loop_
_space_group_symop_operation_xyz
x,y,z
y,-x,-z
-x,-y,z
-y,x,-z
loop_
_atom_site_type_symbol
_atom_site_label
_atom_site_fract_x
_atom_site_fract_y
_atom_site_fract_z
Si Si1 0.000000 0.500000 0.726047
Si Si2 0.310816 0.009375 0.735439
Si Si3 0.213848 0.274183 0.516619
Si Si4 0.500000 0.500000 0.500000
Si Si5 0.602923 0.750367 0.012150
O O1 0.086643 0.378064 0.611145
O O2 0.137337 0.569213 0.838511
O O3 0.217578 0.107327 0.603211
O O4 0.302988 0.126775 0.891718
O O5 0.500000 0.000000 0.718819
O O6 0.265144 0.831275 0.669958
O O7 0.385254 0.356830 0.561239
O O8 0.695692 0.580804 0.035810
#
# Coordination Sequence:
#
# PCOD9542574 Si02
#       5
#     2   4   4   1   4
#     4  12  24  44  72 118 158 202 276 324 414 476
#     4  12  25  47  74 115 159 203 265 337 406 478
#     4  12  26  46  76 114 156 208 266 339 400 488
#     4  12  24  44  80 110 140 200 280 334 384 468
#     4  11  26  48  80 113 159 218 278 336 399 487
#
# _framework density 25.484815000000001
#
# number of rings (size 3 to 8) (size 9 to 14) (size 15 to 20)
#    0.000    0.267    8.000    0.000    3.733    2.667 
#    0.000    0.000    0.000    0.800    0.000    0.000 
#    0.000    0.000    0.000    0.000    0.000    0.000 
#
# Total GULP energy -83501.218197 kJ/mol
# GULP energy per Si atom -5566.747880 kJ/mol
# Density = 2.542681 g / cm^3
# Si number density = 25.484815 Si / 1000 Ang^3
#
#
#
# Elastic Constant Matrix: (Units=GPa)
#
#
# Indices 1 2 3 4 5 6 
#
# 1 72.8667 53.9104 45.8761 0.0000 0.0000 -7.8325
# 2 53.9104 72.8667 45.8761 0.0000 0.0000 7.8325
# 3 45.8761 45.8761 102.0457 0.0000 0.0000 0.0000
# 4 0.0000 0.0000 0.0000 17.3719 0.0000 0.0000
# 5 0.0000 0.0000 0.0000 0.0000 17.3719 0.0000
# 6 -7.8325 7.8325 0.0000 0.0000 0.0000 59.9344
#
#
#
# Elastic Compliance Matrix: (Units=1/GPa)
#
#
# Indices 1 2 3 4 5 6 
#
# 1 0.035416 -0.023724 -0.005256 0.000000 0.000000 0.007729
# 2 -0.023724 0.035416 -0.005256 0.000000 0.000000 -0.007729
# 3 -0.005256 -0.005256 0.014526 0.000000 0.000000 0.000000
# 4 0.000000 0.000000 0.000000 0.057564 0.000000 0.000000
# 5 0.000000 0.000000 0.000000 0.000000 0.057564 0.000000
# 6 0.007729 -0.007729 0.000000 0.000000 0.000000 0.018705
#
#
# Mechanical properties :
#
#
# Convention : Reuss Voigt Hill
#
# Bulk Modulus (GPa) = 59.22626 59.90048 59.56337
# Shear Modulus (GPa) = 17.04790 25.74342 21.39566
#
# Velocity S-wave (km/s) = 2.58920 3.18173 2.90063
# Velocity P-wave (km/s) = 5.67705 6.08714 5.88567
#
# Compressibility (1/GPa) = 0.01688440
#
# Stress axis : x y z
#
# Youngs Moduli (GPa) = 28.23603 28.23603 68.84386
#
# Poissons Ratio (x) = 0.66986 0.36186
# Poissons Ratio (y) = 0.66986 0.36186
# Poissons Ratio (z) = 0.14842 0.14842
#
# Static dielectric constant tensor:
#      x y z
#    x 2.195360 0.000000 0.000000 
#    y 0.000000 2.195360 0.000000 
#    z 0.000000 0.000000 2.081980 
# 
# From -- ./inp_files/537.got.cif
#   From: 2010.05.17/outbox.cif.g08.bks.cpg/sg81_cif.got.tgz:537.got - 2010.06.03 18:51:07.
