data_PCOD9542268
_publ_section_title
;
Structure prediction by ZEFSAII (Michael W. Deem and Ramdas Pophale) SiO2 
 PCOD9542268
Probable space group: I 41
;
_chemical_formula_sum "Si O2"
_cell_formula_units_Z 52
_cell_length_a 18.993838
_cell_length_b 18.993838
_cell_length_c 6.753857
_cell_angle_alpha 90.000000
_cell_angle_beta 90.000000
_cell_angle_gamma 90.000000
_cell_volume 2436.561177
_symmetry_space_group_name_H-M "I 41"
_symmetry_group_IT_number 80
_symmetry_cell_setting 'tetragonal'
loop_
_space_group_symop_operation_xyz
x,y,z
-y,1/2+x,1/4+z
-x,-y,z
y,1/2-x,1/4+z
1/2+x,1/2+y,1/2+z
1/2-y,x,3/4+z
1/2-x,1/2-y,1/2+z
1/2+y,-x,3/4+z
loop_
_atom_site_type_symbol
_atom_site_label
_atom_site_fract_x
_atom_site_fract_y
_atom_site_fract_z
Si Si1 0.711428 0.331927 0.963580
Si Si2 0.010970 0.314656 0.298464
Si Si3 0.591790 0.869537 0.451784
Si Si4 0.913903 0.411106 0.531871
Si Si5 0.500000 0.000000 0.314943
Si Si6 0.280189 0.927776 0.753612
Si Si7 0.236498 0.451066 0.938115
O O1 0.759202 0.324824 0.771077
O O2 0.652546 0.389629 0.923816
O O3 0.759267 0.355261 0.148400
O O4 0.979286 0.382598 0.406082
O O5 0.026803 0.257712 0.467230
O O6 0.954352 0.282101 0.146298
O O7 0.077394 0.335383 0.165998
O O8 0.534268 0.933132 0.427466
O O9 0.577945 0.807904 0.291478
O O10 0.670336 0.899057 0.435764
O O11 0.850171 0.425684 0.383392
O O12 0.937532 0.473475 0.672459
O O13 0.286518 0.982690 0.572935
#
# Coordination Sequence:
#
# PCOD9542268 Si02
#       7
#     8   8   8   8   4   8   8
#     4  12  24  42  64  99 142 189 244 292 348 433
#     4  11  23  47  68 104 142 182 238 291 356 432
#     4  11  27  46  76 105 146 186 238 302 364 432
#     4  12  24  41  70  99 143 189 236 296 361 421
#     4  12  26  44  72 114 142 186 244 306 356 446
#     4  11  24  40  70  99 140 193 233 291 360 417
#     4  11  25  50  70 107 143 183 243 298 359 446
#
# _framework density 21.341553999999999
#
# number of rings (size 3 to 8) (size 9 to 14) (size 15 to 20)
#    0.000    0.615    3.077    4.615    6.462    2.462 
#    2.769    0.000    0.000    0.000    0.000    0.000 
#    0.000    0.000    0.000    0.000    0.000    0.000 
#
# Total GULP energy -145523.133574 kJ/mol
# GULP energy per Si atom -5597.043599 kJ/mol
# Density = 2.129298 g / cm^3
# Si number density = 21.341554 Si / 1000 Ang^3
#
#
#
# Elastic Constant Matrix: (Units=GPa)
#
#
# Indices 1 2 3 4 5 6 
#
# 1 65.3415 19.3710 17.2669 0.0000 0.0000 1.9782
# 2 19.3710 65.3415 17.2669 0.0000 0.0000 -1.9782
# 3 17.2669 17.2669 98.6516 0.0000 0.0000 0.0000
# 4 0.0000 0.0000 0.0000 25.3005 0.0000 0.0000
# 5 0.0000 0.0000 0.0000 0.0000 25.3005 0.0000
# 6 1.9782 -1.9782 0.0000 0.0000 0.0000 42.5288
#
#
#
# Elastic Compliance Matrix: (Units=1/GPa)
#
#
# Indices 1 2 3 4 5 6 
#
# 1 0.017276 -0.004564 -0.002225 0.000000 0.000000 -0.001016
# 2 -0.004564 0.017276 -0.002225 0.000000 0.000000 0.001016
# 3 -0.002225 -0.002225 0.010916 0.000000 0.000000 0.000000
# 4 0.000000 0.000000 0.000000 0.039525 0.000000 0.000000
# 5 0.000000 0.000000 0.000000 0.000000 0.039525 0.000000
# 6 -0.001016 0.001016 0.000000 0.000000 0.000000 0.023608
#
#
# Mechanical properties :
#
#
# Convention : Reuss Voigt Hill
#
# Bulk Modulus (GPa) = 36.44424 37.46047 36.95235
# Shear Modulus (GPa) = 28.52244 30.32126 29.42185
#
# Velocity S-wave (km/s) = 3.65975 3.77339 3.71700
# Velocity P-wave (km/s) = 5.91372 6.04777 5.98112
#
# Compressibility (1/GPa) = 0.02743918
#
# Stress axis : x y z
#
# Youngs Moduli (GPa) = 57.88351 57.88351 91.61264
#
# Poissons Ratio (x) = 0.26421 0.20383
# Poissons Ratio (y) = 0.26421 0.20383
# Poissons Ratio (z) = 0.12879 0.12879
#
# Static dielectric constant tensor:
#      x y z
#    x 1.768680 0.000000 0.000000 
#    y 0.000000 1.768680 0.000000 
#    z 0.000000 0.000000 1.775860 
# 
# From -- ./inp_files/322.got.cif
#   From: 2010.05.17/outbox.cif.g08.bks.cpg/sg80_cif.got.tgz:322.got - 2010.06.03 18:49:13.
