data_PCOD9542323
_publ_section_title
;
Structure prediction by ZEFSAII (Michael W. Deem and Ramdas Pophale) SiO2 
 PCOD9542323
Probable space group: P -4
;
_chemical_formula_sum "Si O2"
_cell_formula_units_Z 15
_cell_length_a 9.575990
_cell_length_b 9.575990
_cell_length_c 7.888740
_cell_angle_alpha 90.000000
_cell_angle_beta 90.000000
_cell_angle_gamma 90.000000
_cell_volume 723.394180
_symmetry_space_group_name_H-M "P -4"
_symmetry_group_IT_number 81
_symmetry_cell_setting 'tetragonal'
loop_
_space_group_symop_operation_xyz
x,y,z
y,-x,-z
-x,-y,z
-y,x,-z
loop_
_atom_site_type_symbol
_atom_site_label
_atom_site_fract_x
_atom_site_fract_y
_atom_site_fract_z
Si Si1 0.500000 0.500000 0.500000
Si Si2 0.213743 0.141057 0.740076
Si Si3 0.736824 0.502649 0.248962
Si Si4 0.500000 0.500000 0.000000
Si Si5 0.000000 0.000000 0.000000
Si Si6 0.932434 0.650575 0.504826
O O1 0.627380 0.446130 0.388968
O O2 0.369358 0.174565 0.808747
O O3 0.139092 0.278661 0.665861
O O4 0.244994 0.046152 0.574606
O O5 0.117914 0.066223 0.877999
O O6 0.631333 0.555872 0.106693
O O7 0.828563 0.615577 0.347524
O O8 0.000000 0.500000 0.547044
#
# Coordination Sequence:
#
# PCOD9542323 Si02
#       6
#     1   4   4   1   1   4
#     4  10  16  38  68  94 120 150 220 270 332 370
#     4  11  23  43  63  91 131 167 219 261 318 390
#     4  10  21  39  64  96 123 163 212 274 328 381
#     4  10  24  34  64  94 136 166 196 294 344 370
#     4  12  28  42  60  96 136 182 200 264 328 386
#     4  10  22  41  69  93 118 174 226 264 309 387
#
# _framework density 20.735581
#
# number of rings (size 3 to 8) (size 9 to 14) (size 15 to 20)
#    0.000    1.600    2.667    1.600    3.733    0.000 
#    4.800    0.000    0.000    0.000    0.000    0.000 
#    0.000    0.000    0.000    0.000    0.000    0.000 
#
# Total GULP energy -83693.120236 kJ/mol
# GULP energy per Si atom -5579.541349 kJ/mol
# Density = 2.068839 g / cm^3
# Si number density = 20.735581 Si / 1000 Ang^3
#
#
#
# Elastic Constant Matrix: (Units=GPa)
#
#
# Indices 1 2 3 4 5 6 
#
# 1 62.2239 12.7279 13.7722 0.0000 0.0000 3.2840
# 2 12.7279 62.2239 13.7722 0.0000 0.0000 -3.2840
# 3 13.7722 13.7722 36.4035 0.0000 0.0000 0.0000
# 4 0.0000 0.0000 0.0000 18.4735 0.0000 0.0000
# 5 0.0000 0.0000 0.0000 0.0000 18.4735 0.0000
# 6 3.2840 -3.2840 0.0000 0.0000 0.0000 35.8423
#
#
#
# Elastic Compliance Matrix: (Units=1/GPa)
#
#
# Indices 1 2 3 4 5 6 
#
# 1 0.017974 -0.002478 -0.005863 0.000000 0.000000 -0.001874
# 2 -0.002478 0.017974 -0.005863 0.000000 0.000000 0.001874
# 3 -0.005863 -0.005863 0.031906 0.000000 0.000000 0.000000
# 4 0.000000 0.000000 0.000000 0.054132 0.000000 0.000000
# 5 0.000000 0.000000 0.000000 0.000000 0.054132 0.000000
# 6 -0.001874 0.001874 0.000000 0.000000 0.000000 0.028243
#
#
# Mechanical properties :
#
#
# Convention : Reuss Voigt Hill
#
# Bulk Modulus (GPa) = 25.34976 26.82179 26.08577
# Shear Modulus (GPa) = 20.33207 22.59645 21.46426
#
# Velocity S-wave (km/s) = 3.13475 3.30471 3.22085
# Velocity P-wave (km/s) = 5.03528 5.24640 5.14192
#
# Compressibility (1/GPa) = 0.03944811
#
# Stress axis : x y z
#
# Youngs Moduli (GPa) = 55.63487 55.63487 31.34224
#
# Poissons Ratio (x) = 0.13786 0.18375
# Poissons Ratio (y) = 0.13786 0.18375
# Poissons Ratio (z) = 0.32617 0.32617
#
# Static dielectric constant tensor:
#      x y z
#    x 1.786830 0.000000 0.000000 
#    y 0.000000 1.786830 0.000000 
#    z 0.000000 0.000000 1.731670 
# 
# From -- ./inp_files/558.got.cif
#   From: 2010.05.17/outbox.cif.g08.bks.cpg/sg81_cif.got.tgz:558.got - 2010.06.03 18:51:07.
