data_PCOD9542399
_publ_section_title
;
Structure prediction by ZEFSAII (Michael W. Deem and Ramdas Pophale) SiO2 
 PCOD9542399
Probable space group: P -4
;
_chemical_formula_sum "Si O2"
_cell_formula_units_Z 24
_cell_length_a 14.025788
_cell_length_b 14.025788
_cell_length_c 6.354939
_cell_angle_alpha 90.000000
_cell_angle_beta 90.000000
_cell_angle_gamma 90.000000
_cell_volume 1250.160943
_symmetry_space_group_name_H-M "P -4"
_symmetry_group_IT_number 81
_symmetry_cell_setting 'tetragonal'
loop_
_space_group_symop_operation_xyz
x,y,z
y,-x,-z
-x,-y,z
-y,x,-z
loop_
_atom_site_type_symbol
_atom_site_label
_atom_site_fract_x
_atom_site_fract_y
_atom_site_fract_z
Si Si1 0.161698 0.561934 0.594046
Si Si2 0.000000 0.500000 0.282385
Si Si3 0.000000 0.000000 0.500000
Si Si4 0.142082 0.750842 0.357869
Si Si5 0.633841 0.510267 0.622222
Si Si6 0.037246 0.203513 0.638441
Si Si7 0.500000 0.500000 0.000000
Si Si8 0.945594 0.338616 0.973014
O O1 0.089944 0.509219 0.436140
O O2 0.187497 0.661543 0.478193
O O3 0.254167 0.498966 0.630299
O O4 0.109420 0.593609 0.807876
O O5 0.999267 0.592348 0.133236
O O6 0.992348 0.907629 0.647522
O O7 0.197942 0.849288 0.395743
O O8 0.034235 0.760200 0.454670
O O9 0.127296 0.723327 0.114673
O O10 0.588709 0.411200 0.533383
O O11 0.587372 0.526237 0.849202
O O12 0.010858 0.267178 0.838747
#
# Coordination Sequence:
#
# PCOD9542399 Si02
#       8
#     4   2   1   4   4   4   1   4
#     4  10  21  41  60  85 120 156 196 241 296 348
#     4  10  22  42  60  80 122 160 194 250 288 344
#     4   8  16  32  58  84 124 162 184 240 302 328
#     4   9  20  36  56  81 124 154 198 243 288 344
#     4   9  20  41  64  89 119 151 183 244 303 350
#     4   9  18  35  55  85 120 160 196 242 288 340
#     4   8  18  36  68  90 120 136 190 248 292 370
#     4  10  21  37  60  85 116 159 203 243 283 349
#
# _framework density 19.197527999999998
#
# number of rings (size 3 to 8) (size 9 to 14) (size 15 to 20)
#    0.000    2.833    0.000    0.500    0.000   10.667 
#   15.000    0.833    0.000    0.000    0.000    0.000 
#    0.000    0.000    0.000    0.000    0.000    0.000 
#
# Total GULP energy -133778.129434 kJ/mol
# GULP energy per Si atom -5574.088726 kJ/mol
# Density = 1.915383 g / cm^3
# Si number density = 19.197528 Si / 1000 Ang^3
#
#
#
# Elastic Constant Matrix: (Units=GPa)
#
#
# Indices 1 2 3 4 5 6 
#
# 1 51.2260 12.8481 15.1206 0.0000 0.0000 -10.9719
# 2 12.8481 51.2260 15.1206 0.0000 0.0000 10.9719
# 3 15.1206 15.1206 90.1486 0.0000 0.0000 0.0000
# 4 0.0000 0.0000 0.0000 11.2380 0.0000 0.0000
# 5 0.0000 0.0000 0.0000 0.0000 11.2380 0.0000
# 6 -10.9719 10.9719 0.0000 0.0000 0.0000 29.1015
#
#
#
# Elastic Compliance Matrix: (Units=1/GPa)
#
#
# Indices 1 2 3 4 5 6 
#
# 1 0.025083 -0.008134 -0.002843 0.000000 0.000000 0.012524
# 2 -0.008134 0.025083 -0.002843 0.000000 0.000000 -0.012524
# 3 -0.002843 -0.002843 0.012046 0.000000 0.000000 0.000000
# 4 0.000000 0.000000 0.000000 0.088984 0.000000 0.000000
# 5 0.000000 0.000000 0.000000 0.000000 0.088984 0.000000
# 6 0.012524 -0.012524 0.000000 0.000000 0.000000 0.043806
#
#
# Mechanical properties :
#
#
# Convention : Reuss Voigt Hill
#
# Bulk Modulus (GPa) = 28.92467 30.97547 29.95007
# Shear Modulus (GPa) = 15.47269 20.28294 17.87781
#
# Velocity S-wave (km/s) = 2.84205 3.25397 3.05496
# Velocity P-wave (km/s) = 5.08618 5.50345 5.29892
#
# Compressibility (1/GPa) = 0.03457256
#
# Stress axis : x y z
#
# Youngs Moduli (GPa) = 39.86754 39.86754 83.01205
#
# Poissons Ratio (x) = 0.32430 0.23599
# Poissons Ratio (y) = 0.32430 0.23599
# Poissons Ratio (z) = 0.11334 0.11334
#
# Static dielectric constant tensor:
#      x y z
#    x 1.676420 0.000000 0.000000 
#    y 0.000000 1.676420 0.000000 
#    z 0.000000 0.000000 1.665450 
# 
# From -- ./inp_files/306.got.cif
#   From: 2010.05.17/outbox.cif.g08.bks.cpg/sg81_cif.got.tgz:306.got - 2010.06.03 18:51:07.
