data_PCOD9542209
_publ_section_title
;
Structure prediction by ZEFSAII (Michael W. Deem and Ramdas Pophale) SiO2 
 PCOD9542209
Probable space group: I 41
;
_chemical_formula_sum "Si O2"
_cell_formula_units_Z 52
_cell_length_a 21.146701
_cell_length_b 21.146701
_cell_length_c 5.323388
_cell_angle_alpha 90.000000
_cell_angle_beta 90.000000
_cell_angle_gamma 90.000000
_cell_volume 2380.528420
_symmetry_space_group_name_H-M "I 41"
_symmetry_group_IT_number 80
_symmetry_cell_setting 'tetragonal'
loop_
_space_group_symop_operation_xyz
x,y,z
-y,1/2+x,1/4+z
-x,-y,z
y,1/2-x,1/4+z
1/2+x,1/2+y,1/2+z
1/2-y,x,3/4+z
1/2-x,1/2-y,1/2+z
1/2+y,-x,3/4+z
loop_
_atom_site_type_symbol
_atom_site_label
_atom_site_fract_x
_atom_site_fract_y
_atom_site_fract_z
Si Si1 0.443552 0.247571 0.025450
Si Si2 0.424022 0.613365 0.189660
Si Si3 0.037638 0.811800 0.200170
Si Si4 0.333815 0.296708 0.350069
Si Si5 0.804802 0.030730 0.685542
Si Si6 0.500000 0.000000 0.637559
Si Si7 0.378671 0.430149 0.503771
O O1 0.375885 0.270489 0.121028
O O2 0.498690 0.243605 0.237302
O O3 0.466073 0.291371 0.792504
O O4 0.438352 0.173376 0.966439
O O5 0.439784 0.647448 0.458132
O O6 0.354599 0.585371 0.134759
O O7 0.468972 0.552566 0.212027
O O8 0.438513 0.654499 0.947990
O O9 0.060519 0.740728 0.147061
O O10 0.322705 0.235746 0.526759
O O11 0.375288 0.356548 0.438896
O O12 0.846605 0.972045 0.784169
O O13 0.537341 0.946336 0.795912
#
# Coordination Sequence:
#
# PCOD9542209 Si02
#       7
#     8   8   8   8   8   4   8
#     4  11  23  44  69  98 145 189 240 301 358 429
#     4  11  25  42  71 105 139 178 240 292 359 434
#     4  11  24  43  72 104 134 189 229 289 365 438
#     4  12  24  41  64 100 141 200 251 296 357 431
#     4  10  23  46  67 103 142 183 234 297 357 425
#     4  10  24  44  64 106 138 186 240 312 366 422
#     4  10  23  41  65  95 144 183 244 299 361 422
#
# _framework density 21.843889000000001
#
# number of rings (size 3 to 8) (size 9 to 14) (size 15 to 20)
#    0.000    1.231    3.077    1.846    6.462    1.846 
#    2.769    0.000    0.000    1.846    0.000    0.000 
#    0.000    0.000    0.000    0.000    0.000    0.000 
#
# Total GULP energy -144853.156298 kJ/mol
# GULP energy per Si atom -5571.275242 kJ/mol
# Density = 2.179417 g / cm^3
# Si number density = 21.843889 Si / 1000 Ang^3
#
#
#
# Elastic Constant Matrix: (Units=GPa)
#
#
# Indices 1 2 3 4 5 6 
#
# 1 90.4241 91.3899 42.2742 0.0000 0.0000 -21.9369
# 2 91.3899 90.4241 42.2742 0.0000 0.0000 21.9369
# 3 42.2742 42.2742 86.6123 0.0000 0.0000 0.0000
# 4 0.0000 0.0000 0.0000 33.3792 0.0000 0.0000
# 5 0.0000 0.0000 0.0000 0.0000 33.3792 0.0000
# 6 -21.9369 21.9369 0.0000 0.0000 0.0000 28.7348
#
#
#
# Elastic Compliance Matrix: (Units=1/GPa)
#
#
# Indices 1 2 3 4 5 6 
#
# 1 -0.010952 0.018067 -0.003473 0.000000 0.000000 -0.022154
# 2 0.018067 -0.010952 -0.003473 0.000000 0.000000 0.022154
# 3 -0.003473 -0.003473 0.014936 0.000000 0.000000 0.000000
# 4 0.000000 0.000000 0.000000 0.029959 0.000000 0.000000
# 5 0.000000 0.000000 0.000000 0.000000 0.029959 0.000000
# 6 -0.022154 0.022154 0.000000 0.000000 0.000000 0.000975
#
#
# Mechanical properties :
#
#
# Convention : Reuss Voigt Hill
#
# Bulk Modulus (GPa) = 65.46733 68.81523 67.14128
# Shear Modulus (GPa) = 135.96841 25.20012 80.58427
#
# Velocity S-wave (km/s) = 7.89814 3.40022 6.08038
# Velocity P-wave (km/s) = 10.64001 6.85470 8.94977
#
# Compressibility (1/GPa) = 0.01527480
#
# Stress axis : x y z
#
# Youngs Moduli (GPa) = -91.30769 -91.30769 66.95367
#
# Poissons Ratio (x) = 1.64966 0.23251
# Poissons Ratio (y) = 1.64966 0.23251
# Poissons Ratio (z) = -0.31709 -0.31709
#
# Static dielectric constant tensor:
#      x y z
#    x 1.833110 0.000000 0.000000 
#    y 0.000000 1.833110 0.000000 
#    z 0.000000 0.000000 1.904350 
# 
# From -- ./inp_files/338.got.cif
#   From: 2010.05.17/outbox.cif.g08.bks.cpg/sg80_cif.got.tgz:338.got - 2010.06.03 18:49:13.
