data_PCOD9542840
_publ_section_title
;
Structure prediction by ZEFSAII (Michael W. Deem and Ramdas Pophale) SiO2 
 PCOD9542840
Probable space group: I -4 
;
_chemical_formula_sum "Si O2"
_cell_formula_units_Z 56
_cell_length_a 14.034754
_cell_length_b 14.034754
_cell_length_c 12.961936
_cell_angle_alpha 90.000000
_cell_angle_beta 90.000000
_cell_angle_gamma 90.000000
_cell_volume 2553.168527
_symmetry_space_group_name_H-M "I -4 "
_symmetry_group_IT_number 82
_symmetry_cell_setting 'tetragonal'
loop_
_space_group_symop_operation_xyz
x,y,z
y,-x,-z
-x,-y,z
-y,x,-z
1/2+x,1/2+y,1/2+z
1/2+y,1/2-x,1/2-z
1/2-x,1/2-y,1/2+z
1/2-y,1/2+x,1/2-z
loop_
_atom_site_type_symbol
_atom_site_label
_atom_site_fract_x
_atom_site_fract_y
_atom_site_fract_z
Si Si1 0.057442 0.655200 0.609672
Si Si2 0.780928 0.485720 0.673707
Si Si3 0.195371 0.011605 0.655325
Si Si4 0.043039 0.401069 0.399365
Si Si5 0.329409 0.342174 0.986356
Si Si6 0.873086 0.261645 0.009842
Si Si7 0.586770 0.569176 0.355029
O O1 0.151534 0.591060 0.618205
O O2 0.992054 0.616149 0.517872
O O3 0.090557 0.759699 0.577731
O O4 0.006383 0.667364 0.718452
O O5 0.777442 0.577792 0.600222
O O6 0.672484 0.449871 0.684431
O O7 0.309551 0.996821 0.661552
O O8 0.165280 0.108542 0.597347
O O9 0.144575 0.014499 0.764854
O O10 0.165131 0.926522 0.577811
O O11 0.000000 0.500000 0.364317
O O12 0.156758 0.405220 0.408871
O O13 0.279950 0.239494 0.997233
O O14 0.905252 0.159855 0.053363
O O15 0.500000 0.500000 0.382929
#
# Coordination Sequence:
#
# PCOD9542840 Si02
#       7
#     8   8   8   8   8   8   8
#     4  11  23  42  69 112 135 183 235 301 361 418
#     4  12  26  41  74 101 146 183 240 297 357 429
#     4  10  25  43  74 104 138 190 237 303 358 422
#     4  10  21  46  71 105 140 177 236 298 371 421
#     4  10  23  45  70 103 142 176 241 294 364 414
#     4  11  25  45  67  98 145 187 233 293 352 436
#     4  12  29  48  67 103 145 197 247 282 360 439
#
# _framework density 21.933530000000001
#
# number of rings (size 3 to 8) (size 9 to 14) (size 15 to 20)
#    0.000    1.143    2.857    1.714   12.000    0.000 
#    5.143    0.000    0.000    0.000    0.000    0.000 
#    0.000    0.000    0.000    0.000    0.000    0.000 
#
# Total GULP energy -156686.792965 kJ/mol
# GULP energy per Si atom -5595.956892 kJ/mol
# Density = 2.188361 g / cm^3
# Si number density = 21.933530 Si / 1000 Ang^3
#
#
#
# Elastic Constant Matrix: (Units=GPa)
#
#
# Indices 1 2 3 4 5 6 
#
# 1 109.9977 44.2259 30.9564 0.0000 0.0000 6.3623
# 2 44.2259 109.9977 30.9564 0.0000 0.0000 -6.3623
# 3 30.9564 30.9564 93.6367 0.0000 0.0000 0.0000
# 4 0.0000 0.0000 0.0000 17.4044 0.0000 0.0000
# 5 0.0000 0.0000 0.0000 0.0000 17.4044 0.0000
# 6 6.3623 -6.3623 0.0000 0.0000 0.0000 34.4463
#
#
#
# Elastic Compliance Matrix: (Units=1/GPa)
#
#
# Indices 1 2 3 4 5 6 
#
# 1 0.011622 -0.004146 -0.002472 0.000000 0.000000 -0.002912
# 2 -0.004146 0.011622 -0.002472 0.000000 0.000000 0.002912
# 3 -0.002472 -0.002472 0.012314 0.000000 0.000000 0.000000
# 4 0.000000 0.000000 0.000000 0.057457 0.000000 0.000000
# 5 0.000000 0.000000 0.000000 0.000000 0.057457 0.000000
# 6 -0.002912 0.002912 0.000000 0.000000 0.000000 0.030106
#
#
# Mechanical properties :
#
#
# Convention : Reuss Voigt Hill
#
# Bulk Modulus (GPa) = 57.53807 58.43439 57.98623
# Shear Modulus (GPa) = 24.44401 27.68391 26.06396
#
# Velocity S-wave (km/s) = 3.34197 3.55656 3.45094
# Velocity P-wave (km/s) = 6.41729 6.60037 6.50947
#
# Compressibility (1/GPa) = 0.01737980
#
# Stress axis : x y z
#
# Youngs Moduli (GPa) = 86.04424 86.04424 81.20932
#
# Poissons Ratio (x) = 0.35670 0.20072
# Poissons Ratio (y) = 0.35670 0.20072
# Poissons Ratio (z) = 0.21267 0.21267
#
# Static dielectric constant tensor:
#      x y z
#    x 1.792240 0.000000 0.000000 
#    y 0.000000 1.792240 0.000000 
#    z 0.000000 0.000000 1.807720 
# 
# From -- ./inp_files/1842.got.cif
#   From: 2010.05.17/outbox.cif.g08.bks.cpg/sg82_1_cif.got.tgz:1842.got - 2010.06.03 18:52:26.
