data_PCOD9542592
_publ_section_title
;
Structure prediction by ZEFSAII (Michael W. Deem and Ramdas Pophale) SiO2 
 PCOD9542592
Probable space group: P -4
;
_chemical_formula_sum "Si O2"
_cell_formula_units_Z 17
_cell_length_a 12.248712
_cell_length_b 12.248712
_cell_length_c 5.030238
_cell_angle_alpha 90.000000
_cell_angle_beta 90.000000
_cell_angle_gamma 90.000000
_cell_volume 754.691364
_symmetry_space_group_name_H-M "P -4"
_symmetry_group_IT_number 81
_symmetry_cell_setting 'tetragonal'
loop_
_space_group_symop_operation_xyz
x,y,z
y,-x,-z
-x,-y,z
-y,x,-z
loop_
_atom_site_type_symbol
_atom_site_label
_atom_site_fract_x
_atom_site_fract_y
_atom_site_fract_z
Si Si1 0.220621 0.111653 0.157607
Si Si2 0.000000 0.000000 0.000000
Si Si3 0.317591 0.234140 0.658197
Si Si4 0.198901 0.434173 0.481014
Si Si5 0.603598 0.065853 0.996588
O O1 0.259770 0.157650 0.439263
O O2 0.095389 0.069447 0.150320
O O3 0.258741 0.198785 0.931199
O O4 0.297070 0.008307 0.087120
O O5 0.297940 0.359998 0.581245
O O6 0.447382 0.218601 0.642898
O O7 0.140297 0.364814 0.251117
O O8 0.126173 0.442598 0.744467
O O9 0.500000 0.000000 0.886836
#
# Coordination Sequence:
#
# PCOD9542592 Si02
#       5
#     4   1   4   4   4
#     4  12  26  44  67  97 136 177 221 268 344 394
#     4  12  28  46  64 102 144 170 204 282 344 410
#     4  12  25  44  67  98 131 176 221 279 327 401
#     4  12  24  42  68  99 132 169 229 274 335 391
#     4  12  22  44  72  96 125 180 230 276 311 405
#
# _framework density 22.525765
#
# number of rings (size 3 to 8) (size 9 to 14) (size 15 to 20)
#    0.000    0.000    4.706    6.353    0.000    3.294 
#    0.000    0.000    0.000    5.647    0.000    0.000 
#    0.000    0.000    0.000    0.000    0.000    0.000 
#
# Total GULP energy -95090.024644 kJ/mol
# GULP energy per Si atom -5593.530861 kJ/mol
# Density = 2.247450 g / cm^3
# Si number density = 22.525765 Si / 1000 Ang^3
#
#
#
# Elastic Constant Matrix: (Units=GPa)
#
#
# Indices 1 2 3 4 5 6 
#
# 1 83.4825 14.3659 -14.2663 0.0000 0.0000 10.2804
# 2 14.3659 83.4825 -14.2663 0.0000 0.0000 -10.2804
# 3 -14.2663 -14.2663 76.8315 0.0000 0.0000 0.0000
# 4 0.0000 0.0000 0.0000 23.8540 0.0000 0.0000
# 5 0.0000 0.0000 0.0000 0.0000 23.8540 0.0000
# 6 10.2804 -10.2804 0.0000 0.0000 0.0000 29.0459
#
#
#
# Elastic Compliance Matrix: (Units=1/GPa)
#
#
# Indices 1 2 3 4 5 6 
#
# 1 0.013488 -0.002683 0.002006 0.000000 0.000000 -0.005723
# 2 -0.002683 0.013488 0.002006 0.000000 0.000000 0.005723
# 3 0.002006 0.002006 0.013761 0.000000 0.000000 0.000000
# 4 0.000000 0.000000 0.000000 0.041922 0.000000 0.000000
# 5 0.000000 0.000000 0.000000 0.000000 0.041922 0.000000
# 6 -0.005723 0.005723 0.000000 0.000000 0.000000 0.038480
#
#
# Mechanical properties :
#
#
# Convention : Reuss Voigt Hill
#
# Bulk Modulus (GPa) = 23.04382 23.94035 23.49208
# Shear Modulus (GPa) = 28.59338 32.54833 30.57086
#
# Velocity S-wave (km/s) = 3.56668 3.80536 3.68795
# Velocity P-wave (km/s) = 5.21668 5.47346 5.34661
#
# Compressibility (1/GPa) = 0.04339558
#
# Stress axis : x y z
#
# Youngs Moduli (GPa) = 74.14037 74.14037 72.67148
#
# Poissons Ratio (x) = 0.19892 -0.14580
# Poissons Ratio (y) = 0.19892 -0.14580
# Poissons Ratio (z) = -0.14875 -0.14875
#
# Static dielectric constant tensor:
#      x y z
#    x 1.872310 0.000000 0.000000 
#    y 0.000000 1.872310 0.000000 
#    z 0.000000 0.000000 1.782520 
# 
# From -- ./inp_files/187.got.cif
#   From: 2010.05.17/outbox.cif.g08.bks.cpg/sg81_cif.got.tgz:187.got - 2010.06.03 18:51:07.
