data_PCOD9542413
_publ_section_title
;
Structure prediction by ZEFSAII (Michael W. Deem and Ramdas Pophale) SiO2 
 PCOD9542413
Probable space group: P -4
;
_chemical_formula_sum "Si O2"
_cell_formula_units_Z 26
_cell_length_a 8.121961
_cell_length_b 8.121961
_cell_length_c 15.846246
_cell_angle_alpha 90.000000
_cell_angle_beta 90.000000
_cell_angle_gamma 90.000000
_cell_volume 1045.317433
_symmetry_space_group_name_H-M "P -4"
_symmetry_group_IT_number 81
_symmetry_cell_setting 'tetragonal'
loop_
_space_group_symop_operation_xyz
x,y,z
y,-x,-z
-x,-y,z
-y,x,-z
loop_
_atom_site_type_symbol
_atom_site_label
_atom_site_fract_x
_atom_site_fract_y
_atom_site_fract_z
Si Si1 0.177097 0.967062 0.202929
Si Si2 0.185322 0.447821 0.052490
Si Si3 0.173691 0.586910 0.234873
Si Si4 0.500000 0.500000 0.242336
Si Si5 0.693819 0.992208 0.376529
Si Si6 0.300492 0.688618 0.491158
Si Si7 0.402179 0.201301 0.120296
O O1 0.166550 0.779785 0.230628
O O2 0.203691 0.054175 0.292923
O O3 0.337612 0.020919 0.149244
O O4 0.000000 0.000000 0.162662
O O5 0.229291 0.542658 0.138418
O O6 0.226281 0.266000 0.082047
O O7 0.000000 0.500000 0.039650
O O8 0.251751 0.486411 0.960079
O O9 0.328778 0.529289 0.289573
O O10 0.000000 0.500000 0.251740
O O11 0.462890 0.324565 0.193835
O O12 0.727914 0.171817 0.418604
O O13 0.500000 0.000000 0.352351
O O14 0.721651 0.845215 0.442110
O O15 0.489934 0.714819 0.522185
#
# Coordination Sequence:
#
# PCOD9542413 Si02
#       7
#     4   4   4   2   4   4   4
#     4  12  27  45  66 108 150 186 236 315 381 448
#     4  10  21  39  62  88 123 182 233 292 348 422
#     4  10  23  46  64  94 138 184 247 292 359 440
#     4  10  22  41  68  88 130 191 226 300 360 425
#     4  10  24  44  73 110 146 185 246 298 372 452
#     4   9  20  45  73 106 143 190 244 296 356 453
#     4  11  24  40  67  98 133 185 251 299 365 441
#
# _framework density 24.87283
#
# number of rings (size 3 to 8) (size 9 to 14) (size 15 to 20)
#    0.000    1.692    0.000    4.615    8.615    0.615 
#    8.308    0.000    0.000    0.000    0.000    0.000 
#    0.000    0.000    0.000    0.000    0.000    0.000 
#
# Total GULP energy -144876.124956 kJ/mol
# GULP energy per Si atom -5572.158652 kJ/mol
# Density = 2.481622 g / cm^3
# Si number density = 24.872830 Si / 1000 Ang^3
#
#
#
# Elastic Constant Matrix: (Units=GPa)
#
#
# Indices 1 2 3 4 5 6 
#
# 1 95.6165 15.7320 -4.7058 0.0000 0.0000 -13.3935
# 2 15.7320 95.6165 -4.7058 0.0000 0.0000 13.3935
# 3 -4.7058 -4.7058 66.5288 0.0000 0.0000 0.0000
# 4 0.0000 0.0000 0.0000 20.2257 0.0000 0.0000
# 5 0.0000 0.0000 0.0000 0.0000 20.2257 0.0000
# 6 -13.3935 13.3935 0.0000 0.0000 0.0000 16.3371
#
#
#
# Elastic Compliance Matrix: (Units=1/GPa)
#
#
# Indices 1 2 3 4 5 6 
#
# 1 0.013149 -0.004115 0.000639 0.000000 0.000000 0.014153
# 2 -0.004115 0.013149 0.000639 0.000000 0.000000 -0.014153
# 3 0.000639 0.000639 0.015121 0.000000 0.000000 0.000000
# 4 0.000000 0.000000 0.000000 0.049442 0.000000 0.000000
# 5 0.000000 0.000000 0.000000 0.000000 0.049442 0.000000
# 6 0.014153 -0.014153 0.000000 0.000000 0.000000 0.084417
#
#
# Mechanical properties :
#
#
# Convention : Reuss Voigt Hill
#
# Bulk Modulus (GPa) = 27.97404 30.04472 29.00938
# Shear Modulus (GPa) = 20.63475 28.12048 24.37761
#
# Velocity S-wave (km/s) = 2.88342 3.36604 3.13404
# Velocity P-wave (km/s) = 4.72829 5.21656 4.97842
#
# Compressibility (1/GPa) = 0.03574743
#
# Stress axis : x y z
#
# Youngs Moduli (GPa) = 76.04894 76.04894 66.13102
#
# Poissons Ratio (x) = 0.31291 -0.04226
# Poissons Ratio (y) = 0.31291 -0.04226
# Poissons Ratio (z) = -0.04860 -0.04860
#
# Static dielectric constant tensor:
#      x y z
#    x 2.048690 0.000000 0.000000 
#    y 0.000000 2.048690 0.000000 
#    z 0.000000 0.000000 2.223500 
# 
# From -- ./inp_files/1771.got.cif
#   From: 2010.05.17/outbox.cif.g08.bks.cpg/sg81_cif.got.tgz:1771.got - 2010.06.03 18:51:07.
