data_PCOD9542030
_publ_section_title
;
Structure prediction by ZEFSAII (Michael W. Deem and Ramdas Pophale) SiO2 
 PCOD9542030
Probable space group: I 4
;
_chemical_formula_sum "Si O2"
_cell_formula_units_Z 50
_cell_length_a 9.348906
_cell_length_b 9.348906
_cell_length_c 29.031891
_cell_angle_alpha 90.000000
_cell_angle_beta 90.000000
_cell_angle_gamma 90.000000
_cell_volume 2537.446597
_symmetry_space_group_name_H-M "I 4"
_symmetry_group_IT_number 79
_symmetry_cell_setting 'tetragonal'
loop_
_space_group_symop_operation_xyz
x,y,z
-y,x,z
-x,-y,z
y,-x,z
1/2+x,1/2+y,1/2+z
1/2-y,1/2+x,1/2+z
1/2-x,1/2-y,1/2+z
1/2+y,1/2-x,1/2+z
loop_
_atom_site_type_symbol
_atom_site_label
_atom_site_fract_x
_atom_site_fract_y
_atom_site_fract_z
Si Si1 0.500000 0.500000 0.952001
Si Si2 0.368130 0.297945 0.840257
Si Si3 0.160789 0.532453 0.490190
Si Si4 0.871220 0.795025 0.234199
Si Si5 0.287526 0.603452 0.587373
Si Si6 0.616121 0.286998 0.157267
Si Si7 0.247907 0.716787 0.936111
O O1 0.346267 0.583854 0.950003
O O2 0.539344 0.311336 0.846141
O O3 0.343429 0.255044 0.787597
O O4 0.301393 0.211480 0.882246
O O5 0.246303 0.594373 0.533747
O O6 0.163732 0.642249 0.448058
O O7 0.222834 0.389547 0.468297
O O8 0.000000 0.500000 0.506071
O O9 0.797718 0.681191 0.200909
O O10 0.043173 0.810002 0.227059
O O11 0.315913 0.436603 0.598999
O O12 0.165976 0.689063 0.614497
O O13 0.687303 0.445539 0.156712
#
# Coordination Sequence:
#
# PCOD9542030 Si02
#       7
#     2   8   8   8   8   8   8
#     4  12  20  40  68  88 120 188 224 264 320 376
#     4   9  15  33  63  95 128 172 222 266 310 379
#     4  12  25  39  64  98 131 171 220 278 326 387
#     4   9  19  37  68 101 129 165 215 267 325 389
#     4  11  25  44  67  91 121 166 217 266 323 392
#     4  11  26  46  65  93 131 168 210 272 338 397
#     4  12  22  40  63  94 136 179 220 273 325 380
#
# _framework density 19.704847000000001
#
# number of rings (size 3 to 8) (size 9 to 14) (size 15 to 20)
#    0.000    1.280    4.800    1.920    2.240    3.520 
#    2.880    0.000    0.000    0.000    0.000    0.000 
#    0.000    0.000    0.000    0.000    0.000    0.000 
#
# Total GULP energy -139220.612012 kJ/mol
# GULP energy per Si atom -5568.824480 kJ/mol
# Density = 1.966000 g / cm^3
# Si number density = 19.704847 Si / 1000 Ang^3
#
#
#
# Elastic Constant Matrix: (Units=GPa)
#
#
# Indices 1 2 3 4 5 6 
#
# 1 70.3718 25.7560 42.1118 0.0000 0.0000 3.8593
# 2 25.7560 70.3718 42.1118 0.0000 0.0000 -3.8593
# 3 42.1118 42.1118 133.8563 0.0000 0.0000 0.0000
# 4 0.0000 0.0000 0.0000 32.8612 0.0000 0.0000
# 5 0.0000 0.0000 0.0000 0.0000 32.8612 0.0000
# 6 3.8593 -3.8593 0.0000 0.0000 0.0000 26.6042
#
#
#
# Elastic Compliance Matrix: (Units=1/GPa)
#
#
# Indices 1 2 3 4 5 6 
#
# 1 0.018676 -0.004315 -0.004518 0.000000 0.000000 -0.003335
# 2 -0.004315 0.018676 -0.004518 0.000000 0.000000 0.003335
# 3 -0.004518 -0.004518 0.010314 0.000000 0.000000 0.000000
# 4 0.000000 0.000000 0.000000 0.030431 0.000000 0.000000
# 5 0.000000 0.000000 0.000000 0.000000 0.030431 0.000000
# 6 -0.003335 0.003335 0.000000 0.000000 0.000000 0.038556
#
#
# Mechanical properties :
#
#
# Convention : Reuss Voigt Hill
#
# Bulk Modulus (GPa) = 47.70129 54.95104 51.32617
# Shear Modulus (GPa) = 27.65895 29.43998 28.54946
#
# Velocity S-wave (km/s) = 3.75061 3.86948 3.81051
# Velocity P-wave (km/s) = 6.55870 6.92181 6.74270
#
# Compressibility (1/GPa) = 0.02096379
#
# Stress axis : x y z
#
# Youngs Moduli (GPa) = 53.54454 53.54454 96.95946
#
# Poissons Ratio (x) = 0.23102 0.43808
# Poissons Ratio (y) = 0.23102 0.43808
# Poissons Ratio (z) = 0.24192 0.24192
#
# Static dielectric constant tensor:
#      x y z
#    x 1.687960 0.000000 0.000000 
#    y 0.000000 1.687960 0.000000 
#    z 0.000000 0.000000 1.728010 
# 
# From -- ./inp_files/2146.got.cif
#   From: 2010.05.17/outbox.cif.g08.bks.cpg/sg79_cif.got.tgz:2146.got - 2010.06.03 18:47:27.
