data_PCOD9542526
_publ_section_title
;
Structure prediction by ZEFSAII (Michael W. Deem and Ramdas Pophale) SiO2 
 PCOD9542526
Probable space group: P -4
;
_chemical_formula_sum "Si O2"
_cell_formula_units_Z 19
_cell_length_a 8.972447
_cell_length_b 8.972447
_cell_length_c 10.694352
_cell_angle_alpha 90.000000
_cell_angle_beta 90.000000
_cell_angle_gamma 90.000000
_cell_volume 860.946724
_symmetry_space_group_name_H-M "P -4"
_symmetry_group_IT_number 81
_symmetry_cell_setting 'tetragonal'
loop_
_space_group_symop_operation_xyz
x,y,z
y,-x,-z
-x,-y,z
-y,x,-z
loop_
_atom_site_type_symbol
_atom_site_label
_atom_site_fract_x
_atom_site_fract_y
_atom_site_fract_z
Si Si1 0.434715 0.277635 0.786322
Si Si2 0.500000 0.000000 0.916902
Si Si3 0.358433 0.888783 0.306115
Si Si4 0.500000 0.500000 0.000000
Si Si5 0.403210 0.721798 0.535777
Si Si6 0.780419 0.048373 0.059787
O O1 0.407074 0.109574 0.828614
O O2 0.286038 0.362708 0.739301
O O3 0.562520 0.265498 0.681812
O O4 0.490907 0.362379 0.907187
O O5 0.616290 0.079160 0.008087
O O6 0.337012 0.858292 0.455096
O O7 0.232644 0.949899 0.210403
O O8 0.500000 0.000000 0.292557
O O9 0.571144 0.691146 0.483567
O O10 0.890866 0.163548 0.993177
#
# Coordination Sequence:
#
# PCOD9542526 Si02
#       6
#     4   2   4   1   4   4
#     4  11  24  40  66 107 141 177 240 305 363 426
#     4  12  24  40  66  96 142 176 232 310 354 424
#     4  11  22  40  70  97 137 196 238 287 366 438
#     4  12  24  40  70 104 136 188 232 302 380 428
#     4   9  20  40  65  97 136 177 235 300 355 423
#     4  11  24  42  64  99 146 189 237 299 364 439
#
# _framework density 22.068729000000001
#
# number of rings (size 3 to 8) (size 9 to 14) (size 15 to 20)
#    0.000    1.263    3.158    3.789    1.474    1.684 
#    0.000    0.000    0.000    0.000    0.000    0.000 
#    0.000    0.000    0.000    0.000    0.000    0.000 
#
# Total GULP energy -105869.119566 kJ/mol
# GULP energy per Si atom -5572.058925 kJ/mol
# Density = 2.201850 g / cm^3
# Si number density = 22.068729 Si / 1000 Ang^3
#
#
#
# Elastic Constant Matrix: (Units=GPa)
#
#
# Indices 1 2 3 4 5 6 
#
# 1 72.0213 14.5808 32.3095 0.0000 0.0000 4.2066
# 2 14.5808 72.0213 32.3095 0.0000 0.0000 -4.2066
# 3 32.3095 32.3095 135.4890 0.0000 0.0000 0.0000
# 4 0.0000 0.0000 0.0000 22.7047 0.0000 0.0000
# 5 0.0000 0.0000 0.0000 0.0000 22.7047 0.0000
# 6 4.2066 -4.2066 0.0000 0.0000 0.0000 23.6498
#
#
#
# Elastic Compliance Matrix: (Units=1/GPa)
#
#
# Indices 1 2 3 4 5 6 
#
# 1 0.015961 -0.001914 -0.003350 0.000000 0.000000 -0.003179
# 2 -0.001914 0.015961 -0.003350 0.000000 0.000000 0.003179
# 3 -0.003350 -0.003350 0.008978 0.000000 0.000000 0.000000
# 4 0.000000 0.000000 0.000000 0.044044 0.000000 0.000000
# 5 0.000000 0.000000 0.000000 0.000000 0.044044 0.000000
# 6 -0.003179 0.003179 0.000000 0.000000 0.000000 0.043415
#
#
# Mechanical properties :
#
#
# Convention : Reuss Voigt Hill
#
# Bulk Modulus (GPa) = 42.24286 48.65903 45.45094
# Shear Modulus (GPa) = 25.31394 27.16729 26.24061
#
# Velocity S-wave (km/s) = 3.39049 3.51241 3.45199
# Velocity P-wave (km/s) = 5.87454 6.20855 6.04385
#
# Compressibility (1/GPa) = 0.02367264
#
# Stress axis : x y z
#
# Youngs Moduli (GPa) = 62.65389 62.65389 111.38087
#
# Poissons Ratio (x) = 0.11994 0.37308
# Poissons Ratio (y) = 0.11994 0.37308
# Poissons Ratio (z) = 0.20986 0.20986
#
# Static dielectric constant tensor:
#      x y z
#    x 1.907380 0.000000 0.000000 
#    y 0.000000 1.907380 0.000000 
#    z 0.000000 0.000000 1.919550 
# 
# From -- ./inp_files/1276.got.cif
#   From: 2010.05.17/outbox.cif.g08.bks.cpg/sg81_cif.got.tgz:1276.got - 2010.06.03 18:51:07.
