data_PCOD9542819
_publ_section_title
;
Structure prediction by ZEFSAII (Michael W. Deem and Ramdas Pophale) SiO2 
 PCOD9542819
Probable space group: I -4 
;
_chemical_formula_sum "Si O2"
_cell_formula_units_Z 48
_cell_length_a 10.721321
_cell_length_b 10.721321
_cell_length_c 17.069039
_cell_angle_alpha 90.000000
_cell_angle_beta 90.000000
_cell_angle_gamma 90.000000
_cell_volume 1962.030115
_symmetry_space_group_name_H-M "I -4 "
_symmetry_group_IT_number 82
_symmetry_cell_setting 'tetragonal'
loop_
_space_group_symop_operation_xyz
x,y,z
y,-x,-z
-x,-y,z
-y,x,-z
1/2+x,1/2+y,1/2+z
1/2+y,1/2-x,1/2-z
1/2-x,1/2-y,1/2+z
1/2-y,1/2+x,1/2-z
loop_
_atom_site_type_symbol
_atom_site_label
_atom_site_fract_x
_atom_site_fract_y
_atom_site_fract_z
Si Si1 0.825171 0.099584 0.991550
Si Si2 0.886297 0.723400 0.171042
Si Si3 0.915749 0.119192 0.249179
Si Si4 0.002838 0.263290 0.392433
Si Si5 0.232492 0.294262 0.821540
Si Si6 0.058008 0.637698 0.559520
O O1 0.794224 0.152767 0.907277
O O2 0.706325 0.122495 0.044519
O O3 0.952801 0.155142 0.021964
O O4 0.876053 0.578814 0.145539
O O5 0.795526 0.776780 0.236692
O O6 0.019386 0.762992 0.204636
O O7 0.934047 0.152249 0.342028
O O8 0.787933 0.110620 0.200748
O O9 0.000000 0.000000 0.233515
O O10 0.989403 0.279713 0.486226
O O11 0.148988 0.253660 0.373791
O O12 0.201583 0.431571 0.855340
O O13 0.000000 0.500000 0.557978
#
# Coordination Sequence:
#
# PCOD9542819 Si02
#       6
#     8   8   8   8   8   8
#     4  10  22  39  69 106 134 177 231 303 360 411
#     4   9  20  39  66 104 133 175 233 295 360 428
#     4  10  21  39  71 104 137 176 233 303 367 421
#     4   9  22  44  65  99 139 188 240 292 354 434
#     4  10  22  43  68 100 138 187 232 299 359 427
#     4  11  25  42  67 104 145 191 240 290 354 438
#
# _framework density 24.464458
#
# number of rings (size 3 to 8) (size 9 to 14) (size 15 to 20)
#    0.000    2.167    0.000    1.000   11.667    0.000 
#    9.000    3.333    0.000    0.000    0.000    0.000 
#    0.000    0.000    0.000    0.000    0.000    0.000 
#
# Total GULP energy -133733.852979 kJ/mol
# GULP energy per Si atom -5572.243874 kJ/mol
# Density = 2.440878 g / cm^3
# Si number density = 24.464458 Si / 1000 Ang^3
#
#
#
# Elastic Constant Matrix: (Units=GPa)
#
#
# Indices 1 2 3 4 5 6 
#
# 1 70.2466 30.7422 31.6205 0.0000 0.0000 -2.4690
# 2 30.7422 70.2466 31.6205 0.0000 0.0000 2.4690
# 3 31.6205 31.6205 137.2623 0.0000 0.0000 0.0000
# 4 0.0000 0.0000 0.0000 10.6372 0.0000 0.0000
# 5 0.0000 0.0000 0.0000 0.0000 10.6372 0.0000
# 6 -2.4690 2.4690 0.0000 0.0000 0.0000 25.5700
#
#
#
# Elastic Compliance Matrix: (Units=1/GPa)
#
#
# Indices 1 2 3 4 5 6 
#
# 1 0.018597 -0.007026 -0.002666 0.000000 0.000000 0.002474
# 2 -0.007026 0.018597 -0.002666 0.000000 0.000000 -0.002474
# 3 -0.002666 -0.002666 0.008513 0.000000 0.000000 0.000000
# 4 0.000000 0.000000 0.000000 0.094009 0.000000 0.000000
# 5 0.000000 0.000000 0.000000 0.000000 0.094009 0.000000
# 6 0.002474 -0.002474 0.000000 0.000000 0.000000 0.039586
#
#
# Mechanical properties :
#
#
# Convention : Reuss Voigt Hill
#
# Bulk Modulus (GPa) = 47.63350 51.74685 49.69017
# Shear Modulus (GPa) = 16.39212 21.62037 19.00625
#
# Velocity S-wave (km/s) = 2.59132 2.97601 2.79030
# Velocity P-wave (km/s) = 5.33535 5.74514 5.54403
#
# Compressibility (1/GPa) = 0.02099363
#
# Stress axis : x y z
#
# Youngs Moduli (GPa) = 53.77172 53.77172 117.46098
#
# Poissons Ratio (x) = 0.37779 0.31311
# Poissons Ratio (y) = 0.37779 0.31311
# Poissons Ratio (z) = 0.14334 0.14334
#
# Static dielectric constant tensor:
#      x y z
#    x 2.055780 0.000000 0.000000 
#    y 0.000000 2.055780 0.000000 
#    z 0.000000 0.000000 2.046770 
# 
# From -- ./inp_files/2657.got.cif
#   From: 2010.05.17/outbox.cif.g08.bks.cpg/sg82_2_cif.got.tgz:2657.got - 2010.06.03 18:52:26.
