data_PCOD9542715
_publ_section_title
;
Structure prediction by ZEFSAII (Michael W. Deem and Ramdas Pophale) SiO2 
 PCOD9542715
Probable space group: I -4 
;
_chemical_formula_sum "Si O2"
_cell_formula_units_Z 48
_cell_length_a 13.097685
_cell_length_b 13.097685
_cell_length_c 9.741013
_cell_angle_alpha 90.000000
_cell_angle_beta 90.000000
_cell_angle_gamma 90.000000
_cell_volume 1671.064471
_symmetry_space_group_name_H-M "I -4 "
_symmetry_group_IT_number 82
_symmetry_cell_setting 'tetragonal'
loop_
_space_group_symop_operation_xyz
x,y,z
y,-x,-z
-x,-y,z
-y,x,-z
1/2+x,1/2+y,1/2+z
1/2+y,1/2-x,1/2-z
1/2-x,1/2-y,1/2+z
1/2-y,1/2+x,1/2-z
loop_
_atom_site_type_symbol
_atom_site_label
_atom_site_fract_x
_atom_site_fract_y
_atom_site_fract_z
Si Si1 0.612959 0.612959 0.000000
Si Si2 0.665679 0.610824 0.346415
Si Si3 0.890390 0.348823 0.440931
Si Si4 0.338535 0.838535 0.250000
Si Si5 0.390390 0.151177 0.940931
Si Si6 0.334321 0.610824 0.346415
O O1 0.725245 0.613816 0.069143
O O2 0.614337 0.500000 0.931229
O O3 0.613816 0.725245 0.930857
O O4 0.639735 0.717874 0.273652
O O5 0.788216 0.611844 0.370800
O O6 0.621011 0.621010 0.500000
O O7 0.633799 0.500000 0.290446
O O8 0.885053 0.370642 0.604803
O O9 0.788216 0.388157 0.370800
O O10 1.000000 0.383489 0.389707
O O11 0.370642 0.885053 0.395197
O O12 0.360264 0.717874 0.273651
#
# Coordination Sequence:
#
# PCOD9542715 Si02
#       6
#     8   8   8   8   8   8
#     4   9  16  30  56  84 107 136 176 224 279 332
#     4  10  22  40  59  83 116 155 193 233 285 339
#     4  10  20  37  58  83 116 148 185 234 288 340
#     4  10  20  36  56  90 110 150 186 242 282 334
#     4  10  20  37  58  83 116 148 185 234 288 340
#     4  10  22  40  59  83 116 155 193 233 285 339
#
# _framework density 28.724208000000001
#
# number of rings (size 3 to 8) (size 9 to 14) (size 15 to 20)
#    0.000    2.167    5.000    0.000    0.000    9.000 
#    0.000    0.000    0.000    0.000    0.000    0.000 
#    0.000    0.000    0.000    0.000    0.000    0.000 
#
# Total GULP energy -134385.785791 kJ/mol
# GULP energy per Si atom -5599.407741 kJ/mol
# Density = 2.865883 g / cm^3
# Si number density = 28.724208 Si / 1000 Ang^3
#
#
#
# Elastic Constant Matrix: (Units=GPa)
#
#
# Indices 1 2 3 4 5 6 
#
# 1 198.7207 33.3069 12.1360 0.0000 0.0000 0.0000
# 2 33.3069 198.7207 12.1360 0.0000 0.0000 0.0000
# 3 12.1360 12.1360 115.4662 0.0000 0.0000 0.0000
# 4 0.0000 0.0000 0.0000 32.7136 0.0000 0.0000
# 5 0.0000 0.0000 0.0000 0.0000 32.7136 0.0000
# 6 0.0000 0.0000 0.0000 0.0000 0.0000 12.0779
#
#
#
# Elastic Compliance Matrix: (Units=1/GPa)
#
#
# Indices 1 2 3 4 5 6 
#
# 1 0.005202 -0.000844 -0.000458 0.000000 0.000000 0.000000
# 2 -0.000844 0.005202 -0.000458 0.000000 0.000000 0.000000
# 3 -0.000458 -0.000458 0.008757 0.000000 0.000000 0.000000
# 4 0.000000 0.000000 0.000000 0.030568 0.000000 0.000000
# 5 0.000000 0.000000 0.000000 0.000000 0.030568 0.000000
# 6 0.000000 0.000000 0.000000 0.000000 0.000000 0.082796
#
#
# Mechanical properties :
#
#
# Convention : Reuss Voigt Hill
#
# Bulk Modulus (GPa) = 63.93766 69.78506 66.86136
# Shear Modulus (GPa) = 29.09928 45.85629 37.47778
#
# Velocity S-wave (km/s) = 3.18631 3.99987 3.61604
# Velocity P-wave (km/s) = 5.98701 6.75867 6.38451
#
# Compressibility (1/GPa) = 0.01564024
#
# Stress axis : x y z
#
# Youngs Moduli (GPa) = 192.24874 192.24874 114.19670
#
# Poissons Ratio (x) = 0.16223 0.05230
# Poissons Ratio (y) = 0.16223 0.05230
# Poissons Ratio (z) = 0.08805 0.08805
#
# Static dielectric constant tensor:
#      x y z
#    x 2.117050 0.000000 0.000000 
#    y 0.000000 2.117050 0.000000 
#    z 0.000000 0.000000 2.529080 
# 
# From -- ./inp_files/1759.got.cif
#   From: 2010.05.17/outbox.cif.g08.bks.cpg/sg82_1_cif.got.tgz:1759.got - 2010.06.03 18:52:26.
