data_PCOD9542363
_publ_section_title
;
Structure prediction by ZEFSAII (Michael W. Deem and Ramdas Pophale) SiO2 
 PCOD9542363
Probable space group: P -4
;
_chemical_formula_sum "Si O2"
_cell_formula_units_Z 25
_cell_length_a 11.548943
_cell_length_b 11.548943
_cell_length_c 8.454638
_cell_angle_alpha 90.000000
_cell_angle_beta 90.000000
_cell_angle_gamma 90.000000
_cell_volume 1127.663421
_symmetry_space_group_name_H-M "P -4"
_symmetry_group_IT_number 81
_symmetry_cell_setting 'tetragonal'
loop_
_space_group_symop_operation_xyz
x,y,z
y,-x,-z
-x,-y,z
-y,x,-z
loop_
_atom_site_type_symbol
_atom_site_label
_atom_site_fract_x
_atom_site_fract_y
_atom_site_fract_z
Si Si1 0.450442 0.675920 0.973140
Si Si2 0.500000 0.500000 0.500000
Si Si3 0.395111 0.722813 0.633160
Si Si4 0.827273 0.942276 0.066166
Si Si5 0.157899 0.608276 0.525342
Si Si6 0.110486 0.570771 0.889949
Si Si7 0.179887 0.033604 0.447011
O O1 0.382346 0.726033 0.822088
O O2 0.576098 0.618653 0.935893
O O3 0.489470 0.781099 0.078278
O O4 0.465247 0.604827 0.608292
O O5 0.273845 0.689679 0.548355
O O6 0.487683 0.815360 0.563832
O O7 0.698647 0.892743 0.031486
O O8 0.822593 0.960947 0.255990
O O9 0.933786 0.858538 0.015305
O O10 0.114128 0.582128 0.701303
O O11 0.060971 0.698356 0.467784
O O12 0.000000 0.500000 0.945037
O O13 0.088772 0.129529 0.503078
#
# Coordination Sequence:
#
# PCOD9542363 Si02
#       7
#     4   1   4   4   4   4   4
#     4  11  23  39  65  96 126 168 213 262 321 392
#     4   8  16  32  54  88 116 156 202 240 316 364
#     4  10  20  36  62  88 123 162 204 259 308 391
#     4  10  22  41  65  90 125 174 218 264 325 396
#     4  10  23  41  60  93 126 164 211 261 325 384
#     4  11  26  42  63  93 136 168 213 272 326 383
#     4  10  21  39  63  90 122 162 220 271 317 380
#
# _framework density 22.169734999999999
#
# number of rings (size 3 to 8) (size 9 to 14) (size 15 to 20)
#    0.000    1.760    1.600    2.880    6.720    5.120 
#    0.000    0.800    0.000    0.000    0.000    0.000 
#    0.000    0.000    0.000    0.000    0.000    0.000 
#
# Total GULP energy -139369.668099 kJ/mol
# GULP energy per Si atom -5574.786724 kJ/mol
# Density = 2.211928 g / cm^3
# Si number density = 22.169735 Si / 1000 Ang^3
#
#
#
# Elastic Constant Matrix: (Units=GPa)
#
#
# Indices 1 2 3 4 5 6 
#
# 1 32.5493 27.8030 -4.7570 0.0000 0.0000 10.7809
# 2 27.8030 32.5493 -4.7570 0.0000 0.0000 -10.7809
# 3 -4.7570 -4.7570 36.2598 0.0000 0.0000 0.0000
# 4 0.0000 0.0000 0.0000 5.4393 0.0000 0.0000
# 5 0.0000 0.0000 0.0000 0.0000 5.4393 0.0000
# 6 10.7809 -10.7809 0.0000 0.0000 0.0000 40.0433
#
#
#
# Elastic Compliance Matrix: (Units=1/GPa)
#
#
# Indices 1 2 3 4 5 6 
#
# 1 -0.463772 0.480692 0.002220 0.000000 0.000000 0.254280
# 2 0.480692 -0.463772 0.002220 0.000000 0.000000 -0.254280
# 3 0.002220 0.002220 0.028161 0.000000 0.000000 0.000000
# 4 0.000000 0.000000 0.000000 0.183848 0.000000 0.000000
# 5 0.000000 0.000000 0.000000 0.000000 0.183848 0.000000
# 6 0.254280 -0.254280 0.000000 0.000000 0.000000 -0.111947
#
#
# Mechanical properties :
#
#
# Convention : Reuss Voigt Hill
#
# Bulk Modulus (GPa) = 14.10863 15.32624 14.71743
# Shear Modulus (GPa) = -3.14412 15.72233 6.28910
#
# Velocity S-wave (km/s) = -1.19218 2.66593 1.68611
# Velocity P-wave (km/s) = 2.11724 4.05023 3.23165
#
# Compressibility (1/GPa) = 0.07087861
#
# Stress axis : x y z
#
# Youngs Moduli (GPa) = -2.15623 -2.15623 35.50985
#
# Poissons Ratio (x) = 1.03648 -0.07882
# Poissons Ratio (y) = 1.03648 -0.07882
# Poissons Ratio (z) = 0.00479 0.00479
#
# Static dielectric constant tensor:
#      x y z
#    x 1.922560 0.000000 0.000000 
#    y 0.000000 1.922560 0.000000 
#    z 0.000000 0.000000 1.855800 
# 
# From -- ./inp_files/878.got.cif
#   From: 2010.05.17/outbox.cif.g08.bks.cpg/sg81_cif.got.tgz:878.got - 2010.06.03 18:51:07.
