data_PCOD9542575
_publ_section_title
;
Structure prediction by ZEFSAII (Michael W. Deem and Ramdas Pophale) SiO2 
 PCOD9542575
Probable space group: P -4
;
_chemical_formula_sum "Si O2"
_cell_formula_units_Z 13
_cell_length_a 8.287515
_cell_length_b 8.287515
_cell_length_c 7.520442
_cell_angle_alpha 90.000000
_cell_angle_beta 90.000000
_cell_angle_gamma 90.000000
_cell_volume 516.525803
_symmetry_space_group_name_H-M "P -4"
_symmetry_group_IT_number 81
_symmetry_cell_setting 'tetragonal'
loop_
_space_group_symop_operation_xyz
x,y,z
y,-x,-z
-x,-y,z
-y,x,-z
loop_
_atom_site_type_symbol
_atom_site_label
_atom_site_fract_x
_atom_site_fract_y
_atom_site_fract_z
Si Si1 0.102291 0.336234 0.620904
Si Si2 0.000000 0.000000 0.500000
Si Si3 0.684785 0.183750 0.774287
Si Si4 0.815754 0.323960 0.104778
O O1 0.204335 0.333290 0.436768
O O2 0.213855 0.311605 0.790507
O O3 0.000000 0.500000 0.619412
O O4 0.002401 0.168024 0.606229
O O5 0.508207 0.219438 0.853348
O O6 0.713599 0.993046 0.814521
O O7 0.806120 0.284470 0.896839
#
# Coordination Sequence:
#
# PCOD9542575 Si02
#       4
#     4   1   4   4
#     4  12  25  47  78 116 156 203 271 331 395 483
#     4  12  24  44  78 116 148 214 264 320 410 476
#     4  11  26  49  72 119 152 206 265 318 402 480
#     4  11  27  46  77 110 157 205 258 331 395 478
#
# _framework density 25.168151000000002
#
# number of rings (size 3 to 8) (size 9 to 14) (size 15 to 20)
#    0.000    0.615    6.154    0.000    8.615    3.692 
#    0.000    0.000    0.000    0.923    0.000    0.000 
#    0.000    0.000    0.000    0.000    0.000    0.000 
#
# Total GULP energy -72858.297918 kJ/mol
# GULP energy per Si atom -5604.484455 kJ/mol
# Density = 2.511087 g / cm^3
# Si number density = 25.168151 Si / 1000 Ang^3
#
#
#
# Elastic Constant Matrix: (Units=GPa)
#
#
# Indices 1 2 3 4 5 6 
#
# 1 93.3662 37.1755 40.4301 0.0000 0.0000 6.8959
# 2 37.1755 93.3662 40.4301 0.0000 0.0000 -6.8959
# 3 40.4301 40.4301 165.9802 0.0000 0.0000 0.0000
# 4 0.0000 0.0000 0.0000 41.3201 0.0000 0.0000
# 5 0.0000 0.0000 0.0000 0.0000 41.3201 0.0000
# 6 6.8959 -6.8959 0.0000 0.0000 0.0000 37.2223
#
#
#
# Elastic Compliance Matrix: (Units=1/GPa)
#
#
# Indices 1 2 3 4 5 6 
#
# 1 0.013833 -0.004811 -0.002198 0.000000 0.000000 -0.003454
# 2 -0.004811 0.013833 -0.002198 0.000000 0.000000 0.003454
# 3 -0.002198 -0.002198 0.007095 0.000000 0.000000 0.000000
# 4 0.000000 0.000000 0.000000 0.024201 0.000000 0.000000
# 5 0.000000 0.000000 0.000000 0.000000 0.024201 0.000000
# 6 -0.003454 0.003454 0.000000 0.000000 0.000000 0.028145
#
#
# Mechanical properties :
#
#
# Convention : Reuss Voigt Hill
#
# Bulk Modulus (GPa) = 61.16777 65.42043 63.29410
# Shear Modulus (GPa) = 36.99001 39.61762 38.30382
#
# Velocity S-wave (km/s) = 3.83785 3.97182 3.90541
# Velocity P-wave (km/s) = 6.63288 6.86175 6.74829
#
# Compressibility (1/GPa) = 0.01634848
#
# Stress axis : x y z
#
# Youngs Moduli (GPa) = 72.29112 72.29112 140.93693
#
# Poissons Ratio (x) = 0.34782 0.30971
# Poissons Ratio (y) = 0.34782 0.30971
# Poissons Ratio (z) = 0.15886 0.15886
#
# Static dielectric constant tensor:
#      x y z
#    x 1.990870 0.000000 0.000000 
#    y 0.000000 1.990870 0.000000 
#    z 0.000000 0.000000 1.951480 
# 
# From -- ./inp_files/494.got.cif
#   From: 2010.05.17/outbox.cif.g08.bks.cpg/sg81_cif.got.tgz:494.got - 2010.06.03 18:51:07.
