data_PCOD9542600
_publ_section_title
;
Structure prediction by ZEFSAII (Michael W. Deem and Ramdas Pophale) SiO2 
 PCOD9542600
Probable space group: P -4
;
_chemical_formula_sum "Si O2"
_cell_formula_units_Z 12
_cell_length_a 5.100699
_cell_length_b 5.100699
_cell_length_c 20.018345
_cell_angle_alpha 90.000000
_cell_angle_beta 90.000000
_cell_angle_gamma 90.000000
_cell_volume 520.819890
_symmetry_space_group_name_H-M "P -4"
_symmetry_group_IT_number 81
_symmetry_cell_setting 'tetragonal'
loop_
_space_group_symop_operation_xyz
x,y,z
y,-x,-z
-x,-y,z
-y,x,-z
loop_
_atom_site_type_symbol
_atom_site_label
_atom_site_fract_x
_atom_site_fract_y
_atom_site_fract_z
Si Si1 0.500000 0.500000 0.000000
Si Si2 0.815172 0.746857 0.115561
Si Si3 0.000000 0.000000 0.317182
Si Si4 0.500000 0.500000 0.500000
Si Si5 0.500000 0.000000 0.226992
Si Si6 0.000000 0.500000 0.408237
O O1 0.697223 0.345864 0.951871
O O2 0.000000 0.500000 0.127125
O O3 0.614512 0.784633 0.176350
O O4 0.000000 0.000000 0.111080
O O5 0.934322 0.750236 0.362656
O O6 0.251785 0.926209 0.272341
O O7 0.249887 0.562262 0.454144
#
# Coordination Sequence:
#
# PCOD9542600 Si02
#       6
#     1   4   2   1   2   2
#     4  12  32  44  82 108 156 188 284 322 436 468
#     4  12  30  52  79 112 151 208 257 342 402 492
#     4  12  28  47  80 113 158 202 266 310 382 468
#     4  12  24  48  78 112 168 196 260 306 380 444
#     4  12  28  55  76 113 158 204 262 326 398 468
#     4  12  26  47  78 119 154 212 250 316 374 448
#
# _framework density 23.040592
#
# number of rings (size 3 to 8) (size 9 to 14) (size 15 to 20)
#    0.000    0.000    1.667    6.000    9.333    2.667 
#    0.000    0.000    0.000    0.000    0.000    0.000 
#    0.000    0.000    0.000    0.000    0.000    0.000 
#
# Total GULP energy -67346.046895 kJ/mol
# GULP energy per Si atom -5612.170575 kJ/mol
# Density = 2.298815 g / cm^3
# Si number density = 23.040592 Si / 1000 Ang^3
#
#
#
# Elastic Constant Matrix: (Units=GPa)
#
#
# Indices 1 2 3 4 5 6 
#
# 1 149.6363 28.4983 50.6931 0.0000 0.0000 -2.2077
# 2 28.4983 149.6363 50.6931 0.0000 0.0000 2.2077
# 3 50.6931 50.6931 132.3715 0.0000 0.0000 0.0000
# 4 0.0000 0.0000 0.0000 27.6199 0.0000 0.0000
# 5 0.0000 0.0000 0.0000 0.0000 27.6199 0.0000
# 6 -2.2077 2.2077 0.0000 0.0000 0.0000 47.2692
#
#
#
# Elastic Compliance Matrix: (Units=1/GPa)
#
#
# Indices 1 2 3 4 5 6 
#
# 1 0.007724 -0.000545 -0.002749 0.000000 0.000000 0.000386
# 2 -0.000545 0.007724 -0.002749 0.000000 0.000000 -0.000386
# 3 -0.002749 -0.002749 0.009660 0.000000 0.000000 0.000000
# 4 0.000000 0.000000 0.000000 0.036206 0.000000 0.000000
# 5 0.000000 0.000000 0.000000 0.000000 0.036206 0.000000
# 6 0.000386 -0.000386 0.000000 0.000000 0.000000 0.021191
#
#
# Mechanical properties :
#
#
# Convention : Reuss Voigt Hill
#
# Bulk Modulus (GPa) = 76.80115 76.82365 76.81240
# Shear Modulus (GPa) = 36.99932 40.61912 38.80922
#
# Velocity S-wave (km/s) = 4.01163 4.20329 4.10858
# Velocity P-wave (km/s) = 7.40695 7.54798 7.47780
#
# Compressibility (1/GPa) = 0.01302064
#
# Stress axis : x y z
#
# Youngs Moduli (GPa) = 129.47094 129.47094 103.51930
#
# Poissons Ratio (x) = 0.07061 0.28458
# Poissons Ratio (y) = 0.07061 0.28458
# Poissons Ratio (z) = 0.35592 0.35592
#
# Static dielectric constant tensor:
#      x y z
#    x 1.832580 0.000000 0.000000 
#    y 0.000000 1.832580 0.000000 
#    z 0.000000 0.000000 1.836180 
# 
# From -- ./inp_files/1709.got.cif
#   From: 2010.05.17/outbox.cif.g08.bks.cpg/sg81_cif.got.tgz:1709.got - 2010.06.03 18:51:07.
