data_PCOD9542551
_publ_section_title
;
Structure prediction by ZEFSAII (Michael W. Deem and Ramdas Pophale) SiO2 
 PCOD9542551
Probable space group: P -4
;
_chemical_formula_sum "Si O2"
_cell_formula_units_Z 19
_cell_length_a 8.161147
_cell_length_b 8.161147
_cell_length_c 11.632013
_cell_angle_alpha 90.000000
_cell_angle_beta 90.000000
_cell_angle_gamma 90.000000
_cell_volume 774.742320
_symmetry_space_group_name_H-M "P -4"
_symmetry_group_IT_number 81
_symmetry_cell_setting 'tetragonal'
loop_
_space_group_symop_operation_xyz
x,y,z
y,-x,-z
-x,-y,z
-y,x,-z
loop_
_atom_site_type_symbol
_atom_site_label
_atom_site_fract_x
_atom_site_fract_y
_atom_site_fract_z
Si Si1 0.579146 0.229389 0.630835
Si Si2 0.000000 0.000000 0.500000
Si Si3 0.748869 0.895370 0.006164
Si Si4 0.000000 0.500000 0.177150
Si Si5 0.196517 0.247627 0.601917
Si Si6 0.891142 0.340132 0.738946
O O1 0.384999 0.268380 0.644666
O O2 0.616040 0.182119 0.499238
O O3 0.727516 0.352423 0.662701
O O4 0.610587 0.098862 0.732848
O O5 0.826860 0.932529 0.548015
O O6 0.690175 0.838943 0.130365
O O7 0.612832 0.891456 0.906980
O O8 0.913753 0.798117 0.977726
O O9 0.037849 0.227887 0.687571
O O10 0.000000 0.500000 0.739667
#
# Coordination Sequence:
#
# PCOD9542551 Si02
#       6
#     4   1   4   2   4   4
#     4  12  27  48  80 113 161 211 267 340 421 501
#     4  12  24  44  76 112 166 204 264 340 408 518
#     4  11  24  46  73 106 146 199 270 336 405 483
#     4  12  24  46  76 110 152 212 270 340 414 494
#     4  12  27  47  76 119 157 206 271 337 423 510
#     4  12  26  46  75 111 156 209 269 343 413 502
#
# _framework density 24.524284000000002
#
# number of rings (size 3 to 8) (size 9 to 14) (size 15 to 20)
#    0.000    0.211    5.263    3.789    1.474    4.632 
#    0.000    0.000    0.000    0.632    0.000    0.000 
#    0.000    0.000    0.000    0.000    0.000    0.000 
#
# Total GULP energy -105832.802856 kJ/mol
# GULP energy per Si atom -5570.147519 kJ/mol
# Density = 2.446847 g / cm^3
# Si number density = 24.524284 Si / 1000 Ang^3
#
#
#
# Elastic Constant Matrix: (Units=GPa)
#
#
# Indices 1 2 3 4 5 6 
#
# 1 97.5505 14.1737 33.2187 0.0000 0.0000 -12.0858
# 2 14.1737 97.5505 33.2187 0.0000 0.0000 12.0858
# 3 33.2187 33.2187 142.3104 0.0000 0.0000 0.0000
# 4 0.0000 0.0000 0.0000 42.6962 0.0000 0.0000
# 5 0.0000 0.0000 0.0000 0.0000 42.6962 0.0000
# 6 -12.0858 12.0858 0.0000 0.0000 0.0000 6.8629
#
#
#
# Elastic Compliance Matrix: (Units=1/GPa)
#
#
# Indices 1 2 3 4 5 6 
#
# 1 0.017449 -0.007055 -0.002426 0.000000 0.000000 0.043153
# 2 -0.007055 0.017449 -0.002426 0.000000 0.000000 -0.043153
# 3 -0.002426 -0.002426 0.008159 0.000000 0.000000 0.000000
# 4 0.000000 0.000000 0.000000 0.023421 0.000000 0.000000
# 5 0.000000 0.000000 0.000000 0.000000 0.023421 0.000000
# 6 0.043153 -0.043153 0.000000 0.000000 0.000000 0.297700
#
#
# Mechanical properties :
#
#
# Convention : Reuss Voigt Hill
#
# Bulk Modulus (GPa) = 51.97003 55.40373 53.68688
# Shear Modulus (GPa) = 11.96663 35.57107 23.76885
#
# Velocity S-wave (km/s) = 2.21136 3.81260 3.11657
# Velocity P-wave (km/s) = 5.26853 6.48241 5.90673
#
# Compressibility (1/GPa) = 0.01924186
#
# Stress axis : x y z
#
# Youngs Moduli (GPa) = 57.31091 57.31091 122.55683
#
# Poissons Ratio (x) = 0.40435 0.29733
# Poissons Ratio (y) = 0.40435 0.29733
# Poissons Ratio (z) = 0.13904 0.13904
#
# Static dielectric constant tensor:
#      x y z
#    x 1.289250 0.000000 0.000000 
#    y 0.000000 1.289250 0.000000 
#    z 0.000000 0.000000 2.350160 
# 
# From -- ./inp_files/1295.got.cif
#   From: 2010.05.17/outbox.cif.g08.bks.cpg/sg81_cif.got.tgz:1295.got - 2010.06.03 18:51:07.
