data_PCOD9542173
_publ_section_title
;
Structure prediction by ZEFSAII (Michael W. Deem and Ramdas Pophale) SiO2 
 PCOD9542173
Probable space group: I 41
;
_chemical_formula_sum "Si O2"
_cell_formula_units_Z 60
_cell_length_a 14.776079
_cell_length_b 14.776079
_cell_length_c 14.805692
_cell_angle_alpha 90.000000
_cell_angle_beta 90.000000
_cell_angle_gamma 90.000000
_cell_volume 3232.563906
_symmetry_space_group_name_H-M "I 41"
_symmetry_group_IT_number 80
_symmetry_cell_setting 'tetragonal'
loop_
_space_group_symop_operation_xyz
x,y,z
-y,1/2+x,1/4+z
-x,-y,z
y,1/2-x,1/4+z
1/2+x,1/2+y,1/2+z
1/2-y,x,3/4+z
1/2-x,1/2-y,1/2+z
1/2+y,-x,3/4+z
loop_
_atom_site_type_symbol
_atom_site_label
_atom_site_fract_x
_atom_site_fract_y
_atom_site_fract_z
Si Si1 0.148854 0.120328 0.938040
Si Si2 0.000000 0.500000 0.946622
Si Si3 0.454258 0.829327 0.569794
Si Si4 0.379672 0.351146 0.955205
Si Si5 0.189076 0.545589 0.157611
Si Si6 0.250000 0.275263 0.571622
Si Si7 0.670673 0.045742 0.323451
Si Si8 0.045589 0.689076 0.735634
O O1 0.204334 0.197285 0.884447
O O2 0.041251 0.125721 0.925257
O O3 0.187188 0.027464 0.898136
O O4 0.173715 0.154606 0.037212
O O5 0.910901 0.495525 0.884829
O O6 0.995525 0.410901 0.008416
O O7 0.438003 0.749450 0.497202
O O8 0.366521 0.868923 0.620163
O O9 0.302715 0.295666 0.008797
O O10 0.472536 0.312812 0.995108
O O11 0.374279 0.458749 0.967988
O O12 0.345394 0.326285 0.856032
O O13 0.250000 0.518065 0.071622
O O14 0.631077 0.133479 0.273082
O O15 0.750550 0.061997 0.396043
#
# Coordination Sequence:
#
# PCOD9542173 Si02
#       8
#     8   4   8   8   8   8   8   8
#     4  11  20  36  57  91 124 156 195 253 320 366
#     4  12  20  32  56  92 116 154 192 250 310 356
#     4  12  23  36  61  88 123 163 201 256 310 369
#     4  11  20  36  57  91 124 156 195 253 320 366
#     4  12  21  36  57  91 125 155 203 246 306 373
#     4  10  22  32  60  90 124 152 196 256 314 384
#     4  12  23  36  61  88 123 163 201 256 310 369
#     4  12  21  36  57  91 125 155 203 246 306 373
#
# _framework density 18.561118
#
# number of rings (size 3 to 8) (size 9 to 14) (size 15 to 20)
#    0.000    0.533    9.333    0.000    0.000    0.000 
#    0.000    0.000    8.800    0.000    0.000    0.000 
#    0.000    0.000    0.000    0.000    0.000    0.000 
#
# Total GULP energy -167031.278358 kJ/mol
# GULP energy per Si atom -5567.709279 kJ/mol
# Density = 1.851887 g / cm^3
# Si number density = 18.561118 Si / 1000 Ang^3
#
#
#
# Elastic Constant Matrix: (Units=GPa)
#
#
# Indices 1 2 3 4 5 6 
#
# 1 58.4355 30.5176 33.5407 0.0000 0.0000 0.0000
# 2 30.5176 58.4355 33.5407 0.0000 0.0000 0.0000
# 3 33.5407 33.5407 36.4887 0.0000 0.0000 0.0000
# 4 0.0000 0.0000 0.0000 28.7159 0.0000 0.0000
# 5 0.0000 0.0000 0.0000 0.0000 28.7159 0.0000
# 6 0.0000 0.0000 0.0000 0.0000 0.0000 22.2728
#
#
#
# Elastic Compliance Matrix: (Units=1/GPa)
#
#
# Indices 1 2 3 4 5 6 
#
# 1 0.036231 0.000411 -0.033681 0.000000 0.000000 0.000000
# 2 0.000411 0.036231 -0.033681 0.000000 0.000000 0.000000
# 3 -0.033681 -0.033681 0.089326 0.000000 0.000000 0.000000
# 4 0.000000 0.000000 0.000000 0.034824 0.000000 0.000000
# 5 0.000000 0.000000 0.000000 0.000000 0.034824 0.000000
# 6 0.000000 0.000000 0.000000 0.000000 0.000000 0.044898
#
#
# Mechanical properties :
#
#
# Convention : Reuss Voigt Hill
#
# Bulk Modulus (GPa) = 35.86274 38.72864 37.29569
# Shear Modulus (GPa) = 11.91808 19.65831 15.78820
#
# Velocity S-wave (km/s) = 2.53672 3.25793 2.91968
# Velocity P-wave (km/s) = 5.28614 5.92140 5.61276
#
# Compressibility (1/GPa) = 0.02788409
#
# Stress axis : x y z
#
# Youngs Moduli (GPa) = 27.60103 27.60103 11.19492
#
# Poissons Ratio (x) = -0.01135 0.37706
# Poissons Ratio (y) = -0.01135 0.37706
# Poissons Ratio (z) = 0.92964 0.92964
#
# Static dielectric constant tensor:
#      x y z
#    x 1.695550 0.000000 0.000000 
#    y 0.000000 1.695550 0.000000 
#    z 0.000000 0.000000 1.832120 
# 
# From -- ./inp_files/1362.got.cif
#   From: 2010.05.17/outbox.cif.g08.bks.cpg/sg80_cif.got.tgz:1362.got - 2010.06.03 18:49:13.
