data_PCOD9542137
_publ_section_title
;
Structure prediction by ZEFSAII (Michael W. Deem and Ramdas Pophale) SiO2 
 PCOD9542137
Probable space group: I 41
;
_chemical_formula_sum "Si O2"
_cell_formula_units_Z 48
_cell_length_a 15.824659
_cell_length_b 15.824659
_cell_length_c 8.260853
_cell_angle_alpha 90.000000
_cell_angle_beta 90.000000
_cell_angle_gamma 90.000000
_cell_volume 2068.681424
_symmetry_space_group_name_H-M "I 41"
_symmetry_group_IT_number 80
_symmetry_cell_setting 'tetragonal'
loop_
_space_group_symop_operation_xyz
x,y,z
-y,1/2+x,1/4+z
-x,-y,z
y,1/2-x,1/4+z
1/2+x,1/2+y,1/2+z
1/2-y,x,3/4+z
1/2-x,1/2-y,1/2+z
1/2+y,-x,3/4+z
loop_
_atom_site_type_symbol
_atom_site_label
_atom_site_fract_x
_atom_site_fract_y
_atom_site_fract_z
Si Si1 0.776569 0.465804 0.116100
Si Si2 0.063205 0.383213 0.829295
Si Si3 0.234163 0.346467 0.200149
Si Si4 0.500000 0.000000 0.583076
Si Si5 0.000000 0.500000 0.560344
Si Si6 0.099250 0.609399 0.331512
Si Si7 0.754305 0.362449 0.813786
O O1 0.676668 0.482863 0.117375
O O2 0.809779 0.399522 0.247765
O O3 0.805360 0.559515 0.182661
O O4 0.796306 0.430749 0.935857
O O5 0.141647 0.319578 0.840440
O O6 0.042323 0.426368 0.662992
O O7 0.065093 0.455664 0.962276
O O8 0.176651 0.273526 0.123856
O O9 0.536889 0.076500 0.690033
O O10 0.922609 0.461420 0.462155
O O11 0.091153 0.695382 0.430031
O O12 0.810132 0.301943 0.697007
#
# Coordination Sequence:
#
# PCOD9542137 Si02
#       7
#     8   8   8   4   4   8   8
#     4  10  24  42  65  95 129 180 218 272 348 402
#     4   9  21  41  63  92 131 174 217 276 332 389
#     4  10  22  40  60  92 129 167 211 264 331 395
#     4  10  22  38  72  96 134 168 238 274 320 414
#     4  10  20  44  64 102 124 170 234 280 314 418
#     4  11  23  39  68  98 129 173 220 278 340 399
#     4  12  27  45  66  98 137 175 226 284 350 410
#
# _framework density 23.203188000000001
#
# number of rings (size 3 to 8) (size 9 to 14) (size 15 to 20)
#    1.000    0.667    1.667    2.000    4.667    2.667 
#    0.000    1.667    0.000    0.000    0.000    0.000 
#    0.000    0.000    0.000    0.000    0.000    0.000 
#
# Total GULP energy -133604.274092 kJ/mol
# GULP energy per Si atom -5566.844754 kJ/mol
# Density = 2.315038 g / cm^3
# Si number density = 23.203188 Si / 1000 Ang^3
#
#
#
# Elastic Constant Matrix: (Units=GPa)
#
#
# Indices 1 2 3 4 5 6 
#
# 1 50.5243 15.9407 18.9932 0.0000 0.0000 -9.9767
# 2 15.9407 50.5243 18.9932 0.0000 0.0000 9.9767
# 3 18.9932 18.9932 92.2756 0.0000 0.0000 0.0000
# 4 0.0000 0.0000 0.0000 40.3165 0.0000 0.0000
# 5 0.0000 0.0000 0.0000 0.0000 40.3165 0.0000
# 6 -9.9767 9.9767 0.0000 0.0000 0.0000 32.9840
#
#
#
# Elastic Compliance Matrix: (Units=1/GPa)
#
#
# Indices 1 2 3 4 5 6 
#
# 1 0.026040 -0.008989 -0.003510 0.000000 0.000000 0.010595
# 2 -0.008989 0.026040 -0.003510 0.000000 0.000000 -0.010595
# 3 -0.003510 -0.003510 0.012282 0.000000 0.000000 0.000000
# 4 0.000000 0.000000 0.000000 0.024804 0.000000 0.000000
# 5 0.000000 0.000000 0.000000 0.000000 0.024804 0.000000
# 6 0.010595 -0.010595 0.000000 0.000000 0.000000 0.036727
#
#
# Mechanical properties :
#
#
# Convention : Reuss Voigt Hill
#
# Bulk Modulus (GPa) = 30.91584 33.46427 32.19006
# Shear Modulus (GPa) = 25.84056 32.01656 28.92856
#
# Velocity S-wave (km/s) = 3.34078 3.71864 3.53476
# Velocity P-wave (km/s) = 5.31357 5.73509 5.52835
#
# Compressibility (1/GPa) = 0.03234587
#
# Stress axis : x y z
#
# Youngs Moduli (GPa) = 38.40258 38.40258 81.42052
#
# Poissons Ratio (x) = 0.34518 0.28576
# Poissons Ratio (y) = 0.34518 0.28576
# Poissons Ratio (z) = 0.13478 0.13478
#
# Static dielectric constant tensor:
#      x y z
#    x 1.956950 0.000000 0.000000 
#    y 0.000000 1.956950 0.000000 
#    z 0.000000 0.000000 1.855230 
# 
# From -- ./inp_files/682.got.cif
#   From: 2010.05.17/outbox.cif.g08.bks.cpg/sg80_cif.got.tgz:682.got - 2010.06.03 18:49:13.
