data_PCOD9542487
_publ_section_title
;
Structure prediction by ZEFSAII (Michael W. Deem and Ramdas Pophale) SiO2 
 PCOD9542487
Probable space group: P -4
;
_chemical_formula_sum "Si O2"
_cell_formula_units_Z 13
_cell_length_a 10.293930
_cell_length_b 10.293930
_cell_length_c 4.906670
_cell_angle_alpha 90.000000
_cell_angle_beta 90.000000
_cell_angle_gamma 90.000000
_cell_volume 519.935261
_symmetry_space_group_name_H-M "P -4"
_symmetry_group_IT_number 81
_symmetry_cell_setting 'tetragonal'
loop_
_space_group_symop_operation_xyz
x,y,z
y,-x,-z
-x,-y,z
-y,x,-z
loop_
_atom_site_type_symbol
_atom_site_label
_atom_site_fract_x
_atom_site_fract_y
_atom_site_fract_z
Si Si1 0.750386 0.315197 0.686544
Si Si2 0.000000 0.000000 0.500000
Si Si3 0.816577 0.180426 0.176288
Si Si4 0.550246 0.142698 0.976188
O O1 0.787230 0.304207 0.372363
O O2 0.778606 0.451089 0.830785
O O3 0.842294 0.220522 0.867295
O O4 0.612195 0.245574 0.758176
O O5 0.930683 0.104088 0.310115
O O6 0.677236 0.110911 0.160952
O O7 0.500000 0.000000 0.881845
#
# Coordination Sequence:
#
# PCOD9542487 Si02
#       4
#     4   1   4   4
#     4  10  25  43  66 100 131 185 224 282 347 405
#     4  12  24  46  68 106 144 170 252 274 368 406
#     4  10  26  39  70  98 134 183 219 297 338 411
#     4  10  24  45  68  97 139 176 232 282 346 406
#
# _framework density 25.003108999999998
#
# number of rings (size 3 to 8) (size 9 to 14) (size 15 to 20)
#    1.846    0.000    0.000    1.846    8.615    3.077 
#    0.000    0.000    0.000    0.000    0.000    0.000 
#    0.000    0.000    0.000    0.000    0.000    0.000 
#
# Total GULP energy -72528.331682 kJ/mol
# GULP energy per Si atom -5579.102437 kJ/mol
# Density = 2.494620 g / cm^3
# Si number density = 25.003109 Si / 1000 Ang^3
#
#
#
# Elastic Constant Matrix: (Units=GPa)
#
#
# Indices 1 2 3 4 5 6 
#
# 1 100.9451 25.9381 2.7275 0.0000 0.0000 3.0547
# 2 25.9381 100.9451 2.7275 0.0000 0.0000 -3.0547
# 3 2.7275 2.7275 77.7122 0.0000 0.0000 0.0000
# 4 0.0000 0.0000 0.0000 24.6021 0.0000 0.0000
# 5 0.0000 0.0000 0.0000 0.0000 24.6021 0.0000
# 6 3.0547 -3.0547 0.0000 0.0000 0.0000 43.7925
#
#
#
# Elastic Compliance Matrix: (Units=1/GPa)
#
#
# Indices 1 2 3 4 5 6 
#
# 1 0.010651 -0.002758 -0.000277 0.000000 0.000000 -0.000935
# 2 -0.002758 0.010651 -0.000277 0.000000 0.000000 0.000935
# 3 -0.000277 -0.000277 0.012887 0.000000 0.000000 0.000000
# 4 0.000000 0.000000 0.000000 0.040647 0.000000 0.000000
# 5 0.000000 0.000000 0.000000 0.000000 0.040647 0.000000
# 6 -0.000935 0.000935 0.000000 0.000000 0.000000 0.022965
#
#
# Mechanical properties :
#
#
# Convention : Reuss Voigt Hill
#
# Bulk Modulus (GPa) = 36.27705 38.04321 37.16013
# Shear Modulus (GPa) = 32.41279 35.14662 33.77971
#
# Velocity S-wave (km/s) = 3.60439 3.75332 3.67961
# Velocity P-wave (km/s) = 5.64471 5.83366 5.73996
#
# Compressibility (1/GPa) = 0.02756564
#
# Stress axis : x y z
#
# Youngs Moduli (GPa) = 93.89038 93.89038 77.59497
#
# Poissons Ratio (x) = 0.25891 0.02150
# Poissons Ratio (y) = 0.25891 0.02150
# Poissons Ratio (z) = 0.02601 0.02601
#
# Static dielectric constant tensor:
#      x y z
#    x 2.026300 0.000000 0.000000 
#    y 0.000000 2.026300 0.000000 
#    z 0.000000 0.000000 1.928460 
# 
# From -- ./inp_files/80.got.cif
#   From: 2010.05.17/outbox.cif.g08.bks.cpg/sg81_cif.got.tgz:80.got - 2010.06.03 18:51:07.
