data_PCOD9542078
_publ_section_title
;
Structure prediction by ZEFSAII (Michael W. Deem and Ramdas Pophale) SiO2 
 PCOD9542078
Probable space group: I 41
;
_chemical_formula_sum "Si O2"
_cell_formula_units_Z 64
_cell_length_a 18.676909
_cell_length_b 18.676909
_cell_length_c 9.637400
_cell_angle_alpha 90.000000
_cell_angle_beta 90.000000
_cell_angle_gamma 90.000000
_cell_volume 3361.784653
_symmetry_space_group_name_H-M "I 41"
_symmetry_group_IT_number 80
_symmetry_cell_setting 'tetragonal'
loop_
_space_group_symop_operation_xyz
x,y,z
-y,1/2+x,1/4+z
-x,-y,z
y,1/2-x,1/4+z
1/2+x,1/2+y,1/2+z
1/2-y,x,3/4+z
1/2-x,1/2-y,1/2+z
1/2+y,-x,3/4+z
loop_
_atom_site_type_symbol
_atom_site_label
_atom_site_fract_x
_atom_site_fract_y
_atom_site_fract_z
Si Si1 0.851310 0.631983 0.251430
Si Si2 0.217270 0.097680 0.251159
Si Si3 0.952012 0.358751 0.430683
Si Si4 0.299348 0.799872 0.987276
Si Si5 0.123166 0.387875 0.722772
Si Si6 0.192400 0.070733 0.732776
Si Si7 0.988533 0.888087 0.221671
Si Si8 0.766468 0.053028 0.915612
O O1 0.863119 0.698658 0.356351
O O2 0.892868 0.650456 0.111237
O O3 0.768612 0.612561 0.221105
O O4 0.885910 0.566818 0.342220
O O5 0.180274 0.139976 0.375075
O O6 0.300238 0.086456 0.277397
O O7 0.175510 0.022104 0.247140
O O8 0.881673 0.322153 0.493679
O O9 0.938237 0.443156 0.445538
O O10 0.953680 0.332278 0.271593
O O11 0.291621 0.732053 0.889202
O O12 0.256665 0.864524 0.910159
O O13 0.095351 0.448338 0.616050
O O14 0.075958 0.357088 0.847354
O O15 0.213338 0.990118 0.778033
O O16 0.014868 0.804786 0.228825
#
# Coordination Sequence:
#
# PCOD9542078 Si02
#       8
#     8   8   8   8   8   8   8   8
#     4  10  20  34  57  80 114 155 199 242 279 360
#     4  11  21  38  57  84 118 157 202 244 287 346
#     4  10  18  36  67  83 110 154 198 238 291 344
#     4   9  19  36  64  94 114 145 193 243 294 360
#     4  11  23  35  56  86 122 154 194 250 296 351
#     4  11  21  36  53  84 119 155 192 241 302 338
#     4   9  19  35  61  87 110 150 202 240 285 354
#     4   9  17  37  61  85 116 151 195 243 287 350
#
# _framework density 19.037507000000002
#
# number of rings (size 3 to 8) (size 9 to 14) (size 15 to 20)
#    0.000    2.000    2.500    2.250    0.000    5.000 
#    2.250    0.000    8.250    0.000    0.000    0.000 
#    0.000    0.000    0.000    0.000    0.000    0.000 
#
# Total GULP energy -178468.914172 kJ/mol
# GULP energy per Si atom -5577.153568 kJ/mol
# Density = 1.899418 g / cm^3
# Si number density = 19.037507 Si / 1000 Ang^3
#
#
#
# Elastic Constant Matrix: (Units=GPa)
#
#
# Indices 1 2 3 4 5 6 
#
# 1 77.5025 21.0463 10.6964 0.0000 0.0000 1.4453
# 2 21.0463 77.5025 10.6964 0.0000 0.0000 -1.4453
# 3 10.6964 10.6964 59.4793 0.0000 0.0000 0.0000
# 4 0.0000 0.0000 0.0000 23.1511 0.0000 0.0000
# 5 0.0000 0.0000 0.0000 0.0000 23.1511 0.0000
# 6 1.4453 -1.4453 0.0000 0.0000 0.0000 9.9608
#
#
#
# Elastic Compliance Matrix: (Units=1/GPa)
#
#
# Indices 1 2 3 4 5 6 
#
# 1 0.014202 -0.003643 -0.001899 0.000000 0.000000 -0.002589
# 2 -0.003643 0.014202 -0.001899 0.000000 0.000000 0.002589
# 3 -0.001899 -0.001899 0.017496 0.000000 0.000000 0.000000
# 4 0.000000 0.000000 0.000000 0.043194 0.000000 0.000000
# 5 0.000000 0.000000 0.000000 0.000000 0.043194 0.000000
# 6 -0.002589 0.002589 0.000000 0.000000 0.000000 0.101145
#
#
# Mechanical properties :
#
#
# Convention : Reuss Voigt Hill
#
# Bulk Modulus (GPa) = 32.23864 33.26253 32.75058
# Shear Modulus (GPa) = 19.33068 22.72228 21.02648
#
# Velocity S-wave (km/s) = 3.18999 3.45853 3.32697
# Velocity P-wave (km/s) = 5.52622 5.78434 5.65675
#
# Compressibility (1/GPa) = 0.03101868
#
# Stress axis : x y z
#
# Youngs Moduli (GPa) = 70.41042 70.41042 57.15736
#
# Poissons Ratio (x) = 0.25650 0.10854
# Poissons Ratio (y) = 0.25650 0.10854
# Poissons Ratio (z) = 0.13371 0.13371
#
# Static dielectric constant tensor:
#      x y z
#    x 1.695900 0.000000 0.000000 
#    y 0.000000 1.695900 0.000000 
#    z 0.000000 0.000000 1.644700 
# 
# From -- ./inp_files/818.got.cif
#   From: 2010.05.17/outbox.cif.g08.bks.cpg/sg80_cif.got.tgz:818.got - 2010.06.03 18:49:13.
