data_PCOD9542606
_publ_section_title
;
Structure prediction by ZEFSAII (Michael W. Deem and Ramdas Pophale) SiO2 
 PCOD9542606
Probable space group: P -4
;
_chemical_formula_sum "Si O2"
_cell_formula_units_Z 23
_cell_length_a 9.000000
_cell_length_b 9.000000
_cell_length_c 15.000000
_cell_angle_alpha 90.000000
_cell_angle_beta 90.000000
_cell_angle_gamma 90.000000
_cell_volume 1215.000000
_symmetry_space_group_name_H-M "P -4"
_symmetry_group_IT_number 81
_symmetry_cell_setting 'tetragonal'
loop_
_space_group_symop_operation_xyz
x,y,z
y,-x,-z
-x,-y,z
-y,x,-z
loop_
_atom_site_type_symbol
_atom_site_label
_atom_site_fract_x
_atom_site_fract_y
_atom_site_fract_z
Si Si1 0.653727 0.168630 0.744299
Si Si2 0.337228 0.050302 0.575314
Si Si3 0.000000 0.000000 0.500000
Si Si4 0.637112 0.403867 0.346691
Si Si5 0.829495 0.453497 0.769122
Si Si6 0.500000 0.000000 0.900064
Si Si7 0.263005 0.544324 0.975424
O O1 0.515131 0.277840 0.721599
O O2 0.792910 0.281137 0.745465
O O3 0.663054 0.044457 0.667590
O O4 0.615756 0.084257 0.835436
O O5 0.172227 0.016414 0.537325
O O6 0.351385 0.228579 0.589983
O O7 0.500000 0.000000 0.532762
O O8 0.500000 0.500000 0.386853
O O9 0.560036 0.270053 0.293326
O O10 0.778364 0.469128 0.871862
O O11 0.000000 0.500000 0.760199
O O12 0.576130 0.879752 0.964105
O O13 0.389478 0.666483 0.991154
#
# Coordination Sequence:
#
# PCOD9542606 Si02
#       7
#     4   4   1   4   4   2   4
#     4  10  20  39  65  84 118 167 211 261 316 386
#     4  10  23  48  68  99 134 171 213 266 337 413
#     4  12  28  48  76 108 140 170 220 272 356 424
#     4   9  19  38  67  91 120 162 217 262 311 386
#     4  11  22  35  54  95 122 161 224 267 317 384
#     4  12  18  36  58  80 116 166 210 262 316 372
#     4  11  23  33  52  80 121 162 211 270 319 361
#
# _framework density 18.930040999999999
#
# number of rings (size 3 to 8) (size 9 to 14) (size 15 to 20)
#    0.000    1.565    5.217    1.043    7.304    0.000 
#    9.391    0.000    0.000    2.609    0.000    0.000 
#    0.000    0.000    0.000    0.000    0.000    0.000 
#
# Total GULP energy -128205.280466 kJ/mol
# GULP energy per Si atom -5574.142629 kJ/mol
# Density = 1.888696 g / cm^3
# Si number density = 18.930041 Si / 1000 Ang^3
#
#
#
# Elastic Constant Matrix: (Units=GPa)
#
#
# Indices 1 2 3 4 5 6 
#
# 1 145.8853 47.2041 34.9202 0.0000 0.0000 1.1381
# 2 47.2041 145.8853 34.9202 0.0000 0.0000 -1.1381
# 3 34.9202 34.9202 28.2749 0.0000 0.0000 0.0000
# 4 0.0000 0.0000 0.0000 19.0226 0.0000 0.0000
# 5 0.0000 0.0000 0.0000 0.0000 19.0226 0.0000
# 6 1.1381 -1.1381 0.0000 0.0000 0.0000 36.0845
#
#
#
# Elastic Compliance Matrix: (Units=1/GPa)
#
#
# Indices 1 2 3 4 5 6 
#
# 1 0.009751 -0.000390 -0.011560 0.000000 0.000000 -0.000320
# 2 -0.000390 0.009751 -0.011560 0.000000 0.000000 0.000320
# 3 -0.011560 -0.011560 0.063921 0.000000 0.000000 0.000000
# 4 0.000000 0.000000 0.000000 0.052569 0.000000 0.000000
# 5 0.000000 0.000000 0.000000 0.000000 0.052569 0.000000
# 6 -0.000320 0.000320 0.000000 0.000000 0.000000 0.027733
#
#
# Mechanical properties :
#
#
# Convention : Reuss Voigt Hill
#
# Bulk Modulus (GPa) = 27.47172 61.57050 44.52111
# Shear Modulus (GPa) = 18.15225 28.35935 23.25580
#
# Velocity S-wave (km/s) = 3.09999 3.87475 3.50882
# Velocity P-wave (km/s) = 5.23039 7.25356 6.32341
#
# Compressibility (1/GPa) = 0.03640107
#
# Stress axis : x y z
#
# Youngs Moduli (GPa) = 102.55752 102.55752 15.64431
#
# Poissons Ratio (x) = 0.04004 0.18085
# Poissons Ratio (y) = 0.04004 0.18085
# Poissons Ratio (z) = 1.18557 1.18557
#
# Static dielectric constant tensor:
#      x y z
#    x 1.665880 0.000000 0.000000 
#    y 0.000000 1.665880 0.000000 
#    z 0.000000 0.000000 1.667730 
# 
# From -- ./inp_files/1632.got.cif
#   From: 2010.05.17/outbox.ucp.g08.bks.cvg/sg81_cif.got.tgz:1632.got - 2010.06.11 10:34:33.
