data_PCOD9542379
_publ_section_title
;
Structure prediction by ZEFSAII (Michael W. Deem and Ramdas Pophale) SiO2 
 PCOD9542379
Probable space group: P -4
;
_chemical_formula_sum "Si O2"
_cell_formula_units_Z 22
_cell_length_a 9.605867
_cell_length_b 9.605867
_cell_length_c 12.113743
_cell_angle_alpha 90.000000
_cell_angle_beta 90.000000
_cell_angle_gamma 90.000000
_cell_volume 1117.767541
_symmetry_space_group_name_H-M "P -4"
_symmetry_group_IT_number 81
_symmetry_cell_setting 'tetragonal'
loop_
_space_group_symop_operation_xyz
x,y,z
y,-x,-z
-x,-y,z
-y,x,-z
loop_
_atom_site_type_symbol
_atom_site_label
_atom_site_fract_x
_atom_site_fract_y
_atom_site_fract_z
Si Si1 0.161253 0.499758 0.230620
Si Si2 0.817072 0.740793 0.794430
Si Si3 0.723302 0.562302 0.996520
Si Si4 0.231006 0.836203 0.636305
Si Si5 0.000000 0.000000 0.781352
Si Si6 0.342532 0.985358 0.423660
O O1 0.217012 0.657901 0.237820
O O2 0.214276 0.373929 0.307107
O O3 0.000000 0.500000 0.257644
O O4 0.183482 0.452244 0.104570
O O5 0.800553 0.629066 0.892356
O O6 0.891904 0.682125 0.685254
O O7 0.913331 0.871578 0.835451
O O8 0.659760 0.409426 0.974014
O O9 0.259403 0.923339 0.526189
O O10 0.139431 0.705699 0.604263
O O11 0.125391 0.927839 0.711783
O O12 0.500000 0.000000 0.457320
#
# Coordination Sequence:
#
# PCOD9542379 Si02
#       6
#     4   4   4   4   2   4
#     4  11  22  41  67  92 125 169 211 263 318 382
#     4  10  22  42  64  94 127 164 220 259 326 383
#     4   9  21  42  66  89 124 168 207 260 324 377
#     4  11  23  40  66  91 131 166 214 256 327 379
#     4  10  20  41  63  94 126 170 205 269 312 390
#     4  11  25  40  66  96 127 172 210 271 318 384
#
# _framework density 19.682091
#
# number of rings (size 3 to 8) (size 9 to 14) (size 15 to 20)
#    0.000    1.636    1.818    2.727    5.091    1.455 
#    9.818    0.909    0.000    0.000    0.000    0.000 
#    0.000    0.000    0.000    0.000    0.000    0.000 
#
# Total GULP energy -122717.090522 kJ/mol
# GULP energy per Si atom -5578.049569 kJ/mol
# Density = 1.963729 g / cm^3
# Si number density = 19.682091 Si / 1000 Ang^3
#
#
#
# Elastic Constant Matrix: (Units=GPa)
#
#
# Indices 1 2 3 4 5 6 
#
# 1 71.4038 43.8281 33.7429 0.0000 0.0000 -0.9864
# 2 43.8281 71.4038 33.7429 0.0000 0.0000 0.9864
# 3 33.7429 33.7429 64.6207 0.0000 0.0000 0.0000
# 4 0.0000 0.0000 0.0000 29.8574 0.0000 0.0000
# 5 0.0000 0.0000 0.0000 0.0000 29.8574 0.0000
# 6 -0.9864 0.9864 0.0000 0.0000 0.0000 17.4201
#
#
#
# Elastic Compliance Matrix: (Units=1/GPa)
#
#
# Indices 1 2 3 4 5 6 
#
# 1 0.024456 -0.011955 -0.006528 0.000000 0.000000 0.002062
# 2 -0.011955 0.024456 -0.006528 0.000000 0.000000 -0.002062
# 3 -0.006528 -0.006528 0.022292 0.000000 0.000000 0.000000
# 4 0.000000 0.000000 0.000000 0.033493 0.000000 0.000000
# 5 0.000000 0.000000 0.000000 0.000000 0.033493 0.000000
# 6 0.002062 -0.002062 0.000000 0.000000 0.000000 0.057639
#
#
# Mechanical properties :
#
#
# Convention : Reuss Voigt Hill
#
# Bulk Modulus (GPa) = 47.20656 47.78400 47.49528
# Shear Modulus (GPa) = 19.76985 21.83460 20.80223
#
# Velocity S-wave (km/s) = 3.17276 3.33433 3.25454
# Velocity P-wave (km/s) = 6.12033 6.25734 6.18921
#
# Compressibility (1/GPa) = 0.02118350
#
# Stress axis : x y z
#
# Youngs Moduli (GPa) = 40.88930 40.88930 44.85915
#
# Poissons Ratio (x) = 0.48884 0.29283
# Poissons Ratio (y) = 0.48884 0.29283
# Poissons Ratio (z) = 0.26691 0.26691
#
# Static dielectric constant tensor:
#      x y z
#    x 1.705830 0.000000 0.000000 
#    y 0.000000 1.705830 0.000000 
#    z 0.000000 0.000000 1.676650 
# 
# From -- ./inp_files/1628.got.cif
#   From: 2010.05.17/outbox.cif.g08.bks.cpg/sg81_cif.got.tgz:1628.got - 2010.06.03 18:51:07.
