data_PCOD9542861
_publ_section_title
;
Structure prediction by ZEFSAII (Michael W. Deem and Ramdas Pophale) SiO2 
 PCOD9542861
Probable space group: I -4 
;
_chemical_formula_sum "Si O2"
_cell_formula_units_Z 48
_cell_length_a 7.789435
_cell_length_b 7.789435
_cell_length_c 38.294154
_cell_angle_alpha 90.000000
_cell_angle_beta 90.000000
_cell_angle_gamma 90.000000
_cell_volume 2323.509191
_symmetry_space_group_name_H-M "I -4 "
_symmetry_group_IT_number 82
_symmetry_cell_setting 'tetragonal'
loop_
_space_group_symop_operation_xyz
x,y,z
y,-x,-z
-x,-y,z
-y,x,-z
1/2+x,1/2+y,1/2+z
1/2+y,1/2-x,1/2-z
1/2-x,1/2-y,1/2+z
1/2-y,1/2+x,1/2-z
loop_
_atom_site_type_symbol
_atom_site_label
_atom_site_fract_x
_atom_site_fract_y
_atom_site_fract_z
Si Si1 0.808392 0.970215 0.867249
Si Si2 0.166664 0.769263 0.319558
Si Si3 0.221113 0.679504 0.745309
Si Si4 0.204996 0.200810 0.498926
Si Si5 0.705132 0.001423 0.945653
Si Si6 0.272237 0.349607 0.829406
O O1 0.787209 0.013761 0.907791
O O2 0.774942 0.767652 0.862103
O O3 0.702578 0.104797 0.843502
O O4 0.000000 0.000000 0.855281
O O5 0.185911 0.733223 0.278064
O O6 0.974684 0.827583 0.326179
O O7 0.274427 0.946670 0.328272
O O8 0.235846 0.476922 0.751548
O O9 0.254195 0.704963 0.704609
O O10 0.246486 0.326759 0.466741
O O11 0.335292 0.246291 0.530039
O O12 0.003316 0.227090 0.508388
O O13 0.500000 0.000000 0.940224
#
# Coordination Sequence:
#
# PCOD9542861 Si02
#       6
#     8   8   8   8   8   8
#     4  12  26  40  60  92 128 168 208 262 320 379
#     4  10  22  40  61  86 121 164 211 262 317 379
#     4   9  18  34  57  84 116 156 203 261 316 372
#     4   9  20  39  64  94 126 163 206 253 312 376
#     4  10  22  40  64  92 124 160 204 259 307 378
#     4  10  22  40  61  86 121 164 211 262 317 379
#
# _framework density 20.658408000000001
#
# number of rings (size 3 to 8) (size 9 to 14) (size 15 to 20)
#    0.000    2.000    0.000    2.500    4.667    3.333 
#    0.000    3.333    0.000    0.000    0.000    0.000 
#    0.000    0.000    0.000    0.000    0.000    0.000 
#
# Total GULP energy -133819.293604 kJ/mol
# GULP energy per Si atom -5575.803900 kJ/mol
# Density = 2.061139 g / cm^3
# Si number density = 20.658408 Si / 1000 Ang^3
#
#
#
# Elastic Constant Matrix: (Units=GPa)
#
#
# Indices 1 2 3 4 5 6 
#
# 1 39.4633 -0.9049 18.8328 0.0000 0.0000 3.8876
# 2 -0.9049 39.4633 18.8328 0.0000 0.0000 -3.8876
# 3 18.8328 18.8328 68.0654 0.0000 0.0000 0.0000
# 4 0.0000 0.0000 0.0000 35.9960 0.0000 0.0000
# 5 0.0000 0.0000 0.0000 0.0000 35.9960 0.0000
# 6 3.8876 -3.8876 0.0000 0.0000 0.0000 20.1841
#
#
#
# Elastic Compliance Matrix: (Units=1/GPa)
#
#
# Indices 1 2 3 4 5 6 
#
# 1 0.030633 0.004907 -0.009834 0.000000 0.000000 -0.004955
# 2 0.004907 0.030633 -0.009834 0.000000 0.000000 0.004955
# 3 -0.009834 -0.009834 0.020133 0.000000 0.000000 0.000000
# 4 0.000000 0.000000 0.000000 0.027781 0.000000 0.000000
# 5 0.000000 0.000000 0.000000 0.000000 0.027781 0.000000
# 6 -0.004955 0.004955 0.000000 0.000000 0.000000 0.051453
#
#
# Mechanical properties :
#
#
# Convention : Reuss Voigt Hill
#
# Bulk Modulus (GPa) = 19.27520 24.50148 21.88834
# Shear Modulus (GPa) = 21.25596 25.78399 23.51998
#
# Velocity S-wave (km/s) = 3.21117 3.53669 3.37785
# Velocity P-wave (km/s) = 4.80619 5.34450 5.08248
#
# Compressibility (1/GPa) = 0.05188012
#
# Stress axis : x y z
#
# Youngs Moduli (GPa) = 32.64406 32.64405 49.66872
#
# Poissons Ratio (x) = -0.16019 0.48842
# Poissons Ratio (y) = -0.16019 0.48842
# Poissons Ratio (z) = 0.32101 0.32101
#
# Static dielectric constant tensor:
#      x y z
#    x 1.761400 0.000000 0.000000 
#    y 0.000000 1.761400 0.000000 
#    z 0.000000 0.000000 1.733310 
# 
# From -- ./inp_files/4047.got.cif
#   From: 2010.05.17/outbox.cif.g08.bks.cpg/sg82_3_cif.got.tgz:4047.got - 2010.06.03 18:52:26.
