data_PCOD9542338
_publ_section_title
;
Structure prediction by ZEFSAII (Michael W. Deem and Ramdas Pophale) SiO2 
 PCOD9542338
Probable space group: P -4
;
_chemical_formula_sum "Si O2"
_cell_formula_units_Z 24
_cell_length_a 11.535157
_cell_length_b 11.535157
_cell_length_c 8.786209
_cell_angle_alpha 90.000000
_cell_angle_beta 90.000000
_cell_angle_gamma 90.000000
_cell_volume 1169.091625
_symmetry_space_group_name_H-M "P -4"
_symmetry_group_IT_number 81
_symmetry_cell_setting 'tetragonal'
loop_
_space_group_symop_operation_xyz
x,y,z
y,-x,-z
-x,-y,z
-y,x,-z
loop_
_atom_site_type_symbol
_atom_site_label
_atom_site_fract_x
_atom_site_fract_y
_atom_site_fract_z
Si Si1 0.447034 0.121547 0.896669
Si Si2 0.979742 0.633753 0.689181
Si Si3 0.563397 0.181079 0.578190
Si Si4 0.328082 0.220745 0.434367
Si Si5 0.752658 0.248613 0.226098
Si Si6 0.659119 0.537518 0.938538
O O1 0.497594 0.141365 0.727678
O O2 0.309253 0.150154 0.880991
O O3 0.500000 0.000000 0.941412
O O4 0.501614 0.215285 0.007909
O O5 0.923340 0.619297 0.519553
O O6 0.884679 0.708841 0.781800
O O7 0.000000 0.500000 0.737600
O O8 0.106864 0.688201 0.668155
O O9 0.465392 0.233185 0.466021
O O10 0.662943 0.269896 0.624063
O O11 0.270053 0.206974 0.601307
O O12 0.636757 0.325491 0.187521
O O13 0.592995 0.415457 0.921297
#
# Coordination Sequence:
#
# PCOD9542338 Si02
#       6
#     4   4   4   4   4   4
#     4  10  19  33  53  73 102 142 179 222 278 338
#     4   9  17  30  49  74 105 136 172 218 270 332
#     4   9  17  29  46  70  99 132 171 214 269 332
#     4   9  17  29  48  73 102 133 164 213 274 329
#     4   9  18  33  53  77 104 137 180 226 270 331
#     4   9  19  34  51  76 107 138 178 231 287 341
#
# _framework density 20.528760999999999
#
# number of rings (size 3 to 8) (size 9 to 14) (size 15 to 20)
#    0.000    2.833    0.000    2.500    0.000    5.000 
#    0.000    8.333    0.000   17.000    0.000    0.000 
#    0.000    0.000    0.000    0.000    0.000    0.000 
#
# Total GULP energy -133621.454095 kJ/mol
# GULP energy per Si atom -5567.560587 kJ/mol
# Density = 2.048204 g / cm^3
# Si number density = 20.528761 Si / 1000 Ang^3
#
#
#
# Elastic Constant Matrix: (Units=GPa)
#
#
# Indices 1 2 3 4 5 6 
#
# 1 121.0870 67.2840 9.2756 0.0000 0.0000 2.7504
# 2 67.2840 121.0870 9.2756 0.0000 0.0000 -2.7504
# 3 9.2756 9.2756 36.1787 0.0000 0.0000 0.0000
# 4 0.0000 0.0000 0.0000 13.2040 0.0000 0.0000
# 5 0.0000 0.0000 0.0000 0.0000 13.2040 0.0000
# 6 2.7504 -2.7504 0.0000 0.0000 0.0000 33.4512
#
#
#
# Elastic Compliance Matrix: (Units=1/GPa)
#
#
# Indices 1 2 3 4 5 6 
#
# 1 0.012095 -0.006649 -0.001396 0.000000 0.000000 -0.001541
# 2 -0.006649 0.012095 -0.001396 0.000000 0.000000 0.001541
# 3 -0.001396 -0.001396 0.028357 0.000000 0.000000 0.000000
# 4 0.000000 0.000000 0.000000 0.075734 0.000000 0.000000
# 5 0.000000 0.000000 0.000000 0.000000 0.075734 0.000000
# 6 -0.001541 0.001541 0.000000 0.000000 0.000000 0.030148
#
#
# Mechanical properties :
#
#
# Convention : Reuss Voigt Hill
#
# Bulk Modulus (GPa) = 29.70563 50.00258 39.85411
# Shear Modulus (GPa) = 18.92025 24.80636 21.86330
#
# Velocity S-wave (km/s) = 3.03916 3.47993 3.26699
# Velocity P-wave (km/s) = 5.17851 6.36842 5.80404
#
# Compressibility (1/GPa) = 0.03366365
#
# Stress axis : x y z
#
# Youngs Moduli (GPa) = 82.67855 82.67855 35.26526
#
# Poissons Ratio (x) = 0.54972 0.04924
# Poissons Ratio (y) = 0.54972 0.04924
# Poissons Ratio (z) = 0.11544 0.11544
#
# Static dielectric constant tensor:
#      x y z
#    x 1.788580 0.000000 0.000000 
#    y 0.000000 1.788580 0.000000 
#    z 0.000000 0.000000 1.772690 
# 
# From -- ./inp_files/826.got.cif
#   From: 2010.05.17/outbox.cif.g08.bks.cpg/sg81_cif.got.tgz:826.got - 2010.06.03 18:51:07.
