data_PCOD9542699
_publ_section_title
;
Structure prediction by ZEFSAII (Michael W. Deem and Ramdas Pophale) SiO2 
 PCOD9542699
Probable space group: I -4 
;
_chemical_formula_sum "Si O2"
_cell_formula_units_Z 40
_cell_length_a 16.323269
_cell_length_b 16.323269
_cell_length_c 5.522880
_cell_angle_alpha 90.000000
_cell_angle_beta 90.000000
_cell_angle_gamma 90.000000
_cell_volume 1471.566465
_symmetry_space_group_name_H-M "I -4 "
_symmetry_group_IT_number 82
_symmetry_cell_setting 'tetragonal'
loop_
_space_group_symop_operation_xyz
x,y,z
y,-x,-z
-x,-y,z
-y,x,-z
1/2+x,1/2+y,1/2+z
1/2+y,1/2-x,1/2-z
1/2-x,1/2-y,1/2+z
1/2-y,1/2+x,1/2-z
loop_
_atom_site_type_symbol
_atom_site_label
_atom_site_fract_x
_atom_site_fract_y
_atom_site_fract_z
Si Si1 0.874243 0.630635 0.440843
Si Si2 0.319976 0.053173 0.439985
Si Si3 0.150802 0.855585 0.589444
Si Si4 0.993694 0.109409 0.131333
Si Si5 0.161259 0.804963 0.087234
O O1 0.957417 0.679453 0.493158
O O2 0.861961 0.572336 0.679377
O O3 0.789213 0.680672 0.432594
O O4 0.870408 0.591260 0.169932
O O5 0.228077 0.093855 0.419850
O O6 0.110883 0.944981 0.644312
O O7 0.189535 0.849019 0.327820
O O8 0.194000 0.848384 0.849320
O O9 0.939129 0.189400 0.093957
O O10 0.919546 0.043986 0.105031
#
# Coordination Sequence:
#
# PCOD9542699 Si02
#       5
#     8   8   8   8   8
#     4  10  20  34  54  83 119 158 203 251 308 373
#     4  10  20  34  54  83 119 158 200 251 307 373
#     4   9  19  34  51  79 116 152 190 237 301 366
#     4   9  18  32  54  84 115 146 193 251 304 362
#     4   9  19  34  51  79 117 154 192 238 302 365
#
# _framework density 27.181915
#
# number of rings (size 3 to 8) (size 9 to 14) (size 15 to 20)
#    0.000    2.600    0.000    1.200    0.000   10.400 
#    0.000    2.000    0.000    0.000    0.000  235.200 
#    0.000    0.000    0.000    0.000    0.000    0.000 
#
# Total GULP energy -111461.306504 kJ/mol
# GULP energy per Si atom -5573.065325 kJ/mol
# Density = 2.712005 g / cm^3
# Si number density = 27.181915 Si / 1000 Ang^3
#
#
#
# Elastic Constant Matrix: (Units=GPa)
#
#
# Indices 1 2 3 4 5 6 
#
# 1 105.9223 33.4897 64.2786 0.0000 0.0000 -7.6974
# 2 33.4897 105.9223 64.2786 0.0000 0.0000 7.6974
# 3 64.2786 64.2786 290.8916 0.0000 0.0000 0.0000
# 4 0.0000 0.0000 0.0000 46.7387 0.0000 0.0000
# 5 0.0000 0.0000 0.0000 0.0000 46.7387 0.0000
# 6 -7.6974 7.6974 0.0000 0.0000 0.0000 38.1845
#
#
#
# Elastic Compliance Matrix: (Units=1/GPa)
#
#
# Indices 1 2 3 4 5 6 
#
# 1 0.011716 -0.002708 -0.001991 0.000000 0.000000 0.002908
# 2 -0.002708 0.011716 -0.001991 0.000000 0.000000 -0.002908
# 3 -0.001991 -0.001991 0.004317 0.000000 0.000000 0.000000
# 4 0.000000 0.000000 0.000000 0.021396 0.000000 0.000000
# 5 0.000000 0.000000 0.000000 0.000000 0.021396 0.000000
# 6 0.002908 -0.002908 0.000000 0.000000 0.000000 0.027361
#
#
# Mechanical properties :
#
#
# Convention : Reuss Voigt Hill
#
# Bulk Modulus (GPa) = 69.57906 91.86999 80.72453
# Shear Modulus (GPa) = 43.07724 49.04502 46.06113
#
# Velocity S-wave (km/s) = 3.98524 4.25234 4.12096
# Velocity P-wave (km/s) = 6.84320 7.61456 7.23916
#
# Compressibility (1/GPa) = 0.01437214
#
# Stress axis : x y z
#
# Youngs Moduli (GPa) = 85.35134 85.35134 231.61783
#
# Poissons Ratio (x) = 0.23110 0.46107
# Poissons Ratio (y) = 0.23110 0.46107
# Poissons Ratio (z) = 0.16990 0.16990
#
# Static dielectric constant tensor:
#      x y z
#    x 2.288070 0.000000 0.000000 
#    y 0.000000 2.288070 0.000000 
#    z 0.000000 0.000000 2.144720 
# 
# From -- ./inp_files/282.got.cif
#   From: 2010.05.17/outbox.cif.g08.bks.cpg/sg82_1_cif.got.tgz:282.got - 2010.06.03 18:52:26.
