data_PCOD9542982
_publ_section_title
;
Structure prediction by ZEFSAII (Michael W. Deem and Ramdas Pophale) SiO2 
 PCOD9542982
Probable space group: I -4 
;
_chemical_formula_sum "Si O2"
_cell_formula_units_Z 20
_cell_length_a 4.935206
_cell_length_b 4.935206
_cell_length_c 32.947048
_cell_angle_alpha 90.000000
_cell_angle_beta 90.000000
_cell_angle_gamma 90.000000
_cell_volume 802.466810
_symmetry_space_group_name_H-M "I -4 "
_symmetry_group_IT_number 82
_symmetry_cell_setting 'tetragonal'
loop_
_space_group_symop_operation_xyz
x,y,z
y,-x,-z
-x,-y,z
-y,x,-z
1/2+x,1/2+y,1/2+z
1/2+y,1/2-x,1/2-z
1/2-x,1/2-y,1/2+z
1/2-y,1/2+x,1/2-z
loop_
_atom_site_type_symbol
_atom_site_label
_atom_site_fract_x
_atom_site_fract_y
_atom_site_fract_z
Si Si1 0.196489 0.749708 0.070665
Si Si2 0.500000 0.000000 0.141230
Si Si3 0.000000 0.000000 0.500000
Si Si4 0.500000 0.500000 0.303309
Si Si5 0.000000 0.500000 0.750000
O O1 0.376388 0.782064 0.110666
O O2 0.373682 0.715525 0.030569
O O3 0.000000 0.500000 0.074386
O O4 0.000000 0.000000 0.066989
O O5 0.761961 0.884244 0.166385
O O6 0.377279 0.266372 0.273267
#
# Coordination Sequence:
#
# PCOD9542982 Si02
#       5
#     8   4   2   4   2
#     4  12  29  52  79 117 160 220 276 348 403 476
#     4  11  24  55  82 120 160 216 272 332 408 473
#     4  12  32  44  78 112 168 216 292 336 414 460
#     4  10  24  52  85 117 168 204 262 333 395 508
#     4  10  24  52  76 128 152 216 252 320 416 484
#
# _framework density 24.923151000000001
#
# number of rings (size 3 to 8) (size 9 to 14) (size 15 to 20)
#    0.000    0.800    2.000    2.400    8.400    0.800 
#   14.400    0.000    0.000    0.000    0.000    0.000 
#    0.000    0.000    0.000    0.000    0.000    0.000 
#
# Total GULP energy -55711.559745 kJ/mol
# GULP energy per Si atom -5571.155974 kJ/mol
# Density = 2.486642 g / cm^3
# Si number density = 24.923151 Si / 1000 Ang^3
#
#
#
# Elastic Constant Matrix: (Units=GPa)
#
#
# Indices 1 2 3 4 5 6 
#
# 1 182.1219 54.8187 53.0524 0.0000 0.0000 -0.1741
# 2 54.8187 182.1219 53.0524 0.0000 0.0000 0.1741
# 3 53.0524 53.0524 129.7344 0.0000 0.0000 0.0000
# 4 0.0000 0.0000 0.0000 -15.5851 0.0000 0.0000
# 5 0.0000 0.0000 0.0000 0.0000 -15.5851 0.0000
# 6 -0.1741 0.1741 0.0000 0.0000 0.0000 49.2130
#
#
#
# Elastic Compliance Matrix: (Units=1/GPa)
#
#
# Indices 1 2 3 4 5 6 
#
# 1 0.006511 -0.001344 -0.002113 0.000000 0.000000 0.000028
# 2 -0.001344 0.006511 -0.002113 0.000000 0.000000 -0.000028
# 3 -0.002113 -0.002113 0.009436 0.000000 0.000000 0.000000
# 4 0.000000 0.000000 0.000000 -0.064164 0.000000 0.000000
# 5 0.000000 0.000000 0.000000 0.000000 -0.064164 0.000000
# 6 0.000028 -0.000028 0.000000 0.000000 0.000000 0.020320
#
#
# Mechanical properties :
#
#
# Convention : Reuss Voigt Hill
#
# Bulk Modulus (GPa) = 88.35417 90.64727 89.50072
# Shear Modulus (GPa) = -70.78461 25.81219 -22.48621
#
# Velocity S-wave (km/s) = -5.33505 3.22168 -3.00696
# Velocity P-wave (km/s) = 1.55654 7.09145 4.89213
#
# Compressibility (1/GPa) = 0.01131808
#
# Stress axis : x y z
#
# Youngs Moduli (GPa) = 153.58701 153.58701 105.97686
#
# Poissons Ratio (x) = 0.20648 0.22391
# Poissons Ratio (y) = 0.20648 0.22391
# Poissons Ratio (z) = 0.32450 0.32450
#
# Static dielectric constant tensor:
#      x y z
#    x 1.950200 0.000000 0.000000 
#    y 0.000000 1.950200 0.000000 
#    z 0.000000 0.000000 2.096230 
# 
# From -- ./inp_files/3854.got.cif
#   From: 2010.05.17/outbox.cif.g08.bks.cpg/sg82_2_cif.got.tgz:3854.got - 2010.06.03 18:52:26.
