data_PCOD9542141
_publ_section_title
;
Structure prediction by ZEFSAII (Michael W. Deem and Ramdas Pophale) SiO2 
 PCOD9542141
Probable space group: I 41
;
_chemical_formula_sum "Si O2"
_cell_formula_units_Z 52
_cell_length_a 18.386727
_cell_length_b 18.386727
_cell_length_c 6.370266
_cell_angle_alpha 90.000000
_cell_angle_beta 90.000000
_cell_angle_gamma 90.000000
_cell_volume 2153.606846
_symmetry_space_group_name_H-M "I 41"
_symmetry_group_IT_number 80
_symmetry_cell_setting 'tetragonal'
loop_
_space_group_symop_operation_xyz
x,y,z
-y,1/2+x,1/4+z
-x,-y,z
y,1/2-x,1/4+z
1/2+x,1/2+y,1/2+z
1/2-y,x,3/4+z
1/2-x,1/2-y,1/2+z
1/2+y,-x,3/4+z
loop_
_atom_site_type_symbol
_atom_site_label
_atom_site_fract_x
_atom_site_fract_y
_atom_site_fract_z
Si Si1 0.839199 0.690412 0.903300
Si Si2 0.500000 0.000000 0.370454
Si Si3 0.900769 0.345775 0.412871
Si Si4 0.805648 0.421856 0.694035
Si Si5 0.045649 0.379403 0.193071
Si Si6 0.648429 0.287887 0.345972
Si Si7 0.561778 0.629170 0.831413
O O1 0.828810 0.769031 0.796833
O O2 0.848371 0.633092 0.711523
O O3 0.909078 0.678221 0.054785
O O4 0.497228 0.068115 0.531027
O O5 0.433990 0.021023 0.216201
O O6 0.878213 0.378072 0.635410
O O7 0.877271 0.263458 0.363139
O O8 0.983693 0.353066 0.353287
O O9 0.845553 0.384867 0.258381
O O10 0.782548 0.419393 0.935615
O O11 0.808710 0.501322 0.597652
O O12 0.101846 0.421167 0.347618
O O13 0.678743 0.215033 0.455639
#
# Coordination Sequence:
#
# PCOD9542141 Si02
#       7
#     8   4   8   8   8   8   8
#     4  11  30  51  80 110 146 193 250 323 400 474
#     4  10  20  48  68 106 148 192 234 302 378 444
#     4  12  25  41  67 103 141 189 240 295 356 434
#     4  12  25  41  67 103 141 189 240 295 356 434
#     4  11  26  46  76 108 147 192 251 313 387 460
#     4  12  23  42  64  97 144 192 241 290 351 428
#     4  11  26  46  76 108 147 192 251 313 387 460
#
# _framework density 24.14554
#
# number of rings (size 3 to 8) (size 9 to 14) (size 15 to 20)
#    0.000    0.615    3.077    4.154    6.462    3.692 
#    0.000    0.000    0.000    0.000    0.000    0.000 
#    0.000    0.000    0.000    0.000    0.000    0.000 
#
# Total GULP energy -145094.156263 kJ/mol
# GULP energy per Si atom -5580.544472 kJ/mol
# Density = 2.409058 g / cm^3
# Si number density = 24.145540 Si / 1000 Ang^3
#
#
#
# Elastic Constant Matrix: (Units=GPa)
#
#
# Indices 1 2 3 4 5 6 
#
# 1 65.9505 3.6789 -1.8763 0.0000 0.0000 0.8698
# 2 3.6789 65.9505 -1.8763 0.0000 0.0000 -0.8698
# 3 -1.8763 -1.8763 68.1249 0.0000 0.0000 0.0000
# 4 0.0000 0.0000 0.0000 31.3960 0.0000 0.0000
# 5 0.0000 0.0000 0.0000 0.0000 31.3960 0.0000
# 6 0.8698 -0.8698 0.0000 0.0000 0.0000 29.6199
#
#
#
# Elastic Compliance Matrix: (Units=1/GPa)
#
#
# Indices 1 2 3 4 5 6 
#
# 1 0.015227 -0.000844 0.000396 0.000000 0.000000 -0.000472
# 2 -0.000844 0.015227 0.000396 0.000000 0.000000 0.000472
# 3 0.000396 0.000396 0.014701 0.000000 0.000000 0.000000
# 4 0.000000 0.000000 0.000000 0.031851 0.000000 0.000000
# 5 0.000000 0.000000 0.000000 0.000000 0.031851 0.000000
# 6 -0.000472 0.000472 0.000000 0.000000 0.000000 0.033789
#
#
# Mechanical properties :
#
#
# Convention : Reuss Voigt Hill
#
# Bulk Modulus (GPa) = 22.19679 22.20870 22.20275
# Shear Modulus (GPa) = 31.69205 31.82235 31.75720
#
# Velocity S-wave (km/s) = 3.62683 3.63428 3.63056
# Velocity P-wave (km/s) = 5.17218 5.17962 5.17590
#
# Compressibility (1/GPa) = 0.04505155
#
# Stress axis : x y z
#
# Youngs Moduli (GPa) = 65.67073 65.67073 68.02380
#
# Poissons Ratio (x) = 0.05545 -0.02695
# Poissons Ratio (y) = 0.05545 -0.02695
# Poissons Ratio (z) = -0.02602 -0.02602
#
# Static dielectric constant tensor:
#      x y z
#    x 1.966030 0.000000 0.000000 
#    y 0.000000 1.966030 0.000000 
#    z 0.000000 0.000000 2.018310 
# 
# From -- ./inp_files/313.got.cif
#   From: 2010.05.17/outbox.cif.g08.bks.cpg/sg80_cif.got.tgz:313.got - 2010.06.03 18:49:13.
