data_PCOD9542227
_publ_section_title
;
Structure prediction by ZEFSAII (Michael W. Deem and Ramdas Pophale) SiO2 
 PCOD9542227
Probable space group: I 41
;
_chemical_formula_sum "Si O2"
_cell_formula_units_Z 48
_cell_length_a 8.192855
_cell_length_b 8.192855
_cell_length_c 26.933876
_cell_angle_alpha 90.000000
_cell_angle_beta 90.000000
_cell_angle_gamma 90.000000
_cell_volume 1807.879140
_symmetry_space_group_name_H-M "I 41"
_symmetry_group_IT_number 80
_symmetry_cell_setting 'tetragonal'
loop_
_space_group_symop_operation_xyz
x,y,z
-y,1/2+x,1/4+z
-x,-y,z
y,1/2-x,1/4+z
1/2+x,1/2+y,1/2+z
1/2-y,x,3/4+z
1/2-x,1/2-y,1/2+z
1/2+y,-x,3/4+z
loop_
_atom_site_type_symbol
_atom_site_label
_atom_site_fract_x
_atom_site_fract_y
_atom_site_fract_z
Si Si1 0.110967 0.269033 0.403050
Si Si2 0.450904 0.188663 0.015592
Si Si3 0.498925 0.809857 0.798580
Si Si4 0.659784 0.410199 0.391266
Si Si5 0.044597 0.812433 0.681727
Si Si6 0.643347 0.236027 0.287838
O O1 0.031672 0.282303 0.457252
O O2 0.992576 0.256192 0.356026
O O3 0.209630 0.440356 0.394642
O O4 0.211358 0.099261 0.404693
O O5 0.500000 0.000000 0.028434
O O6 0.260290 0.166980 0.027178
O O7 0.542779 0.325993 0.046973
O O8 0.331730 0.767565 0.771123
O O9 0.500000 0.000000 0.797645
O O10 0.500000 0.500000 0.413302
O O11 0.700527 0.234513 0.415451
O O12 0.617112 0.350684 0.334866
O O13 0.034673 0.765305 0.740101
O O14 0.000000 0.000000 0.675662
#
# Coordination Sequence:
#
# PCOD9542227 Si02
#       6
#     8   8   8   8   8   8
#     4  12  26  48  79 113 160 220 282 340 431 510
#     4  10  24  45  72 116 156 203 274 348 413 500
#     4  11  23  43  79 111 152 214 272 334 412 509
#     4  12  25  49  76 109 160 215 272 347 422 507
#     4  12  28  49  75 118 163 215 278 351 428 507
#     4  11  26  47  74 111 158 207 272 342 418 490
#
# _framework density 26.550445
#
# number of rings (size 3 to 8) (size 9 to 14) (size 15 to 20)
#    0.000    0.667    3.333    4.000    4.667    3.333 
#    3.000    0.000    0.000    0.000    0.000    0.000 
#    0.000    0.000    0.000    0.000    0.000    0.000 
#
# Total GULP energy -134233.331639 kJ/mol
# GULP energy per Si atom -5593.055485 kJ/mol
# Density = 2.649002 g / cm^3
# Si number density = 26.550445 Si / 1000 Ang^3
#
#
#
# Elastic Constant Matrix: (Units=GPa)
#
#
# Indices 1 2 3 4 5 6 
#
# 1 155.0847 57.9329 43.2852 0.0000 0.0000 20.5621
# 2 57.9329 155.0847 43.2852 0.0000 0.0000 -20.5621
# 3 43.2852 43.2852 119.4300 0.0000 0.0000 0.0000
# 4 0.0000 0.0000 0.0000 39.8838 0.0000 0.0000
# 5 0.0000 0.0000 0.0000 0.0000 39.8838 0.0000
# 6 20.5621 -20.5621 0.0000 0.0000 0.0000 20.3977
#
#
#
# Elastic Compliance Matrix: (Units=1/GPa)
#
#
# Indices 1 2 3 4 5 6 
#
# 1 0.011730 -0.006225 -0.001995 0.000000 0.000000 -0.018099
# 2 -0.006225 0.011730 -0.001995 0.000000 0.000000 0.018099
# 3 -0.001995 -0.001995 0.009819 0.000000 0.000000 0.000000
# 4 0.000000 0.000000 0.000000 0.025073 0.000000 0.000000
# 5 0.000000 0.000000 0.000000 0.000000 0.025073 0.000000
# 6 -0.018099 0.018099 0.000000 0.000000 0.000000 0.085516
#
#
# Mechanical properties :
#
#
# Convention : Reuss Voigt Hill
#
# Bulk Modulus (GPa) = 77.82780 79.84510 78.83645
# Shear Modulus (GPa) = 25.81921 39.03946 32.42933
#
# Velocity S-wave (km/s) = 3.12181 3.83872 3.49868
# Velocity P-wave (km/s) = 6.50931 7.05592 6.78812
#
# Compressibility (1/GPa) = 0.01284888
#
# Stress axis : x y z
#
# Youngs Moduli (GPa) = 85.25162 85.25162 101.83884
#
# Poissons Ratio (x) = 0.53066 0.20320
# Poissons Ratio (y) = 0.53066 0.20320
# Poissons Ratio (z) = 0.17010 0.17010
#
# Static dielectric constant tensor:
#      x y z
#    x 2.425530 0.000000 0.000000 
#    y 0.000000 2.425530 0.000000 
#    z 0.000000 0.000000 2.072190 
# 
# From -- ./inp_files/2629.got.cif
#   From: 2010.05.17/outbox.cif.g08.bks.cpg/sg80_cif.got.tgz:2629.got - 2010.06.03 18:49:13.
