data_PCOD9542056
_publ_section_title
;
Structure prediction by ZEFSAII (Michael W. Deem and Ramdas Pophale) SiO2 
 PCOD9542056
Probable space group: I 41
;
_chemical_formula_sum "Si O2"
_cell_formula_units_Z 48
_cell_length_a 9.908683
_cell_length_b 9.908683
_cell_length_c 29.407966
_cell_angle_alpha 90.000000
_cell_angle_beta 90.000000
_cell_angle_gamma 90.000000
_cell_volume 2887.332882
_symmetry_space_group_name_H-M "I 41"
_symmetry_group_IT_number 80
_symmetry_cell_setting 'tetragonal'
loop_
_space_group_symop_operation_xyz
x,y,z
-y,1/2+x,1/4+z
-x,-y,z
y,1/2-x,1/4+z
1/2+x,1/2+y,1/2+z
1/2-y,x,3/4+z
1/2-x,1/2-y,1/2+z
1/2+y,-x,3/4+z
loop_
_atom_site_type_symbol
_atom_site_label
_atom_site_fract_x
_atom_site_fract_y
_atom_site_fract_z
Si Si1 0.162462 0.488356 0.000000
Si Si2 0.656748 0.034007 0.841319
Si Si3 0.154014 0.785264 0.997637
Si Si4 0.224997 0.371284 0.195703
Si Si5 0.360893 0.086793 0.597275
Si Si6 0.658861 0.017635 0.945459
O O1 0.182487 0.365674 0.965777
O O2 0.000000 0.500000 0.005449
O O3 0.201658 0.635876 0.983876
O O4 0.210986 0.461146 0.051291
O O5 0.704956 0.133780 0.801840
O O6 0.669878 0.076478 0.893963
O O7 0.500000 0.000000 0.833165
O O8 0.759391 0.908014 0.837841
O O9 0.264826 0.887006 0.980195
O O10 0.005395 0.812521 0.975282
O O11 0.224634 0.418541 0.143245
O O12 0.118005 0.249291 0.197180
O O13 0.500000 0.000000 0.604868
O O14 0.500000 0.000000 0.954676
#
# Coordination Sequence:
#
# PCOD9542056 Si02
#       6
#     8   8   8   8   8   8
#     4   9  18  31  49  83 114 134 174 229 269 313
#     4  10  18  30  52  82 104 133 178 230 269 303
#     4  11  19  33  57  79 107 141 181 224 268 323
#     4  10  18  31  57  80 103 141 178 219 270 320
#     4  10  16  30  48  81 114 133 174 228 270 308
#     4  10  22  35  53  81 111 139 182 224 267 322
#
# _framework density 16.624338999999999
#
# number of rings (size 3 to 8) (size 9 to 14) (size 15 to 20)
#    0.000    2.000    5.000    3.500    0.000    0.000 
#    0.000    0.833    3.667    0.000    0.000    0.000 
#    0.000    0.000    0.000    0.000    0.000    0.000 
#
# Total GULP energy -133619.875052 kJ/mol
# GULP energy per Si atom -5567.494794 kJ/mol
# Density = 1.658650 g / cm^3
# Si number density = 16.624339 Si / 1000 Ang^3
#
#
#
# Elastic Constant Matrix: (Units=GPa)
#
#
# Indices 1 2 3 4 5 6 
#
# 1 76.3031 29.7369 42.1789 0.0000 0.0000 1.2672
# 2 29.7369 76.3031 42.1789 0.0000 0.0000 -1.2672
# 3 42.1789 42.1789 102.2052 0.0000 0.0000 0.0000
# 4 0.0000 0.0000 0.0000 16.9733 0.0000 0.0000
# 5 0.0000 0.0000 0.0000 0.0000 16.9733 0.0000
# 6 1.2672 -1.2672 0.0000 0.0000 0.0000 7.7041
#
#
#
# Elastic Compliance Matrix: (Units=1/GPa)
#
#
# Indices 1 2 3 4 5 6 
#
# 1 0.017854 -0.003815 -0.005794 0.000000 0.000000 -0.003564
# 2 -0.003815 0.017854 -0.005794 0.000000 0.000000 0.003564
# 3 -0.005794 -0.005794 0.014566 0.000000 0.000000 0.000000
# 4 0.000000 0.000000 0.000000 0.058916 0.000000 0.000000
# 5 0.000000 0.000000 0.000000 0.000000 0.058916 0.000000
# 6 -0.003564 0.003564 0.000000 0.000000 0.000000 0.130973
#
#
# Mechanical properties :
#
#
# Convention : Reuss Voigt Hill
#
# Bulk Modulus (GPa) = 51.36153 53.66673 52.51413
# Shear Modulus (GPa) = 14.86433 17.71125 16.28779
#
# Velocity S-wave (km/s) = 2.99345 3.26756 3.13350
# Velocity P-wave (km/s) = 6.55058 6.82554 6.68947
#
# Compressibility (1/GPa) = 0.01946983
#
# Stress axis : x y z
#
# Youngs Moduli (GPa) = 56.00904 56.00904 68.65079
#
# Poissons Ratio (x) = 0.21365 0.39776
# Poissons Ratio (y) = 0.21365 0.39776
# Poissons Ratio (z) = 0.32452 0.32452
#
# Static dielectric constant tensor:
#      x y z
#    x 1.565840 0.000000 0.000000 
#    y 0.000000 1.565840 0.000000 
#    z 0.000000 0.000000 1.592950 
# 
# From -- ./inp_files/2604.got.cif
#   From: 2010.05.17/outbox.cif.g08.bks.cpg/sg80_cif.got.tgz:2604.got - 2010.06.03 18:49:13.
