data_PCOD9542039
_publ_section_title
;
Structure prediction by ZEFSAII (Michael W. Deem and Ramdas Pophale) SiO2 
 PCOD9542039
Probable space group: I 4
;
_chemical_formula_sum "Si O2"
_cell_formula_units_Z 40
_cell_length_a 18.854363
_cell_length_b 18.854363
_cell_length_c 4.954546
_cell_angle_alpha 90.000000
_cell_angle_beta 90.000000
_cell_angle_gamma 90.000000
_cell_volume 1761.276714
_symmetry_space_group_name_H-M "I 4"
_symmetry_group_IT_number 79
_symmetry_cell_setting 'tetragonal'
loop_
_space_group_symop_operation_xyz
x,y,z
-y,x,z
-x,-y,z
y,-x,z
1/2+x,1/2+y,1/2+z
1/2-y,1/2+x,1/2+z
1/2-x,1/2-y,1/2+z
1/2+y,1/2-x,1/2+z
loop_
_atom_site_type_symbol
_atom_site_label
_atom_site_fract_x
_atom_site_fract_y
_atom_site_fract_z
Si Si1 0.842478 0.428232 0.181100
Si Si2 0.761422 0.202005 0.757076
Si Si3 0.688645 0.581106 0.438455
Si Si4 0.386939 0.471127 0.950003
Si Si5 0.974895 0.332697 0.177132
O O1 0.786174 0.363964 0.161645
O O2 0.920911 0.397228 0.139719
O O3 0.838350 0.458058 0.481726
O O4 0.828746 0.492213 0.974442
O O5 0.775028 0.252136 0.496752
O O6 0.835668 0.177233 0.886999
O O7 0.634497 0.543637 0.643083
O O8 0.764160 0.568071 0.575279
O O9 0.677271 0.544993 0.149758
O O10 0.450983 0.416638 0.003911
#
# Coordination Sequence:
#
# PCOD9542039 Si02
#       5
#     8   8   8   8   8
#     4  12  28  49  77 107 147 193 241 311 362 443
#     4  12  26  48  75 106 149 185 238 301 376 423
#     4  12  26  45  74 105 142 188 244 301 358 442
#     4  11  26  46  67 102 147 191 238 289 364 443
#     4  12  28  49  73 110 145 191 256 298 371 434
#
# _framework density 22.710799000000002
#
# number of rings (size 3 to 8) (size 9 to 14) (size 15 to 20)
#    0.000    0.200    2.000    6.000   11.200    4.000 
#    0.000    0.000    0.000    0.000    0.000    0.000 
#    0.000    0.000    0.000    0.000    0.000    0.000 
#
# Total GULP energy -112014.178478 kJ/mol
# GULP energy per Si atom -5600.708924 kJ/mol
# Density = 2.265911 g / cm^3
# Si number density = 22.710799 Si / 1000 Ang^3
#
#
#
# Elastic Constant Matrix: (Units=GPa)
#
#
# Indices 1 2 3 4 5 6 
#
# 1 52.9152 45.9202 8.1976 0.0000 0.0000 30.7468
# 2 45.9202 52.9152 8.1976 0.0000 0.0000 -30.7468
# 3 8.1976 8.1976 93.8061 0.0000 0.0000 0.0000
# 4 0.0000 0.0000 0.0000 40.7239 0.0000 0.0000
# 5 0.0000 0.0000 0.0000 0.0000 40.7239 0.0000
# 6 30.7468 -30.7468 0.0000 0.0000 0.0000 -42.9559
#
#
#
# Elastic Compliance Matrix: (Units=1/GPa)
#
#
# Indices 1 2 3 4 5 6 
#
# 1 0.014935 -0.004669 -0.000897 0.000000 0.000000 0.014032
# 2 -0.004669 0.014935 -0.000897 0.000000 0.000000 -0.014032
# 3 -0.000897 -0.000897 0.010817 0.000000 0.000000 0.000000
# 4 0.000000 0.000000 0.000000 0.024556 0.000000 0.000000
# 5 0.000000 0.000000 0.000000 0.000000 0.024556 0.000000
# 6 0.014032 -0.014032 0.000000 0.000000 0.000000 -0.003192
#
#
# Mechanical properties :
#
#
# Convention : Reuss Voigt Hill
#
# Bulk Modulus (GPa) = 36.02093 36.02972 36.02533
# Shear Modulus (GPa) = 45.96182 16.85314 31.40748
#
# Velocity S-wave (km/s) = 4.50353 2.72706 3.72281
# Velocity P-wave (km/s) = 6.55267 5.08083 5.86312
#
# Compressibility (1/GPa) = 0.02776164
#
# Stress axis : x y z
#
# Youngs Moduli (GPa) = 66.95606 66.95606 92.44625
#
# Poissons Ratio (x) = 0.31258 0.08294
# Poissons Ratio (y) = 0.31258 0.08294
# Poissons Ratio (z) = 0.06007 0.06007
#
# Static dielectric constant tensor:
#      x y z
#    x 1.843070 0.000000 0.000000 
#    y 0.000000 1.843070 0.000000 
#    z 0.000000 0.000000 1.766790 
# 
# From -- ./inp_files/136.got.cif
#   From: 2010.05.17/outbox.cif.g08.bks.cpg/sg79_cif.got.tgz:136.got - 2010.06.03 18:47:27.
