data_PCOD9542135
_publ_section_title
;
Structure prediction by ZEFSAII (Michael W. Deem and Ramdas Pophale) SiO2 
 PCOD9542135
Probable space group: I 41
;
_chemical_formula_sum "Si O2"
_cell_formula_units_Z 56
_cell_length_a 14.571548
_cell_length_b 14.571548
_cell_length_c 12.841246
_cell_angle_alpha 90.000000
_cell_angle_beta 90.000000
_cell_angle_gamma 90.000000
_cell_volume 2726.581906
_symmetry_space_group_name_H-M "I 41"
_symmetry_group_IT_number 80
_symmetry_cell_setting 'tetragonal'
loop_
_space_group_symop_operation_xyz
x,y,z
-y,1/2+x,1/4+z
-x,-y,z
y,1/2-x,1/4+z
1/2+x,1/2+y,1/2+z
1/2-y,x,3/4+z
1/2-x,1/2-y,1/2+z
1/2+y,-x,3/4+z
loop_
_atom_site_type_symbol
_atom_site_label
_atom_site_fract_x
_atom_site_fract_y
_atom_site_fract_z
Si Si1 0.918326 0.216913 0.463370
Si Si2 0.600858 0.862017 0.746806
Si Si3 0.779136 0.051504 0.445663
Si Si4 0.082258 0.426840 0.642442
Si Si5 0.666925 0.936027 0.925262
Si Si6 0.908014 0.385473 0.312377
Si Si7 0.392318 0.978449 0.594997
O O1 0.841417 0.138086 0.480077
O O2 0.931568 0.266717 0.572816
O O3 0.892457 0.288814 0.371262
O O4 0.015107 0.167484 0.436891
O O5 0.675325 0.858629 0.835906
O O6 0.556896 0.769435 0.713658
O O7 0.516829 0.905524 0.812671
O O8 0.632408 0.927474 0.655036
O O9 0.681903 0.043970 0.506148
O O10 0.839508 0.957977 0.453766
O O11 0.106714 0.405644 0.523040
O O12 0.000000 0.500000 0.640873
O O13 0.641898 0.034944 0.877520
O O14 0.886322 0.402261 0.188781
O O15 0.500000 0.000000 0.564248
#
# Coordination Sequence:
#
# PCOD9542135 Si02
#       7
#     8   8   8   8   8   8   8
#     4  11  23  42  67 103 131 170 230 273 339 395
#     4  10  21  40  64  97 123 171 223 275 333 392
#     4  11  25  44  65  99 140 176 215 272 342 418
#     4  10  21  39  65  93 133 177 210 267 339 404
#     4  11  20  39  66  95 130 164 222 281 333 380
#     4  10  20  42  71  95 127 165 230 294 321 383
#     4   9  22  46  67  93 134 184 219 268 349 397
#
# _framework density 20.538536000000001
#
# number of rings (size 3 to 8) (size 9 to 14) (size 15 to 20)
#    0.000    1.714    1.429    4.714    0.000    2.857 
#   20.571    0.000    0.000    0.000    0.000    0.000 
#    0.000    0.000    0.000    0.000    0.000    0.000 
#
# Total GULP energy -155938.894424 kJ/mol
# GULP energy per Si atom -5569.246229 kJ/mol
# Density = 2.049179 g / cm^3
# Si number density = 20.538536 Si / 1000 Ang^3
#
#
#
# Elastic Constant Matrix: (Units=GPa)
#
#
# Indices 1 2 3 4 5 6 
#
# 1 -8.1547 132.4755 30.3509 0.0000 0.0000 -44.4046
# 2 132.4755 -8.1547 30.3509 0.0000 0.0000 44.4046
# 3 30.3509 30.3509 60.3467 0.0000 0.0000 0.0000
# 4 0.0000 0.0000 0.0000 17.2283 0.0000 0.0000
# 5 0.0000 0.0000 0.0000 0.0000 17.2283 0.0000
# 6 -44.4046 44.4046 0.0000 0.0000 0.0000 7.0646
#
#
#
# Elastic Compliance Matrix: (Units=1/GPa)
#
#
# Indices 1 2 3 4 5 6 
#
# 1 0.004616 0.006046 -0.005362 0.000000 0.000000 -0.008994
# 2 0.006046 0.004616 -0.005362 0.000000 0.000000 0.008994
# 3 -0.005362 -0.005362 0.021965 0.000000 0.000000 0.000000
# 4 0.000000 0.000000 0.000000 0.058044 0.000000 0.000000
# 5 0.000000 0.000000 0.000000 0.000000 0.058044 0.000000
# 6 -0.008994 0.008994 0.000000 0.000000 0.000000 0.028485
#
#
# Mechanical properties :
#
#
# Convention : Reuss Voigt Hill
#
# Bulk Modulus (GPa) = 45.78894 47.82133 46.80513
# Shear Modulus (GPa) = 25.98686 -1.63843 12.17421
#
# Velocity S-wave (km/s) = 3.56093 -0.89413 2.43729
# Velocity P-wave (km/s) = 6.26494 4.71893 5.54607
#
# Compressibility (1/GPa) = 0.02183934
#
# Stress axis : x y z
#
# Youngs Moduli (GPa) = 216.66036 216.66036 45.52733
#
# Poissons Ratio (x) = -1.31003 0.24413
# Poissons Ratio (y) = -1.31003 0.24413
# Poissons Ratio (z) = 1.16181 1.16181
#
# Static dielectric constant tensor:
#      x y z
#    x 1.805620 0.000000 0.000000 
#    y 0.000000 1.805620 0.000000 
#    z 0.000000 0.000000 1.778960 
# 
# From -- ./inp_files/1060.got.cif
#   From: 2010.05.17/outbox.cif.g08.bks.cpg/sg80_cif.got.tgz:1060.got - 2010.06.03 18:49:13.
