data_PCOD9542881
_publ_section_title
;
Structure prediction by ZEFSAII (Michael W. Deem and Ramdas Pophale) SiO2 
 PCOD9542881
Probable space group: I -4 
;
_chemical_formula_sum "Si O2"
_cell_formula_units_Z 48
_cell_length_a 13.465916
_cell_length_b 13.465916
_cell_length_c 11.025513
_cell_angle_alpha 90.000000
_cell_angle_beta 90.000000
_cell_angle_gamma 90.000000
_cell_volume 1999.266126
_symmetry_space_group_name_H-M "I -4 "
_symmetry_group_IT_number 82
_symmetry_cell_setting 'tetragonal'
loop_
_space_group_symop_operation_xyz
x,y,z
y,-x,-z
-x,-y,z
-y,x,-z
1/2+x,1/2+y,1/2+z
1/2+y,1/2-x,1/2-z
1/2-x,1/2-y,1/2+z
1/2-y,1/2+x,1/2-z
loop_
_atom_site_type_symbol
_atom_site_label
_atom_site_fract_x
_atom_site_fract_y
_atom_site_fract_z
Si Si1 0.453025 0.819238 0.125413
Si Si2 0.632927 0.170442 0.395160
Si Si3 0.147994 0.953221 0.489369
Si Si4 0.327855 0.807672 0.891399
Si Si5 0.526535 0.730454 0.773875
Si Si6 0.539863 0.349818 0.543882
O O1 0.414506 0.830849 0.260602
O O2 0.552177 0.876137 0.076851
O O3 0.502284 0.710294 0.118671
O O4 0.363902 0.827527 0.029184
O O5 0.745753 0.217832 0.388111
O O6 0.577951 0.245442 0.487572
O O7 0.204330 0.909664 0.605860
O O8 0.054759 0.892243 0.449494
O O9 0.431437 0.789114 0.821987
O O10 0.282278 0.900370 0.821185
O O11 0.479699 0.647622 0.687062
O O12 0.435209 0.381094 0.485570
#
# Coordination Sequence:
#
# PCOD9542881 Si02
#       6
#     8   8   8   8   8   8
#     4  11  27  47  71 106 144 199 243 298 385 453
#     4  12  28  50  76 105 154 194 251 319 380 466
#     4  10  22  41  72 106 141 183 244 309 367 440
#     4  11  27  49  75 106 152 196 251 312 379 463
#     4  11  25  45  73 106 146 201 246 309 383 454
#     4  11  27  47  77 110 143 194 257 320 386 452
#
# _framework density 24.00881
#
# number of rings (size 3 to 8) (size 9 to 14) (size 15 to 20)
#    0.000    1.000    1.667    3.000   14.000    2.000 
#    0.000    0.000    0.000    0.000    0.000    0.000 
#    0.000    0.000    0.000    0.000    0.000    0.000 
#
# Total GULP energy -133909.423236 kJ/mol
# GULP energy per Si atom -5579.559301 kJ/mol
# Density = 2.395416 g / cm^3
# Si number density = 24.008810 Si / 1000 Ang^3
#
#
#
# Elastic Constant Matrix: (Units=GPa)
#
#
# Indices 1 2 3 4 5 6 
#
# 1 93.4631 13.0327 27.2342 0.0000 0.0000 8.6954
# 2 13.0327 93.4631 27.2342 0.0000 0.0000 -8.6954
# 3 27.2342 27.2342 100.3270 0.0000 0.0000 0.0000
# 4 0.0000 0.0000 0.0000 22.2707 0.0000 0.0000
# 5 0.0000 0.0000 0.0000 0.0000 22.2707 0.0000
# 6 8.6954 -8.6954 0.0000 0.0000 0.0000 44.4518
#
#
#
# Elastic Compliance Matrix: (Units=1/GPa)
#
#
# Indices 1 2 3 4 5 6 
#
# 1 0.011943 -0.001039 -0.002960 0.000000 0.000000 -0.002539
# 2 -0.001039 0.011943 -0.002960 0.000000 0.000000 0.002539
# 3 -0.002960 -0.002960 0.011574 0.000000 0.000000 0.000000
# 4 0.000000 0.000000 0.000000 0.044902 0.000000 0.000000
# 5 0.000000 0.000000 0.000000 0.000000 0.044902 0.000000
# 6 -0.002539 0.002539 0.000000 0.000000 0.000000 0.023490
#
#
# Mechanical properties :
#
#
# Convention : Reuss Voigt Hill
#
# Bulk Modulus (GPa) = 46.41974 46.91724 46.66849
# Shear Modulus (GPa) = 29.43716 32.44876 30.94296
#
# Velocity S-wave (km/s) = 3.50537 3.68031 3.59390
# Velocity P-wave (km/s) = 5.97996 6.13545 6.05820
#
# Compressibility (1/GPa) = 0.02154256
#
# Stress axis : x y z
#
# Youngs Moduli (GPa) = 83.73060 83.73060 86.39782
#
# Poissons Ratio (x) = 0.08701 0.25573
# Poissons Ratio (y) = 0.08701 0.25573
# Poissons Ratio (z) = 0.24784 0.24784
#
# Static dielectric constant tensor:
#      x y z
#    x 2.047770 0.000000 0.000000 
#    y 0.000000 2.047770 0.000000 
#    z 0.000000 0.000000 1.909400 
# 
# From -- ./inp_files/1777.got.cif
#   From: 2010.05.17/outbox.cif.g08.bks.cpg/sg82_1_cif.got.tgz:1777.got - 2010.06.03 18:52:26.
