data_PCOD9542615
_publ_section_title
;
Structure prediction by ZEFSAII (Michael W. Deem and Ramdas Pophale) SiO2 
 PCOD9542615
Probable space group: I -4 
;
_chemical_formula_sum "Si O2"
_cell_formula_units_Z 26
_cell_length_a 8.852286
_cell_length_b 8.852286
_cell_length_c 14.069898
_cell_angle_alpha 90.000000
_cell_angle_beta 90.000000
_cell_angle_gamma 90.000000
_cell_volume 1102.558959
_symmetry_space_group_name_H-M "I -4 "
_symmetry_group_IT_number 82
_symmetry_cell_setting 'tetragonal'
loop_
_space_group_symop_operation_xyz
x,y,z
y,-x,-z
-x,-y,z
-y,x,-z
1/2+x,1/2+y,1/2+z
1/2+y,1/2-x,1/2-z
1/2-x,1/2-y,1/2+z
1/2-y,1/2+x,1/2-z
loop_
_atom_site_type_symbol
_atom_site_label
_atom_site_fract_x
_atom_site_fract_y
_atom_site_fract_z
Si Si1 0.000000 0.500000 0.083428
Si Si2 0.159649 0.924422 0.649375
Si Si3 0.000000 0.000000 0.165367
Si Si4 0.000000 0.500000 0.750000
Si Si5 0.798262 0.414434 0.586984
O O1 0.977315 0.638581 0.010330
O O2 0.832747 0.482987 0.131906
O O3 0.152090 0.756583 0.607080
O O4 0.000000 0.000000 0.612717
O O5 0.128609 0.937976 0.762288
O O6 0.123433 0.926606 0.100117
O O7 0.863550 0.509191 0.676607
#
# Coordination Sequence:
#
# PCOD9542615 Si02
#       5
#     4   8   4   2   8
#     4  11  28  43  79 110 151 202 260 311 412 459
#     4  10  25  48  77 108 160 202 256 325 397 469
#     4  10  24  46  80 102 150 202 262 320 392 459
#     4  10  16  44  68 100 122 200 230 294 376 452
#     4  11  23  43  77 105 147 197 259 317 382 474
#
# _framework density 23.581503999999999
#
# number of rings (size 3 to 8) (size 9 to 14) (size 15 to 20)
#    0.923    0.615    3.077    0.000    4.308    4.923 
#    5.538    0.000    6.769    0.000    0.000    0.000 
#    0.000    0.000    0.000    0.000    0.000    0.000 
#
# Total GULP energy -72479.164647 kJ/mol
# GULP energy per Si atom -5575.320357 kJ/mol
# Density = 2.352783 g / cm^3
# Si number density = 23.581504 Si / 1000 Ang^3
#
#
#
# Elastic Constant Matrix: (Units=GPa)
#
#
# Indices 1 2 3 4 5 6 
#
# 1 163.4011 62.4986 60.1848 0.0000 0.0000 -4.7144
# 2 62.4986 163.4011 60.1848 0.0000 0.0000 4.7144
# 3 60.1848 60.1848 76.0886 0.0000 0.0000 0.0000
# 4 0.0000 0.0000 0.0000 17.0682 0.0000 0.0000
# 5 0.0000 0.0000 0.0000 0.0000 17.0682 0.0000
# 6 -4.7144 4.7144 0.0000 0.0000 0.0000 42.4580
#
#
#
# Elastic Compliance Matrix: (Units=1/GPa)
#
#
# Indices 1 2 3 4 5 6 
#
# 1 0.008833 -0.001181 -0.006052 0.000000 0.000000 0.001112
# 2 -0.001181 0.008833 -0.006052 0.000000 0.000000 -0.001112
# 3 -0.006052 -0.006052 0.022717 0.000000 0.000000 0.000000
# 4 0.000000 0.000000 0.000000 0.058588 0.000000 0.000000
# 5 0.000000 0.000000 0.000000 0.000000 0.058588 0.000000
# 6 0.001112 -0.001112 0.000000 0.000000 0.000000 0.023800
#
#
# Mechanical properties :
#
#
# Convention : Reuss Voigt Hill
#
# Bulk Modulus (GPa) = 72.40524 85.40302 78.90413
# Shear Modulus (GPa) = 23.52544 29.98707 26.75626
#
# Velocity S-wave (km/s) = 3.16194 3.56987 3.37208
# Velocity P-wave (km/s) = 6.64089 7.29977 6.97811
#
# Compressibility (1/GPa) = 0.01381116
#
# Stress axis : x y z
#
# Youngs Moduli (GPa) = 113.21060 113.21060 44.01943
#
# Poissons Ratio (x) = 0.13374 0.26642
# Poissons Ratio (y) = 0.13374 0.26642
# Poissons Ratio (z) = 0.68519 0.68519
#
# Static dielectric constant tensor:
#      x y z
#    x 1.976730 0.000000 0.000000 
#    y 0.000000 1.976730 0.000000 
#    z 0.000000 0.000000 1.879150 
# 
# From -- ./inp_files/2499.got.cif
#   From: 2010.05.17/outbox.cif.g08.bks.cpg/sg82_2_cif.got.tgz:2499.got - 2010.06.03 18:52:26.
