data_PCOD9542068
_publ_section_title
;
Structure prediction by ZEFSAII (Michael W. Deem and Ramdas Pophale) SiO2 
 PCOD9542068
Probable space group: I 41
;
_chemical_formula_sum "Si O2"
_cell_formula_units_Z 60
_cell_length_a 14.426976
_cell_length_b 14.426976
_cell_length_c 16.330375
_cell_angle_alpha 90.000000
_cell_angle_beta 90.000000
_cell_angle_gamma 90.000000
_cell_volume 3398.965656
_symmetry_space_group_name_H-M "I 41"
_symmetry_group_IT_number 80
_symmetry_cell_setting 'tetragonal'
loop_
_space_group_symop_operation_xyz
x,y,z
-y,1/2+x,1/4+z
-x,-y,z
y,1/2-x,1/4+z
1/2+x,1/2+y,1/2+z
1/2-y,x,3/4+z
1/2-x,1/2-y,1/2+z
1/2+y,-x,3/4+z
loop_
_atom_site_type_symbol
_atom_site_label
_atom_site_fract_x
_atom_site_fract_y
_atom_site_fract_z
Si Si1 0.822405 0.381044 0.812910
Si Si2 0.033449 0.309668 0.074025
Si Si3 0.767610 0.613061 0.058357
Si Si4 0.425213 0.332185 0.142402
Si Si5 0.765374 0.439257 0.162078
Si Si6 0.396718 0.763557 0.706904
Si Si7 0.649654 0.266778 0.883682
Si Si8 0.000000 0.000000 0.754713
O O1 0.809144 0.487910 0.835938
O O2 0.902232 0.328281 0.865678
O O3 0.735509 0.320371 0.842607
O O4 0.826255 0.376108 0.714262
O O5 0.144619 0.318716 0.071182
O O6 0.991299 0.269688 0.156701
O O7 0.994015 0.255936 0.995422
O O8 0.986824 0.410808 0.061366
O O9 0.670700 0.642779 0.098090
O O10 0.800950 0.516641 0.099369
O O11 0.756411 0.596500 0.961728
O O12 0.463984 0.418815 0.195295
O O13 0.832520 0.354429 0.186693
O O14 0.413105 0.750815 0.803804
O O15 0.332524 0.682340 0.668902
#
# Coordination Sequence:
#
# PCOD9542068 Si02
#       8
#     8   8   8   8   8   8   8   4
#     4  10  19  32  55  84 114 142 176 223 288 337
#     4  11  20  33  53  85 110 148 180 226 283 337
#     4  11  22  35  52  79 108 144 194 230 272 326
#     4  11  20  35  54  77 110 143 181 233 275 329
#     4  11  19  32  56  83 113 144 175 231 281 340
#     4  10  18  32  52  81 120 142 172 219 279 340
#     4   9  19  31  52  87 112 141 176 216 275 350
#     4  10  18  32  52  82 108 136 184 226 288 332
#
# _framework density 17.652429000000001
#
# number of rings (size 3 to 8) (size 9 to 14) (size 15 to 20)
#    0.000    1.600    5.333    2.400    1.867    0.000 
#    0.000    1.333    0.000    0.000    0.000    0.000 
#    0.000    0.000    0.000    0.000    0.000    0.000 
#
# Total GULP energy -167008.936886 kJ/mol
# GULP energy per Si atom -5566.964563 kJ/mol
# Density = 1.761225 g / cm^3
# Si number density = 17.652429 Si / 1000 Ang^3
#
#
#
# Elastic Constant Matrix: (Units=GPa)
#
#
# Indices 1 2 3 4 5 6 
#
# 1 30.1038 1.2730 18.5728 0.0000 0.0000 -2.5762
# 2 1.2730 30.1038 18.5728 0.0000 0.0000 2.5762
# 3 18.5728 18.5728 135.0502 0.0000 0.0000 0.0000
# 4 0.0000 0.0000 0.0000 22.6935 0.0000 0.0000
# 5 0.0000 0.0000 0.0000 0.0000 22.6935 0.0000
# 6 -2.5762 2.5762 0.0000 0.0000 0.0000 14.2258
#
#
#
# Elastic Compliance Matrix: (Units=1/GPa)
#
#
# Indices 1 2 3 4 5 6 
#
# 1 0.036957 0.001112 -0.005235 0.000000 0.000000 0.006491
# 2 0.001112 0.036957 -0.005235 0.000000 0.000000 -0.006491
# 3 -0.005235 -0.005235 0.008845 0.000000 0.000000 0.000000
# 4 0.000000 0.000000 0.000000 0.044066 0.000000 0.000000
# 5 0.000000 0.000000 0.000000 0.000000 0.044066 0.000000
# 6 0.006491 -0.006491 0.000000 0.000000 0.000000 0.072646
#
#
# Mechanical properties :
#
#
# Convention : Reuss Voigt Hill
#
# Bulk Modulus (GPa) = 15.61518 30.23281 22.92400
# Shear Modulus (GPa) = 17.63043 22.37849 20.00446
#
# Velocity S-wave (km/s) = 3.16374 3.56438 3.37002
# Velocity P-wave (km/s) = 4.71283 5.83983 5.30633
#
# Compressibility (1/GPa) = 0.06404024
#
# Stress axis : x y z
#
# Youngs Moduli (GPa) = 27.05852 27.05852 113.06262
#
# Poissons Ratio (x) = -0.03008 0.59193
# Poissons Ratio (y) = -0.03008 0.59193
# Poissons Ratio (z) = 0.14166 0.14166
#
# Static dielectric constant tensor:
#      x y z
#    x 1.625640 0.000000 0.000000 
#    y 0.000000 1.625640 0.000000 
#    z 0.000000 0.000000 1.642150 
# 
# From -- ./inp_files/1359.got.cif
#   From: 2010.05.17/outbox.cif.g08.bks.cpg/sg80_cif.got.tgz:1359.got - 2010.06.03 18:49:13.
