data_PCOD9542682
_publ_section_title
;
Structure prediction by ZEFSAII (Michael W. Deem and Ramdas Pophale) SiO2 
 PCOD9542682
Probable space group: I -4 
;
_chemical_formula_sum "Si O2"
_cell_formula_units_Z 48
_cell_length_a 8.770711
_cell_length_b 8.770711
_cell_length_c 31.160365
_cell_angle_alpha 90.000000
_cell_angle_beta 90.000000
_cell_angle_gamma 90.000000
_cell_volume 2397.022652
_symmetry_space_group_name_H-M "I -4 "
_symmetry_group_IT_number 82
_symmetry_cell_setting 'tetragonal'
loop_
_space_group_symop_operation_xyz
x,y,z
y,-x,-z
-x,-y,z
-y,x,-z
1/2+x,1/2+y,1/2+z
1/2+y,1/2-x,1/2-z
1/2-x,1/2-y,1/2+z
1/2-y,1/2+x,1/2-z
loop_
_atom_site_type_symbol
_atom_site_label
_atom_site_fract_x
_atom_site_fract_y
_atom_site_fract_z
Si Si1 0.169060 0.531521 0.686005
Si Si2 0.084283 0.245049 0.999104
Si Si3 0.201140 0.667965 0.317157
Si Si4 0.082717 0.249272 0.091676
Si Si5 0.587669 0.739028 0.406379
Si Si6 0.420730 0.664353 0.741265
O O1 0.256578 0.370085 0.682946
O O2 0.168936 0.599289 0.637657
O O3 0.257366 0.639402 0.718977
O O4 0.000000 0.500000 0.700188
O O5 0.110707 0.319814 0.952579
O O6 0.111754 0.323262 0.045036
O O7 0.909823 0.185069 0.001224
O O8 0.160966 0.635841 0.366348
O O9 0.224153 0.514754 0.289640
O O10 0.092937 0.773419 0.289073
O O11 0.905881 0.200802 0.096636
O O12 0.168744 0.084240 0.091747
O O13 0.500000 0.500000 0.741325
#
# Coordination Sequence:
#
# PCOD9542682 Si02
#       6
#     8   8   8   8   8   8
#     4  10  20  30  49  77 108 140 173 217 270 319
#     4   7  10  16  36  65  97 129 165 205 254 313
#     4  10  20  34  52  70 105 139 179 224 263 320
#     4   8  12  23  42  69  97 134 171 210 261 309
#     4   8  12  23  39  68 104 133 166 208 262 313
#     4  10  22  36  52  78 105 143 181 221 269 317
#
# _framework density 20.024843000000001
#
# number of rings (size 3 to 8) (size 9 to 14) (size 15 to 20)
#    0.000    3.167    1.667    2.000    4.667    0.333 
#    0.000    0.000    0.000    0.000    4.333    0.000 
#    0.000    0.000    0.000    0.333    1.000    0.000 
#
# Total GULP energy -133735.885687 kJ/mol
# GULP energy per Si atom -5572.328570 kJ/mol
# Density = 1.997927 g / cm^3
# Si number density = 20.024843 Si / 1000 Ang^3
#
#
#
# Elastic Constant Matrix: (Units=GPa)
#
#
# Indices 1 2 3 4 5 6 
#
# 1 28.6317 1.0120 24.4367 0.0000 0.0000 2.7064
# 2 1.0120 28.6317 24.4367 0.0000 0.0000 -2.7064
# 3 24.4367 24.4367 207.8560 0.0000 0.0000 0.0000
# 4 0.0000 0.0000 0.0000 11.4504 0.0000 0.0000
# 5 0.0000 0.0000 0.0000 0.0000 11.4504 0.0000
# 6 2.7064 -2.7064 0.0000 0.0000 0.0000 7.3535
#
#
#
# Elastic Compliance Matrix: (Units=1/GPa)
#
#
# Indices 1 2 3 4 5 6 
#
# 1 0.040433 0.001412 -0.004920 0.000000 0.000000 -0.014361
# 2 0.001412 0.040433 -0.004920 0.000000 0.000000 0.014361
# 3 -0.004920 -0.004920 0.005968 0.000000 0.000000 0.000000
# 4 0.000000 0.000000 0.000000 0.087333 0.000000 0.000000
# 5 0.000000 0.000000 0.000000 0.000000 0.087333 0.000000
# 6 -0.014361 0.014361 0.000000 0.000000 0.000000 0.146559
#
#
# Mechanical properties :
#
#
# Convention : Reuss Voigt Hill
#
# Bulk Modulus (GPa) = 14.28996 40.54336 27.41666
# Shear Modulus (GPa) = 11.15478 20.39981 15.77730
#
# Velocity S-wave (km/s) = 2.36275 3.19521 2.80998
# Velocity P-wave (km/s) = 3.82034 5.82263 4.92433
#
# Compressibility (1/GPa) = 0.06997920
#
# Stress axis : x y z
#
# Youngs Moduli (GPa) = 24.73251 24.73252 167.56726
#
# Poissons Ratio (x) = -0.03493 0.82435
# Poissons Ratio (y) = -0.03493 0.82435
# Poissons Ratio (z) = 0.12167 0.12167
#
# Static dielectric constant tensor:
#      x y z
#    x 1.698130 0.000000 0.000000 
#    y 0.000000 1.698130 0.000000 
#    z 0.000000 0.000000 1.774490 
# 
# From -- ./inp_files/4005.got.cif
#   From: 2010.05.17/outbox.cif.g08.bks.cpg/sg82_3_cif.got.tgz:4005.got - 2010.06.03 18:52:26.
