data_PCOD9542228
_publ_section_title
;
Structure prediction by ZEFSAII (Michael W. Deem and Ramdas Pophale) SiO2 
 PCOD9542228
Probable space group: I 41
;
_chemical_formula_sum "Si O2"
_cell_formula_units_Z 48
_cell_length_a 11.393958
_cell_length_b 11.393958
_cell_length_c 17.074103
_cell_angle_alpha 90.000000
_cell_angle_beta 90.000000
_cell_angle_gamma 90.000000
_cell_volume 2216.598962
_symmetry_space_group_name_H-M "I 41"
_symmetry_group_IT_number 80
_symmetry_cell_setting 'tetragonal'
loop_
_space_group_symop_operation_xyz
x,y,z
-y,1/2+x,1/4+z
-x,-y,z
y,1/2-x,1/4+z
1/2+x,1/2+y,1/2+z
1/2-y,x,3/4+z
1/2-x,1/2-y,1/2+z
1/2+y,-x,3/4+z
loop_
_atom_site_type_symbol
_atom_site_label
_atom_site_fract_x
_atom_site_fract_y
_atom_site_fract_z
Si Si1 0.242883 0.194143 0.337270
Si Si2 0.500000 0.500000 0.588673
Si Si3 0.685998 0.353930 0.488296
Si Si4 0.703942 0.348330 0.084459
Si Si5 0.500000 0.000000 0.407154
Si Si6 0.590072 0.696606 0.690688
Si Si7 0.273943 0.055524 0.478257
O O1 0.134583 0.198388 0.279072
O O2 0.260789 0.308282 0.391806
O O3 0.225312 0.082506 0.392268
O O4 0.356707 0.201156 0.283047
O O5 0.576876 0.410816 0.536020
O O6 0.582955 0.572967 0.646717
O O7 0.645199 0.272115 0.416771
O O8 0.773179 0.281161 0.546787
O O9 0.748974 0.462030 0.444641
O O10 0.579853 0.411599 0.105414
O O11 0.759914 0.430726 0.017605
O O12 0.413213 0.076035 0.463042
#
# Coordination Sequence:
#
# PCOD9542228 Si02
#       7
#     8   4   8   8   4   8   8
#     4  10  24  45  73 106 143 196 247 307 372 453
#     4  12  26  45  73 112 146 198 240 308 390 447
#     4  12  27  47  73 111 152 193 246 314 370 455
#     4  12  27  49  73 106 152 197 257 311 376 447
#     4  12  26  45  73 102 144 200 250 312 376 433
#     4  11  24  46  72 105 149 190 247 303 379 452
#     4  11  24  44  69 105 143 191 254 308 369 444
#
# _framework density 21.654798
#
# number of rings (size 3 to 8) (size 9 to 14) (size 15 to 20)
#    0.000    0.667    6.667    0.000    7.000    1.333 
#    3.000    0.000    0.000    0.000    0.000    0.000 
#    0.000    0.000    0.000    0.000    0.000    0.000 
#
# Total GULP energy -133791.327981 kJ/mol
# GULP energy per Si atom -5574.638666 kJ/mol
# Density = 2.160551 g / cm^3
# Si number density = 21.654798 Si / 1000 Ang^3
#
#
#
# Elastic Constant Matrix: (Units=GPa)
#
#
# Indices 1 2 3 4 5 6 
#
# 1 88.5701 26.0505 51.0971 0.0000 0.0000 -6.8842
# 2 26.0505 88.5701 51.0971 0.0000 0.0000 6.8842
# 3 51.0971 51.0971 123.1234 0.0000 0.0000 0.0000
# 4 0.0000 0.0000 0.0000 25.1055 0.0000 0.0000
# 5 0.0000 0.0000 0.0000 0.0000 25.1055 0.0000
# 6 -6.8842 6.8842 0.0000 0.0000 0.0000 37.4478
#
#
#
# Elastic Compliance Matrix: (Units=1/GPa)
#
#
# Indices 1 2 3 4 5 6 
#
# 1 0.015259 -0.001411 -0.005747 0.000000 0.000000 0.003065
# 2 -0.001411 0.015259 -0.005747 0.000000 0.000000 -0.003065
# 3 -0.005747 -0.005747 0.012892 0.000000 0.000000 0.000000
# 4 0.000000 0.000000 0.000000 0.039832 0.000000 0.000000
# 5 0.000000 0.000000 0.000000 0.000000 0.039832 0.000000
# 6 0.003065 -0.003065 0.000000 0.000000 0.000000 0.027831
#
#
# Mechanical properties :
#
#
# Convention : Reuss Voigt Hill
#
# Bulk Modulus (GPa) = 56.81690 61.86143 59.33916
# Shear Modulus (GPa) = 27.38491 28.99970 28.19231
#
# Velocity S-wave (km/s) = 3.56000 3.66345 3.61209
# Velocity P-wave (km/s) = 6.57211 6.82082 6.69762
#
# Compressibility (1/GPa) = 0.01760040
#
# Stress axis : x y z
#
# Youngs Moduli (GPa) = 65.53407 65.53407 77.56597
#
# Poissons Ratio (x) = 0.09244 0.44579
# Poissons Ratio (y) = 0.09244 0.44579
# Poissons Ratio (z) = 0.37664 0.37664
#
# Static dielectric constant tensor:
#      x y z
#    x 1.901420 0.000000 0.000000 
#    y 0.000000 1.901420 0.000000 
#    z 0.000000 0.000000 1.782750 
# 
# From -- ./inp_files/1539.got.cif
#   From: 2010.05.17/outbox.cif.g08.bks.cpg/sg80_cif.got.tgz:1539.got - 2010.06.03 18:49:13.
