data_PCOD9542849
_publ_section_title
;
Structure prediction by ZEFSAII (Michael W. Deem and Ramdas Pophale) SiO2 
 PCOD9542849
Probable space group: I -4 
;
_chemical_formula_sum "Si O2"
_cell_formula_units_Z 32
_cell_length_a 13.629652
_cell_length_b 13.629652
_cell_length_c 6.842414
_cell_angle_alpha 90.000000
_cell_angle_beta 90.000000
_cell_angle_gamma 90.000000
_cell_volume 1271.097552
_symmetry_space_group_name_H-M "I -4 "
_symmetry_group_IT_number 82
_symmetry_cell_setting 'tetragonal'
loop_
_space_group_symop_operation_xyz
x,y,z
y,-x,-z
-x,-y,z
-y,x,-z
1/2+x,1/2+y,1/2+z
1/2+y,1/2-x,1/2-z
1/2-x,1/2-y,1/2+z
1/2-y,1/2+x,1/2-z
loop_
_atom_site_type_symbol
_atom_site_label
_atom_site_fract_x
_atom_site_fract_y
_atom_site_fract_z
Si Si1 0.102668 0.201475 0.481459
Si Si2 0.454968 0.147396 0.275037
Si Si3 0.711576 0.188623 0.883313
Si Si4 0.093931 0.896045 0.892183
O O1 0.035070 0.257862 0.634951
O O2 0.202390 0.170928 0.594685
O O3 0.070677 0.114913 0.332471
O O4 0.137031 0.285128 0.325717
O O5 0.559046 0.102588 0.333022
O O6 0.384812 0.169561 0.457258
O O7 0.829879 0.191842 0.919478
O O8 0.985710 0.874738 0.966268
#
# Coordination Sequence:
#
# PCOD9542849 Si02
#       4
#     8   8   8   8
#     4  10  22  41  67  99 132 185 223 291 355 409
#     4  11  25  43  66  99 135 181 236 288 348 431
#     4  10  22  37  68  93 138 171 233 278 361 405
#     4   9  21  41  67  97 135 179 234 291 342 415
#
# _framework density 25.175094000000001
#
# number of rings (size 3 to 8) (size 9 to 14) (size 15 to 20)
#    1.500    0.500    2.500    0.000    7.000    4.000 
#    0.000    2.500    0.000    3.000    0.000    0.000 
#    0.000    0.000    0.000    0.000    0.000    0.000 
#
# Total GULP energy -89250.998628 kJ/mol
# GULP energy per Si atom -5578.187414 kJ/mol
# Density = 2.511779 g / cm^3
# Si number density = 25.175094 Si / 1000 Ang^3
#
#
#
# Elastic Constant Matrix: (Units=GPa)
#
#
# Indices 1 2 3 4 5 6 
#
# 1 68.5039 7.0036 12.2906 0.0000 0.0000 -11.2674
# 2 7.0036 68.5039 12.2906 0.0000 0.0000 11.2674
# 3 12.2906 12.2906 102.3753 0.0000 0.0000 0.0000
# 4 0.0000 0.0000 0.0000 32.9539 0.0000 0.0000
# 5 0.0000 0.0000 0.0000 0.0000 32.9539 0.0000
# 6 -11.2674 11.2674 0.0000 0.0000 0.0000 41.9156
#
#
#
# Elastic Compliance Matrix: (Units=1/GPa)
#
#
# Indices 1 2 3 4 5 6 
#
# 1 0.015910 -0.002127 -0.001655 0.000000 0.000000 0.004848
# 2 -0.002127 0.015910 -0.001655 0.000000 0.000000 -0.004848
# 3 -0.001655 -0.001655 0.010165 0.000000 0.000000 0.000000
# 4 0.000000 0.000000 0.000000 0.030345 0.000000 0.000000
# 5 0.000000 0.000000 0.000000 0.000000 0.030345 0.000000
# 6 0.004848 -0.004848 0.000000 0.000000 0.000000 0.026464
#
#
# Mechanical properties :
#
#
# Convention : Reuss Voigt Hill
#
# Bulk Modulus (GPa) = 32.14247 33.61697 32.87972
# Shear Modulus (GPa) = 33.24851 35.41789 34.33320
#
# Velocity S-wave (km/s) = 3.63807 3.75489 3.69694
# Velocity P-wave (km/s) = 5.51749 5.67284 5.59571
#
# Compressibility (1/GPa) = 0.03111149
#
# Stress axis : x y z
#
# Youngs Moduli (GPa) = 62.85542 62.85542 98.37418
#
# Poissons Ratio (x) = 0.13370 0.16277
# Poissons Ratio (y) = 0.13370 0.16277
# Poissons Ratio (z) = 0.10400 0.10400
#
# Static dielectric constant tensor:
#      x y z
#    x 2.002570 0.000000 0.000000 
#    y 0.000000 2.002570 0.000000 
#    z 0.000000 0.000000 2.008750 
# 
# From -- ./inp_files/776.got.cif
#   From: 2010.05.17/outbox.cif.g08.bks.cpg/sg82_1_cif.got.tgz:776.got - 2010.06.03 18:52:26.
