data_PCOD9542240
_publ_section_title
;
Structure prediction by ZEFSAII (Michael W. Deem and Ramdas Pophale) SiO2 
 PCOD9542240
Probable space group: I 41
;
_chemical_formula_sum "Si O2"
_cell_formula_units_Z 32
_cell_length_a 11.030122
_cell_length_b 11.030122
_cell_length_c 9.640733
_cell_angle_alpha 90.000000
_cell_angle_beta 90.000000
_cell_angle_gamma 90.000000
_cell_volume 1172.926200
_symmetry_space_group_name_H-M "I 41"
_symmetry_group_IT_number 80
_symmetry_cell_setting 'tetragonal'
loop_
_space_group_symop_operation_xyz
x,y,z
-y,1/2+x,1/4+z
-x,-y,z
y,1/2-x,1/4+z
1/2+x,1/2+y,1/2+z
1/2-y,x,3/4+z
1/2-x,1/2-y,1/2+z
1/2+y,-x,3/4+z
loop_
_atom_site_type_symbol
_atom_site_label
_atom_site_fract_x
_atom_site_fract_y
_atom_site_fract_z
Si Si1 0.850344 0.123373 0.188560
Si Si2 0.238686 0.354324 0.998268
Si Si3 0.143465 0.995446 0.905029
Si Si4 0.890889 0.078723 0.485038
O O1 0.855544 0.020626 0.071907
O O2 0.896706 0.250406 0.121394
O O3 0.927177 0.093935 0.323495
O O4 0.718954 0.132118 0.263602
O O5 0.225510 0.334826 0.834341
O O6 0.276779 0.493508 0.017597
O O7 0.184439 0.116763 0.827389
O O8 0.000000 0.000000 0.869959
O O9 0.000000 0.000000 0.551489
#
# Coordination Sequence:
#
# PCOD9542240 Si02
#       4
#     8   8   8   8
#     4  10  25  47  82 117 161 222 283 339 421 512
#     4  12  30  47  80 117 167 216 281 350 429 501
#     4  11  25  47  78 114 165 214 275 342 421 500
#     4  11  25  47  79 116 165 215 286 345 420 495
#
# _framework density 27.282191999999998
#
# number of rings (size 3 to 8) (size 9 to 14) (size 15 to 20)
#    0.000    1.000    0.000    3.750   17.500    3.000 
#    0.000    0.000    0.000    0.000    0.000    0.000 
#    0.000    0.000    0.000    0.000    0.000    0.000 
#
# Total GULP energy -89256.537802 kJ/mol
# GULP energy per Si atom -5578.533613 kJ/mol
# Density = 2.722010 g / cm^3
# Si number density = 27.282192 Si / 1000 Ang^3
#
#
#
# Elastic Constant Matrix: (Units=GPa)
#
#
# Indices 1 2 3 4 5 6 
#
# 1 134.6622 93.7430 -3.2853 0.0000 0.0000 6.1203
# 2 93.7430 134.6622 -3.2853 0.0000 0.0000 -6.1203
# 3 -3.2853 -3.2853 93.3338 0.0000 0.0000 0.0000
# 4 0.0000 0.0000 0.0000 31.3858 0.0000 0.0000
# 5 0.0000 0.0000 0.0000 0.0000 31.3858 0.0000
# 6 6.1203 -6.1203 0.0000 0.0000 0.0000 39.8733
#
#
#
# Elastic Compliance Matrix: (Units=1/GPa)
#
#
# Indices 1 2 3 4 5 6 
#
# 1 0.014999 -0.010616 0.000154 0.000000 0.000000 -0.003932
# 2 -0.010616 0.014999 0.000154 0.000000 0.000000 0.003932
# 3 0.000154 0.000154 0.010725 0.000000 0.000000 0.000000
# 4 0.000000 0.000000 0.000000 0.031862 0.000000 0.000000
# 5 0.000000 0.000000 0.000000 0.000000 0.031862 0.000000
# 6 -0.003932 0.003932 0.000000 0.000000 0.000000 0.026286
#
#
# Mechanical properties :
#
#
# Convention : Reuss Voigt Hill
#
# Bulk Modulus (GPa) = 49.73293 59.66700 54.69997
# Shear Modulus (GPa) = 31.63575 38.89469 35.26522
#
# Velocity S-wave (km/s) = 3.40895 3.77987 3.59919
# Velocity P-wave (km/s) = 5.81061 6.40060 6.11273
#
# Compressibility (1/GPa) = 0.02010740
#
# Stress axis : x y z
#
# Youngs Moduli (GPa) = 66.67306 66.67306 93.23927
#
# Poissons Ratio (x) = 0.70780 -0.01438
# Poissons Ratio (y) = 0.70780 -0.01438
# Poissons Ratio (z) = -0.01029 -0.01029
#
# Static dielectric constant tensor:
#      x y z
#    x 2.232180 0.000000 0.000000 
#    y 0.000000 2.232180 0.000000 
#    z 0.000000 0.000000 2.111540 
# 
# From -- ./inp_files/1190.got.cif
#   From: 2010.05.17/outbox.cif.g08.bks.cpg/sg80_cif.got.tgz:1190.got - 2010.06.03 18:49:13.
