data_PCOD9542680
_publ_section_title
;
Structure prediction by ZEFSAII (Michael W. Deem and Ramdas Pophale) SiO2 
 PCOD9542680
Probable space group: I -4 
;
_chemical_formula_sum "Si O2"
_cell_formula_units_Z 48
_cell_length_a 8.956727
_cell_length_b 8.956727
_cell_length_c 29.464185
_cell_angle_alpha 90.000000
_cell_angle_beta 90.000000
_cell_angle_gamma 90.000000
_cell_volume 2363.704092
_symmetry_space_group_name_H-M "I -4 "
_symmetry_group_IT_number 82
_symmetry_cell_setting 'tetragonal'
loop_
_space_group_symop_operation_xyz
x,y,z
y,-x,-z
-x,-y,z
-y,x,-z
1/2+x,1/2+y,1/2+z
1/2+y,1/2-x,1/2-z
1/2-x,1/2-y,1/2+z
1/2-y,1/2+x,1/2-z
loop_
_atom_site_type_symbol
_atom_site_label
_atom_site_fract_x
_atom_site_fract_y
_atom_site_fract_z
Si Si1 0.565821 0.711988 0.019480
Si Si2 0.500000 0.000000 0.750000
Si Si3 0.329612 0.440374 0.766753
Si Si4 0.143974 0.727285 0.400866
Si Si5 0.000000 0.500000 0.750000
Si Si6 0.000000 0.500000 0.469056
Si Si7 0.424185 0.345028 0.666352
Si Si8 0.393751 0.190033 0.826752
O O1 0.629270 0.676465 0.068737
O O2 0.658338 0.604245 0.985603
O O3 0.578518 0.878833 0.001231
O O4 0.495729 0.139912 0.783682
O O5 0.500000 0.500000 0.777493
O O6 0.174376 0.532883 0.765887
O O7 0.358655 0.373200 0.716423
O O8 0.300476 0.325036 0.807293
O O9 0.111056 0.592687 0.436375
O O10 0.283998 0.695787 0.368791
O O11 0.997981 0.729847 0.368805
O O12 0.500000 0.500000 0.652241
O O13 0.550982 0.216109 0.665860
#
# Coordination Sequence:
#
# PCOD9542680 Si02
#       8
#     8   2   8   8   2   4   8   8
#     4   9  21  43  68  95 126 169 216 285 350 434
#     4  12  18  32  72  96 132 186 244 276 330 416
#     4  11  25  43  67  95 145 204 239 292 371 408
#     4  11  21  40  68 101 130 172 233 290 344 439
#     4  12  28  48  62 104 148 190 276 308 334 444
#     4  10  19  44  69  89 126 170 213 278 364 426
#     4  11  22  38  62  99 143 181 230 293 348 419
#     4  12  20  39  68 100 134 186 243 286 340 433
#
# _framework density 20.307109000000001
#
# number of rings (size 3 to 8) (size 9 to 14) (size 15 to 20)
#    0.000    1.167    5.000    2.000    2.333    0.000 
#   12.000    0.833    0.000    0.000    0.000    0.000 
#    0.000    0.000    0.000    0.000    0.000    0.000 
#
# Total GULP energy -133715.682905 kJ/mol
# GULP energy per Si atom -5571.486788 kJ/mol
# Density = 2.026089 g / cm^3
# Si number density = 20.307109 Si / 1000 Ang^3
#
#
#
# Elastic Constant Matrix: (Units=GPa)
#
#
# Indices 1 2 3 4 5 6 
#
# 1 87.9708 9.2128 36.2462 0.0000 0.0000 -2.1129
# 2 9.2128 87.9708 36.2462 0.0000 0.0000 2.1129
# 3 36.2462 36.2462 96.5230 0.0000 0.0000 0.0000
# 4 0.0000 0.0000 0.0000 25.2941 0.0000 0.0000
# 5 0.0000 0.0000 0.0000 0.0000 25.2941 0.0000
# 6 -2.1129 2.1129 0.0000 0.0000 0.0000 19.4983
#
#
#
# Elastic Compliance Matrix: (Units=1/GPa)
#
#
# Indices 1 2 3 4 5 6 
#
# 1 0.013533 0.000761 -0.005368 0.000000 0.000000 0.001384
# 2 0.000761 0.013533 -0.005368 0.000000 0.000000 -0.001384
# 3 -0.005368 -0.005368 0.014391 0.000000 0.000000 0.000000
# 4 0.000000 0.000000 0.000000 0.039535 0.000000 0.000000
# 5 0.000000 0.000000 0.000000 0.000000 0.039535 0.000000
# 6 0.001384 -0.001384 0.000000 0.000000 0.000000 0.051587
#
#
# Mechanical properties :
#
#
# Convention : Reuss Voigt Hill
#
# Bulk Modulus (GPa) = 46.49310 48.43057 47.46184
# Shear Modulus (GPa) = 25.09660 26.73459 25.91559
#
# Velocity S-wave (km/s) = 3.51928 3.63232 3.57625
# Velocity P-wave (km/s) = 6.28160 6.44147 6.36203
#
# Compressibility (1/GPa) = 0.02150857
#
# Stress axis : x y z
#
# Youngs Moduli (GPa) = 73.89617 73.89618 69.48569
#
# Poissons Ratio (x) = -0.05624 0.37297
# Poissons Ratio (y) = -0.05624 0.37297
# Poissons Ratio (z) = 0.39664 0.39664
#
# Static dielectric constant tensor:
#      x y z
#    x 1.803620 0.000000 0.000000 
#    y 0.000000 1.803620 0.000000 
#    z 0.000000 0.000000 1.714020 
# 
# From -- ./inp_files/4129.got.cif
#   From: 2010.05.17/outbox.cif.g08.bks.cpg/sg82_3_cif.got.tgz:4129.got - 2010.06.03 18:52:26.
