data_PCOD9542433
_publ_section_title
;
Structure prediction by ZEFSAII (Michael W. Deem and Ramdas Pophale) SiO2 
 PCOD9542433
Probable space group: P -4
;
_chemical_formula_sum "Si O2"
_cell_formula_units_Z 24
_cell_length_a 14.321084
_cell_length_b 14.321084
_cell_length_c 6.053758
_cell_angle_alpha 90.000000
_cell_angle_beta 90.000000
_cell_angle_gamma 90.000000
_cell_volume 1241.586095
_symmetry_space_group_name_H-M "P -4"
_symmetry_group_IT_number 81
_symmetry_cell_setting 'tetragonal'
loop_
_space_group_symop_operation_xyz
x,y,z
y,-x,-z
-x,-y,z
-y,x,-z
loop_
_atom_site_type_symbol
_atom_site_label
_atom_site_fract_x
_atom_site_fract_y
_atom_site_fract_z
Si Si1 0.000000 0.000000 0.500000
Si Si2 0.500000 0.500000 0.500000
Si Si3 0.868170 0.773537 0.129301
Si Si4 0.000000 0.500000 0.203974
Si Si5 0.519381 0.362646 0.893080
Si Si6 0.026330 0.812294 0.800517
Si Si7 0.936944 0.651061 0.520527
Si Si8 0.833506 0.580213 0.915776
O O1 0.094259 0.007169 0.348069
O O2 0.512153 0.405718 0.646224
O O3 0.806402 0.864686 0.148795
O O4 0.883005 0.722783 0.361719
O O5 0.831449 0.690452 0.976127
O O6 0.964650 0.812287 0.023127
O O7 0.996409 0.411221 0.366480
O O8 0.085044 0.473792 0.045545
O O9 0.424003 0.397815 0.002720
O O10 0.537550 0.259236 0.977673
O O11 0.995458 0.717849 0.679005
O O12 0.865753 0.585112 0.659178
#
# Coordination Sequence:
#
# PCOD9542433 Si02
#       8
#     1   1   4   2   4   4   4   4
#     4  12  20  34  64  84 130 180 208 270 328 356
#     4   8  18  40  68  90 132 160 198 268 332 382
#     4  10  22  37  58  85 128 163 216 264 313 379
#     4  10  22  42  62  86 122 172 210 270 318 374
#     4   9  20  40  64  96 126 162 207 270 326 392
#     4  11  21  37  56  91 123 170 216 264 313 376
#     4  10  22  41  61  84 126 169 211 264 320 375
#     4  10  22  42  59  92 126 165 216 267 316 388
#
# _framework density 19.330113000000001
#
# number of rings (size 3 to 8) (size 9 to 14) (size 15 to 20)
#    0.000    2.167    1.667    1.500    0.000    5.333 
#   18.000    0.000    0.000    0.000    0.000    0.000 
#    0.000    0.000    0.000    0.000    0.000    0.000 
#
# Total GULP energy -133625.422468 kJ/mol
# GULP energy per Si atom -5567.725936 kJ/mol
# Density = 1.928612 g / cm^3
# Si number density = 19.330113 Si / 1000 Ang^3
#
#
#
# Elastic Constant Matrix: (Units=GPa)
#
#
# Indices 1 2 3 4 5 6 
#
# 1 69.1127 52.2364 29.3092 0.0000 0.0000 9.8248
# 2 52.2364 69.1127 29.3092 0.0000 0.0000 -9.8248
# 3 29.3092 29.3092 101.3739 0.0000 0.0000 0.0000
# 4 0.0000 0.0000 0.0000 6.9003 0.0000 0.0000
# 5 0.0000 0.0000 0.0000 0.0000 6.9003 0.0000
# 6 9.8248 -9.8248 0.0000 0.0000 0.0000 9.4140
#
#
#
# Elastic Compliance Matrix: (Units=1/GPa)
#
#
# Indices 1 2 3 4 5 6 
#
# 1 -0.132920 0.142498 -0.002769 0.000000 0.000000 0.287437
# 2 0.142498 -0.132920 -0.002769 0.000000 0.000000 -0.287437
# 3 -0.002769 -0.002769 0.011466 0.000000 0.000000 0.000000
# 4 0.000000 0.000000 0.000000 0.144921 0.000000 0.000000
# 5 0.000000 0.000000 0.000000 0.000000 0.144921 0.000000
# 6 0.287437 -0.287437 0.000000 0.000000 0.000000 -0.493737
#
#
# Mechanical properties :
#
#
# Convention : Reuss Voigt Hill
#
# Bulk Modulus (GPa) = 51.16296 51.25655 51.20975
# Shear Modulus (GPa) = -6.89016 13.22589 3.16786
#
# Velocity S-wave (km/s) = -1.89003 2.61858 1.28155
# Velocity P-wave (km/s) = 4.66503 5.97634 5.36093
#
# Compressibility (1/GPa) = 0.01954539
#
# Stress axis : x y z
#
# Youngs Moduli (GPa) = -7.52335 -7.52335 87.21587
#
# Poissons Ratio (x) = 1.07206 0.24153
# Poissons Ratio (y) = 1.07206 0.24153
# Poissons Ratio (z) = -0.02083 -0.02083
#
# Static dielectric constant tensor:
#      x y z
#    x 1.728100 0.000000 0.000000 
#    y 0.000000 1.728100 0.000000 
#    z 0.000000 0.000000 1.774840 
# 
# From -- ./inp_files/313.got.cif
#   From: 2010.05.17/outbox.cif.g08.bks.cpg/sg81_cif.got.tgz:313.got - 2010.06.03 18:51:07.
