data_PCOD9542455
_publ_section_title
;
Structure prediction by ZEFSAII (Michael W. Deem and Ramdas Pophale) SiO2 
 PCOD9542455
Probable space group: P -4
;
_chemical_formula_sum "Si O2"
_cell_formula_units_Z 24
_cell_length_a 13.035034
_cell_length_b 13.035034
_cell_length_c 5.355805
_cell_angle_alpha 90.000000
_cell_angle_beta 90.000000
_cell_angle_gamma 90.000000
_cell_volume 910.016136
_symmetry_space_group_name_H-M "P -4"
_symmetry_group_IT_number 81
_symmetry_cell_setting 'tetragonal'
loop_
_space_group_symop_operation_xyz
x,y,z
y,-x,-z
-x,-y,z
-y,x,-z
loop_
_atom_site_type_symbol
_atom_site_label
_atom_site_fract_x
_atom_site_fract_y
_atom_site_fract_z
Si Si1 0.061870 0.339508 0.146435
Si Si2 0.855619 0.999182 0.119428
Si Si3 0.490688 0.639394 0.883492
Si Si4 0.484617 0.158609 0.139160
Si Si5 0.881432 0.287714 0.527413
Si Si6 0.743215 0.650864 0.487607
O O1 0.964821 0.327047 0.328121
O O2 0.166793 0.322524 0.292962
O O3 0.051331 0.250460 0.946581
O O4 0.079612 0.445405 0.008704
O O5 0.818729 0.922995 0.341189
O O6 0.935762 0.094562 0.115678
O O7 0.405991 0.653186 0.669750
O O8 0.589439 0.566547 0.873932
O O9 0.533731 0.750012 0.945295
O O10 0.621146 0.874385 0.265414
O O11 0.564709 0.205763 0.339330
O O12 0.765564 0.281781 0.417496
#
# Coordination Sequence:
#
# PCOD9542455 Si02
#       6
#     4   4   4   4   4   4
#     4  11  27  47  79 107 158 195 267 328 397 481
#     4  11  26  48  77 110 150 203 267 335 402 475
#     4  10  22  42  74 114 157 206 259 326 398 486
#     4  11  27  48  74 115 159 210 270 325 410 484
#     4  12  27  49  79 114 155 216 267 341 411 483
#     4  11  25  47  73 114 154 212 265 329 394 492
#
# _framework density 26.373162000000001
#
# number of rings (size 3 to 8) (size 9 to 14) (size 15 to 20)
#    0.000    1.000    3.333    1.000    7.000    6.667 
#    0.000    3.333    0.000    0.000    0.000    0.000 
#    0.000    0.000    0.000    0.000    0.000    0.000 
#
# Total GULP energy -134165.402230 kJ/mol
# GULP energy per Si atom -5590.225093 kJ/mol
# Density = 2.631314 g / cm^3
# Si number density = 26.373162 Si / 1000 Ang^3
#
#
#
# Elastic Constant Matrix: (Units=GPa)
#
#
# Indices 1 2 3 4 5 6 
#
# 1 115.6609 37.1773 21.6907 0.0000 0.0000 20.1995
# 2 37.1773 115.6609 21.6907 0.0000 0.0000 -20.1995
# 3 21.6907 21.6907 55.5761 0.0000 0.0000 0.0000
# 4 0.0000 0.0000 0.0000 23.4067 0.0000 0.0000
# 5 0.0000 0.0000 0.0000 0.0000 23.4067 0.0000
# 6 20.1995 -20.1995 0.0000 0.0000 0.0000 46.5678
#
#
#
# Elastic Compliance Matrix: (Units=1/GPa)
#
#
# Indices 1 2 3 4 5 6 
#
# 1 0.011881 -0.004523 -0.002872 0.000000 0.000000 -0.007116
# 2 -0.004523 0.011881 -0.002872 0.000000 0.000000 0.007116
# 3 -0.002872 -0.002872 0.020235 0.000000 0.000000 0.000000
# 4 0.000000 0.000000 0.000000 0.042723 0.000000 0.000000
# 5 0.000000 0.000000 0.000000 0.000000 0.042723 0.000000
# 6 -0.007116 0.007116 0.000000 0.000000 0.000000 0.027647
#
#
# Mechanical properties :
#
#
# Convention : Reuss Voigt Hill
#
# Bulk Modulus (GPa) = 42.61854 49.77950 46.19902
# Shear Modulus (GPa) = 26.96227 32.43219 29.69723
#
# Velocity S-wave (km/s) = 3.20087 3.51057 3.35929
# Velocity P-wave (km/s) = 5.46403 5.94543 5.70981
#
# Compressibility (1/GPa) = 0.02346396
#
# Stress axis : x y z
#
# Youngs Moduli (GPa) = 84.16732 84.16732 49.41942
#
# Poissons Ratio (x) = 0.38070 0.14192
# Poissons Ratio (y) = 0.38070 0.14192
# Poissons Ratio (z) = 0.24171 0.24171
#
# Static dielectric constant tensor:
#      x y z
#    x 2.095630 0.000000 0.000000 
#    y 0.000000 2.095630 0.000000 
#    z 0.000000 0.000000 2.100990 
# 
# From -- ./inp_files/267.got.cif
#   From: 2010.05.17/outbox.cif.g08.bks.cpg/sg81_cif.got.tgz:267.got - 2010.06.03 18:51:07.
