data_PCOD9542272
_publ_section_title
;
Structure prediction by ZEFSAII (Michael W. Deem and Ramdas Pophale) SiO2 
 PCOD9542272
Probable space group: I 41
;
_chemical_formula_sum "Si O2"
_cell_formula_units_Z 32
_cell_length_a 9.135521
_cell_length_b 9.135521
_cell_length_c 14.266377
_cell_angle_alpha 90.000000
_cell_angle_beta 90.000000
_cell_angle_gamma 90.000000
_cell_volume 1190.639639
_symmetry_space_group_name_H-M "I 41"
_symmetry_group_IT_number 80
_symmetry_cell_setting 'tetragonal'
loop_
_space_group_symop_operation_xyz
x,y,z
-y,1/2+x,1/4+z
-x,-y,z
y,1/2-x,1/4+z
1/2+x,1/2+y,1/2+z
1/2-y,x,3/4+z
1/2-x,1/2-y,1/2+z
1/2+y,-x,3/4+z
loop_
_atom_site_type_symbol
_atom_site_label
_atom_site_fract_x
_atom_site_fract_y
_atom_site_fract_z
Si Si1 0.653041 0.365663 0.253500
Si Si2 0.865663 0.153041 0.337306
Si Si3 0.764987 0.896816 0.213091
Si Si4 0.264987 0.103184 0.627715
O O1 0.805390 0.305390 0.295403
O O2 0.614530 0.250000 0.170403
O O3 0.534402 0.349902 0.335116
O O4 0.326998 0.474420 0.210506
O O5 0.025580 0.173002 0.380300
O O6 0.849902 0.034402 0.255690
O O7 0.837919 0.750000 0.170403
O O8 0.659268 0.840732 0.295403
#
# Coordination Sequence:
#
# PCOD9542272 Si02
#       4
#     8   8   8   8
#     4   9  21  44  72 101 140 192 243 294 357 432
#     4   9  21  44  72 101 140 192 243 294 357 432
#     4  11  24  43  73 109 143 188 244 301 363 432
#     4  11  24  43  73 109 143 188 244 301 363 432
#
# _framework density 26.876311999999999
#
# number of rings (size 3 to 8) (size 9 to 14) (size 15 to 20)
#    0.000    2.000    0.000    1.500    0.000   23.000 
#    0.000   20.000    0.000    0.000    0.000   14.000 
#    0.000    0.000    0.000    0.000    0.000    0.000 
#
# Total GULP energy -89666.871998 kJ/mol
# GULP energy per Si atom -5604.179500 kJ/mol
# Density = 2.681514 g / cm^3
# Si number density = 26.876312 Si / 1000 Ang^3
#
#
#
# Elastic Constant Matrix: (Units=GPa)
#
#
# Indices 1 2 3 4 5 6 
#
# 1 134.5133 21.1841 35.9576 0.0000 0.0000 0.0000
# 2 21.1841 134.5133 35.9576 0.0000 0.0000 0.0000
# 3 35.9576 35.9576 114.0299 0.0000 0.0000 0.0000
# 4 0.0000 0.0000 0.0000 55.9741 0.0000 0.0000
# 5 0.0000 0.0000 0.0000 0.0000 55.9741 0.0000
# 6 0.0000 0.0000 0.0000 0.0000 0.0000 23.5631
#
#
#
# Elastic Compliance Matrix: (Units=1/GPa)
#
#
# Indices 1 2 3 4 5 6 
#
# 1 0.008171 -0.000653 -0.002371 0.000000 0.000000 0.000000
# 2 -0.000653 0.008171 -0.002371 0.000000 0.000000 0.000000
# 3 -0.002371 -0.002371 0.010265 0.000000 0.000000 0.000000
# 4 0.000000 0.000000 0.000000 0.017865 0.000000 0.000000
# 5 0.000000 0.000000 0.000000 0.000000 0.017865 0.000000
# 6 0.000000 0.000000 0.000000 0.000000 0.000000 0.042439
#
#
# Mechanical properties :
#
#
# Convention : Reuss Voigt Hill
#
# Bulk Modulus (GPa) = 63.22036 63.25056 63.23546
# Shear Modulus (GPa) = 41.37795 46.43275 43.90535
#
# Velocity S-wave (km/s) = 3.92799 4.16101 4.04618
# Velocity P-wave (km/s) = 6.64424 6.83157 6.73855
#
# Compressibility (1/GPa) = 0.01581769
#
# Stress axis : x y z
#
# Youngs Moduli (GPa) = 122.38772 122.38772 97.42145
#
# Poissons Ratio (x) = 0.07993 0.23095
# Poissons Ratio (y) = 0.07993 0.23095
# Poissons Ratio (z) = 0.29013 0.29013
#
# Static dielectric constant tensor:
#      x y z
#    x 2.099990 0.000000 0.000000 
#    y 0.000000 2.099990 0.000000 
#    z 0.000000 0.000000 2.089780 
# 
# From -- ./inp_files/1197.got.cif
#   From: 2010.05.17/outbox.cif.g08.bks.cpg/sg80_cif.got.tgz:1197.got - 2010.06.03 18:49:13.
