data_PCOD9542404
_publ_section_title
;
Structure prediction by ZEFSAII (Michael W. Deem and Ramdas Pophale) SiO2 
 PCOD9542404
Probable space group: P -4
;
_chemical_formula_sum "Si O2"
_cell_formula_units_Z 24
_cell_length_a 13.250701
_cell_length_b 13.250701
_cell_length_c 6.224684
_cell_angle_alpha 90.000000
_cell_angle_beta 90.000000
_cell_angle_gamma 90.000000
_cell_volume 1092.936721
_symmetry_space_group_name_H-M "P -4"
_symmetry_group_IT_number 81
_symmetry_cell_setting 'tetragonal'
loop_
_space_group_symop_operation_xyz
x,y,z
y,-x,-z
-x,-y,z
-y,x,-z
loop_
_atom_site_type_symbol
_atom_site_label
_atom_site_fract_x
_atom_site_fract_y
_atom_site_fract_z
Si Si1 0.859769 0.020257 0.123206
Si Si2 0.292676 0.459975 0.686244
Si Si3 0.500000 0.000000 0.633081
Si Si4 0.329406 0.248884 0.563074
Si Si5 0.454733 0.174295 0.943791
Si Si6 0.667011 0.940448 0.305964
Si Si7 0.000000 0.000000 0.500000
Si Si8 0.500000 0.500000 0.500000
O O1 0.743729 0.011138 0.177636
O O2 0.914206 0.042301 0.347103
O O3 0.900846 0.910318 0.041255
O O4 0.266413 0.352687 0.575746
O O5 0.261699 0.562035 0.559229
O O6 0.252203 0.474527 0.927345
O O7 0.412874 0.460854 0.656486
O O8 0.402278 0.006860 0.482818
O O9 0.508163 0.098831 0.779731
O O10 0.282022 0.153695 0.436819
O O11 0.364241 0.224102 0.806127
O O12 0.405851 0.105781 0.127219
#
# Coordination Sequence:
#
# PCOD9542404 Si02
#       8
#     4   4   2   4   4   4   1   1
#     4   9  20  39  65  93 117 148 192 245 308 369
#     4   9  18  35  55  84 121 157 201 248 294 351
#     4  10  22  40  60  82 120 166 202 250 302 354
#     4   9  20  35  55  83 121 158 199 248 299 355
#     4  10  21  38  58  82 116 159 205 247 294 358
#     4  10  21  41  60  86 123 156 198 251 302 363
#     4   8  18  40  60  86 120 144 178 244 304 362
#     4   8  16  32  58  88 120 162 196 248 314 344
#
# _framework density 21.959185999999999
#
# number of rings (size 3 to 8) (size 9 to 14) (size 15 to 20)
#    0.000    2.833    0.000    0.500    0.000   10.667 
#    0.000   22.500    0.000    0.000    0.000    0.000 
#    0.000    0.000    0.000    0.000    0.000    0.000 
#
# Total GULP energy -133794.887294 kJ/mol
# GULP energy per Si atom -5574.786971 kJ/mol
# Density = 2.190921 g / cm^3
# Si number density = 21.959186 Si / 1000 Ang^3
#
#
#
# Elastic Constant Matrix: (Units=GPa)
#
#
# Indices 1 2 3 4 5 6 
#
# 1 49.2114 12.7096 32.2599 0.0000 0.0000 7.4313
# 2 12.7096 49.2114 32.2599 0.0000 0.0000 -7.4313
# 3 32.2599 32.2599 115.3622 0.0000 0.0000 0.0000
# 4 0.0000 0.0000 0.0000 23.1517 0.0000 0.0000
# 5 0.0000 0.0000 0.0000 0.0000 23.1517 0.0000
# 6 7.4313 -7.4313 0.0000 0.0000 0.0000 19.6220
#
#
#
# Elastic Compliance Matrix: (Units=1/GPa)
#
#
# Indices 1 2 3 4 5 6 
#
# 1 0.027590 -0.004800 -0.006373 0.000000 0.000000 -0.012267
# 2 -0.004800 0.027590 -0.006373 0.000000 0.000000 0.012267
# 3 -0.006373 -0.006373 0.012233 0.000000 0.000000 0.000000
# 4 0.000000 0.000000 0.000000 0.043193 0.000000 0.000000
# 5 0.000000 0.000000 0.000000 0.000000 0.043193 0.000000
# 6 -0.012267 0.012267 0.000000 0.000000 0.000000 0.060255
#
#
# Mechanical properties :
#
#
# Convention : Reuss Voigt Hill
#
# Bulk Modulus (GPa) = 30.93990 40.91599 35.92794
# Shear Modulus (GPa) = 19.23659 22.28881 20.76270
#
# Velocity S-wave (km/s) = 2.96297 3.18938 3.07826
# Velocity P-wave (km/s) = 5.08192 5.67768 5.38804
#
# Compressibility (1/GPa) = 0.03232072
#
# Stress axis : x y z
#
# Youngs Moduli (GPa) = 36.24447 36.24447 81.74852
#
# Poissons Ratio (x) = 0.17399 0.52098
# Poissons Ratio (y) = 0.17399 0.52098
# Poissons Ratio (z) = 0.23099 0.23099
#
# Static dielectric constant tensor:
#      x y z
#    x 1.863230 0.000000 0.000000 
#    y 0.000000 1.863230 0.000000 
#    z 0.000000 0.000000 1.794180 
# 
# From -- ./inp_files/360.got.cif
#   From: 2010.05.17/outbox.cif.g08.bks.cpg/sg81_cif.got.tgz:360.got - 2010.06.03 18:51:07.
