data_PCOD9542221
_publ_section_title
;
Structure prediction by ZEFSAII (Michael W. Deem and Ramdas Pophale) SiO2 
 PCOD9542221
Probable space group: I 41
;
_chemical_formula_sum "Si O2"
_cell_formula_units_Z 40
_cell_length_a 8.579232
_cell_length_b 8.579232
_cell_length_c 19.777042
_cell_angle_alpha 90.000000
_cell_angle_beta 90.000000
_cell_angle_gamma 90.000000
_cell_volume 1455.654007
_symmetry_space_group_name_H-M "I 41"
_symmetry_group_IT_number 80
_symmetry_cell_setting 'tetragonal'
loop_
_space_group_symop_operation_xyz
x,y,z
-y,1/2+x,1/4+z
-x,-y,z
y,1/2-x,1/4+z
1/2+x,1/2+y,1/2+z
1/2-y,x,3/4+z
1/2-x,1/2-y,1/2+z
1/2+y,-x,3/4+z
loop_
_atom_site_type_symbol
_atom_site_label
_atom_site_fract_x
_atom_site_fract_y
_atom_site_fract_z
Si Si1 0.500000 0.500000 0.325470
Si Si2 0.500883 0.732711 0.096187
Si Si3 0.519183 0.725118 0.770283
Si Si4 0.827907 0.806875 0.712582
Si Si5 0.330362 0.701719 0.637848
Si Si6 0.000000 0.500000 0.738332
O O1 0.418312 0.380131 0.274200
O O2 0.639293 0.414975 0.365201
O O3 0.598499 0.872077 0.060304
O O4 0.623159 0.631883 0.139751
O O5 0.355965 0.776642 0.144033
O O6 0.424732 0.626647 0.038650
O O7 0.649104 0.822065 0.730049
O O8 0.409669 0.660573 0.709657
O O9 0.424057 0.825205 0.825969
O O10 0.888060 0.627881 0.704146
#
# Coordination Sequence:
#
# PCOD9542221 Si02
#       6
#     4   8   8   8   8   4
#     4  12  27  52  84 124 167 228 282 372 430 526
#     4  11  25  50  82 116 165 227 284 353 430 523
#     4  11  30  51  88 120 175 226 287 371 426 530
#     4  11  26  50  80 118 162 225 285 349 441 507
#     4  12  28  53  82 129 171 225 294 357 455 512
#     4  10  23  46  74 112 153 218 278 338 406 532
#
# _framework density 27.479057000000001
#
# number of rings (size 3 to 8) (size 9 to 14) (size 15 to 20)
#    0.000    0.800    2.000    2.400    8.400    7.200 
#    0.000    0.000    0.000    0.000    0.000    0.000 
#    0.000    0.000    0.000    0.000    0.000    0.000 
#
# Total GULP energy -111908.161229 kJ/mol
# GULP energy per Si atom -5595.408061 kJ/mol
# Density = 2.741651 g / cm^3
# Si number density = 27.479057 Si / 1000 Ang^3
#
#
#
# Elastic Constant Matrix: (Units=GPa)
#
#
# Indices 1 2 3 4 5 6 
#
# 1 148.8042 43.8130 82.7563 0.0000 0.0000 -0.8111
# 2 43.8130 148.8042 82.7563 0.0000 0.0000 0.8111
# 3 82.7563 82.7563 191.6931 0.0000 0.0000 0.0000
# 4 0.0000 0.0000 0.0000 50.2654 0.0000 0.0000
# 5 0.0000 0.0000 0.0000 0.0000 50.2654 0.0000
# 6 -0.8111 0.8111 0.0000 0.0000 0.0000 50.1669
#
#
#
# Elastic Compliance Matrix: (Units=1/GPa)
#
#
# Indices 1 2 3 4 5 6 
#
# 1 0.008890 -0.000637 -0.003563 0.000000 0.000000 0.000154
# 2 -0.000637 0.008890 -0.003563 0.000000 0.000000 -0.000154
# 3 -0.003563 -0.003563 0.008293 0.000000 0.000000 0.000000
# 4 0.000000 0.000000 0.000000 0.019894 0.000000 0.000000
# 5 0.000000 0.000000 0.000000 0.000000 0.019894 0.000000
# 6 0.000154 -0.000154 0.000000 0.000000 0.000000 0.019938
#
#
# Mechanical properties :
#
#
# Convention : Reuss Voigt Hill
#
# Bulk Modulus (GPa) = 94.80917 100.88364 97.84640
# Shear Modulus (GPa) = 47.69065 48.80463 48.24764
#
# Velocity S-wave (km/s) = 4.17049 4.21891 4.19477
# Velocity P-wave (km/s) = 7.60052 7.77978 7.69067
#
# Compressibility (1/GPa) = 0.01054750
#
# Stress axis : x y z
#
# Youngs Moduli (GPa) = 112.48402 112.48402 120.58208
#
# Poissons Ratio (x) = 0.07163 0.42964
# Poissons Ratio (y) = 0.07163 0.42964
# Poissons Ratio (z) = 0.40079 0.40079
#
# Static dielectric constant tensor:
#      x y z
#    x 2.216330 0.000000 0.000000 
#    y 0.000000 2.216330 0.000000 
#    z 0.000000 0.000000 2.232330 
# 
# From -- ./inp_files/2052.got.cif
#   From: 2010.05.17/outbox.cif.g08.bks.cpg/sg80_cif.got.tgz:2052.got - 2010.06.03 18:49:13.
