data_PCOD9542528
_publ_section_title
;
Structure prediction by ZEFSAII (Michael W. Deem and Ramdas Pophale) SiO2 
 PCOD9542528
Probable space group: P -4
;
_chemical_formula_sum "Si O2"
_cell_formula_units_Z 19
_cell_length_a 9.108983
_cell_length_b 9.108983
_cell_length_c 11.331031
_cell_angle_alpha 90.000000
_cell_angle_beta 90.000000
_cell_angle_gamma 90.000000
_cell_volume 940.176109
_symmetry_space_group_name_H-M "P -4"
_symmetry_group_IT_number 81
_symmetry_cell_setting 'tetragonal'
loop_
_space_group_symop_operation_xyz
x,y,z
y,-x,-z
-x,-y,z
-y,x,-z
loop_
_atom_site_type_symbol
_atom_site_label
_atom_site_fract_x
_atom_site_fract_y
_atom_site_fract_z
Si Si1 0.103927 0.254183 0.366317
Si Si2 0.408684 0.148616 0.259303
Si Si3 0.425654 0.709405 0.456433
Si Si4 0.000000 0.000000 0.500000
Si Si5 0.259631 0.550881 0.999037
Si Si6 0.000000 0.500000 0.184659
O O1 0.247052 0.166371 0.316546
O O2 0.157385 0.345088 0.480539
O O3 0.986841 0.139491 0.415328
O O4 0.043888 0.363491 0.267712
O O5 0.509041 0.266468 0.327918
O O6 0.500000 0.000000 0.278790
O O7 0.400592 0.180907 0.121367
O O8 0.566586 0.675008 0.538341
O O9 0.139766 0.538630 0.102422
O O10 0.392158 0.664447 0.021889
#
# Coordination Sequence:
#
# PCOD9542528 Si02
#       6
#     4   4   4   1   4   2
#     4  11  26  43  69 102 137 188 224 295 353 427
#     4  11  22  41  68  98 135 177 229 285 352 418
#     4   9  21  37  63  99 129 165 220 282 345 407
#     4  12  28  48  64 106 148 188 228 276 374 436
#     4  11  25  44  68  97 133 181 234 289 343 408
#     4  12  26  46  68 104 142 182 238 294 352 424
#
# _framework density 20.20898
#
# number of rings (size 3 to 8) (size 9 to 14) (size 15 to 20)
#    0.000    1.263    3.158    1.263   10.316    3.368 
#    0.000    0.000    0.000    0.000    0.000    0.000 
#    0.000    0.000    0.000    0.000    0.000    0.000 
#
# Total GULP energy -106154.365873 kJ/mol
# GULP energy per Si atom -5587.071888 kJ/mol
# Density = 2.016298 g / cm^3
# Si number density = 20.208980 Si / 1000 Ang^3
#
#
#
# Elastic Constant Matrix: (Units=GPa)
#
#
# Indices 1 2 3 4 5 6 
#
# 1 60.4167 36.9066 26.8568 0.0000 0.0000 2.2422
# 2 36.9066 60.4167 26.8568 0.0000 0.0000 -2.2422
# 3 26.8568 26.8568 93.3475 0.0000 0.0000 0.0000
# 4 0.0000 0.0000 0.0000 31.1035 0.0000 0.0000
# 5 0.0000 0.0000 0.0000 0.0000 31.1035 0.0000
# 6 2.2422 -2.2422 0.0000 0.0000 0.0000 38.2838
#
#
#
# Elastic Compliance Matrix: (Units=1/GPa)
#
#
# Indices 1 2 3 4 5 6 
#
# 1 0.027615 -0.015400 -0.003514 0.000000 0.000000 -0.002519
# 2 -0.015400 0.027615 -0.003514 0.000000 0.000000 0.002519
# 3 -0.003514 -0.003514 0.012735 0.000000 0.000000 0.000000
# 4 0.000000 0.000000 0.000000 0.032151 0.000000 0.000000
# 5 0.000000 0.000000 0.000000 0.000000 0.032151 0.000000
# 6 -0.002519 0.002519 0.000000 0.000000 0.000000 0.026416
#
#
# Mechanical properties :
#
#
# Convention : Reuss Voigt Hill
#
# Bulk Modulus (GPa) = 43.27689 43.93572 43.60631
# Shear Modulus (GPa) = 23.66952 28.33552 26.00252
#
# Velocity S-wave (km/s) = 3.42605 3.74856 3.59093
# Velocity P-wave (km/s) = 6.09193 6.36581 6.23037
#
# Compressibility (1/GPa) = 0.02310702
#
# Stress axis : x y z
#
# Youngs Moduli (GPa) = 36.21224 36.21224 78.52502
#
# Poissons Ratio (x) = 0.55768 0.27595
# Poissons Ratio (y) = 0.55768 0.27595
# Poissons Ratio (z) = 0.12726 0.12726
#
# Static dielectric constant tensor:
#      x y z
#    x 1.731830 0.000000 0.000000 
#    y 0.000000 1.731830 0.000000 
#    z 0.000000 0.000000 1.674160 
# 
# From -- ./inp_files/1156.got.cif
#   From: 2010.05.17/outbox.cif.g08.bks.cpg/sg81_cif.got.tgz:1156.got - 2010.06.03 18:51:07.
