data_PCOD9542067
_publ_section_title
;
Structure prediction by ZEFSAII (Michael W. Deem and Ramdas Pophale) SiO2 
 PCOD9542067
Probable space group: I 41
;
_chemical_formula_sum "Si O2"
_cell_formula_units_Z 64
_cell_length_a 26.757839
_cell_length_b 26.757839
_cell_length_c 5.302835
_cell_angle_alpha 90.000000
_cell_angle_beta 90.000000
_cell_angle_gamma 90.000000
_cell_volume 3796.734133
_symmetry_space_group_name_H-M "I 41"
_symmetry_group_IT_number 80
_symmetry_cell_setting 'tetragonal'
loop_
_space_group_symop_operation_xyz
x,y,z
-y,1/2+x,1/4+z
-x,-y,z
y,1/2-x,1/4+z
1/2+x,1/2+y,1/2+z
1/2-y,x,3/4+z
1/2-x,1/2-y,1/2+z
1/2+y,-x,3/4+z
loop_
_atom_site_type_symbol
_atom_site_label
_atom_site_fract_x
_atom_site_fract_y
_atom_site_fract_z
Si Si1 0.730342 0.432388 0.057960
Si Si2 0.625556 0.060014 0.397794
Si Si3 0.353927 0.859408 0.797683
Si Si4 0.708289 0.055932 0.054424
Si Si5 0.466676 0.051386 0.149609
Si Si6 0.050248 0.626282 0.603482
Si Si7 0.321928 0.773880 0.135405
Si Si8 0.941487 0.518193 0.158813
O O1 0.762824 0.454317 0.290477
O O2 0.728586 0.371700 0.058438
O O3 0.752464 0.442371 0.780391
O O4 0.673834 0.451928 0.037463
O O5 0.650369 0.107970 0.541858
O O6 0.662355 0.030460 0.209206
O O7 0.580842 0.082757 0.239915
O O8 0.598242 0.024901 0.598597
O O9 0.320622 0.892625 0.989044
O O10 0.412862 0.860343 0.871825
O O11 0.335679 0.804505 0.878296
O O12 0.498237 0.099186 0.059319
O O13 0.442954 0.055907 0.424244
O O14 0.500000 0.000000 0.173217
O O15 0.428563 0.040708 0.927036
O O16 0.279211 0.801309 0.295501
O O17 0.000000 0.500000 0.180806
#
# Coordination Sequence:
#
# PCOD9542067 Si02
#       8
#     8   8   8   8   8   8   8   8
#     4  11  25  40  51  69  89 123 166 211 246 318
#     4  11  21  36  57  75  95 130 151 200 256 325
#     4  10  21  37  53  68  86 115 159 193 260 318
#     4  11  23  39  52  67  92 117 166 203 242 298
#     4  10  18  32  48  78 103 119 140 181 235 322
#     4  10  22  33  55  72  97 129 154 194 258 319
#     4  11  25  37  53  65  84 112 154 221 286 325
#     4  10  19  30  52  76 107 113 145 175 242 317
#
# _framework density 16.856594000000001
#
# number of rings (size 3 to 8) (size 9 to 14) (size 15 to 20)
#    0.000    1.500    5.000    1.500    7.000    0.000 
#    2.250    0.000    0.000    0.000    0.000    0.000 
#    0.000    0.000    0.000    0.000    0.000    0.000 
#
# Total GULP energy -178174.113980 kJ/mol
# GULP energy per Si atom -5567.941062 kJ/mol
# Density = 1.681823 g / cm^3
# Si number density = 16.856594 Si / 1000 Ang^3
#
#
#
# Elastic Constant Matrix: (Units=GPa)
#
#
# Indices 1 2 3 4 5 6 
#
# 1 36.6248 26.5472 9.1024 0.0000 0.0000 -1.5644
# 2 26.5472 36.6248 9.1024 0.0000 0.0000 1.5644
# 3 9.1024 9.1024 91.9388 0.0000 0.0000 0.0000
# 4 0.0000 0.0000 0.0000 29.2256 0.0000 0.0000
# 5 0.0000 0.0000 0.0000 0.0000 29.2256 0.0000
# 6 -1.5644 1.5644 0.0000 0.0000 0.0000 19.5898
#
#
#
# Elastic Compliance Matrix: (Units=1/GPa)
#
#
# Indices 1 2 3 4 5 6 
#
# 1 0.059024 -0.042729 -0.001613 0.000000 0.000000 0.008126
# 2 -0.042729 0.059024 -0.001613 0.000000 0.000000 -0.008126
# 3 -0.001613 -0.001613 0.011196 0.000000 0.000000 0.000000
# 4 0.000000 0.000000 0.000000 0.034217 0.000000 0.000000
# 5 0.000000 0.000000 0.000000 0.000000 0.034217 0.000000
# 6 0.008126 -0.008126 0.000000 0.000000 0.000000 0.052345
#
#
# Mechanical properties :
#
#
# Convention : Reuss Voigt Hill
#
# Bulk Modulus (GPa) = 26.78623 28.29916 27.54270
# Shear Modulus (GPa) = 14.10928 23.63727 18.87327
#
# Velocity S-wave (km/s) = 2.89627 3.74873 3.34973
# Velocity P-wave (km/s) = 5.20669 5.96339 5.59784
#
# Compressibility (1/GPa) = 0.03733261
#
# Stress axis : x y z
#
# Youngs Moduli (GPa) = 16.94235 16.94235 89.31565
#
# Poissons Ratio (x) = 0.72393 0.14409
# Poissons Ratio (y) = 0.72393 0.14409
# Poissons Ratio (z) = 0.02733 0.02733
#
# Static dielectric constant tensor:
#      x y z
#    x 1.585960 0.000000 0.000000 
#    y 0.000000 1.585960 0.000000 
#    z 0.000000 0.000000 1.697520 
# 
# From -- ./inp_files/444.got.cif
#   From: 2010.05.17/outbox.cif.g08.bks.cpg/sg80_cif.got.tgz:444.got - 2010.06.03 18:49:13.
