data_PCOD9542372
_publ_section_title
;
Structure prediction by ZEFSAII (Michael W. Deem and Ramdas Pophale) SiO2 
 PCOD9542372
Probable space group: P -4
;
_chemical_formula_sum "Si O2"
_cell_formula_units_Z 25
_cell_length_a 14.223054
_cell_length_b 14.223054
_cell_length_c 5.298952
_cell_angle_alpha 90.000000
_cell_angle_beta 90.000000
_cell_angle_gamma 90.000000
_cell_volume 1071.952900
_symmetry_space_group_name_H-M "P -4"
_symmetry_group_IT_number 81
_symmetry_cell_setting 'tetragonal'
loop_
_space_group_symop_operation_xyz
x,y,z
y,-x,-z
-x,-y,z
-y,x,-z
loop_
_atom_site_type_symbol
_atom_site_label
_atom_site_fract_x
_atom_site_fract_y
_atom_site_fract_z
Si Si1 0.854371 0.720469 0.086031
Si Si2 0.918337 0.552529 0.761859
Si Si3 0.864395 0.145858 0.299592
Si Si4 0.506781 0.723190 0.204626
Si Si5 0.284580 0.000529 0.539351
Si Si6 0.000000 0.000000 0.500000
Si Si7 0.694147 0.608854 0.303717
O O1 0.858886 0.635391 0.889543
O O2 0.825024 0.819110 0.965672
O O3 0.961753 0.724310 0.177123
O O4 0.783512 0.679608 0.294145
O O5 0.832913 0.481501 0.713887
O O6 0.978943 0.609820 0.552898
O O7 0.000000 0.500000 0.916818
O O8 0.784888 0.074035 0.401547
O O9 0.897069 0.237227 0.458056
O O10 0.955693 0.079458 0.320374
O O11 0.603221 0.667725 0.230317
O O12 0.436188 0.684498 0.420432
O O13 0.468471 0.710074 0.918388
#
# Coordination Sequence:
#
# PCOD9542372 Si02
#       7
#     4   4   4   4   4   1   4
#     4  10  22  40  61  90 131 168 223 278 336 412
#     4  10  23  43  61  91 130 170 222 276 335 417
#     4   9  20  34  59  87 124 171 216 278 331 391
#     4  11  24  45  70 103 135 177 223 288 337 424
#     4  10  20  39  58  88 126 165 222 270 335 404
#     4   8  16  36  54  88 128 170 232 284 330 400
#     4  11  24  44  70 101 137 173 225 281 353 405
#
# _framework density 23.321922000000001
#
# number of rings (size 3 to 8) (size 9 to 14) (size 15 to 20)
#    0.000    1.920    1.600    0.960    0.000   10.240 
#    2.880    0.800    0.000    0.000    0.000    0.000 
#    0.000    0.000    0.000    0.000    0.000    0.000 
#
# Total GULP energy -139219.299164 kJ/mol
# GULP energy per Si atom -5568.771967 kJ/mol
# Density = 2.326884 g / cm^3
# Si number density = 23.321922 Si / 1000 Ang^3
#
#
#
# Elastic Constant Matrix: (Units=GPa)
#
#
# Indices 1 2 3 4 5 6 
#
# 1 55.3431 23.5197 -6.2285 0.0000 0.0000 -9.0495
# 2 23.5197 55.3431 -6.2285 0.0000 0.0000 9.0495
# 3 -6.2285 -6.2285 52.3363 0.0000 0.0000 0.0000
# 4 0.0000 0.0000 0.0000 21.0696 0.0000 0.0000
# 5 0.0000 0.0000 0.0000 0.0000 21.0696 0.0000
# 6 -9.0495 9.0495 0.0000 0.0000 0.0000 29.8548
#
#
#
# Elastic Compliance Matrix: (Units=1/GPa)
#
#
# Indices 1 2 3 4 5 6 
#
# 1 0.025446 -0.012523 0.001538 0.000000 0.000000 0.011509
# 2 -0.012523 0.025446 0.001538 0.000000 0.000000 -0.011509
# 3 0.001538 0.001538 0.019473 0.000000 0.000000 0.000000
# 4 0.000000 0.000000 0.000000 0.047462 0.000000 0.000000
# 5 0.000000 0.000000 0.000000 0.000000 0.047462 0.000000
# 6 0.011509 -0.011509 0.000000 0.000000 0.000000 0.040473
#
#
# Mechanical properties :
#
#
# Convention : Reuss Voigt Hill
#
# Bulk Modulus (GPa) = 19.42821 20.57198 20.00010
# Shear Modulus (GPa) = 20.67719 24.52946 22.60332
#
# Velocity S-wave (km/s) = 2.98081 3.24663 3.11656
# Velocity P-wave (km/s) = 4.49394 4.78478 4.64164
#
# Compressibility (1/GPa) = 0.05147155
#
# Stress axis : x y z
#
# Youngs Moduli (GPa) = 39.29878 39.29878 51.35244
#
# Poissons Ratio (x) = 0.49213 -0.07898
# Poissons Ratio (y) = 0.49213 -0.07898
# Poissons Ratio (z) = -0.06044 -0.06044
#
# Static dielectric constant tensor:
#      x y z
#    x 1.938770 0.000000 0.000000 
#    y 0.000000 1.938770 0.000000 
#    z 0.000000 0.000000 2.060510 
# 
# From -- ./inp_files/332.got.cif
#   From: 2010.05.17/outbox.cif.g08.bks.cpg/sg81_cif.got.tgz:332.got - 2010.06.03 18:51:07.
