data_PCOD9542945
_publ_section_title
;
Structure prediction by ZEFSAII (Michael W. Deem and Ramdas Pophale) SiO2 
 PCOD9542945
Probable space group: I -4 
;
_chemical_formula_sum "Si O2"
_cell_formula_units_Z 40
_cell_length_a 10.991075
_cell_length_b 10.991075
_cell_length_c 13.753782
_cell_angle_alpha 90.000000
_cell_angle_beta 90.000000
_cell_angle_gamma 90.000000
_cell_volume 1661.508162
_symmetry_space_group_name_H-M "I -4 "
_symmetry_group_IT_number 82
_symmetry_cell_setting 'tetragonal'
loop_
_space_group_symop_operation_xyz
x,y,z
y,-x,-z
-x,-y,z
-y,x,-z
1/2+x,1/2+y,1/2+z
1/2+y,1/2-x,1/2-z
1/2-x,1/2-y,1/2+z
1/2-y,1/2+x,1/2-z
loop_
_atom_site_type_symbol
_atom_site_label
_atom_site_fract_x
_atom_site_fract_y
_atom_site_fract_z
Si Si1 0.500000 0.500000 0.000000
Si Si2 0.116049 0.309745 0.625415
Si Si3 0.774402 0.362668 0.335698
Si Si4 0.500000 0.000000 0.250000
Si Si5 0.822207 0.198274 0.035863
Si Si6 0.500000 0.500000 0.500000
Si Si7 0.000000 0.500000 0.250000
Si Si8 0.658277 0.630036 0.850401
O O1 0.551239 0.606029 0.929270
O O2 0.216130 0.218428 0.669433
O O3 0.099539 0.432203 0.685957
O O4 0.177594 0.352912 0.524374
O O5 0.990002 0.239362 0.632853
O O6 0.748595 0.374087 0.450222
O O7 0.666808 0.389110 0.256856
O O8 0.892843 0.436756 0.309785
O O9 0.923195 0.098533 0.062090
O O10 0.739350 0.251714 0.119445
#
# Coordination Sequence:
#
# PCOD9542945 Si02
#       8
#     2   8   8   2   8   2   2   8
#     4  12  24  42  72 112 140 182 248 314 372 436
#     4  10  23  45  68 111 138 184 253 304 381 434
#     4  10  27  48  73 107 149 199 248 307 389 443
#     4  12  20  44  74 104 136 186 236 320 362 452
#     4  10  27  48  69 111 143 199 251 303 388 446
#     4  12  28  50  68 100 160 206 252 302 384 480
#     4  12  28  48  74 104 160 206 248 292 394 472
#     4  12  24  45  78 106 147 185 254 315 370 451
#
# _framework density 24.074511999999999
#
# number of rings (size 3 to 8) (size 9 to 14) (size 15 to 20)
#    1.200    0.000    4.000    0.000   11.200    2.400 
#    0.000    1.000    0.000    0.000    0.000    0.000 
#    0.000    0.000    0.000    0.000    0.000    0.000 
#
# Total GULP energy -111447.700833 kJ/mol
# GULP energy per Si atom -5572.385042 kJ/mol
# Density = 2.401972 g / cm^3
# Si number density = 24.074512 Si / 1000 Ang^3
#
#
#
# Elastic Constant Matrix: (Units=GPa)
#
#
# Indices 1 2 3 4 5 6 
#
# 1 72.2054 42.2612 15.1438 0.0000 0.0000 4.4316
# 2 42.2612 72.2054 15.1438 0.0000 0.0000 -4.4316
# 3 15.1438 15.1438 78.7139 0.0000 0.0000 0.0000
# 4 0.0000 0.0000 0.0000 -9.2469 0.0000 0.0000
# 5 0.0000 0.0000 0.0000 0.0000 -9.2469 0.0000
# 6 4.4316 -4.4316 0.0000 0.0000 0.0000 70.0576
#
#
#
# Elastic Compliance Matrix: (Units=1/GPa)
#
#
# Indices 1 2 3 4 5 6 
#
# 1 0.021619 -0.012414 -0.001771 0.000000 0.000000 -0.002153
# 2 -0.012414 0.021619 -0.001771 0.000000 0.000000 0.002153
# 3 -0.001771 -0.001771 0.013386 0.000000 0.000000 0.000000
# 4 0.000000 0.000000 0.000000 -0.108144 0.000000 0.000000
# 5 0.000000 0.000000 0.000000 0.000000 -0.108144 0.000000
# 6 -0.002153 0.002153 0.000000 0.000000 0.000000 0.014546
#
#
# Mechanical properties :
#
#
# Convention : Reuss Voigt Hill
#
# Bulk Modulus (GPa) = 40.46694 40.91358 40.69026
# Shear Modulus (GPa) = -47.63245 20.35115 -13.64065
#
# Velocity S-wave (km/s) = -4.45291 2.91063 -2.38292
# Velocity P-wave (km/s) = 3.09715 5.32232 3.06062
#
# Compressibility (1/GPa) = 0.02471153
#
# Stress axis : x y z
#
# Youngs Moduli (GPa) = 46.25630 46.25629 74.70691
#
# Poissons Ratio (x) = 0.57422 0.13230
# Poissons Ratio (y) = 0.57422 0.13230
# Poissons Ratio (z) = 0.08192 0.08192
#
# Static dielectric constant tensor:
#      x y z
#    x 2.174070 0.000000 0.000000 
#    y 0.000000 2.174070 0.000000 
#    z 0.000000 0.000000 1.956410 
# 
# From -- ./inp_files/2255.got.cif
#   From: 2010.05.17/outbox.cif.g08.bks.cpg/sg82_2_cif.got.tgz:2255.got - 2010.06.03 18:52:26.
