data_PCOD9542389
_publ_section_title
;
Structure prediction by ZEFSAII (Michael W. Deem and Ramdas Pophale) SiO2 
 PCOD9542389
Probable space group: P -4
;
_chemical_formula_sum "Si O2"
_cell_formula_units_Z 26
_cell_length_a 13.585115
_cell_length_b 13.585115
_cell_length_c 5.781043
_cell_angle_alpha 90.000000
_cell_angle_beta 90.000000
_cell_angle_gamma 90.000000
_cell_volume 1066.922412
_symmetry_space_group_name_H-M "P -4"
_symmetry_group_IT_number 81
_symmetry_cell_setting 'tetragonal'
loop_
_space_group_symop_operation_xyz
x,y,z
y,-x,-z
-x,-y,z
-y,x,-z
loop_
_atom_site_type_symbol
_atom_site_label
_atom_site_fract_x
_atom_site_fract_y
_atom_site_fract_z
Si Si1 0.618758 0.008629 0.433990
Si Si2 0.087579 0.113106 0.885794
Si Si3 0.507651 0.357945 0.383338
Si Si4 0.500000 0.500000 0.000000
Si Si5 0.000000 0.000000 0.500000
Si Si6 0.618221 0.006936 0.930926
Si Si7 0.211548 0.710412 0.075865
Si Si8 0.356397 0.221043 0.424424
O O1 0.648868 0.053468 0.683087
O O2 0.659334 0.896396 0.432368
O O3 0.500000 0.000000 0.436327
O O4 0.646683 0.050848 0.181946
O O5 0.175522 0.186048 0.909361
O O6 0.035827 0.094919 0.642143
O O7 0.996616 0.129408 0.057551
O O8 0.404673 0.417300 0.435942
O O9 0.535383 0.404286 0.140364
O O10 0.473303 0.247221 0.407110
O O11 0.654180 0.893781 0.928585
O O12 0.500000 0.000000 0.929732
O O13 0.258884 0.680670 0.323571
O O14 0.256484 0.686891 0.823271
#
# Coordination Sequence:
#
# PCOD9542389 Si02
#       8
#     4   4   4   1   1   4   4   4
#     4   8  14  27  47  70 100 142 184 212 263 339
#     4   9  20  37  62  87 113 157 204 252 301 354
#     4   9  20  37  62  87 113 157 204 252 301 354
#     4   8  18  36  64  82 112 152 206 252 298 352
#     4   8  18  36  64  82 112 152 206 252 298 352
#     4   8  14  27  47  70 100 142 184 212 263 339
#     4  10  21  34  58  85 118 155 187 245 300 349
#     4  10  21  34  58  85 118 155 187 245 300 349
#
# _framework density 24.369157999999999
#
# number of rings (size 3 to 8) (size 9 to 14) (size 15 to 20)
#    0.000    3.385    0.000    0.000    8.615    0.000 
#    0.000    0.000   27.077    0.000    0.000    0.000 
#    0.000    0.000    0.000    0.000    0.000    0.000 
#
# Total GULP energy -144807.210135 kJ/mol
# GULP energy per Si atom -5569.508082 kJ/mol
# Density = 2.431369 g / cm^3
# Si number density = 24.369158 Si / 1000 Ang^3
#
#
#
# Elastic Constant Matrix: (Units=GPa)
#
#
# Indices 1 2 3 4 5 6 
#
# 1 28.5977 43.6157 18.2858 0.0000 0.0000 11.3929
# 2 43.6157 28.5977 18.2858 0.0000 0.0000 -11.3929
# 3 18.2858 18.2858 247.3321 0.0000 0.0000 0.0000
# 4 0.0000 0.0000 0.0000 14.7944 0.0000 0.0000
# 5 0.0000 0.0000 0.0000 0.0000 14.7944 0.0000
# 6 11.3929 -11.3929 0.0000 0.0000 0.0000 37.4344
#
#
#
# Elastic Compliance Matrix: (Units=1/GPa)
#
#
# Indices 1 2 3 4 5 6 
#
# 1 -0.015583 0.029969 -0.001064 0.000000 0.000000 0.013864
# 2 0.029969 -0.015583 -0.001064 0.000000 0.000000 -0.013864
# 3 -0.001064 -0.001064 0.004200 0.000000 0.000000 0.000000
# 4 0.000000 0.000000 0.000000 0.067593 0.000000 0.000000
# 5 0.000000 0.000000 0.000000 0.000000 0.067593 0.000000
# 6 0.013864 -0.013864 0.000000 0.000000 0.000000 0.018275
#
#
# Mechanical properties :
#
#
# Convention : Reuss Voigt Hill
#
# Bulk Modulus (GPa) = 34.82027 51.65582 43.23805
# Shear Modulus (GPa) = 62.20152 28.36065 45.28109
#
# Velocity S-wave (km/s) = 5.05768 3.41514 4.31528
# Velocity P-wave (km/s) = 6.95891 6.06582 6.52766
#
# Compressibility (1/GPa) = 0.02871890
#
# Stress axis : x y z
#
# Youngs Moduli (GPa) = -64.17273 -64.17273 238.07142
#
# Poissons Ratio (x) = 1.92322 0.25322
# Poissons Ratio (y) = 1.92322 0.25322
# Poissons Ratio (z) = -0.06826 -0.06826
#
# Static dielectric constant tensor:
#      x y z
#    x 1.947480 0.000000 0.000000 
#    y 0.000000 1.947480 0.000000 
#    z 0.000000 0.000000 2.050570 
# 
# From -- ./inp_files/367.got.cif
#   From: 2010.05.17/outbox.cif.g08.bks.cpg/sg81_cif.got.tgz:367.got - 2010.06.03 18:51:07.
