data_PCOD9542356
_publ_section_title
;
Structure prediction by ZEFSAII (Michael W. Deem and Ramdas Pophale) SiO2 
 PCOD9542356
Probable space group: P -4
;
_chemical_formula_sum "Si O2"
_cell_formula_units_Z 20
_cell_length_a 7.704108
_cell_length_b 7.704108
_cell_length_c 16.784707
_cell_angle_alpha 90.000000
_cell_angle_beta 90.000000
_cell_angle_gamma 90.000000
_cell_volume 996.227416
_symmetry_space_group_name_H-M "P -4"
_symmetry_group_IT_number 81
_symmetry_cell_setting 'tetragonal'
loop_
_space_group_symop_operation_xyz
x,y,z
y,-x,-z
-x,-y,z
-y,x,-z
loop_
_atom_site_type_symbol
_atom_site_label
_atom_site_fract_x
_atom_site_fract_y
_atom_site_fract_z
Si Si1 0.979518 0.202654 0.109910
Si Si2 0.302364 0.287668 0.411284
Si Si3 0.289805 0.998260 0.705874
Si Si4 0.300978 0.711394 0.410368
Si Si5 0.339117 0.726121 0.006395
O O1 0.005104 0.234096 0.202966
O O2 0.787543 0.252010 0.081126
O O3 0.120118 0.304159 0.056123
O O4 0.000000 0.000000 0.092792
O O5 0.169607 0.230434 0.343767
O O6 0.304517 0.499540 0.410927
O O7 0.500686 0.229594 0.398664
O O8 0.241753 0.239955 0.500426
O O9 0.500000 0.000000 0.704945
O O10 0.231417 0.168921 0.657617
O O11 0.539777 0.713601 0.030245
#
# Coordination Sequence:
#
# PCOD9542356 Si02
#       5
#     4   4   4   4   4
#     4  12  24  42  62  89 130 162 195 252 306 360
#     4   8  15  31  54  79 112 154 198 245 293 341
#     4  10  20  34  56  84 115 153 199 245 295 350
#     4   8  15  31  54  79 112 154 198 245 293 341
#     4  11  23  42  70  94 117 159 204 246 304 367
#
# _framework density 20.075738000000001
#
# number of rings (size 3 to 8) (size 9 to 14) (size 15 to 20)
#    0.000    2.200    2.000    3.000    0.000    1.600 
#    3.600    4.000    0.000    0.000    0.000    0.000 
#    0.000    0.000    0.000    0.000    0.000    0.000 
#
# Total GULP energy -111701.522606 kJ/mol
# GULP energy per Si atom -5585.076130 kJ/mol
# Density = 2.003005 g / cm^3
# Si number density = 20.075738 Si / 1000 Ang^3
#
#
#
# Elastic Constant Matrix: (Units=GPa)
#
#
# Indices 1 2 3 4 5 6 
#
# 1 67.3995 0.9147 25.2588 0.0000 0.0000 -0.0970
# 2 0.9147 67.3995 25.2588 0.0000 0.0000 0.0970
# 3 25.2588 25.2588 144.7672 0.0000 0.0000 0.0000
# 4 0.0000 0.0000 0.0000 32.4599 0.0000 0.0000
# 5 0.0000 0.0000 0.0000 0.0000 32.4599 0.0000
# 6 -0.0970 0.0970 0.0000 0.0000 0.0000 11.4243
#
#
#
# Elastic Compliance Matrix: (Units=1/GPa)
#
#
# Indices 1 2 3 4 5 6 
#
# 1 0.015924 0.000883 -0.002932 0.000000 0.000000 0.000128
# 2 0.000883 0.015924 -0.002932 0.000000 0.000000 -0.000128
# 3 -0.002932 -0.002932 0.007931 0.000000 0.000000 0.000000
# 4 0.000000 0.000000 0.000000 0.030807 0.000000 0.000000
# 5 0.000000 0.000000 0.000000 0.000000 0.030807 0.000000
# 6 0.000128 -0.000128 0.000000 0.000000 0.000000 0.087535
#
#
# Mechanical properties :
#
#
# Convention : Reuss Voigt Hill
#
# Bulk Modulus (GPa) = 33.54047 42.49233 38.01640
# Shear Modulus (GPa) = 23.94276 30.47772 27.21024
#
# Velocity S-wave (km/s) = 3.45718 3.90055 3.68554
# Velocity P-wave (km/s) = 5.71659 6.44187 6.09004
#
# Compressibility (1/GPa) = 0.02981473
#
# Stress axis : x y z
#
# Youngs Moduli (GPa) = 62.79800 62.79800 126.08856
#
# Poissons Ratio (x) = -0.05543 0.36975
# Poissons Ratio (y) = -0.05543 0.36975
# Poissons Ratio (z) = 0.18415 0.18415
#
# Static dielectric constant tensor:
#      x y z
#    x 1.726800 0.000000 0.000000 
#    y 0.000000 1.726800 0.000000 
#    z 0.000000 0.000000 1.663120 
# 
# From -- ./inp_files/1498.got.cif
#   From: 2010.05.17/outbox.cif.g08.bks.cpg/sg81_cif.got.tgz:1498.got - 2010.06.03 18:51:07.
