data_PCOD9542101
_publ_section_title
;
Structure prediction by ZEFSAII (Michael W. Deem and Ramdas Pophale) SiO2 
 PCOD9542101
Probable space group: I 41
;
_chemical_formula_sum "Si O2"
_cell_formula_units_Z 56
_cell_length_a 18.924154
_cell_length_b 18.924154
_cell_length_c 8.866842
_cell_angle_alpha 90.000000
_cell_angle_beta 90.000000
_cell_angle_gamma 90.000000
_cell_volume 3175.425419
_symmetry_space_group_name_H-M "I 41"
_symmetry_group_IT_number 80
_symmetry_cell_setting 'tetragonal'
loop_
_space_group_symop_operation_xyz
x,y,z
-y,1/2+x,1/4+z
-x,-y,z
y,1/2-x,1/4+z
1/2+x,1/2+y,1/2+z
1/2-y,x,3/4+z
1/2-x,1/2-y,1/2+z
1/2+y,-x,3/4+z
loop_
_atom_site_type_symbol
_atom_site_label
_atom_site_fract_x
_atom_site_fract_y
_atom_site_fract_z
Si Si1 0.854773 0.025352 0.628010
Si Si2 0.631707 0.626008 0.003227
Si Si3 0.886828 0.241950 0.683240
Si Si4 0.222929 0.186164 0.269341
Si Si5 0.324593 0.620584 0.395293
Si Si6 0.536181 0.376057 0.985626
Si Si7 0.133881 0.838903 0.218950
O O1 0.793584 0.066404 0.535836
O O2 0.847394 0.053080 0.797626
O O3 0.928566 0.055155 0.561897
O O4 0.847718 0.942959 0.596103
O O5 0.660988 0.699090 0.075158
O O6 0.668184 0.629656 0.836754
O O7 0.547669 0.626280 0.986776
O O8 0.842896 0.189936 0.793140
O O9 0.933934 0.190114 0.581664
O O10 0.845246 0.294361 0.569850
O O11 0.198130 0.259687 0.345097
O O12 0.241960 0.621085 0.428194
O O13 0.359906 0.622606 0.559045
O O14 0.570933 0.368605 0.821356
#
# Coordination Sequence:
#
# PCOD9542101 Si02
#       7
#     8   8   8   8   8   8   8
#     4  10  21  35  57  83 113 162 205 233 285 360
#     4  10  19  40  64  80 112 152 189 248 304 350
#     4  10  21  34  54  82 115 166 202 224 279 352
#     4   8  19  38  62  88 109 136 194 252 303 366
#     4  11  22  34  53  87 126 160 200 242 280 339
#     4  10  21  35  57  83 113 162 205 233 285 360
#     4  11  22  34  53  87 126 160 200 242 280 339
#
# _framework density 17.635431000000001
#
# number of rings (size 3 to 8) (size 9 to 14) (size 15 to 20)
#    0.857    1.143    2.857    1.286    2.000    0.000 
#    2.571    0.000    0.000    6.857    0.000    0.000 
#    0.000    0.000    0.000    0.000    0.000    0.000 
#
# Total GULP energy -155932.472277 kJ/mol
# GULP energy per Si atom -5569.016867 kJ/mol
# Density = 1.759529 g / cm^3
# Si number density = 17.635431 Si / 1000 Ang^3
#
#
#
# Elastic Constant Matrix: (Units=GPa)
#
#
# Indices 1 2 3 4 5 6 
#
# 1 52.5423 -6.0834 0.7845 0.0000 0.0000 -3.0791
# 2 -6.0834 52.5423 0.7845 0.0000 0.0000 3.0791
# 3 0.7845 0.7845 88.2293 0.0000 0.0000 0.0000
# 4 0.0000 0.0000 0.0000 9.8701 0.0000 0.0000
# 5 0.0000 0.0000 0.0000 0.0000 9.8701 0.0000
# 6 -3.0791 3.0791 0.0000 0.0000 0.0000 14.4323
#
#
#
# Elastic Compliance Matrix: (Units=1/GPa)
#
#
# Indices 1 2 3 4 5 6 
#
# 1 0.019490 0.002041 -0.000191 0.000000 0.000000 0.003723
# 2 0.002041 0.019490 -0.000191 0.000000 0.000000 -0.003723
# 3 -0.000191 -0.000191 0.011338 0.000000 0.000000 0.000000
# 4 0.000000 0.000000 0.000000 0.101316 0.000000 0.000000
# 5 0.000000 0.000000 0.000000 0.000000 0.101316 0.000000
# 6 0.003723 -0.003723 0.000000 0.000000 0.000000 0.070878
#
#
# Mechanical properties :
#
#
# Convention : Reuss Voigt Hill
#
# Bulk Modulus (GPa) = 18.64508 20.47613 19.56061
# Shear Modulus (GPa) = 14.77597 20.02306 17.39951
#
# Velocity S-wave (km/s) = 2.89772 3.37321 3.14446
# Velocity P-wave (km/s) = 4.66810 5.17758 4.92943
#
# Compressibility (1/GPa) = 0.05363344
#
# Stress axis : x y z
#
# Youngs Moduli (GPa) = 51.30936 51.30936 88.20279
#
# Poissons Ratio (x) = -0.10473 0.01689
# Poissons Ratio (y) = -0.10473 0.01689
# Poissons Ratio (z) = 0.00982 0.00982
#
# Static dielectric constant tensor:
#      x y z
#    x 1.603370 0.000000 0.000000 
#    y 0.000000 1.603370 0.000000 
#    z 0.000000 0.000000 1.622600 
# 
# From -- ./inp_files/791.got.cif
#   From: 2010.05.17/outbox.cif.g08.bks.cpg/sg80_cif.got.tgz:791.got - 2010.06.03 18:49:13.
