data_PCOD9542319
_publ_section_title
;
Structure prediction by ZEFSAII (Michael W. Deem and Ramdas Pophale) SiO2 
 PCOD9542319
Probable space group: P -4
;
_chemical_formula_sum "Si O2"
_cell_formula_units_Z 25
_cell_length_a 7.999504
_cell_length_b 7.999504
_cell_length_c 18.376420
_cell_angle_alpha 90.000000
_cell_angle_beta 90.000000
_cell_angle_gamma 90.000000
_cell_volume 1175.945049
_symmetry_space_group_name_H-M "P -4"
_symmetry_group_IT_number 81
_symmetry_cell_setting 'tetragonal'
loop_
_space_group_symop_operation_xyz
x,y,z
y,-x,-z
-x,-y,z
-y,x,-z
loop_
_atom_site_type_symbol
_atom_site_label
_atom_site_fract_x
_atom_site_fract_y
_atom_site_fract_z
Si Si1 0.776051 0.167345 0.696266
Si Si2 0.413784 0.765211 0.993085
Si Si3 0.248483 0.905584 0.853687
Si Si4 0.148644 0.155705 0.633423
Si Si5 0.000000 0.000000 0.500000
Si Si6 0.101668 0.274897 0.861817
Si Si7 0.460533 0.807075 0.286306
O O1 0.698059 0.098865 0.770638
O O2 0.723142 0.360858 0.697182
O O3 0.983574 0.163525 0.688259
O O4 0.746732 0.015907 0.640474
O O5 0.373289 0.848338 0.916014
O O6 0.601665 0.702476 0.999545
O O7 0.363960 0.877190 0.061321
O O8 0.092290 0.774393 0.851327
O O9 0.187439 0.093317 0.867608
O O10 0.250898 0.314542 0.659793
O O11 0.068536 0.143842 0.553715
O O12 0.182349 0.386244 0.796540
O O13 0.500000 0.000000 0.304606
#
# Coordination Sequence:
#
# PCOD9542319 Si02
#       7
#     4   4   4   4   1   4   4
#     4   9  15  26  46  73 107 137 174 233 271 330
#     4  11  26  39  47  66 101 143 190 237 291 354
#     4  11  19  34  53  76 101 130 175 238 282 333
#     4   9  15  28  42  76 111 135 186 212 281 330
#     4   8  16  24  44  64 108 138 156 228 256 320
#     4  11  20  33  53  78  98 133 177 230 288 333
#     4  10  16  26  50  77 108 141 174 234 282 329
#
# _framework density 21.259497
#
# number of rings (size 3 to 8) (size 9 to 14) (size 15 to 20)
#    0.000    2.080    4.800    2.880    0.000    3.200 
#    0.000    0.000    0.000    0.000    0.000   22.400 
#    0.000    0.000    0.000    0.000    0.000    0.000 
#
# Total GULP energy -139182.085498 kJ/mol
# GULP energy per Si atom -5567.283420 kJ/mol
# Density = 2.121111 g / cm^3
# Si number density = 21.259497 Si / 1000 Ang^3
#
#
#
# Elastic Constant Matrix: (Units=GPa)
#
#
# Indices 1 2 3 4 5 6 
#
# 1 79.2506 10.9192 25.9307 0.0000 0.0000 1.1119
# 2 10.9192 79.2506 25.9307 0.0000 0.0000 -1.1119
# 3 25.9307 25.9307 110.4229 0.0000 0.0000 0.0000
# 4 0.0000 0.0000 0.0000 -7.9264 0.0000 0.0000
# 5 0.0000 0.0000 0.0000 0.0000 -7.9264 0.0000
# 6 1.1119 -1.1119 0.0000 0.0000 0.0000 12.8159
#
#
#
# Elastic Compliance Matrix: (Units=1/GPa)
#
#
# Indices 1 2 3 4 5 6 
#
# 1 0.013749 -0.000927 -0.003011 0.000000 0.000000 -0.001273
# 2 -0.000927 0.013749 -0.003011 0.000000 0.000000 0.001273
# 3 -0.003011 -0.003011 0.010470 0.000000 0.000000 0.000000
# 4 0.000000 0.000000 0.000000 -0.126161 0.000000 0.000000
# 5 0.000000 0.000000 0.000000 0.000000 -0.126161 0.000000
# 6 -0.001273 0.001273 0.000000 0.000000 0.000000 0.078249
#
#
# Mechanical properties :
#
#
# Convention : Reuss Voigt Hill
#
# Bulk Modulus (GPa) = 41.54514 43.83170 42.68842
# Shear Modulus (GPa) = -43.78887 13.13556 -15.32665
#
# Velocity S-wave (km/s) = -4.54335 2.48839 -2.68793
# Velocity P-wave (km/s) = 2.81751 5.37758 3.23883
#
# Compressibility (1/GPa) = 0.02407020
#
# Stress axis : x y z
#
# Youngs Moduli (GPa) = 72.73269 72.73269 95.50888
#
# Poissons Ratio (x) = 0.06742 0.28758
# Poissons Ratio (y) = 0.06742 0.28758
# Poissons Ratio (z) = 0.21900 0.21900
#
# Static dielectric constant tensor:
#      x y z
#    x 1.873090 0.000000 0.000000 
#    y 0.000000 1.873090 0.000000 
#    z 0.000000 0.000000 1.761700 
# 
# From -- ./inp_files/1749.got.cif
#   From: 2010.05.17/outbox.cif.g08.bks.cpg/sg81_cif.got.tgz:1749.got - 2010.06.03 18:51:07.
