data_PCOD9542678
_publ_section_title
;
Structure prediction by ZEFSAII (Michael W. Deem and Ramdas Pophale) SiO2 
 PCOD9542678
Probable space group: I -4 
;
_chemical_formula_sum "Si O2"
_cell_formula_units_Z 34
_cell_length_a 11.093333
_cell_length_b 11.093333
_cell_length_c 9.810157
_cell_angle_alpha 90.000000
_cell_angle_beta 90.000000
_cell_angle_gamma 90.000000
_cell_volume 1207.257904
_symmetry_space_group_name_H-M "I -4 "
_symmetry_group_IT_number 82
_symmetry_cell_setting 'tetragonal'
loop_
_space_group_symop_operation_xyz
x,y,z
y,-x,-z
-x,-y,z
-y,x,-z
1/2+x,1/2+y,1/2+z
1/2+y,1/2-x,1/2-z
1/2-x,1/2-y,1/2+z
1/2-y,1/2+x,1/2-z
loop_
_atom_site_type_symbol
_atom_site_label
_atom_site_fract_x
_atom_site_fract_y
_atom_site_fract_z
Si Si1 0.920846 0.122656 0.336505
Si Si2 0.028368 0.299716 0.940656
Si Si3 0.500000 0.000000 0.250000
Si Si4 0.280089 0.890613 0.543451
Si Si5 0.627283 0.665390 0.672870
O O1 0.787862 0.121069 0.397098
O O2 0.975247 0.236725 0.418970
O O3 0.981667 0.147586 0.190322
O O4 0.000000 0.000000 0.368675
O O5 0.958366 0.196765 0.853985
O O6 0.070328 0.404121 0.840647
O O7 0.919443 0.363127 0.025381
O O8 0.129120 0.243391 0.036403
O O9 0.227988 0.831754 0.685352
#
# Coordination Sequence:
#
# PCOD9542678 Si02
#       5
#     8   8   2   8   8
#     4  10  19  40  74 109 141 191 252 305 384 453
#     4  12  30  47  75 108 157 196 264 318 401 451
#     4  12  36  52  74 112 164 204 252 346 400 444
#     4  10  22  42  75 104 147 196 249 315 381 469
#     4  10  28  44  75 107 148 198 256 317 382 473
#
# _framework density 28.162998000000002
#
# number of rings (size 3 to 8) (size 9 to 14) (size 15 to 20)
#    1.412    0.000    2.353    0.000   16.471    1.882 
#    0.000    0.000    0.000    0.000    0.000    0.000 
#    0.000    0.000    0.000    0.000    0.000    0.000 
#
# Total GULP energy -94856.074017 kJ/mol
# GULP energy per Si atom -5579.769060 kJ/mol
# Density = 2.809890 g / cm^3
# Si number density = 28.162998 Si / 1000 Ang^3
#
#
#
# Elastic Constant Matrix: (Units=GPa)
#
#
# Indices 1 2 3 4 5 6 
#
# 1 88.7954 16.2571 33.1970 0.0000 0.0000 -9.8347
# 2 16.2571 88.7954 33.1970 0.0000 0.0000 9.8347
# 3 33.1970 33.1970 135.3621 0.0000 0.0000 0.0000
# 4 0.0000 0.0000 0.0000 44.9998 0.0000 0.0000
# 5 0.0000 0.0000 0.0000 0.0000 44.9998 0.0000
# 6 -9.8347 9.8347 0.0000 0.0000 0.0000 56.0810
#
#
#
# Elastic Compliance Matrix: (Units=1/GPa)
#
#
# Indices 1 2 3 4 5 6 
#
# 1 0.012870 -0.001604 -0.002763 0.000000 0.000000 0.002538
# 2 -0.001604 0.012870 -0.002763 0.000000 0.000000 -0.002538
# 3 -0.002763 -0.002763 0.008743 0.000000 0.000000 0.000000
# 4 0.000000 0.000000 0.000000 0.022222 0.000000 0.000000
# 5 0.000000 0.000000 0.000000 0.000000 0.022222 0.000000
# 6 0.002538 -0.002538 0.000000 0.000000 0.000000 0.018722
#
#
# Mechanical properties :
#
#
# Convention : Reuss Voigt Hill
#
# Bulk Modulus (GPa) = 49.45106 53.13946 51.29526
# Shear Modulus (GPa) = 42.14125 44.56960 43.35543
#
# Velocity S-wave (km/s) = 3.87244 3.98245 3.92783
# Velocity P-wave (km/s) = 6.13118 6.32899 6.23087
#
# Compressibility (1/GPa) = 0.02022202
#
# Stress axis : x y z
#
# Youngs Moduli (GPa) = 77.70253 77.70253 114.38140
#
# Poissons Ratio (x) = 0.12467 0.31600
# Poissons Ratio (y) = 0.12467 0.31600
# Poissons Ratio (z) = 0.21467 0.21467
#
# Static dielectric constant tensor:
#      x y z
#    x 2.243840 0.000000 0.000000 
#    y 0.000000 2.243840 0.000000 
#    z 0.000000 0.000000 2.252780 
# 
# From -- ./inp_files/1584.got.cif
#   From: 2010.05.17/outbox.cif.g08.bks.cpg/sg82_1_cif.got.tgz:1584.got - 2010.06.03 18:52:26.
