data_PCOD9542501
_publ_section_title
;
Structure prediction by ZEFSAII (Michael W. Deem and Ramdas Pophale) SiO2 
 PCOD9542501
Probable space group: P -4
;
_chemical_formula_sum "Si O2"
_cell_formula_units_Z 20
_cell_length_a 8.858939
_cell_length_b 8.858939
_cell_length_c 10.157032
_cell_angle_alpha 90.000000
_cell_angle_beta 90.000000
_cell_angle_gamma 90.000000
_cell_volume 797.131999
_symmetry_space_group_name_H-M "P -4"
_symmetry_group_IT_number 81
_symmetry_cell_setting 'tetragonal'
loop_
_space_group_symop_operation_xyz
x,y,z
y,-x,-z
-x,-y,z
-y,x,-z
loop_
_atom_site_type_symbol
_atom_site_label
_atom_site_fract_x
_atom_site_fract_y
_atom_site_fract_z
Si Si1 0.267394 0.874153 0.186734
Si Si2 0.441067 0.331322 0.162152
Si Si3 0.653627 0.914227 0.952152
Si Si4 0.706473 0.583116 0.434697
Si Si5 0.958969 0.763221 0.536049
O O1 0.419985 0.777188 0.200890
O O2 0.262030 0.984392 0.309974
O O3 0.270351 0.971911 0.054612
O O4 0.130738 0.757603 0.169128
O O5 0.500000 0.500000 0.134973
O O6 0.373266 0.240977 0.036732
O O7 0.333881 0.359416 0.288511
O O8 0.500000 0.000000 0.913948
O O9 0.665884 0.409167 0.462937
O O10 0.876315 0.622878 0.470626
O O11 0.105705 0.832417 0.472500
#
# Coordination Sequence:
#
# PCOD9542501 Si02
#       5
#     4   4   4   4   4
#     4  11  24  47  64  98 139 177 227 278 333 413
#     4  11  22  40  70  99 136 173 229 286 332 397
#     4  10  26  43  68 101 136 182 228 276 346 395
#     4  11  20  41  64 100 129 169 219 273 342 393
#     4  11  25  43  66  96 134 175 225 272 338 402
#
# _framework density 25.089946000000001
#
# number of rings (size 3 to 8) (size 9 to 14) (size 15 to 20)
#    0.000    1.200    4.000    1.200    5.600    6.000 
#    3.600    0.000    0.000    0.000    0.000    0.000 
#    0.000    0.000    0.000    0.000    0.000    0.000 
#
# Total GULP energy -112022.663114 kJ/mol
# GULP energy per Si atom -5601.133156 kJ/mol
# Density = 2.503284 g / cm^3
# Si number density = 25.089946 Si / 1000 Ang^3
#
#
#
# Elastic Constant Matrix: (Units=GPa)
#
#
# Indices 1 2 3 4 5 6 
#
# 1 75.0524 36.5153 6.8228 0.0000 0.0000 1.7100
# 2 36.5153 75.0524 6.8228 0.0000 0.0000 -1.7100
# 3 6.8228 6.8228 76.0804 0.0000 0.0000 0.0000
# 4 0.0000 0.0000 0.0000 14.6954 0.0000 0.0000
# 5 0.0000 0.0000 0.0000 0.0000 14.6954 0.0000
# 6 1.7100 -1.7100 0.0000 0.0000 0.0000 36.5983
#
#
#
# Elastic Compliance Matrix: (Units=1/GPa)
#
#
# Indices 1 2 3 4 5 6 
#
# 1 0.017560 -0.008497 -0.000813 0.000000 0.000000 -0.001217
# 2 -0.008497 0.017560 -0.000813 0.000000 0.000000 0.001217
# 3 -0.000813 -0.000813 0.013290 0.000000 0.000000 0.000000
# 4 0.000000 0.000000 0.000000 0.068048 0.000000 0.000000
# 5 0.000000 0.000000 0.000000 0.000000 0.068048 0.000000
# 6 -0.001217 0.001217 0.000000 0.000000 0.000000 0.027437
#
#
# Mechanical properties :
#
#
# Convention : Reuss Voigt Hill
#
# Bulk Modulus (GPa) = 35.50630 36.27856 35.89243
# Shear Modulus (GPa) = 20.69735 24.93280 22.81508
#
# Velocity S-wave (km/s) = 2.87527 3.15578 3.01878
# Velocity P-wave (km/s) = 5.02048 5.26967 5.14658
#
# Compressibility (1/GPa) = 0.02816402
#
# Stress axis : x y z
#
# Youngs Moduli (GPa) = 56.94821 56.94821 75.24589
#
# Poissons Ratio (x) = 0.48390 0.06115
# Poissons Ratio (y) = 0.48390 0.06115
# Poissons Ratio (z) = 0.04628 0.04628
#
# Static dielectric constant tensor:
#      x y z
#    x 1.991160 0.000000 0.000000 
#    y 0.000000 1.991160 0.000000 
#    z 0.000000 0.000000 1.978570 
# 
# From -- ./inp_files/1223.got.cif
#   From: 2010.05.17/outbox.cif.g08.bks.cpg/sg81_cif.got.tgz:1223.got - 2010.06.03 18:51:07.
