data_PCOD9542797
_publ_section_title
;
Structure prediction by ZEFSAII (Michael W. Deem and Ramdas Pophale) SiO2 
 PCOD9542797
Probable space group: I -4 
;
_chemical_formula_sum "Si O2"
_cell_formula_units_Z 48
_cell_length_a 15.434768
_cell_length_b 15.434768
_cell_length_c 10.903540
_cell_angle_alpha 90.000000
_cell_angle_beta 90.000000
_cell_angle_gamma 90.000000
_cell_volume 2597.572831
_symmetry_space_group_name_H-M "I -4 "
_symmetry_group_IT_number 82
_symmetry_cell_setting 'tetragonal'
loop_
_space_group_symop_operation_xyz
x,y,z
y,-x,-z
-x,-y,z
-y,x,-z
1/2+x,1/2+y,1/2+z
1/2+y,1/2-x,1/2-z
1/2-x,1/2-y,1/2+z
1/2-y,1/2+x,1/2-z
loop_
_atom_site_type_symbol
_atom_site_label
_atom_site_fract_x
_atom_site_fract_y
_atom_site_fract_z
Si Si1 0.615183 0.100778 0.085505
Si Si2 0.764210 0.363316 0.818322
Si Si3 0.859025 0.034522 0.488645
Si Si4 0.706482 0.026772 0.687807
Si Si5 0.906802 0.424441 0.972325
Si Si6 0.313167 0.162906 0.663669
O O1 0.681688 0.113581 0.196417
O O2 0.511398 0.108577 0.112075
O O3 0.613869 0.001958 0.037057
O O4 0.639157 0.168822 0.978608
O O5 0.692498 0.432214 0.867725
O O6 0.836061 0.357850 0.925226
O O7 0.718633 0.271058 0.811222
O O8 0.788193 0.034678 0.596771
O O9 0.938625 0.099546 0.518176
O O10 0.620196 0.043134 0.606089
O O11 0.708668 0.100620 0.788314
O O12 0.700944 0.928682 0.731771
#
# Coordination Sequence:
#
# PCOD9542797 Si02
#       6
#     8   8   8   8   8   8
#     4  10  21  38  56  87 122 151 196 243 319 354
#     4  11  22  34  60  89 117 149 201 250 296 356
#     4  10  21  40  63  85 115 159 206 248 289 357
#     4  10  21  37  61  85 120 151 207 239 303 354
#     4   9  20  37  61  85 115 156 191 254 303 357
#     4  11  23  37  56  89 118 160 192 250 296 364
#
# _framework density 18.478788000000002
#
# number of rings (size 3 to 8) (size 9 to 14) (size 15 to 20)
#    0.000    1.833    1.667    2.000    4.667    4.333 
#    0.000    0.000    0.000    0.000    0.000    2.333 
#    0.000    0.000    0.000    0.000    0.000    0.000 
#
# Total GULP energy -133828.702228 kJ/mol
# GULP energy per Si atom -5576.195926 kJ/mol
# Density = 1.843673 g / cm^3
# Si number density = 18.478788 Si / 1000 Ang^3
#
#
#
# Elastic Constant Matrix: (Units=GPa)
#
#
# Indices 1 2 3 4 5 6 
#
# 1 100.8763 36.5303 20.0190 0.0000 0.0000 -2.1191
# 2 36.5303 100.8763 20.0190 0.0000 0.0000 2.1191
# 3 20.0190 20.0190 29.6349 0.0000 0.0000 0.0000
# 4 0.0000 0.0000 0.0000 25.4725 0.0000 0.0000
# 5 0.0000 0.0000 0.0000 0.0000 25.4725 0.0000
# 6 -2.1191 2.1191 0.0000 0.0000 0.0000 35.5299
#
#
#
# Elastic Compliance Matrix: (Units=1/GPa)
#
#
# Indices 1 2 3 4 5 6 
#
# 1 0.012332 -0.003271 -0.006121 0.000000 0.000000 0.000931
# 2 -0.003271 0.012332 -0.006121 0.000000 0.000000 -0.000931
# 3 -0.006121 -0.006121 0.042014 0.000000 0.000000 0.000000
# 4 0.000000 0.000000 0.000000 0.039258 0.000000 0.000000
# 5 0.000000 0.000000 0.000000 0.000000 0.039258 0.000000
# 6 0.000931 -0.000931 0.000000 0.000000 0.000000 0.028256
#
#
# Mechanical properties :
#
#
# Convention : Reuss Voigt Hill
#
# Bulk Modulus (GPa) = 28.04884 42.72489 35.38687
# Shear Modulus (GPa) = 23.10974 27.61627 25.36301
#
# Velocity S-wave (km/s) = 3.54023 3.87005 3.70881
# Velocity P-wave (km/s) = 5.65003 6.56818 6.12633
#
# Compressibility (1/GPa) = 0.03565210
#
# Stress axis : x y z
#
# Youngs Moduli (GPa) = 81.09143 81.09143 23.80165
#
# Poissons Ratio (x) = 0.26521 0.14569
# Poissons Ratio (y) = 0.26521 0.14569
# Poissons Ratio (z) = 0.49637 0.49637
#
# Static dielectric constant tensor:
#      x y z
#    x 1.654310 0.000000 0.000000 
#    y 0.000000 1.654310 0.000000 
#    z 0.000000 0.000000 1.680010 
# 
# From -- ./inp_files/1758.got.cif
#   From: 2010.05.17/outbox.cif.g08.bks.cpg/sg82_1_cif.got.tgz:1758.got - 2010.06.03 18:52:26.
