data_PCOD9542734
_publ_section_title
;
Structure prediction by ZEFSAII (Michael W. Deem and Ramdas Pophale) SiO2 
 PCOD9542734
Probable space group: I -4 
;
_chemical_formula_sum "Si O2"
_cell_formula_units_Z 44
_cell_length_a 12.811304
_cell_length_b 12.811304
_cell_length_c 10.904955
_cell_angle_alpha 90.000000
_cell_angle_beta 90.000000
_cell_angle_gamma 90.000000
_cell_volume 1789.824923
_symmetry_space_group_name_H-M "I -4 "
_symmetry_group_IT_number 82
_symmetry_cell_setting 'tetragonal'
loop_
_space_group_symop_operation_xyz
x,y,z
y,-x,-z
-x,-y,z
-y,x,-z
1/2+x,1/2+y,1/2+z
1/2+y,1/2-x,1/2-z
1/2-x,1/2-y,1/2+z
1/2-y,1/2+x,1/2-z
loop_
_atom_site_type_symbol
_atom_site_label
_atom_site_fract_x
_atom_site_fract_y
_atom_site_fract_z
Si Si1 0.335873 0.397309 0.323257
Si Si2 0.000000 0.500000 0.750000
Si Si3 0.715098 0.713334 0.731757
Si Si4 0.500000 0.000000 0.750000
Si Si5 0.741074 0.437336 0.498296
Si Si6 0.525897 0.768756 0.867725
Si Si7 0.940753 0.323223 0.615405
O O1 0.306490 0.297276 0.240342
O O2 0.429778 0.355232 0.406629
O O3 0.259773 0.453232 0.425981
O O4 0.324905 0.484095 0.218544
O O5 0.026300 0.402450 0.665820
O O6 0.650082 0.722719 0.608064
O O7 0.647690 0.757065 0.847026
O O8 0.754297 0.601803 0.773867
O O9 0.495176 0.887575 0.821419
O O10 0.846449 0.397854 0.564523
O O11 0.483699 0.758748 0.002906
#
# Coordination Sequence:
#
# PCOD9542734 Si02
#       7
#     8   2   8   2   8   8   8
#     4  10  20  38  61  91 119 164 209 268 316 370
#     4  12  30  40  64  98 140 162 204 280 342 380
#     4  10  22  39  63  91 129 171 213 261 328 381
#     4  12  18  32  68  98 120 154 240 264 306 388
#     4  10  22  39  66  88 128 162 220 266 312 392
#     4  11  20  39  66  93 122 170 221 268 315 387
#     4  11  25  41  59 100 130 168 207 264 334 382
#
# _framework density 24.583411999999999
#
# number of rings (size 3 to 8) (size 9 to 14) (size 15 to 20)
#    0.000    1.455    3.636    1.636    5.091    1.818 
#    0.000    0.000    0.000    0.545    0.000    0.000 
#    0.000    0.000    0.000    0.000    0.000    0.000 
#
# Total GULP energy -122636.421365 kJ/mol
# GULP energy per Si atom -5574.382789 kJ/mol
# Density = 2.452746 g / cm^3
# Si number density = 24.583412 Si / 1000 Ang^3
#
#
#
# Elastic Constant Matrix: (Units=GPa)
#
#
# Indices 1 2 3 4 5 6 
#
# 1 37.9320 14.1299 30.8193 0.0000 0.0000 0.1460
# 2 14.1299 37.9320 30.8193 0.0000 0.0000 -0.1460
# 3 30.8193 30.8193 81.9023 0.0000 0.0000 0.0000
# 4 0.0000 0.0000 0.0000 37.7988 0.0000 0.0000
# 5 0.0000 0.0000 0.0000 0.0000 37.7988 0.0000
# 6 0.1460 -0.1460 0.0000 0.0000 0.0000 33.0194
#
#
#
# Elastic Compliance Matrix: (Units=1/GPa)
#
#
# Indices 1 2 3 4 5 6 
#
# 1 0.038328 -0.003687 -0.013035 0.000000 0.000000 -0.000186
# 2 -0.003687 0.038328 -0.013035 0.000000 0.000000 0.000186
# 3 -0.013035 -0.013035 0.022020 0.000000 0.000000 0.000000
# 4 0.000000 0.000000 0.000000 0.026456 0.000000 0.000000
# 5 0.000000 0.000000 0.000000 0.000000 0.026456 0.000000
# 6 -0.000186 0.000186 0.000000 0.000000 0.000000 0.030287
#
#
# Mechanical properties :
#
#
# Convention : Reuss Voigt Hill
#
# Bulk Modulus (GPa) = 25.53567 34.36702 29.95134
# Shear Modulus (GPa) = 19.65077 27.18993 23.42035
#
# Velocity S-wave (km/s) = 2.83035 3.32931 3.08991
# Velocity P-wave (km/s) = 4.59250 5.36555 4.99401
#
# Compressibility (1/GPa) = 0.03916091
#
# Stress axis : x y z
#
# Youngs Moduli (GPa) = 26.09054 26.09054 45.41387
#
# Poissons Ratio (x) = 0.09620 0.59197
# Poissons Ratio (y) = 0.09620 0.59197
# Poissons Ratio (z) = 0.34009 0.34009
#
# Static dielectric constant tensor:
#      x y z
#    x 2.046560 0.000000 0.000000 
#    y 0.000000 2.046560 0.000000 
#    z 0.000000 0.000000 1.918060 
# 
# From -- ./inp_files/1725.got.cif
#   From: 2010.05.17/outbox.cif.g08.bks.cpg/sg82_1_cif.got.tgz:1725.got - 2010.06.03 18:52:26.
