data_PCOD9542088
_publ_section_title
;
Structure prediction by ZEFSAII (Michael W. Deem and Ramdas Pophale) SiO2 
 PCOD9542088
Probable space group: I 41
;
_chemical_formula_sum "Si O2"
_cell_formula_units_Z 60
_cell_length_a 11.376146
_cell_length_b 11.376146
_cell_length_c 24.050338
_cell_angle_alpha 90.000000
_cell_angle_beta 90.000000
_cell_angle_gamma 90.000000
_cell_volume 3112.515325
_symmetry_space_group_name_H-M "I 41"
_symmetry_group_IT_number 80
_symmetry_cell_setting 'tetragonal'
loop_
_space_group_symop_operation_xyz
x,y,z
-y,1/2+x,1/4+z
-x,-y,z
y,1/2-x,1/4+z
1/2+x,1/2+y,1/2+z
1/2-y,x,3/4+z
1/2-x,1/2-y,1/2+z
1/2+y,-x,3/4+z
loop_
_atom_site_type_symbol
_atom_site_label
_atom_site_fract_x
_atom_site_fract_y
_atom_site_fract_z
Si Si1 0.000000 0.000000 0.750000
Si Si2 0.146939 0.105987 0.555522
Si Si3 0.011190 0.738822 0.052627
Si Si4 0.863280 0.533305 0.187158
Si Si5 0.772624 0.695503 0.375289
Si Si6 0.127746 0.753155 0.841547
Si Si7 0.026805 0.830115 0.651503
Si Si8 0.592950 0.603396 0.931650
O O1 0.892575 0.961622 0.788550
O O2 0.950155 0.094944 0.706737
O O3 0.234566 0.210716 0.573789
O O4 0.082436 0.130193 0.497448
O O5 0.060686 0.105075 0.608624
O O6 0.206015 0.976924 0.551753
O O7 0.145846 0.710672 0.067734
O O8 0.995263 0.813700 0.997521
O O9 0.934016 0.796752 0.101160
O O10 0.825697 0.666422 0.169842
O O11 0.805227 0.447917 0.142134
O O12 0.000000 0.500000 0.185095
O O13 0.881238 0.773410 0.398680
O O14 0.196496 0.643173 0.866836
O O15 0.959452 0.716712 0.671713
O O16 0.500000 0.500000 0.915961
#
# Coordination Sequence:
#
# PCOD9542088 Si02
#       8
#     4   8   8   8   8   8   8   8
#     4  12  18  34  60  98 118 146 186 260 330 374
#     4  10  19  34  60  90 117 149 189 257 327 364
#     4  12  22  34  62  88 124 166 194 244 322 365
#     4  11  21  39  58  89 127 160 204 251 307 379
#     4  10  21  38  58  89 121 157 206 257 300 378
#     4  11  20  35  57  90 125 148 192 256 309 382
#     4  11  20  36  58  89 123 146 198 257 312 367
#     4  11  23  38  59  84 118 162 207 250 303 368
#
# _framework density 19.277014000000001
#
# number of rings (size 3 to 8) (size 9 to 14) (size 15 to 20)
#    0.000    1.067    4.000    6.400    0.000    0.000 
#    2.400    0.000    0.000    0.000    0.000    0.000 
#    0.000    0.000    0.000    0.000    0.000    0.000 
#
# Total GULP energy -167304.320338 kJ/mol
# GULP energy per Si atom -5576.810678 kJ/mol
# Density = 1.923314 g / cm^3
# Si number density = 19.277014 Si / 1000 Ang^3
#
#
#
# Elastic Constant Matrix: (Units=GPa)
#
#
# Indices 1 2 3 4 5 6 
#
# 1 60.8157 9.9725 17.8981 0.0000 0.0000 -0.3499
# 2 9.9725 60.8157 17.8981 0.0000 0.0000 0.3499
# 3 17.8981 17.8981 65.4437 0.0000 0.0000 0.0000
# 4 0.0000 0.0000 0.0000 15.4837 0.0000 0.0000
# 5 0.0000 0.0000 0.0000 0.0000 15.4837 0.0000
# 6 -0.3499 0.3499 0.0000 0.0000 0.0000 31.4187
#
#
#
# Elastic Compliance Matrix: (Units=1/GPa)
#
#
# Indices 1 2 3 4 5 6 
#
# 1 0.018033 -0.001639 -0.004484 0.000000 0.000000 0.000219
# 2 -0.001639 0.018033 -0.004484 0.000000 0.000000 -0.000219
# 3 -0.004484 -0.004484 0.017733 0.000000 0.000000 0.000000
# 4 0.000000 0.000000 0.000000 0.064584 0.000000 0.000000
# 5 0.000000 0.000000 0.000000 0.000000 0.064584 0.000000
# 6 0.000219 -0.000219 0.000000 0.000000 0.000000 0.031833
#
#
# Mechanical properties :
#
#
# Convention : Reuss Voigt Hill
#
# Bulk Modulus (GPa) = 30.68775 30.95697 30.82236
# Shear Modulus (GPa) = 20.25332 21.89764 21.07548
#
# Velocity S-wave (km/s) = 3.24488 3.37404 3.31009
# Velocity P-wave (km/s) = 5.47658 5.59220 5.53469
#
# Compressibility (1/GPa) = 0.03258629
#
# Stress axis : x y z
#
# Youngs Moduli (GPa) = 55.45512 55.45512 56.39297
#
# Poissons Ratio (x) = 0.09087 0.25284
# Poissons Ratio (y) = 0.09087 0.25284
# Poissons Ratio (z) = 0.24864 0.24864
#
# Static dielectric constant tensor:
#      x y z
#    x 1.722590 0.000000 0.000000 
#    y 0.000000 1.722590 0.000000 
#    z 0.000000 0.000000 1.689570 
# 
# From -- ./inp_files/1849.got.cif
#   From: 2010.05.17/outbox.cif.g08.bks.cpg/sg80_cif.got.tgz:1849.got - 2010.06.03 18:49:13.
