data_PCOD9542044
_publ_section_title
;
Structure prediction by ZEFSAII (Michael W. Deem and Ramdas Pophale) SiO2 
 PCOD9542044
Probable space group: I 4
;
_chemical_formula_sum "Si O2"
_cell_formula_units_Z 48
_cell_length_a 11.547864
_cell_length_b 11.547864
_cell_length_c 16.836783
_cell_angle_alpha 90.000000
_cell_angle_beta 90.000000
_cell_angle_gamma 90.000000
_cell_volume 2245.238267
_symmetry_space_group_name_H-M "I 4"
_symmetry_group_IT_number 79
_symmetry_cell_setting 'tetragonal'
loop_
_space_group_symop_operation_xyz
x,y,z
-y,x,z
-x,-y,z
y,-x,z
1/2+x,1/2+y,1/2+z
1/2-y,1/2+x,1/2+z
1/2-x,1/2-y,1/2+z
1/2+y,1/2-x,1/2+z
loop_
_atom_site_type_symbol
_atom_site_label
_atom_site_fract_x
_atom_site_fract_y
_atom_site_fract_z
Si Si1 0.058710 0.186254 0.540720
Si Si2 0.440714 0.315320 0.858865
Si Si3 0.313746 0.441291 0.258353
Si Si4 0.315320 0.440714 0.440208
Si Si5 0.379866 0.206119 0.693336
Si Si6 0.379866 0.793881 0.605736
O O1 0.071705 0.227786 0.449037
O O2 0.103657 0.287351 0.596728
O O3 0.928088 0.139364 0.550703
O O4 0.571991 0.359637 0.852427
O O5 0.412078 0.238924 0.783526
O O6 0.428088 0.360636 0.248370
O O7 0.272214 0.428296 0.350036
O O8 0.212649 0.396344 0.202345
O O9 0.428009 0.359637 0.446646
O O10 0.238924 0.412079 0.515546
O O11 0.312972 0.312972 0.649536
O O12 0.500000 0.179360 0.649536
#
# Coordination Sequence:
#
# PCOD9542044 Si02
#       6
#     8   8   8   8   8   8
#     4   9  21  43  68  92 122 182 242 280 323 406
#     4   9  17  35  65  94 129 176 232 274 329 406
#     4   9  21  43  68  92 122 182 242 280 323 406
#     4   9  17  35  65  94 129 176 232 274 329 406
#     4  12  23  36  62  98 141 176 210 284 354 408
#     4  12  23  36  62  98 141 176 210 284 354 408
#
# _framework density 21.378575000000001
#
# number of rings (size 3 to 8) (size 9 to 14) (size 15 to 20)
#    0.000    2.000    3.333    3.000    0.000    1.667 
#    0.000    5.000    0.000    0.000    0.000    0.000 
#    0.000    0.000    0.000    0.000    0.000    0.000 
#
# Total GULP energy -134101.413513 kJ/mol
# GULP energy per Si atom -5587.558896 kJ/mol
# Density = 2.132992 g / cm^3
# Si number density = 21.378575 Si / 1000 Ang^3
#
#
#
# Elastic Constant Matrix: (Units=GPa)
#
#
# Indices 1 2 3 4 5 6 
#
# 1 103.1460 65.5402 86.3732 0.0000 0.0000 0.0000
# 2 65.5402 103.1460 86.3732 0.0000 0.0000 0.0000
# 3 86.3732 86.3732 145.9236 0.0000 0.0000 0.0000
# 4 0.0000 0.0000 0.0000 38.8031 0.0000 0.0000
# 5 0.0000 0.0000 0.0000 0.0000 38.8031 0.0000
# 6 0.0000 0.0000 0.0000 0.0000 0.0000 38.8531
#
#
#
# Elastic Compliance Matrix: (Units=1/GPa)
#
#
# Indices 1 2 3 4 5 6 
#
# 1 0.020822 -0.005770 -0.008909 0.000000 0.000000 0.000000
# 2 -0.005770 0.020822 -0.008909 0.000000 0.000000 0.000000
# 3 -0.008909 -0.008909 0.017400 0.000000 0.000000 0.000000
# 4 0.000000 0.000000 0.000000 0.025771 0.000000 0.000000
# 5 0.000000 0.000000 0.000000 0.000000 0.025771 0.000000
# 6 0.000000 0.000000 0.000000 0.000000 0.000000 0.025738
#
#
# Mechanical properties :
#
#
# Convention : Reuss Voigt Hill
#
# Bulk Modulus (GPa) = 84.27146 92.08766 88.17956
# Shear Modulus (GPa) = 26.67285 30.88711 28.77998
#
# Velocity S-wave (km/s) = 3.53603 3.80514 3.67305
# Velocity P-wave (km/s) = 7.49504 7.90403 7.70225
#
# Compressibility (1/GPa) = 0.01186641
#
# Stress axis : x y z
#
# Youngs Moduli (GPa) = 48.02652 48.02652 57.47144
#
# Poissons Ratio (x) = 0.27711 0.51203
# Poissons Ratio (y) = 0.27711 0.51203
# Poissons Ratio (z) = 0.42789 0.42789
#
# Static dielectric constant tensor:
#      x y z
#    x 1.753890 0.000000 0.000000 
#    y 0.000000 1.753890 0.000000 
#    z 0.000000 0.000000 1.823120 
# 
# From -- ./inp_files/1567.got.cif
#   From: 2010.05.17/outbox.cif.g08.bks.cpg/sg79_cif.got.tgz:1567.got - 2010.06.03 18:47:27.
