data_PCOD9542451
_publ_section_title
;
Structure prediction by ZEFSAII (Michael W. Deem and Ramdas Pophale) SiO2 
 PCOD9542451
Probable space group: P -4
;
_chemical_formula_sum "Si O2"
_cell_formula_units_Z 26
_cell_length_a 11.012498
_cell_length_b 11.012498
_cell_length_c 9.082141
_cell_angle_alpha 90.000000
_cell_angle_beta 90.000000
_cell_angle_gamma 90.000000
_cell_volume 1101.437669
_symmetry_space_group_name_H-M "P -4"
_symmetry_group_IT_number 81
_symmetry_cell_setting 'tetragonal'
loop_
_space_group_symop_operation_xyz
x,y,z
y,-x,-z
-x,-y,z
-y,x,-z
loop_
_atom_site_type_symbol
_atom_site_label
_atom_site_fract_x
_atom_site_fract_y
_atom_site_fract_z
Si Si1 0.810232 0.673651 0.744511
Si Si2 0.597257 0.081856 0.964231
Si Si3 0.500000 0.500000 0.000000
Si Si4 0.928425 0.226451 0.665723
Si Si5 0.468797 0.143950 0.478162
Si Si6 0.183211 0.049621 0.013827
Si Si7 0.729011 0.463905 0.231039
Si Si8 0.000000 0.000000 0.500000
O O1 0.829651 0.652002 0.916925
O O2 0.814343 0.544318 0.664063
O O3 0.680005 0.734482 0.741071
O O4 0.928405 0.738299 0.675531
O O5 0.705138 0.992931 0.915497
O O6 0.500000 0.000000 0.049853
O O7 0.524147 0.155335 0.846347
O O8 0.489598 0.384838 0.882883
O O9 0.860977 0.327387 0.569492
O O10 0.885916 0.226417 0.836782
O O11 0.922819 0.092437 0.599514
O O12 0.506574 0.244095 0.600805
O O13 0.500000 0.000000 0.514628
O O14 0.119261 0.923876 0.064625
#
# Coordination Sequence:
#
# PCOD9542451 Si02
#       8
#     4   4   1   4   4   4   4   1
#     4  10  22  45  68  95 145 183 236 306 368 424
#     4  11  24  41  72 102 139 191 242 300 368 450
#     4  12  28  48  70 104 160 188 266 316 384 440
#     4  10  22  41  68 101 144 185 231 296 370 446
#     4  10  23  48  73 107 137 187 252 305 372 449
#     4  10  22  43  67 107 147 186 239 304 377 451
#     4  12  25  47  70 105 141 197 247 309 367 449
#     4  12  20  36  62 108 140 180 212 290 368 444
#
# _framework density 23.605511
#
# number of rings (size 3 to 8) (size 9 to 14) (size 15 to 20)
#    0.000    1.385    1.538    4.615    4.308    1.231 
#   19.385    0.000    0.000    0.000    0.000    0.000 
#    0.000    0.000    0.000    0.000    0.000    0.000 
#
# Total GULP energy -144931.909617 kJ/mol
# GULP energy per Si atom -5574.304216 kJ/mol
# Density = 2.355178 g / cm^3
# Si number density = 23.605511 Si / 1000 Ang^3
#
#
#
# Elastic Constant Matrix: (Units=GPa)
#
#
# Indices 1 2 3 4 5 6 
#
# 1 69.9794 7.0944 29.3405 0.0000 0.0000 -9.2970
# 2 7.0944 69.9794 29.3405 0.0000 0.0000 9.2970
# 3 29.3405 29.3405 94.5869 0.0000 0.0000 0.0000
# 4 0.0000 0.0000 0.0000 23.0695 0.0000 0.0000
# 5 0.0000 0.0000 0.0000 0.0000 23.0695 0.0000
# 6 -9.2970 9.2970 0.0000 0.0000 0.0000 24.8037
#
#
#
# Elastic Compliance Matrix: (Units=1/GPa)
#
#
# Indices 1 2 3 4 5 6 
#
# 1 0.017435 -0.000449 -0.005269 0.000000 0.000000 0.006703
# 2 -0.000449 0.017435 -0.005269 0.000000 0.000000 -0.006703
# 3 -0.005269 -0.005269 0.013841 0.000000 0.000000 0.000000
# 4 0.000000 0.000000 0.000000 0.043347 0.000000 0.000000
# 5 0.000000 0.000000 0.000000 0.000000 0.043347 0.000000
# 6 0.006703 -0.006703 0.000000 0.000000 0.000000 0.045342
#
#
# Mechanical properties :
#
#
# Convention : Reuss Voigt Hill
#
# Bulk Modulus (GPa) = 37.40079 40.67738 39.03909
# Shear Modulus (GPa) = 23.62563 25.43988 24.53275
#
# Velocity S-wave (km/s) = 3.16706 3.28641 3.22729
# Velocity P-wave (km/s) = 5.40853 5.62763 5.51917
#
# Compressibility (1/GPa) = 0.02673740
#
# Stress axis : x y z
#
# Youngs Moduli (GPa) = 57.35529 57.35529 72.24815
#
# Poissons Ratio (x) = 0.02575 0.38068
# Poissons Ratio (y) = 0.02575 0.38068
# Poissons Ratio (z) = 0.30221 0.30221
#
# Static dielectric constant tensor:
#      x y z
#    x 1.961130 0.000000 0.000000 
#    y 0.000000 1.961130 0.000000 
#    z 0.000000 0.000000 1.874960 
# 
# From -- ./inp_files/909.got.cif
#   From: 2010.05.17/outbox.cif.g08.bks.cpg/sg81_cif.got.tgz:909.got - 2010.06.03 18:51:07.
