data_PCOD9542668
_publ_section_title
;
Structure prediction by ZEFSAII (Michael W. Deem and Ramdas Pophale) SiO2 
 PCOD9542668
Probable space group: I -4 
;
_chemical_formula_sum "Si O2"
_cell_formula_units_Z 28
_cell_length_a 9.362255
_cell_length_b 9.362255
_cell_length_c 14.969483
_cell_angle_alpha 90.000000
_cell_angle_beta 90.000000
_cell_angle_gamma 90.000000
_cell_volume 1312.102410
_symmetry_space_group_name_H-M "I -4 "
_symmetry_group_IT_number 82
_symmetry_cell_setting 'tetragonal'
loop_
_space_group_symop_operation_xyz
x,y,z
y,-x,-z
-x,-y,z
-y,x,-z
1/2+x,1/2+y,1/2+z
1/2+y,1/2-x,1/2-z
1/2-x,1/2-y,1/2+z
1/2-y,1/2+x,1/2-z
loop_
_atom_site_type_symbol
_atom_site_label
_atom_site_fract_x
_atom_site_fract_y
_atom_site_fract_z
Si Si1 0.017132 0.205416 0.545735
Si Si2 0.684193 0.088721 0.802219
Si Si3 0.071883 0.721517 0.739143
Si Si4 0.500000 0.000000 0.965126
O O1 0.962630 0.198447 0.646531
O O2 0.048117 0.368467 0.524699
O O3 0.149094 0.104674 0.522005
O O4 0.557168 0.182847 0.756463
O O5 0.830898 0.174166 0.798030
O O6 0.627887 0.045377 0.899142
O O7 0.165485 0.578030 0.721698
#
# Coordination Sequence:
#
# PCOD9542668 Si02
#       4
#     8   8   8   4
#     4  11  23  40  62  89 121 161 202 245 299 362
#     4   9  19  36  58  86 118 156 198 243 295 358
#     4  11  23  39  60  90 123 157 199 251 301 353
#     4  10  19  36  61  88 120 156 198 248 299 352
#
# _framework density 21.339798999999999
#
# number of rings (size 3 to 8) (size 9 to 14) (size 15 to 20)
#    0.000    2.000    0.000    6.857    0.000    3.429 
#    0.000    0.000    0.000    4.286    0.000    0.000 
#    0.000    0.000    0.000    0.000    0.000    0.000 
#
# Total GULP energy -78257.508165 kJ/mol
# GULP energy per Si atom -5589.822012 kJ/mol
# Density = 2.129123 g / cm^3
# Si number density = 21.339799 Si / 1000 Ang^3
#
#
#
# Elastic Constant Matrix: (Units=GPa)
#
#
# Indices 1 2 3 4 5 6 
#
# 1 78.3762 16.8996 16.0690 0.0000 0.0000 8.7662
# 2 16.8996 78.3762 16.0690 0.0000 0.0000 -8.7662
# 3 16.0690 16.0690 46.1846 0.0000 0.0000 0.0000
# 4 0.0000 0.0000 0.0000 16.4227 0.0000 0.0000
# 5 0.0000 0.0000 0.0000 0.0000 16.4227 0.0000
# 6 8.7662 -8.7662 0.0000 0.0000 0.0000 43.1516
#
#
#
# Elastic Compliance Matrix: (Units=1/GPa)
#
#
# Indices 1 2 3 4 5 6 
#
# 1 0.014579 -0.002688 -0.004137 0.000000 0.000000 -0.003508
# 2 -0.002688 0.014579 -0.004137 0.000000 0.000000 0.003508
# 3 -0.004137 -0.004137 0.024531 0.000000 0.000000 0.000000
# 4 0.000000 0.000000 0.000000 0.060891 0.000000 0.000000
# 5 0.000000 0.000000 0.000000 0.000000 0.060891 0.000000
# 6 -0.003508 0.003508 0.000000 0.000000 0.000000 0.024599
#
#
# Mechanical properties :
#
#
# Convention : Reuss Voigt Hill
#
# Bulk Modulus (GPa) = 31.48153 33.44578 32.46366
# Shear Modulus (GPa) = 21.49755 25.45934 23.47844
#
# Velocity S-wave (km/s) = 3.17739 3.45780 3.32055
# Velocity P-wave (km/s) = 5.31466 5.62573 5.47240
#
# Compressibility (1/GPa) = 0.03176465
#
# Stress axis : x y z
#
# Youngs Moduli (GPa) = 68.59142 68.59142 40.76428
#
# Poissons Ratio (x) = 0.18435 0.16866
# Poissons Ratio (y) = 0.18435 0.16866
# Poissons Ratio (z) = 0.28379 0.28379
#
# Static dielectric constant tensor:
#      x y z
#    x 1.781320 0.000000 0.000000 
#    y 0.000000 1.781320 0.000000 
#    z 0.000000 0.000000 1.744780 
# 
# From -- ./inp_files/2466.got.cif
#   From: 2010.05.17/outbox.cif.g08.bks.cpg/sg82_2_cif.got.tgz:2466.got - 2010.06.03 18:52:26.
