data_PCOD9542362
_publ_section_title
;
Structure prediction by ZEFSAII (Michael W. Deem and Ramdas Pophale) SiO2 
 PCOD9542362
Probable space group: P -4
;
_chemical_formula_sum "Si O2"
_cell_formula_units_Z 32
_cell_length_a 11.752210
_cell_length_b 11.752210
_cell_length_c 11.911938
_cell_angle_alpha 90.000000
_cell_angle_beta 90.000000
_cell_angle_gamma 90.000000
_cell_volume 1645.210645
_symmetry_space_group_name_H-M "P -4"
_symmetry_group_IT_number 81
_symmetry_cell_setting 'tetragonal'
loop_
_space_group_symop_operation_xyz
x,y,z
y,-x,-z
-x,-y,z
-y,x,-z
loop_
_atom_site_type_symbol
_atom_site_label
_atom_site_fract_x
_atom_site_fract_y
_atom_site_fract_z
Si Si1 0.886159 0.715125 0.079644
Si Si2 0.154734 0.723945 0.063708
Si Si3 0.824316 0.297449 0.523559
Si Si4 0.271626 0.642035 0.281969
Si Si5 0.232172 0.489103 0.675758
Si Si6 0.499569 0.135856 0.075716
Si Si7 0.088176 0.333981 0.508448
Si Si8 0.116387 0.438291 0.269991
O O1 0.856265 0.677222 0.204671
O O2 0.021044 0.726861 0.085676
O O3 0.824977 0.819481 0.022285
O O4 0.845933 0.611819 0.998719
O O5 0.227895 0.721286 0.178938
O O6 0.176555 0.607039 0.997280
O O7 0.797939 0.332129 0.395255
O O8 0.766415 0.392500 0.605728
O O9 0.768801 0.172292 0.526546
O O10 0.960125 0.299595 0.539661
O O11 0.404481 0.658910 0.311250
O O12 0.225057 0.517934 0.252374
O O13 0.191374 0.506885 0.802457
O O14 0.144005 0.407249 0.608550
O O15 0.500000 0.000000 0.092229
O O16 0.090926 0.412794 0.398625
O O17 0.000000 0.500000 0.223711
#
# Coordination Sequence:
#
# PCOD9542362 Si02
#       8
#     4   4   4   4   4   4   4   4
#     4  11  22  37  63  90 123 167 212 269 322 401
#     4  11  22  39  60  93 124 165 218 265 329 386
#     4  11  23  40  63  98 125 175 212 265 329 393
#     4  11  21  39  66  90 123 164 226 273 318 389
#     4  11  22  39  63  93 127 166 214 271 328 384
#     4  10  20  35  59  86 117 159 208 257 307 388
#     4  11  23  39  67  92 132 166 219 268 322 399
#     4  12  19  40  68  91 119 169 229 261 319 408
#
# _framework density 19.450399000000001
#
# number of rings (size 3 to 8) (size 9 to 14) (size 15 to 20)
#    0.000    1.000    6.250    1.500    1.750    0.500 
#    0.000    0.625    0.000    4.875    0.000    0.000 
#    0.000    0.000    0.000    0.000    0.000    0.000 
#
# Total GULP energy -178437.827296 kJ/mol
# GULP energy per Si atom -5576.182103 kJ/mol
# Density = 1.940613 g / cm^3
# Si number density = 19.450399 Si / 1000 Ang^3
#
#
#
# Elastic Constant Matrix: (Units=GPa)
#
#
# Indices 1 2 3 4 5 6 
#
# 1 61.4287 38.8731 18.4866 0.0000 0.0000 -0.0799
# 2 38.8731 61.4287 18.4866 0.0000 0.0000 0.0799
# 3 18.4866 18.4866 87.9872 0.0000 0.0000 0.0000
# 4 0.0000 0.0000 0.0000 24.5994 0.0000 0.0000
# 5 0.0000 0.0000 0.0000 0.0000 24.5994 0.0000
# 6 -0.0799 0.0799 0.0000 0.0000 0.0000 30.9233
#
#
#
# Elastic Compliance Matrix: (Units=1/GPa)
#
#
# Indices 1 2 3 4 5 6 
#
# 1 0.027571 -0.016764 -0.002271 0.000000 0.000000 0.000115
# 2 -0.016764 0.027571 -0.002271 0.000000 0.000000 -0.000115
# 3 -0.002271 -0.002271 0.012319 0.000000 0.000000 0.000000
# 4 0.000000 0.000000 0.000000 0.040651 0.000000 0.000000
# 5 0.000000 0.000000 0.000000 0.000000 0.040651 0.000000
# 6 0.000115 -0.000115 0.000000 0.000000 0.000000 0.032339
#
#
# Mechanical properties :
#
#
# Convention : Reuss Voigt Hill
#
# Bulk Modulus (GPa) = 40.24009 40.28193 40.26101
# Shear Modulus (GPa) = 21.55187 25.02430 23.28808
#
# Velocity S-wave (km/s) = 3.33234 3.59077 3.46397
# Velocity P-wave (km/s) = 5.96150 6.16008 6.06160
#
# Compressibility (1/GPa) = 0.02485084
#
# Stress axis : x y z
#
# Youngs Moduli (GPa) = 36.26958 36.26958 81.17269
#
# Poissons Ratio (x) = 0.60804 0.18431
# Poissons Ratio (y) = 0.60804 0.18431
# Poissons Ratio (z) = 0.08235 0.08235
#
# Static dielectric constant tensor:
#      x y z
#    x 1.721950 0.000000 0.000000 
#    y 0.000000 1.721950 0.000000 
#    z 0.000000 0.000000 1.677970 
# 
# From -- ./inp_files/1440.got.cif
#   From: 2010.05.17/outbox.cif.g08.bks.cpg/sg81_cif.got.tgz:1440.got - 2010.06.03 18:51:07.
