data_PCOD9542136
_publ_section_title
;
Structure prediction by ZEFSAII (Michael W. Deem and Ramdas Pophale) SiO2 
 PCOD9542136
Probable space group: I 41
;
_chemical_formula_sum "Si O2"
_cell_formula_units_Z 60
_cell_length_a 18.005209
_cell_length_b 18.005209
_cell_length_c 7.110748
_cell_angle_alpha 90.000000
_cell_angle_beta 90.000000
_cell_angle_gamma 90.000000
_cell_volume 2305.215981
_symmetry_space_group_name_H-M "I 41"
_symmetry_group_IT_number 80
_symmetry_cell_setting 'tetragonal'
loop_
_space_group_symop_operation_xyz
x,y,z
-y,1/2+x,1/4+z
-x,-y,z
y,1/2-x,1/4+z
1/2+x,1/2+y,1/2+z
1/2-y,x,3/4+z
1/2-x,1/2-y,1/2+z
1/2+y,-x,3/4+z
loop_
_atom_site_type_symbol
_atom_site_label
_atom_site_fract_x
_atom_site_fract_y
_atom_site_fract_z
Si Si1 0.720713 0.340689 0.145030
Si Si2 0.427945 0.709710 0.930254
Si Si3 0.637992 0.929807 0.256822
Si Si4 0.000000 0.500000 0.628197
Si Si5 0.216513 0.170904 0.609333
Si Si6 0.834580 0.451308 0.245679
Si Si7 0.369543 0.529532 0.582035
Si Si8 0.617668 0.640009 0.569553
O O1 0.701189 0.295309 0.329151
O O2 0.755635 0.422525 0.164364
O O3 0.646939 0.324879 0.020180
O O4 0.506396 0.698663 0.042172
O O5 0.438374 0.676738 0.720650
O O6 0.427017 0.797886 0.905767
O O7 0.619936 0.855060 0.370843
O O8 0.567327 0.981240 0.257809
O O9 0.648396 0.900163 0.041776
O O10 0.016120 0.568966 0.492608
O O11 0.175599 0.248035 0.655444
O O12 0.287498 0.160611 0.742799
O O13 0.910796 0.407919 0.190994
O O14 0.851321 0.537561 0.219168
O O15 0.350868 0.443203 0.529323
#
# Coordination Sequence:
#
# PCOD9542136 Si02
#       8
#     8   8   8   4   8   8   8   8
#     4  12  25  41  64 102 146 192 250 310 377 454
#     4  11  24  39  74 101 144 195 251 302 386 459
#     4  10  24  45  73 106 138 193 243 310 372 447
#     4  10  20  42  76 102 136 184 268 294 358 462
#     4  12  28  45  71 106 149 185 239 307 377 444
#     4  11  22  45  68 106 145 192 249 314 374 452
#     4  11  19  41  74 103 136 192 252 305 359 464
#     4  10  24  44  74 105 140 193 253 304 376 451
#
# _framework density 26.027929
#
# number of rings (size 3 to 8) (size 9 to 14) (size 15 to 20)
#    0.000    1.067    4.000    4.000    9.333    2.133 
#    0.000    0.000    2.933    0.000    0.000    0.000 
#    0.000    0.000    0.000    0.000    0.000    0.000 
#
# Total GULP energy -167438.967267 kJ/mol
# GULP energy per Si atom -5581.298909 kJ/mol
# Density = 2.596869 g / cm^3
# Si number density = 26.027929 Si / 1000 Ang^3
#
#
#
# Elastic Constant Matrix: (Units=GPa)
#
#
# Indices 1 2 3 4 5 6 
#
# 1 122.8934 31.1270 10.6787 0.0000 0.0000 4.2358
# 2 31.1270 122.8934 10.6787 0.0000 0.0000 -4.2358
# 3 10.6787 10.6787 35.1248 0.0000 0.0000 0.0000
# 4 0.0000 0.0000 0.0000 16.1749 0.0000 0.0000
# 5 0.0000 0.0000 0.0000 0.0000 16.1749 0.0000
# 6 4.2358 -4.2358 0.0000 0.0000 0.0000 45.1506
#
#
#
# Elastic Compliance Matrix: (Units=1/GPa)
#
#
# Indices 1 2 3 4 5 6 
#
# 1 0.008885 -0.002107 -0.002061 0.000000 0.000000 -0.001031
# 2 -0.002107 0.008885 -0.002061 0.000000 0.000000 0.001031
# 3 -0.002061 -0.002061 0.029723 0.000000 0.000000 0.000000
# 4 0.000000 0.000000 0.000000 0.061824 0.000000 0.000000
# 5 0.000000 0.000000 0.000000 0.000000 0.061824 0.000000
# 6 -0.001031 0.001031 0.000000 0.000000 0.000000 0.022342
#
#
# Mechanical properties :
#
#
# Convention : Reuss Voigt Hill
#
# Bulk Modulus (GPa) = 28.54153 42.87559 35.70856
# Shear Modulus (GPa) = 22.97587 30.72857 26.85222
#
# Velocity S-wave (km/s) = 2.97432 3.43971 3.21545
# Velocity P-wave (km/s) = 4.77336 5.68192 5.24734
#
# Compressibility (1/GPa) = 0.03503666
#
# Stress axis : x y z
#
# Youngs Moduli (GPa) = 112.54386 112.54386 33.64397
#
# Poissons Ratio (x) = 0.23713 0.06933
# Poissons Ratio (y) = 0.23713 0.06933
# Poissons Ratio (z) = 0.23193 0.23193
#
# Static dielectric constant tensor:
#      x y z
#    x 2.093690 0.000000 0.000000 
#    y 0.000000 2.093690 0.000000 
#    z 0.000000 0.000000 2.175930 
# 
# From -- ./inp_files/769.got.cif
#   From: 2010.05.17/outbox.cif.g08.bks.cpg/sg80_cif.got.tgz:769.got - 2010.06.03 18:49:13.
