data_PCOD9542949
_publ_section_title
;
Structure prediction by ZEFSAII (Michael W. Deem and Ramdas Pophale) SiO2 
 PCOD9542949
Probable space group: I -4 
;
_chemical_formula_sum "Si O2"
_cell_formula_units_Z 48
_cell_length_a 9.089703
_cell_length_b 9.089703
_cell_length_c 27.522498
_cell_angle_alpha 90.000000
_cell_angle_beta 90.000000
_cell_angle_gamma 90.000000
_cell_volume 2273.983113
_symmetry_space_group_name_H-M "I -4 "
_symmetry_group_IT_number 82
_symmetry_cell_setting 'tetragonal'
loop_
_space_group_symop_operation_xyz
x,y,z
y,-x,-z
-x,-y,z
-y,x,-z
1/2+x,1/2+y,1/2+z
1/2+y,1/2-x,1/2-z
1/2-x,1/2-y,1/2+z
1/2-y,1/2+x,1/2-z
loop_
_atom_site_type_symbol
_atom_site_label
_atom_site_fract_x
_atom_site_fract_y
_atom_site_fract_z
Si Si1 0.825178 0.527093 0.563808
Si Si2 0.210706 0.469567 0.773255
Si Si3 0.774043 0.750101 0.647927
Si Si4 0.748621 0.250220 0.520116
Si Si5 0.176561 0.468984 0.067131
Si Si6 0.226332 0.586378 0.261458
O O1 0.778115 0.617965 0.610154
O O2 0.730693 0.381539 0.557510
O O3 0.792112 0.614928 0.514452
O O4 0.000000 0.500000 0.567062
O O5 0.153191 0.578421 0.729370
O O6 0.235681 0.579316 0.818547
O O7 0.356240 0.372410 0.765458
O O8 0.748033 0.891499 0.613824
O O9 0.634898 0.745925 0.683469
O O10 0.870475 0.300085 0.481261
O O11 0.772667 0.110850 0.553863
O O12 0.000000 0.500000 0.073823
O O13 0.181491 0.417553 0.254576
#
# Coordination Sequence:
#
# PCOD9542949 Si02
#       6
#     8   8   8   8   8   8
#     4  11  23  43  69  99 143 175 233 283 336 407
#     4   9  20  43  73  97 136 181 224 292 349 406
#     4  10  25  44  70 101 134 184 237 289 342 409
#     4  11  20  45  68  95 139 191 216 280 352 395
#     4  11  23  44  70  99 144 179 235 285 337 421
#     4  10  23  46  74  98 143 189 224 283 358 421
#
# _framework density 21.108336999999999
#
# number of rings (size 3 to 8) (size 9 to 14) (size 15 to 20)
#    0.000    1.667    3.333    0.000    7.000    3.333 
#    6.000    0.000   18.333    0.000    0.000    0.000 
#    0.000    0.000    0.000    0.000    0.000    0.000 
#
# Total GULP energy -133807.195187 kJ/mol
# GULP energy per Si atom -5575.299799 kJ/mol
# Density = 2.106029 g / cm^3
# Si number density = 21.108337 Si / 1000 Ang^3
#
#
#
# Elastic Constant Matrix: (Units=GPa)
#
#
# Indices 1 2 3 4 5 6 
#
# 1 90.0805 47.1529 53.4073 0.0000 0.0000 -4.7356
# 2 47.1529 90.0805 53.4073 0.0000 0.0000 4.7356
# 3 53.4073 53.4073 122.7903 0.0000 0.0000 0.0000
# 4 0.0000 0.0000 0.0000 51.0686 0.0000 0.0000
# 5 0.0000 0.0000 0.0000 0.0000 51.0686 0.0000
# 6 -4.7356 4.7356 0.0000 0.0000 0.0000 -7.0282
#
#
#
# Elastic Compliance Matrix: (Units=1/GPa)
#
#
# Indices 1 2 3 4 5 6 
#
# 1 0.015648 -0.004632 -0.004791 0.000000 0.000000 -0.013665
# 2 -0.004632 0.015648 -0.004791 0.000000 0.000000 0.013665
# 3 -0.004791 -0.004791 0.012312 0.000000 0.000000 0.000000
# 4 0.000000 0.000000 0.000000 0.019581 0.000000 0.000000
# 5 0.000000 0.000000 0.000000 0.000000 0.019581 0.000000
# 6 -0.013665 0.013665 0.000000 0.000000 0.000000 -0.123869
#
#
# Mechanical properties :
#
#
# Convention : Reuss Voigt Hill
#
# Bulk Modulus (GPa) = 65.88211 67.87626 66.87918
# Shear Modulus (GPa) = -657.18435 28.95408 -314.11514
#
# Velocity S-wave (km/s) = -17.66394 3.70765 -12.21204
# Velocity P-wave (km/s) = 19.61480 7.11019 12.92644
#
# Compressibility (1/GPa) = 0.01517863
#
# Stress axis : x y z
#
# Youngs Moduli (GPa) = 63.90508 63.90506 81.22123
#
# Poissons Ratio (x) = 0.29600 0.38917
# Poissons Ratio (y) = 0.29600 0.38917
# Poissons Ratio (z) = 0.30620 0.30620
#
# Static dielectric constant tensor:
#      x y z
#    x 1.769340 0.000000 0.000000 
#    y 0.000000 1.769340 0.000000 
#    z 0.000000 0.000000 1.878520 
# 
# From -- ./inp_files/4055.got.cif
#   From: 2010.05.17/outbox.cif.g08.bks.cpg/sg82_3_cif.got.tgz:4055.got - 2010.06.03 18:52:26.
