data_PCOD9542717
_publ_section_title
;
Structure prediction by ZEFSAII (Michael W. Deem and Ramdas Pophale) SiO2 
 PCOD9542717
Probable space group: I -4 
;
_chemical_formula_sum "Si O2"
_cell_formula_units_Z 56
_cell_length_a 11.066697
_cell_length_b 11.066697
_cell_length_c 24.684306
_cell_angle_alpha 90.000000
_cell_angle_beta 90.000000
_cell_angle_gamma 90.000000
_cell_volume 3023.130955
_symmetry_space_group_name_H-M "I -4 "
_symmetry_group_IT_number 82
_symmetry_cell_setting 'tetragonal'
loop_
_space_group_symop_operation_xyz
x,y,z
y,-x,-z
-x,-y,z
-y,x,-z
1/2+x,1/2+y,1/2+z
1/2+y,1/2-x,1/2-z
1/2-x,1/2-y,1/2+z
1/2-y,1/2+x,1/2-z
loop_
_atom_site_type_symbol
_atom_site_label
_atom_site_fract_x
_atom_site_fract_y
_atom_site_fract_z
Si Si1 0.467690 0.223702 0.700308
Si Si2 0.240653 0.374115 0.700265
Si Si3 0.306024 0.320795 0.892564
Si Si4 0.018185 0.704519 0.325971
Si Si5 0.296026 0.603573 0.870489
Si Si6 0.155434 0.230462 0.804598
Si Si7 0.864024 0.852585 0.508256
O O1 0.367623 0.318908 0.681520
O O2 0.416162 0.101677 0.671850
O O3 0.464099 0.202889 0.765379
O O4 0.598562 0.283243 0.692920
O O5 0.134719 0.329536 0.659611
O O6 0.214829 0.311685 0.757838
O O7 0.262416 0.514577 0.706632
O O8 0.411131 0.234845 0.867875
O O9 0.331355 0.462454 0.877615
O O10 0.184194 0.289797 0.861890
O O11 0.293594 0.303580 0.956534
O O12 0.107993 0.819266 0.335011
O O13 0.299581 0.653419 0.932131
O O14 0.004141 0.839410 0.490640
#
# Coordination Sequence:
#
# PCOD9542717 Si02
#       7
#     8   8   8   8   8   8   8
#     4  11  22  39  58  85 121 156 201 242 307 362
#     4  11  24  38  59  85 118 160 202 249 298 371
#     4  11  21  34  59  90 124 153 191 252 311 368
#     4  11  20  35  58  89 122 157 191 252 298 370
#     4  10  20  36  59  87 120 158 198 248 307 361
#     4  12  24  38  57  87 119 160 201 249 301 369
#     4   9  17  32  59  89 115 148 194 250 307 359
#
# _framework density 18.523841999999998
#
# number of rings (size 3 to 8) (size 9 to 14) (size 15 to 20)
#    0.000    1.286    5.714    1.714    0.000    5.143 
#    0.000    0.000    6.286    1.714    0.000    0.000 
#    0.000    0.000    0.000    0.000    0.000    0.000 
#
# Total GULP energy -156036.906865 kJ/mol
# GULP energy per Si atom -5572.746674 kJ/mol
# Density = 1.848168 g / cm^3
# Si number density = 18.523842 Si / 1000 Ang^3
#
#
#
# Elastic Constant Matrix: (Units=GPa)
#
#
# Indices 1 2 3 4 5 6 
#
# 1 67.6024 71.0898 22.5047 0.0000 0.0000 7.4141
# 2 71.0898 67.6024 22.5047 0.0000 0.0000 -7.4141
# 3 22.5047 22.5047 86.7941 0.0000 0.0000 0.0000
# 4 0.0000 0.0000 0.0000 22.6340 0.0000 0.0000
# 5 0.0000 0.0000 0.0000 0.0000 22.6340 0.0000
# 6 7.4141 -7.4141 0.0000 0.0000 0.0000 23.0574
#
#
#
# Elastic Compliance Matrix: (Units=1/GPa)
#
#
# Indices 1 2 3 4 5 6 
#
# 1 -0.056631 0.064503 -0.002041 0.000000 0.000000 0.038950
# 2 0.064503 -0.056631 -0.002041 0.000000 0.000000 -0.038950
# 3 -0.002041 -0.002041 0.012580 0.000000 0.000000 0.000000
# 4 0.000000 0.000000 0.000000 0.044181 0.000000 0.000000
# 5 0.000000 0.000000 0.000000 0.000000 0.044181 0.000000
# 6 0.038950 -0.038950 0.000000 0.000000 0.000000 0.018321
#
#
# Mechanical properties :
#
#
# Convention : Reuss Voigt Hill
#
# Bulk Modulus (GPa) = 49.60255 50.46636 50.03445
# Shear Modulus (GPa) = -46.24563 20.72505 -12.76029
#
# Velocity S-wave (km/s) = -5.00197 3.34852 -2.62746
# Velocity P-wave (km/s) = 2.55416 6.50025 4.22667
#
# Compressibility (1/GPa) = 0.02016026
#
# Stress axis : x y z
#
# Youngs Moduli (GPa) = -17.65831 -17.65831 79.49070
#
# Poissons Ratio (x) = 1.13902 0.16226
# Poissons Ratio (y) = 1.13902 0.16226
# Poissons Ratio (z) = -0.03605 -0.03605
#
# Static dielectric constant tensor:
#      x y z
#    x 1.683680 0.000000 0.000000 
#    y 0.000000 1.683680 0.000000 
#    z 0.000000 0.000000 1.638980 
# 
# From -- ./inp_files/3522.got.cif
#   From: 2010.05.17/outbox.cif.g08.bks.cpg/sg82_2_cif.got.tgz:3522.got - 2010.06.03 18:52:26.
