data_PCOD9542771
_publ_section_title
;
Structure prediction by ZEFSAII (Michael W. Deem and Ramdas Pophale) SiO2 
 PCOD9542771
Probable space group: I -4 
;
_chemical_formula_sum "Si O2"
_cell_formula_units_Z 36
_cell_length_a 14.180582
_cell_length_b 14.180582
_cell_length_c 7.940593
_cell_angle_alpha 90.000000
_cell_angle_beta 90.000000
_cell_angle_gamma 90.000000
_cell_volume 1596.765158
_symmetry_space_group_name_H-M "I -4 "
_symmetry_group_IT_number 82
_symmetry_cell_setting 'tetragonal'
loop_
_space_group_symop_operation_xyz
x,y,z
y,-x,-z
-x,-y,z
-y,x,-z
1/2+x,1/2+y,1/2+z
1/2+y,1/2-x,1/2-z
1/2-x,1/2-y,1/2+z
1/2-y,1/2+x,1/2-z
loop_
_atom_site_type_symbol
_atom_site_label
_atom_site_fract_x
_atom_site_fract_y
_atom_site_fract_z
Si Si1 0.821198 0.816312 0.456861
Si Si2 0.939189 0.214337 0.857297
Si Si3 0.586503 0.869126 0.011288
Si Si4 0.176626 0.844621 0.159242
Si Si5 0.500000 0.000000 0.250000
Si Si6 0.000000 0.500000 0.250000
O O1 0.829117 0.893402 0.311226
O O2 0.905587 0.738775 0.457581
O O3 0.815723 0.850535 0.650041
O O4 0.728522 0.755156 0.408450
O O5 0.894567 0.316819 0.894256
O O6 0.050773 0.218354 0.839132
O O7 0.907849 0.158264 0.024948
O O8 0.504573 0.908039 0.132355
O O9 0.573832 0.937694 0.853689
#
# Coordination Sequence:
#
# PCOD9542771 Si02
#       6
#     8   8   8   8   2   2
#     4  11  23  47  67 101 139 189 228 283 362 405
#     4  11  26  43  72 101 141 186 238 285 345 427
#     4  10  22  40  64 105 140 179 222 294 352 423
#     4  11  24  47  71 104 137 188 233 289 347 417
#     4  10  20  42  68 106 144 170 236 290 360 414
#     4  10  24  38  68 114 136 174 236 298 364 418
#
# _framework density 22.545582
#
# number of rings (size 3 to 8) (size 9 to 14) (size 15 to 20)
#    0.000    1.333    4.444    1.333    3.111    2.222 
#   12.000    0.000    0.000    0.000    0.000    0.000 
#    0.000    0.000    0.000    0.000    0.000    0.000 
#
# Total GULP energy -100565.253882 kJ/mol
# GULP energy per Si atom -5586.958549 kJ/mol
# Density = 2.249427 g / cm^3
# Si number density = 22.545582 Si / 1000 Ang^3
#
#
#
# Elastic Constant Matrix: (Units=GPa)
#
#
# Indices 1 2 3 4 5 6 
#
# 1 52.5462 12.3028 39.0765 0.0000 0.0000 -6.5942
# 2 12.3028 52.5462 39.0765 0.0000 0.0000 6.5942
# 3 39.0765 39.0765 185.6216 0.0000 0.0000 0.0000
# 4 0.0000 0.0000 0.0000 27.8060 0.0000 0.0000
# 5 0.0000 0.0000 0.0000 0.0000 27.8060 0.0000
# 6 -6.5942 6.5942 0.0000 0.0000 0.0000 21.2242
#
#
#
# Elastic Compliance Matrix: (Units=1/GPa)
#
#
# Indices 1 2 3 4 5 6 
#
# 1 0.024164 -0.003501 -0.004350 0.000000 0.000000 0.008595
# 2 -0.003501 0.024164 -0.004350 0.000000 0.000000 -0.008595
# 3 -0.004350 -0.004350 0.007219 0.000000 0.000000 0.000000
# 4 0.000000 0.000000 0.000000 0.035964 0.000000 0.000000
# 5 0.000000 0.000000 0.000000 0.000000 0.035964 0.000000
# 6 0.008595 -0.008595 0.000000 0.000000 0.000000 0.052457
#
#
# Mechanical properties :
#
#
# Convention : Reuss Voigt Hill
#
# Bulk Modulus (GPa) = 32.10818 52.40287 42.25552
# Shear Modulus (GPa) = 23.28670 28.71778 26.00224
#
# Velocity S-wave (km/s) = 3.21732 3.57286 3.39974
# Velocity P-wave (km/s) = 5.29848 6.34933 5.84756
#
# Compressibility (1/GPa) = 0.03114471
#
# Stress axis : x y z
#
# Youngs Moduli (GPa) = 41.38364 41.38364 138.52833
#
# Poissons Ratio (x) = 0.14490 0.60258
# Poissons Ratio (y) = 0.14490 0.60258
# Poissons Ratio (z) = 0.18001 0.18001
#
# Static dielectric constant tensor:
#      x y z
#    x 1.852460 0.000000 0.000000 
#    y 0.000000 1.852460 0.000000 
#    z 0.000000 0.000000 1.914960 
# 
# From -- ./inp_files/825.got.cif
#   From: 2010.05.17/outbox.cif.g08.bks.cpg/sg82_1_cif.got.tgz:825.got - 2010.06.03 18:52:26.
