data_PCOD9542385
_publ_section_title
;
Structure prediction by ZEFSAII (Michael W. Deem and Ramdas Pophale) SiO2 
 PCOD9542385
Probable space group: P -4
;
_chemical_formula_sum "Si O2"
_cell_formula_units_Z 24
_cell_length_a 11.211937
_cell_length_b 11.211937
_cell_length_c 8.500554
_cell_angle_alpha 90.000000
_cell_angle_beta 90.000000
_cell_angle_gamma 90.000000
_cell_volume 1068.583658
_symmetry_space_group_name_H-M "P -4"
_symmetry_group_IT_number 81
_symmetry_cell_setting 'tetragonal'
loop_
_space_group_symop_operation_xyz
x,y,z
y,-x,-z
-x,-y,z
-y,x,-z
loop_
_atom_site_type_symbol
_atom_site_label
_atom_site_fract_x
_atom_site_fract_y
_atom_site_fract_z
Si Si1 0.500000 0.500000 0.500000
Si Si2 0.165258 0.608165 0.423646
Si Si3 0.808339 0.813523 0.340674
Si Si4 0.740834 0.049028 0.147459
Si Si5 0.000000 0.500000 0.692828
Si Si6 0.500000 0.500000 0.000000
Si Si7 0.584812 0.331304 0.735661
Si Si8 0.236031 0.047635 0.795413
O O1 0.401321 0.556452 0.616341
O O2 0.198673 0.739435 0.493207
O O3 0.099419 0.549624 0.572145
O O4 0.261693 0.522348 0.347747
O O5 0.081369 0.636980 0.276027
O O6 0.751425 0.699819 0.250568
O O7 0.950814 0.809542 0.332522
O O8 0.778093 0.934781 0.251444
O O9 0.835406 0.154023 0.181261
O O10 0.603023 0.061474 0.201476
O O11 0.753797 0.015114 0.964458
O O12 0.544146 0.389736 0.896395
#
# Coordination Sequence:
#
# PCOD9542385 Si02
#       8
#     1   4   4   4   2   1   4   4
#     4  10  20  42  68  98 144 202 244 334 348 442
#     4  11  26  44  74 105 144 199 249 321 372 457
#     4  11  25  44  73 108 146 200 248 313 387 449
#     4  11  26  49  76 109 153 199 253 319 380 463
#     4  10  26  50  72 110 146 198 258 304 386 448
#     4  10  28  42  72 114 140 218 256 330 384 458
#     4  11  23  46  70 104 152 190 270 306 389 443
#     4  12  26  48  75 111 152 198 251 312 390 465
#
# _framework density 22.459638000000002
#
# number of rings (size 3 to 8) (size 9 to 14) (size 15 to 20)
#    0.000    1.000    3.333    1.500    9.333    2.000 
#    6.000    0.000    0.000    0.000    0.000    0.000 
#    0.000    0.000    0.000    0.000    0.000    0.000 
#
# Total GULP energy -133996.290205 kJ/mol
# GULP energy per Si atom -5583.178759 kJ/mol
# Density = 2.240852 g / cm^3
# Si number density = 22.459638 Si / 1000 Ang^3
#
#
#
# Elastic Constant Matrix: (Units=GPa)
#
#
# Indices 1 2 3 4 5 6 
#
# 1 88.4184 23.0795 39.8144 0.0000 0.0000 0.9671
# 2 23.0795 88.4184 39.8144 0.0000 0.0000 -0.9671
# 3 39.8144 39.8144 95.4126 0.0000 0.0000 0.0000
# 4 0.0000 0.0000 0.0000 23.7516 0.0000 0.0000
# 5 0.0000 0.0000 0.0000 0.0000 23.7516 0.0000
# 6 0.9671 -0.9671 0.0000 0.0000 0.0000 36.8003
#
#
#
# Elastic Compliance Matrix: (Units=1/GPa)
#
#
# Indices 1 2 3 4 5 6 
#
# 1 0.014047 -0.001270 -0.005331 0.000000 0.000000 -0.000403
# 2 -0.001270 0.014047 -0.005331 0.000000 0.000000 0.000403
# 3 -0.005331 -0.005331 0.014930 0.000000 0.000000 0.000000
# 4 0.000000 0.000000 0.000000 0.042102 0.000000 0.000000
# 5 0.000000 0.000000 0.000000 0.000000 0.042102 0.000000
# 6 -0.000403 0.000403 0.000000 0.000000 0.000000 0.027195
#
#
# Mechanical properties :
#
#
# Convention : Reuss Voigt Hill
#
# Bulk Modulus (GPa) = 52.19940 53.07401 52.63671
# Shear Modulus (GPa) = 27.07466 28.16347 27.61907
#
# Velocity S-wave (km/s) = 3.47577 3.54497 3.51054
# Velocity P-wave (km/s) = 6.27693 6.35908 6.31814
#
# Compressibility (1/GPa) = 0.01915731
#
# Stress axis : x y z
#
# Youngs Moduli (GPa) = 71.19201 71.19201 66.97825
#
# Poissons Ratio (x) = 0.09043 0.35709
# Poissons Ratio (y) = 0.09043 0.35709
# Poissons Ratio (z) = 0.37955 0.37955
#
# Static dielectric constant tensor:
#      x y z
#    x 1.938310 0.000000 0.000000 
#    y 0.000000 1.938310 0.000000 
#    z 0.000000 0.000000 1.832740 
# 
# From -- ./inp_files/902.got.cif
#   From: 2010.05.17/outbox.cif.g08.bks.cpg/sg81_cif.got.tgz:902.got - 2010.06.03 18:51:07.
