data_PCOD9542667
_publ_section_title
;
Structure prediction by ZEFSAII (Michael W. Deem and Ramdas Pophale) SiO2 
 PCOD9542667
Probable space group: I -4 
;
_chemical_formula_sum "Si O2"
_cell_formula_units_Z 50
_cell_length_a 15.507517
_cell_length_b 15.507517
_cell_length_c 10.979321
_cell_angle_alpha 90.000000
_cell_angle_beta 90.000000
_cell_angle_gamma 90.000000
_cell_volume 2640.340969
_symmetry_space_group_name_H-M "I -4 "
_symmetry_group_IT_number 82
_symmetry_cell_setting 'tetragonal'
loop_
_space_group_symop_operation_xyz
x,y,z
y,-x,-z
-x,-y,z
-y,x,-z
1/2+x,1/2+y,1/2+z
1/2+y,1/2-x,1/2-z
1/2-x,1/2-y,1/2+z
1/2-y,1/2+x,1/2-z
loop_
_atom_site_type_symbol
_atom_site_label
_atom_site_fract_x
_atom_site_fract_y
_atom_site_fract_z
Si Si1 0.000000 0.000000 0.500000
Si Si2 0.391169 0.813695 0.211106
Si Si3 0.986374 0.599847 0.901186
Si Si4 0.822118 0.586902 0.379412
Si Si5 0.230047 0.736647 0.929124
Si Si6 0.867225 0.141122 0.586419
Si Si7 0.594514 0.772914 0.712815
O O1 0.936350 0.067183 0.565627
O O2 0.377714 0.886039 0.108619
O O3 0.468663 0.845527 0.295270
O O4 0.311744 0.802201 0.305190
O O5 0.410860 0.723901 0.148193
O O6 0.000000 0.500000 0.877888
O O7 0.036918 0.617945 0.024609
O O8 0.771639 0.658852 0.461531
O O9 0.770503 0.505385 0.325853
O O10 0.875075 0.637130 0.275240
O O11 0.251939 0.835211 0.892595
O O12 0.312316 0.680623 0.973032
O O13 0.796838 0.107185 0.681376
#
# Coordination Sequence:
#
# PCOD9542667 Si02
#       7
#     2   8   8   8   8   8   8
#     4  12  28  40  60  92 118 168 212 256 292 364
#     4  10  19  36  61  85 125 162 204 261 304 380
#     4  11  20  33  56  97 125 158 206 250 320 368
#     4  10  23  36  63  92 127 166 201 263 315 378
#     4   9  21  42  61  89 122 165 213 248 320 376
#     4  10  24  41  60  88 123 166 212 254 311 367
#     4  10  22  42  62  93 125 163 208 256 322 374
#
# _framework density 18.93695
#
# number of rings (size 3 to 8) (size 9 to 14) (size 15 to 20)
#    0.000    1.920    1.600    0.960    6.720    1.280 
#    0.000    4.800    0.000    0.000    0.000    0.000 
#    0.000    0.000    0.000    0.000    0.000    0.000 
#
# Total GULP energy -139347.983432 kJ/mol
# GULP energy per Si atom -5573.919337 kJ/mol
# Density = 1.889385 g / cm^3
# Si number density = 18.936950 Si / 1000 Ang^3
#
#
#
# Elastic Constant Matrix: (Units=GPa)
#
#
# Indices 1 2 3 4 5 6 
#
# 1 119.9097 52.8289 41.0977 0.0000 0.0000 -5.8011
# 2 52.8289 119.9097 41.0977 0.0000 0.0000 5.8011
# 3 41.0977 41.0977 60.6206 0.0000 0.0000 0.0000
# 4 0.0000 0.0000 0.0000 6.3652 0.0000 0.0000
# 5 0.0000 0.0000 0.0000 0.0000 6.3652 0.0000
# 6 -5.8011 5.8011 0.0000 0.0000 0.0000 27.8120
#
#
#
# Elastic Compliance Matrix: (Units=1/GPa)
#
#
# Indices 1 2 3 4 5 6 
#
# 1 0.012006 -0.003460 -0.005794 0.000000 0.000000 0.003226
# 2 -0.003460 0.012006 -0.005794 0.000000 0.000000 -0.003226
# 3 -0.005794 -0.005794 0.024352 0.000000 0.000000 0.000000
# 4 0.000000 0.000000 0.000000 0.157103 0.000000 0.000000
# 5 0.000000 0.000000 0.000000 0.000000 0.157103 0.000000
# 6 0.003226 -0.003226 0.000000 0.000000 0.000000 0.037301
#
#
# Mechanical properties :
#
#
# Convention : Reuss Voigt Hill
#
# Bulk Modulus (GPa) = 54.73826 63.38762 59.06294
# Shear Modulus (GPa) = 11.46645 19.13620 15.30133
#
# Velocity S-wave (km/s) = 2.46337 3.18232 2.84564
# Velocity P-wave (km/s) = 6.08763 6.85919 6.48490
#
# Compressibility (1/GPa) = 0.01826876
#
# Stress axis : x y z
#
# Youngs Moduli (GPa) = 83.29411 83.29411 41.06483
#
# Poissons Ratio (x) = 0.28817 0.23792
# Poissons Ratio (y) = 0.28817 0.23792
# Poissons Ratio (z) = 0.48258 0.48258
#
# Static dielectric constant tensor:
#      x y z
#    x 1.661680 0.000000 0.000000 
#    y 0.000000 1.661680 0.000000 
#    z 0.000000 0.000000 1.728910 
# 
# From -- ./inp_files/1805.got.cif
#   From: 2010.05.17/outbox.cif.g08.bks.cpg/sg82_1_cif.got.tgz:1805.got - 2010.06.03 18:52:26.
