data_PCOD9542518
_publ_section_title
;
Structure prediction by ZEFSAII (Michael W. Deem and Ramdas Pophale) SiO2 
 PCOD9542518
Probable space group: P -4
;
_chemical_formula_sum "Si O2"
_cell_formula_units_Z 28
_cell_length_a 11.853341
_cell_length_b 11.853341
_cell_length_c 10.536116
_cell_angle_alpha 90.000000
_cell_angle_beta 90.000000
_cell_angle_gamma 90.000000
_cell_volume 1480.342134
_symmetry_space_group_name_H-M "P -4"
_symmetry_group_IT_number 81
_symmetry_cell_setting 'tetragonal'
loop_
_space_group_symop_operation_xyz
x,y,z
y,-x,-z
-x,-y,z
-y,x,-z
loop_
_atom_site_type_symbol
_atom_site_label
_atom_site_fract_x
_atom_site_fract_y
_atom_site_fract_z
Si Si1 0.757333 0.325072 0.757804
Si Si2 0.518299 0.134718 0.106803
Si Si3 0.876657 0.611583 0.173513
Si Si4 0.643919 0.596043 0.459735
Si Si5 0.367880 0.031719 0.422131
Si Si6 0.627562 0.887386 0.709935
Si Si7 0.197586 0.310913 0.669984
O O1 0.797713 0.401578 0.874426
O O2 0.717772 0.200813 0.794114
O O3 0.650770 0.370558 0.677536
O O4 0.858923 0.334812 0.658042
O O5 0.599576 0.183579 0.216251
O O6 0.500000 0.000000 0.124073
O O7 0.571086 0.148407 0.968499
O O8 0.850956 0.502744 0.264148
O O9 0.008182 0.640940 0.192782
O O10 0.638047 0.462406 0.457777
O O11 0.749898 0.635973 0.541404
O O12 0.360126 0.059940 0.570029
O O13 0.500000 0.000000 0.400536
O O14 0.288445 0.930456 0.374170
O O15 0.721137 0.789728 0.715811
#
# Coordination Sequence:
#
# PCOD9542518 Si02
#       7
#     4   4   4   4   4   4   4
#     4  12  23  41  67  96 130 172 221 271 329 393
#     4  12  24  45  67  94 130 182 221 264 322 402
#     4  11  26  44  66  94 134 175 227 262 322 400
#     4  11  21  36  59  96 137 165 206 271 339 394
#     4  12  21  39  67  99 132 167 218 269 337 386
#     4  11  24  42  69  95 130 175 216 273 326 392
#     4  12  23  39  67  98 130 172 223 270 326 393
#
# _framework density 18.914546999999999
#
# number of rings (size 3 to 8) (size 9 to 14) (size 15 to 20)
#    0.000    0.429    8.571    1.714    2.000    0.000 
#    0.000    0.714    0.000    0.000    3.714    0.000 
#    0.000    0.000    0.000    0.000    0.000    0.000 
#
# Total GULP energy -156337.247859 kJ/mol
# GULP energy per Si atom -5583.473138 kJ/mol
# Density = 1.887150 g / cm^3
# Si number density = 18.914547 Si / 1000 Ang^3
#
#
#
# Elastic Constant Matrix: (Units=GPa)
#
#
# Indices 1 2 3 4 5 6 
#
# 1 85.2289 28.5833 6.2872 0.0000 0.0000 0.8716
# 2 28.5833 85.2289 6.2872 0.0000 0.0000 -0.8716
# 3 6.2872 6.2872 67.1853 0.0000 0.0000 0.0000
# 4 0.0000 0.0000 0.0000 21.8427 0.0000 0.0000
# 5 0.0000 0.0000 0.0000 0.0000 21.8427 0.0000
# 6 0.8716 -0.8716 0.0000 0.0000 0.0000 40.0053
#
#
#
# Elastic Compliance Matrix: (Units=1/GPa)
#
#
# Indices 1 2 3 4 5 6 
#
# 1 0.013272 -0.004394 -0.000831 0.000000 0.000000 -0.000385
# 2 -0.004394 0.013272 -0.000831 0.000000 0.000000 0.000385
# 3 -0.000831 -0.000831 0.015040 0.000000 0.000000 0.000000
# 4 0.000000 0.000000 0.000000 0.045782 0.000000 0.000000
# 5 0.000000 0.000000 0.000000 0.000000 0.045782 0.000000
# 6 -0.000385 0.000385 0.000000 0.000000 0.000000 0.025013
#
#
# Mechanical properties :
#
#
# Convention : Reuss Voigt Hill
#
# Bulk Modulus (GPa) = 33.92960 35.55096 34.74028
# Shear Modulus (GPa) = 27.76304 29.83716 28.80010
#
# Velocity S-wave (km/s) = 3.83536 3.97605 3.90634
# Velocity P-wave (km/s) = 6.13112 6.31783 6.22518
#
# Compressibility (1/GPa) = 0.02947279
#
# Stress axis : x y z
#
# Youngs Moduli (GPa) = 75.34753 75.34753 66.49070
#
# Poissons Ratio (x) = 0.33105 0.05524
# Poissons Ratio (y) = 0.33105 0.05524
# Poissons Ratio (z) = 0.06260 0.06260
#
# Static dielectric constant tensor:
#      x y z
#    x 1.668640 0.000000 0.000000 
#    y 0.000000 1.668640 0.000000 
#    z 0.000000 0.000000 1.673460 
# 
# From -- ./inp_files/1398.got.cif
#   From: 2010.05.17/outbox.cif.g08.bks.cpg/sg81_cif.got.tgz:1398.got - 2010.06.03 18:51:07.
