data_PCOD9542409
_publ_section_title
;
Structure prediction by ZEFSAII (Michael W. Deem and Ramdas Pophale) SiO2 
 PCOD9542409
Probable space group: P -4
;
_chemical_formula_sum "Si O2"
_cell_formula_units_Z 24
_cell_length_a 12.171848
_cell_length_b 12.171848
_cell_length_c 8.693970
_cell_angle_alpha 90.000000
_cell_angle_beta 90.000000
_cell_angle_gamma 90.000000
_cell_volume 1288.045421
_symmetry_space_group_name_H-M "P -4"
_symmetry_group_IT_number 81
_symmetry_cell_setting 'tetragonal'
loop_
_space_group_symop_operation_xyz
x,y,z
y,-x,-z
-x,-y,z
-y,x,-z
loop_
_atom_site_type_symbol
_atom_site_label
_atom_site_fract_x
_atom_site_fract_y
_atom_site_fract_z
Si Si1 0.167470 0.026786 0.933081
Si Si2 0.596389 0.914963 0.064795
Si Si3 0.467924 0.333334 0.065622
Si Si4 0.596389 0.914963 0.435205
Si Si5 0.832530 0.973214 0.566919
Si Si6 0.532075 0.666666 0.434378
O O1 0.159376 0.018298 0.750000
O O2 0.290342 0.052283 0.985184
O O3 0.085251 0.121739 0.992114
O O4 0.561082 0.791160 0.023588
O O5 0.611863 0.918804 0.250000
O O6 0.500000 0.000000 0.024818
O O7 0.476127 0.341211 0.250000
O O8 0.375632 0.418262 0.007042
O O9 0.709658 0.947717 0.514816
O O10 0.561082 0.791160 0.476412
O O11 0.500000 0.000000 0.475182
O O12 0.914749 0.878261 0.507886
O O13 0.624368 0.581738 0.492958
#
# Coordination Sequence:
#
# PCOD9542409 Si02
#       6
#     4   4   4   4   4   4
#     4  11  23  41  65  91 122 160 203 249 303 361
#     4  10  23  41  61  90 125 160 200 249 303 357
#     4  10  21  38  61  87 119 158 201 247 299 357
#     4  10  23  41  61  90 125 160 200 249 303 357
#     4  11  23  41  65  91 122 160 203 249 303 361
#     4  10  21  38  61  87 119 158 201 247 299 357
#
# _framework density 18.632881999999999
#
# number of rings (size 3 to 8) (size 9 to 14) (size 15 to 20)
#    0.000    1.667    0.000    6.000    4.667    3.333 
#    0.000    0.000    0.000    0.000    0.000    0.000 
#    0.000    0.000    0.000    0.000    0.000    0.000 
#
# Total GULP energy -134173.446293 kJ/mol
# GULP energy per Si atom -5590.560262 kJ/mol
# Density = 1.859047 g / cm^3
# Si number density = 18.632882 Si / 1000 Ang^3
#
#
#
# Elastic Constant Matrix: (Units=GPa)
#
#
# Indices 1 2 3 4 5 6 
#
# 1 128.2536 78.4032 37.8281 0.0000 0.0000 2.5292
# 2 78.4032 128.2536 37.8281 0.0000 0.0000 -2.5292
# 3 37.8281 37.8281 55.1170 0.0000 0.0000 0.0000
# 4 0.0000 0.0000 0.0000 24.2444 0.0000 0.0000
# 5 0.0000 0.0000 0.0000 0.0000 24.2444 0.0000
# 6 2.5292 -2.5292 0.0000 0.0000 0.0000 6.9903
#
#
#
# Elastic Compliance Matrix: (Units=1/GPa)
#
#
# Indices 1 2 3 4 5 6 
#
# 1 0.013644 -0.007181 -0.004436 0.000000 0.000000 -0.007535
# 2 -0.007181 0.013644 -0.004436 0.000000 0.000000 0.007535
# 3 -0.004436 -0.004436 0.024232 0.000000 0.000000 0.000000
# 4 0.000000 0.000000 0.000000 0.041247 0.000000 0.000000
# 5 0.000000 0.000000 0.000000 0.000000 0.041247 0.000000
# 6 -0.007535 0.007535 0.000000 0.000000 0.000000 0.148508
#
#
# Mechanical properties :
#
#
# Convention : Reuss Voigt Hill
#
# Bulk Modulus (GPa) = 51.50654 68.86032 60.18343
# Shear Modulus (GPa) = 15.57167 21.60015 18.58591
#
# Velocity S-wave (km/s) = 2.89400 3.40847 3.16172
# Velocity P-wave (km/s) = 6.23457 7.24754 6.76005
#
# Compressibility (1/GPa) = 0.01941501
#
# Stress axis : x y z
#
# Youngs Moduli (GPa) = 73.29408 73.29408 41.26833
#
# Poissons Ratio (x) = 0.52632 0.18305
# Poissons Ratio (y) = 0.52632 0.18305
# Poissons Ratio (z) = 0.32510 0.32510
#
# Static dielectric constant tensor:
#      x y z
#    x 1.615750 0.000000 0.000000 
#    y 0.000000 1.615750 0.000000 
#    z 0.000000 0.000000 1.626820 
# 
# From -- ./inp_files/822.got.cif
#   From: 2010.05.17/outbox.cif.g08.bks.cpg/sg81_cif.got.tgz:822.got - 2010.06.03 18:51:07.
