data_PCOD9542294
_publ_section_title
;
Structure prediction by ZEFSAII (Michael W. Deem and Ramdas Pophale) SiO2 
 PCOD9542294
Probable space group: I 41
;
_chemical_formula_sum "Si O2"
_cell_formula_units_Z 52
_cell_length_a 20.947202
_cell_length_b 20.947202
_cell_length_c 5.394275
_cell_angle_alpha 90.000000
_cell_angle_beta 90.000000
_cell_angle_gamma 90.000000
_cell_volume 2366.928421
_symmetry_space_group_name_H-M "I 41"
_symmetry_group_IT_number 80
_symmetry_cell_setting 'tetragonal'
loop_
_space_group_symop_operation_xyz
x,y,z
-y,1/2+x,1/4+z
-x,-y,z
y,1/2-x,1/4+z
1/2+x,1/2+y,1/2+z
1/2-y,x,3/4+z
1/2-x,1/2-y,1/2+z
1/2+y,-x,3/4+z
loop_
_atom_site_type_symbol
_atom_site_label
_atom_site_fract_x
_atom_site_fract_y
_atom_site_fract_z
Si Si1 0.020360 0.670920 0.693220
Si Si2 0.193122 0.388612 0.220070
Si Si3 0.107999 0.555758 0.559604
Si Si4 0.482479 0.744096 0.690450
Si Si5 0.584304 0.925354 0.354422
Si Si6 0.664764 0.792352 0.101537
Si Si7 0.000000 0.500000 0.210919
O O1 0.077937 0.619849 0.673003
O O2 0.017946 0.715121 0.445550
O O3 0.954385 0.629427 0.707358
O O4 0.028645 0.712828 0.944161
O O5 0.211679 0.449308 0.383590
O O6 0.148511 0.344414 0.392219
O O7 0.148569 0.403597 0.985272
O O8 0.259924 0.365332 0.097115
O O9 0.181214 0.562139 0.472863
O O10 0.101660 0.493109 0.732106
O O11 0.057337 0.534324 0.352562
O O12 0.532291 0.944491 0.556450
O O13 0.731425 0.820823 0.186652
#
# Coordination Sequence:
#
# PCOD9542294 Si02
#       7
#     8   8   8   8   8   8   4
#     4  12  28  50  79 115 155 199 257 312 400 461
#     4  12  29  45  70  97 154 195 274 313 371 441
#     4  12  26  51  76 114 159 199 256 316 404 461
#     4  12  31  47  76 119 147 196 255 337 376 470
#     4  12  26  44  77 112 147 204 256 321 382 461
#     4  12  26  48  61  88 141 221 255 302 355 434
#     4  12  20  46  80 110 146 208 248 324 396 450
#
# _framework density 21.969398999999999
#
# number of rings (size 3 to 8) (size 9 to 14) (size 15 to 20)
#    0.000    0.000    6.154    1.846    8.615    1.231 
#    0.000    0.000    0.000    1.846    0.000    0.000 
#    0.000    0.000    0.000    0.000    0.000    0.000 
#
# Total GULP energy -145247.729163 kJ/mol
# GULP energy per Si atom -5586.451122 kJ/mol
# Density = 2.191940 g / cm^3
# Si number density = 21.969399 Si / 1000 Ang^3
#
#
#
# Elastic Constant Matrix: (Units=GPa)
#
#
# Indices 1 2 3 4 5 6 
#
# 1 146.8881 62.8664 72.3880 0.0000 0.0000 13.6884
# 2 62.8664 146.8881 72.3880 0.0000 0.0000 -13.6884
# 3 72.3880 72.3880 140.0968 0.0000 0.0000 0.0000
# 4 0.0000 0.0000 0.0000 50.4285 0.0000 0.0000
# 5 0.0000 0.0000 0.0000 0.0000 50.4285 0.0000
# 6 13.6884 -13.6884 0.0000 0.0000 0.0000 136.1825
#
#
#
# Elastic Compliance Matrix: (Units=1/GPa)
#
#
# Indices 1 2 3 4 5 6 
#
# 1 0.009857 -0.002447 -0.003829 0.000000 0.000000 -0.001237
# 2 -0.002447 0.009857 -0.003829 0.000000 0.000000 0.001237
# 3 -0.003829 -0.003829 0.011095 0.000000 0.000000 0.000000
# 4 0.000000 0.000000 0.000000 0.019830 0.000000 0.000000
# 5 0.000000 0.000000 0.000000 0.000000 0.019830 0.000000
# 6 -0.001237 0.001237 0.000000 0.000000 0.000000 0.007592
#
#
# Mechanical properties :
#
#
# Convention : Reuss Voigt Hill
#
# Bulk Modulus (GPa) = 94.34262 94.35088 94.34675
# Shear Modulus (GPa) = 49.11374 62.48994 55.80184
#
# Velocity S-wave (km/s) = 4.73329 5.33909 5.04529
# Velocity P-wave (km/s) = 8.53862 9.00264 8.77370
#
# Compressibility (1/GPa) = 0.01059966
#
# Stress axis : x y z
#
# Youngs Moduli (GPa) = 101.44615 101.44615 90.13345
#
# Poissons Ratio (x) = 0.24826 0.34511
# Poissons Ratio (y) = 0.24826 0.34511
# Poissons Ratio (z) = 0.38842 0.38842
#
# Static dielectric constant tensor:
#      x y z
#    x 1.834160 0.000000 0.000000 
#    y 0.000000 1.834160 0.000000 
#    z 0.000000 0.000000 2.002590 
# 
# From -- ./inp_files/349.got.cif
#   From: 2010.05.17/outbox.cif.g08.bks.cpg/sg80_cif.got.tgz:349.got - 2010.06.03 18:49:13.
