data_PCOD9542776
_publ_section_title
;
Structure prediction by ZEFSAII (Michael W. Deem and Ramdas Pophale) SiO2 
 PCOD9542776
Probable space group: I -4 
;
_chemical_formula_sum "Si O2"
_cell_formula_units_Z 20
_cell_length_a 9.938877
_cell_length_b 9.938877
_cell_length_c 6.904731
_cell_angle_alpha 90.000000
_cell_angle_beta 90.000000
_cell_angle_gamma 90.000000
_cell_volume 682.058139
_symmetry_space_group_name_H-M "I -4 "
_symmetry_group_IT_number 82
_symmetry_cell_setting 'tetragonal'
loop_
_space_group_symop_operation_xyz
x,y,z
y,-x,-z
-x,-y,z
-y,x,-z
1/2+x,1/2+y,1/2+z
1/2+y,1/2-x,1/2-z
1/2-x,1/2-y,1/2+z
1/2-y,1/2+x,1/2-z
loop_
_atom_site_type_symbol
_atom_site_label
_atom_site_fract_x
_atom_site_fract_y
_atom_site_fract_z
Si Si1 0.000000 0.000000 0.500000
Si Si2 0.000000 0.000000 0.000000
Si Si3 0.876082 0.361843 0.137455
Si Si4 0.898264 0.217126 0.763423
O O1 0.002671 0.141269 0.618665
O O2 0.082819 0.114838 0.104138
O O3 0.838614 0.515991 0.189990
O O4 0.745368 0.268447 0.163411
O O5 0.926337 0.335516 0.917100
#
# Coordination Sequence:
#
# PCOD9542776 Si02
#       4
#     2   2   8   8
#     4  10  28  50  88 118 154 232 282 326 392 510
#     4  10  20  46  80 106 152 222 270 320 370 506
#     4  11  26  49  77 119 168 209 265 338 422 476
#     4  11  24  48  82 115 160 212 278 329 396 497
#
# _framework density 29.323011999999999
#
# number of rings (size 3 to 8) (size 9 to 14) (size 15 to 20)
#    0.000    1.200    4.000    0.000    5.600    0.000 
#    0.000    0.000    0.000    0.000    0.000    0.000 
#    0.000    0.000    0.000    0.000    0.000    0.000 
#
# Total GULP energy -55732.487058 kJ/mol
# GULP energy per Si atom -5573.248706 kJ/mol
# Density = 2.925627 g / cm^3
# Si number density = 29.323012 Si / 1000 Ang^3
#
#
#
# Elastic Constant Matrix: (Units=GPa)
#
#
# Indices 1 2 3 4 5 6 
#
# 1 122.3116 7.7749 62.2612 0.0000 0.0000 2.5381
# 2 7.7749 122.3116 62.2612 0.0000 0.0000 -2.5381
# 3 62.2612 62.2612 138.6331 0.0000 0.0000 0.0000
# 4 0.0000 0.0000 0.0000 50.7148 0.0000 0.0000
# 5 0.0000 0.0000 0.0000 0.0000 50.7148 0.0000
# 6 2.5381 -2.5381 0.0000 0.0000 0.0000 28.3508
#
#
#
# Elastic Compliance Matrix: (Units=1/GPa)
#
#
# Indices 1 2 3 4 5 6 
#
# 1 0.011125 0.002359 -0.006056 0.000000 0.000000 -0.000785
# 2 0.002359 0.011125 -0.006056 0.000000 0.000000 0.000785
# 3 -0.006056 -0.006056 0.012653 0.000000 0.000000 0.000000
# 4 0.000000 0.000000 0.000000 0.019718 0.000000 0.000000
# 5 0.000000 0.000000 0.000000 0.000000 0.019718 0.000000
# 6 -0.000785 0.000785 0.000000 0.000000 0.000000 0.035413
#
#
# Mechanical properties :
#
#
# Convention : Reuss Voigt Hill
#
# Bulk Modulus (GPa) = 64.94546 71.98343 68.46445
# Shear Modulus (GPa) = 37.20560 42.68668 39.94614
#
# Velocity S-wave (km/s) = 3.56591 3.81956 3.69491
# Velocity P-wave (km/s) = 6.25705 6.63730 6.44998
#
# Compressibility (1/GPa) = 0.01539754
#
# Stress axis : x y z
#
# Youngs Moduli (GPa) = 89.88961 89.88961 79.03492
#
# Poissons Ratio (x) = -0.21206 0.47861
# Poissons Ratio (y) = -0.21206 0.47861
# Poissons Ratio (z) = 0.54435 0.54435
#
# Static dielectric constant tensor:
#      x y z
#    x 2.382190 0.000000 0.000000 
#    y 0.000000 2.382190 0.000000 
#    z 0.000000 0.000000 2.547260 
# 
# From -- ./inp_files/546.got.cif
#   From: 2010.05.17/outbox.cif.g08.bks.cpg/sg82_1_cif.got.tgz:546.got - 2010.06.03 18:52:26.
