data_PCOD9542909
_publ_section_title
;
Structure prediction by ZEFSAII (Michael W. Deem and Ramdas Pophale) SiO2 
 PCOD9542909
Probable space group: I -4 
;
_chemical_formula_sum "Si O2"
_cell_formula_units_Z 44
_cell_length_a 8.007416
_cell_length_b 8.007416
_cell_length_c 34.524062
_cell_angle_alpha 90.000000
_cell_angle_beta 90.000000
_cell_angle_gamma 90.000000
_cell_volume 2213.638354
_symmetry_space_group_name_H-M "I -4 "
_symmetry_group_IT_number 82
_symmetry_cell_setting 'tetragonal'
loop_
_space_group_symop_operation_xyz
x,y,z
y,-x,-z
-x,-y,z
-y,x,-z
1/2+x,1/2+y,1/2+z
1/2+y,1/2-x,1/2-z
1/2-x,1/2-y,1/2+z
1/2-y,1/2+x,1/2-z
loop_
_atom_site_type_symbol
_atom_site_label
_atom_site_fract_x
_atom_site_fract_y
_atom_site_fract_z
Si Si1 0.500000 0.000000 0.250000
Si Si2 0.669320 0.391101 0.124568
Si Si3 0.500000 0.500000 0.500000
Si Si4 0.780726 0.309608 0.469702
Si Si5 0.692435 0.958039 0.446990
Si Si6 0.000000 0.500000 0.086617
Si Si7 0.295571 0.753758 0.209062
Si Si8 0.000000 0.000000 0.241003
O O1 0.538519 0.146175 0.220624
O O2 0.500000 0.500000 0.128879
O O3 0.644274 0.267367 0.088312
O O4 0.836906 0.488637 0.112971
O O5 0.705932 0.298139 0.164677
O O6 0.587695 0.353809 0.476428
O O7 0.794058 0.131606 0.449442
O O8 0.851767 0.458194 0.443489
O O9 0.871926 0.293789 0.510978
O O10 0.500000 0.000000 0.439848
O O11 0.346923 0.588956 0.234641
O O12 0.143178 0.886424 0.218463
#
# Coordination Sequence:
#
# PCOD9542909 Si02
#       8
#     2   8   2   8   8   4   8   4
#     4   8  20  44  74  96 140 180 216 260 346 440
#     4  12  26  46  67  98 140 179 224 292 359 410
#     4  12  20  36  62  92 124 156 232 316 328 404
#     4  12  23  42  65  91 129 179 240 286 346 413
#     4  12  25  41  65  92 128 180 225 288 349 411
#     4  12  26  46  63  95 136 186 232 291 347 420
#     4  10  22  45  71 106 138 177 224 283 341 429
#     4  10  22  44  77 102 136 182 226 274 348 430
#
# _framework density 19.876778000000002
#
# number of rings (size 3 to 8) (size 9 to 14) (size 15 to 20)
#    0.000    0.727    5.455    2.182    1.273    1.818 
#    6.545    0.000    0.000    0.000    0.000    0.000 
#    0.000    0.000    0.000    0.000    0.000    0.000 
#
# Total GULP energy -122480.334558 kJ/mol
# GULP energy per Si atom -5567.287934 kJ/mol
# Density = 1.983154 g / cm^3
# Si number density = 19.876778 Si / 1000 Ang^3
#
#
#
# Elastic Constant Matrix: (Units=GPa)
#
#
# Indices 1 2 3 4 5 6 
#
# 1 83.3886 22.5358 39.3305 0.0000 0.0000 -1.2619
# 2 22.5358 83.3886 39.3305 0.0000 0.0000 1.2619
# 3 39.3305 39.3305 119.5218 0.0000 0.0000 0.0000
# 4 0.0000 0.0000 0.0000 20.5491 0.0000 0.0000
# 5 0.0000 0.0000 0.0000 0.0000 20.5491 0.0000
# 6 -1.2619 1.2619 0.0000 0.0000 0.0000 32.6465
#
#
#
# Elastic Compliance Matrix: (Units=1/GPa)
#
#
# Indices 1 2 3 4 5 6 
#
# 1 0.014477 -0.001983 -0.004111 0.000000 0.000000 0.000636
# 2 -0.001983 0.014477 -0.004111 0.000000 0.000000 -0.000636
# 3 -0.004111 -0.004111 0.011072 0.000000 0.000000 0.000000
# 4 0.000000 0.000000 0.000000 0.048664 0.000000 0.000000
# 5 0.000000 0.000000 0.000000 0.000000 0.048664 0.000000
# 6 0.000636 -0.000636 0.000000 0.000000 0.000000 0.030680
#
#
# Mechanical properties :
#
#
# Convention : Reuss Voigt Hill
#
# Bulk Modulus (GPa) = 50.98162 54.29918 52.64040
# Shear Modulus (GPa) = 25.64328 27.08911 26.36619
#
# Velocity S-wave (km/s) = 3.59571 3.69569 3.64604
# Velocity P-wave (km/s) = 6.55312 6.75189 6.65325
#
# Compressibility (1/GPa) = 0.01961491
#
# Stress axis : x y z
#
# Youngs Moduli (GPa) = 69.07683 69.07682 90.31443
#
# Poissons Ratio (x) = 0.13697 0.37131
# Poissons Ratio (y) = 0.13697 0.37131
# Poissons Ratio (z) = 0.28399 0.28399
#
# Static dielectric constant tensor:
#      x y z
#    x 1.779600 0.000000 0.000000 
#    y 0.000000 1.779600 0.000000 
#    z 0.000000 0.000000 1.720020 
# 
# From -- ./inp_files/3987.got.cif
#   From: 2010.05.17/outbox.cif.g08.bks.cpg/sg82_2_cif.got.tgz:3987.got - 2010.06.03 18:52:26.
