data_PCOD9542906
_publ_section_title
;
Structure prediction by ZEFSAII (Michael W. Deem and Ramdas Pophale) SiO2 
 PCOD9542906
Probable space group: I -4 
;
_chemical_formula_sum "Si O2"
_cell_formula_units_Z 42
_cell_length_a 8.343905
_cell_length_b 8.343905
_cell_length_c 28.855467
_cell_angle_alpha 90.000000
_cell_angle_beta 90.000000
_cell_angle_gamma 90.000000
_cell_volume 2008.939273
_symmetry_space_group_name_H-M "I -4 "
_symmetry_group_IT_number 82
_symmetry_cell_setting 'tetragonal'
loop_
_space_group_symop_operation_xyz
x,y,z
y,-x,-z
-x,-y,z
-y,x,-z
1/2+x,1/2+y,1/2+z
1/2+y,1/2-x,1/2-z
1/2-x,1/2-y,1/2+z
1/2-y,1/2+x,1/2-z
loop_
_atom_site_type_symbol
_atom_site_label
_atom_site_fract_x
_atom_site_fract_y
_atom_site_fract_z
Si Si1 0.225219 0.278357 0.461354
Si Si2 0.500000 0.500000 0.500000
Si Si3 0.406405 0.754118 0.260280
Si Si4 0.000000 0.000000 0.308273
Si Si5 0.751450 0.765087 0.644558
Si Si6 0.000000 0.500000 0.100174
Si Si7 0.675822 0.061688 0.444155
O O1 0.390180 0.378623 0.469589
O O2 0.102223 0.384228 0.432638
O O3 0.158269 0.249955 0.513125
O O4 0.237414 0.107371 0.436467
O O5 0.592300 0.807150 0.257791
O O6 0.389290 0.606574 0.225528
O O7 0.350517 0.716622 0.312183
O O8 0.883731 0.108217 0.338525
O O9 0.824529 0.673449 0.600339
O O10 0.602025 0.873703 0.629917
O O11 0.500000 0.000000 0.458090
#
# Coordination Sequence:
#
# PCOD9542906 Si02
#       7
#     8   2   8   4   8   4   8
#     4  12  24  45  66  96 142 185 227 279 346 397
#     4  12  20  40  66  92 128 180 236 268 330 412
#     4   9  21  43  69  94 130 171 222 277 352 424
#     4  10  22  44  69  97 130 173 216 290 359 412
#     4  11  25  43  67 102 130 177 233 281 339 418
#     4  12  26  44  61 104 142 180 229 282 340 412
#     4  12  25  42  70  98 134 181 232 282 335 403
#
# _framework density 20.906555999999998
#
# number of rings (size 3 to 8) (size 9 to 14) (size 15 to 20)
#    0.000    0.952    2.857    3.429    5.333    4.952 
#    3.429    0.000    0.000    0.000    0.000    0.000 
#    0.000    0.000    0.000    0.000    0.000    0.000 
#
# Total GULP energy -117449.561416 kJ/mol
# GULP energy per Si atom -5592.836258 kJ/mol
# Density = 2.085897 g / cm^3
# Si number density = 20.906556 Si / 1000 Ang^3
#
#
#
# Elastic Constant Matrix: (Units=GPa)
#
#
# Indices 1 2 3 4 5 6 
#
# 1 62.4833 4.4633 15.8882 0.0000 0.0000 -3.1002
# 2 4.4633 62.4833 15.8882 0.0000 0.0000 3.1002
# 3 15.8882 15.8882 89.1065 0.0000 0.0000 0.0000
# 4 0.0000 0.0000 0.0000 25.1280 0.0000 0.0000
# 5 0.0000 0.0000 0.0000 0.0000 25.1280 0.0000
# 6 -3.1002 3.1002 0.0000 0.0000 0.0000 27.6246
#
#
#
# Elastic Compliance Matrix: (Units=1/GPa)
#
#
# Indices 1 2 3 4 5 6 
#
# 1 0.016881 -0.000563 -0.002910 0.000000 0.000000 0.001958
# 2 -0.000563 0.016881 -0.002910 0.000000 0.000000 -0.001958
# 3 -0.002910 -0.002910 0.012260 0.000000 0.000000 0.000000
# 4 0.000000 0.000000 0.000000 0.039796 0.000000 0.000000
# 5 0.000000 0.000000 0.000000 0.000000 0.039796 0.000000
# 6 0.001958 -0.001958 0.000000 0.000000 0.000000 0.036639
#
#
# Mechanical properties :
#
#
# Convention : Reuss Voigt Hill
#
# Bulk Modulus (GPa) = 30.06775 31.83917 30.95346
# Shear Modulus (GPa) = 26.86645 27.43167 27.14906
#
# Velocity S-wave (km/s) = 3.58868 3.62623 3.60751
# Velocity P-wave (km/s) = 5.62003 5.72670 5.67361
#
# Compressibility (1/GPa) = 0.03325822
#
# Stress axis : x y z
#
# Youngs Moduli (GPa) = 59.23644 59.23646 81.56509
#
# Poissons Ratio (x) = 0.03336 0.23733
# Poissons Ratio (y) = 0.03336 0.23733
# Poissons Ratio (z) = 0.17236 0.17236
#
# Static dielectric constant tensor:
#      x y z
#    x 1.760950 0.000000 0.000000 
#    y 0.000000 1.760950 0.000000 
#    z 0.000000 0.000000 1.710790 
# 
# From -- ./inp_files/3734.got.cif
#   From: 2010.05.17/outbox.cif.g08.bks.cpg/sg82_2_cif.got.tgz:3734.got - 2010.06.03 18:52:26.
