data_PCOD9542205
_publ_section_title
;
Structure prediction by ZEFSAII (Michael W. Deem and Ramdas Pophale) SiO2 
 PCOD9542205
Probable space group: I 41
;
_chemical_formula_sum "Si O2"
_cell_formula_units_Z 40
_cell_length_a 8.067216
_cell_length_b 8.067216
_cell_length_c 26.527628
_cell_angle_alpha 90.000000
_cell_angle_beta 90.000000
_cell_angle_gamma 90.000000
_cell_volume 1726.417340
_symmetry_space_group_name_H-M "I 41"
_symmetry_group_IT_number 80
_symmetry_cell_setting 'tetragonal'
loop_
_space_group_symop_operation_xyz
x,y,z
-y,1/2+x,1/4+z
-x,-y,z
y,1/2-x,1/4+z
1/2+x,1/2+y,1/2+z
1/2-y,x,3/4+z
1/2-x,1/2-y,1/2+z
1/2+y,-x,3/4+z
loop_
_atom_site_type_symbol
_atom_site_label
_atom_site_fract_x
_atom_site_fract_y
_atom_site_fract_z
Si Si1 0.500000 0.000000 0.197201
Si Si2 0.180708 0.917431 0.263125
Si Si3 0.500000 0.000000 0.506816
Si Si4 0.534749 0.193370 0.681396
Si Si5 0.830261 0.814346 0.667315
Si Si6 0.258235 0.611949 0.091925
O O1 0.664471 0.006891 0.231951
O O2 0.467583 0.169707 0.166615
O O3 0.129944 0.759314 0.229504
O O4 0.262401 0.884725 0.316759
O O5 0.000000 0.000000 0.268110
O O6 0.419749 0.131919 0.468125
O O7 0.644590 0.056606 0.544624
O O8 0.352500 0.266863 0.671517
O O9 0.645513 0.209436 0.631904
O O10 0.500000 0.000000 0.687249
O O11 0.821737 0.948756 0.621930
#
# Coordination Sequence:
#
# PCOD9542205 Si02
#       6
#     4   8   4   8   8   8
#     4  12  26  47  76 114 166 214 261 348 406 480
#     4  12  26  51  80 115 161 208 272 341 412 489
#     4  12  22  45  82 112 152 224 263 342 418 482
#     4  10  22  47  76 109 153 206 269 330 403 495
#     4  11  24  45  79 114 159 215 270 338 413 494
#     4  11  23  46  79 113 155 213 275 333 416 491
#
# _framework density 23.169371000000002
#
# number of rings (size 3 to 8) (size 9 to 14) (size 15 to 20)
#    0.000    0.800    7.000    2.400    0.000    0.800 
#    1.800    5.000    0.000    0.000    0.000    0.000 
#    0.000    0.000    0.000    0.000    0.000    0.000 
#
# Total GULP energy -111756.385535 kJ/mol
# GULP energy per Si atom -5587.819277 kJ/mol
# Density = 2.311664 g / cm^3
# Si number density = 23.169371 Si / 1000 Ang^3
#
#
#
# Elastic Constant Matrix: (Units=GPa)
#
#
# Indices 1 2 3 4 5 6 
#
# 1 118.0378 45.5611 65.3368 0.0000 0.0000 1.6553
# 2 45.5611 118.0378 65.3368 0.0000 0.0000 -1.6553
# 3 65.3368 65.3368 172.7213 0.0000 0.0000 0.0000
# 4 0.0000 0.0000 0.0000 38.5407 0.0000 0.0000
# 5 0.0000 0.0000 0.0000 0.0000 38.5407 0.0000
# 6 1.6553 -1.6553 0.0000 0.0000 0.0000 45.5007
#
#
#
# Elastic Compliance Matrix: (Units=1/GPa)
#
#
# Indices 1 2 3 4 5 6 
#
# 1 0.011290 -0.002531 -0.003313 0.000000 0.000000 -0.000503
# 2 -0.002531 0.011290 -0.003313 0.000000 0.000000 0.000503
# 3 -0.003313 -0.003313 0.008296 0.000000 0.000000 0.000000
# 4 0.000000 0.000000 0.000000 0.025947 0.000000 0.000000
# 5 0.000000 0.000000 0.000000 0.000000 0.025947 0.000000
# 6 -0.000503 0.000503 0.000000 0.000000 0.000000 0.022014
#
#
# Mechanical properties :
#
#
# Convention : Reuss Voigt Hill
#
# Bulk Modulus (GPa) = 79.61113 84.58516 82.09815
# Shear Modulus (GPa) = 39.28185 40.02059 39.65122
#
# Velocity S-wave (km/s) = 4.12202 4.16060 4.14135
# Velocity P-wave (km/s) = 7.55578 7.72446 7.64059
#
# Compressibility (1/GPa) = 0.01256106
#
# Stress axis : x y z
#
# Youngs Moduli (GPa) = 88.57579 88.57579 120.53397
#
# Poissons Ratio (x) = 0.22416 0.39937
# Poissons Ratio (y) = 0.22416 0.39937
# Poissons Ratio (z) = 0.29348 0.29348
#
# Static dielectric constant tensor:
#      x y z
#    x 1.961670 0.000000 0.000000 
#    y 0.000000 1.961670 0.000000 
#    z 0.000000 0.000000 1.820990 
# 
# From -- ./inp_files/2028.got.cif
#   From: 2010.05.17/outbox.cif.g08.bks.cpg/sg80_cif.got.tgz:2028.got - 2010.06.03 18:49:13.
