data_PCOD9542339
_publ_section_title
;
Structure prediction by ZEFSAII (Michael W. Deem and Ramdas Pophale) SiO2 
 PCOD9542339
Probable space group: P -4
;
_chemical_formula_sum "Si O2"
_cell_formula_units_Z 29
_cell_length_a 10.981143
_cell_length_b 10.981143
_cell_length_c 13.622512
_cell_angle_alpha 90.000000
_cell_angle_beta 90.000000
_cell_angle_gamma 90.000000
_cell_volume 1642.677442
_symmetry_space_group_name_H-M "P -4"
_symmetry_group_IT_number 81
_symmetry_cell_setting 'tetragonal'
loop_
_space_group_symop_operation_xyz
x,y,z
y,-x,-z
-x,-y,z
-y,x,-z
loop_
_atom_site_type_symbol
_atom_site_label
_atom_site_fract_x
_atom_site_fract_y
_atom_site_fract_z
Si Si1 0.414366 0.882870 0.125168
Si Si2 0.911220 0.815645 0.497167
Si Si3 0.188661 0.183943 0.986696
Si Si4 0.307474 0.622201 0.875410
Si Si5 0.500000 0.500000 0.000000
Si Si6 0.643427 0.019263 0.329132
Si Si7 0.214113 0.232900 0.296532
Si Si8 0.866044 0.016941 0.841633
O O1 0.312223 0.871548 0.042762
O O2 0.494590 0.761872 0.137705
O O3 0.351097 0.905670 0.229171
O O4 0.500000 0.000000 0.108046
O O5 0.918016 0.721076 0.586179
O O6 0.836762 0.753763 0.407337
O O7 0.053799 0.849541 0.475273
O O8 0.194196 0.101984 0.889452
O O9 0.307803 0.220749 0.046844
O O10 0.107167 0.114459 0.066309
O O11 0.315446 0.699324 0.774022
O O12 0.434172 0.597156 0.929635
O O13 0.500000 0.000000 0.353296
O O14 0.706754 0.890816 0.304048
O O15 0.091419 0.214682 0.233771
O O16 0.000000 0.000000 0.796433
#
# Coordination Sequence:
#
# PCOD9542339 Si02
#       8
#     4   4   4   4   1   4   4   4
#     4  11  20  33  56  83 109 144 198 230 276 341
#     4   9  20  35  57  88 116 146 182 234 302 360
#     4  11  20  33  51  81 116 151 185 229 284 337
#     4  11  22  39  59  78 108 156 196 243 277 331
#     4  12  24  44  60  76 114 164 212 248 276 328
#     4  10  19  34  60  83 111 151 190 231 281 351
#     4  10  21  36  57  85 115 149 186 237 288 350
#     4  11  20  29  50  83 124 148 171 222 287 350
#
# _framework density 17.654105999999999
#
# number of rings (size 3 to 8) (size 9 to 14) (size 15 to 20)
#    0.000    1.517    5.517    1.655    5.793    0.000 
#    0.000    0.000    9.103    0.000    0.000    0.000 
#    0.000    0.000    0.000    0.000    0.000    0.000 
#
# Total GULP energy -161568.706842 kJ/mol
# GULP energy per Si atom -5571.334719 kJ/mol
# Density = 1.761392 g / cm^3
# Si number density = 17.654106 Si / 1000 Ang^3
#
#
#
# Elastic Constant Matrix: (Units=GPa)
#
#
# Indices 1 2 3 4 5 6 
#
# 1 36.8699 4.4712 17.9232 0.0000 0.0000 -0.9543
# 2 4.4712 36.8699 17.9232 0.0000 0.0000 0.9543
# 3 17.9232 17.9232 70.2173 0.0000 0.0000 0.0000
# 4 0.0000 0.0000 0.0000 27.3435 0.0000 0.0000
# 5 0.0000 0.0000 0.0000 0.0000 27.3435 0.0000
# 6 -0.9543 0.9543 0.0000 0.0000 0.0000 24.5544
#
#
#
# Elastic Compliance Matrix: (Units=1/GPa)
#
#
# Indices 1 2 3 4 5 6 
#
# 1 0.031000 0.000064 -0.007929 0.000000 0.000000 0.001202
# 2 0.000064 0.031000 -0.007929 0.000000 0.000000 -0.001202
# 3 -0.007929 -0.007929 0.018289 0.000000 0.000000 0.000000
# 4 0.000000 0.000000 0.000000 0.036572 0.000000 0.000000
# 5 0.000000 0.000000 0.000000 0.000000 0.036572 0.000000
# 6 0.001202 -0.001202 0.000000 0.000000 0.000000 0.040819
#
#
# Mechanical properties :
#
#
# Convention : Reuss Voigt Hill
#
# Bulk Modulus (GPa) = 20.53345 24.95472 22.74409
# Shear Modulus (GPa) = 20.65471 22.75759 21.70615
#
# Velocity S-wave (km/s) = 3.42419 3.59427 3.51026
# Velocity P-wave (km/s) = 5.22395 5.60278 5.41668
#
# Compressibility (1/GPa) = 0.04870101
#
# Stress axis : x y z
#
# Youngs Moduli (GPa) = 32.25775 32.25775 54.67627
#
# Poissons Ratio (x) = -0.00207 0.43354
# Poissons Ratio (y) = -0.00207 0.43354
# Poissons Ratio (z) = 0.25578 0.25578
#
# Static dielectric constant tensor:
#      x y z
#    x 1.626330 0.000000 0.000000 
#    y 0.000000 1.626330 0.000000 
#    z 0.000000 0.000000 1.619990 
# 
# From -- ./inp_files/1422.got.cif
#   From: 2010.05.17/outbox.cif.g08.bks.cpg/sg81_cif.got.tgz:1422.got - 2010.06.03 18:51:07.
