data_PCOD9542890
_publ_section_title
;
Structure prediction by ZEFSAII (Michael W. Deem and Ramdas Pophale) SiO2 
 PCOD9542890
Probable space group: I -4 
;
_chemical_formula_sum "Si O2"
_cell_formula_units_Z 32
_cell_length_a 12.190097
_cell_length_b 12.190097
_cell_length_c 9.960713
_cell_angle_alpha 90.000000
_cell_angle_beta 90.000000
_cell_angle_gamma 90.000000
_cell_volume 1480.146661
_symmetry_space_group_name_H-M "I -4 "
_symmetry_group_IT_number 82
_symmetry_cell_setting 'tetragonal'
loop_
_space_group_symop_operation_xyz
x,y,z
y,-x,-z
-x,-y,z
-y,x,-z
1/2+x,1/2+y,1/2+z
1/2+y,1/2-x,1/2-z
1/2-x,1/2-y,1/2+z
1/2-y,1/2+x,1/2-z
loop_
_atom_site_type_symbol
_atom_site_label
_atom_site_fract_x
_atom_site_fract_y
_atom_site_fract_z
Si Si1 0.453931 0.168295 0.285019
Si Si2 0.277153 0.003041 0.632105
Si Si3 0.715423 0.322366 0.937137
Si Si4 0.075032 0.302685 0.081629
O O1 0.562762 0.126677 0.210741
O O2 0.389958 0.254461 0.195265
O O3 0.478947 0.203647 0.436174
O O4 0.268365 0.886020 0.561403
O O5 0.260361 0.990564 0.790729
O O6 0.189981 0.083729 0.560443
O O7 0.389773 0.070393 0.610522
O O8 0.753034 0.195800 0.927028
#
# Coordination Sequence:
#
# PCOD9542890 Si02
#       4
#     8   8   8   8
#     4  11  22  37  61  94 133 178 224 288 352 408
#     4  10  23  40  67  94 132 175 226 285 340 413
#     4  10  22  43  61  94 134 174 224 287 349 411
#     4  10  23  37  65  94 129 173 232 282 338 413
#
# _framework density 21.619478999999998
#
# number of rings (size 3 to 8) (size 9 to 14) (size 15 to 20)
#    1.500    0.250    2.500    1.500    3.500    1.000 
#    0.000    0.000    0.000    0.000    0.000    0.000 
#    0.000    0.000    0.000    0.000    0.000    0.000 
#
# Total GULP energy -89251.843047 kJ/mol
# GULP energy per Si atom -5578.240190 kJ/mol
# Density = 2.157027 g / cm^3
# Si number density = 21.619479 Si / 1000 Ang^3
#
#
#
# Elastic Constant Matrix: (Units=GPa)
#
#
# Indices 1 2 3 4 5 6 
#
# 1 39.9170 9.2695 -6.2117 0.0000 0.0000 2.7764
# 2 9.2695 39.9170 -6.2117 0.0000 0.0000 -2.7764
# 3 -6.2117 -6.2117 116.6217 0.0000 0.0000 0.0000
# 4 0.0000 0.0000 0.0000 20.7230 0.0000 0.0000
# 5 0.0000 0.0000 0.0000 0.0000 20.7230 0.0000
# 6 2.7764 -2.7764 0.0000 0.0000 0.0000 4.3898
#
#
#
# Elastic Compliance Matrix: (Units=1/GPa)
#
#
# Indices 1 2 3 4 5 6 
#
# 1 0.028730 -0.008122 0.001098 0.000000 0.000000 -0.023308
# 2 -0.008122 0.028730 0.001098 0.000000 0.000000 0.023308
# 3 0.001098 0.001098 0.008692 0.000000 0.000000 0.000000
# 4 0.000000 0.000000 0.000000 0.048256 0.000000 0.000000
# 5 0.000000 0.000000 0.000000 0.000000 0.048256 0.000000
# 6 -0.023308 0.023308 0.000000 0.000000 0.000000 0.257284
#
#
# Mechanical properties :
#
#
# Convention : Reuss Voigt Hill
#
# Bulk Modulus (GPa) = 18.41679 21.12757 19.77218
# Shear Modulus (GPa) = 11.11359 22.47447 16.79403
#
# Velocity S-wave (km/s) = 2.26974 3.22770 2.79014
# Velocity P-wave (km/s) = 3.92505 4.86666 4.42100
#
# Compressibility (1/GPa) = 0.05429827
#
# Stress axis : x y z
#
# Youngs Moduli (GPa) = 34.80675 34.80675 115.05277
#
# Poissons Ratio (x) = 0.28270 -0.12629
# Poissons Ratio (y) = 0.28270 -0.12629
# Poissons Ratio (z) = -0.03821 -0.03821
#
# Static dielectric constant tensor:
#      x y z
#    x 1.812980 0.000000 0.000000 
#    y 0.000000 1.812980 0.000000 
#    z 0.000000 0.000000 1.777180 
# 
# From -- ./inp_files/755.got.cif
#   From: 2010.05.17/outbox.cif.g08.bks.cpg/sg82_1_cif.got.tgz:755.got - 2010.06.03 18:52:26.
