data_PCOD9542613
_publ_section_title
;
Structure prediction by ZEFSAII (Michael W. Deem and Ramdas Pophale) SiO2 
 PCOD9542613
Probable space group: I -4 
;
_chemical_formula_sum "Si O2"
_cell_formula_units_Z 40
_cell_length_a 13.494487
_cell_length_b 13.494487
_cell_length_c 8.582005
_cell_angle_alpha 90.000000
_cell_angle_beta 90.000000
_cell_angle_gamma 90.000000
_cell_volume 1562.793232
_symmetry_space_group_name_H-M "I -4 "
_symmetry_group_IT_number 82
_symmetry_cell_setting 'tetragonal'
loop_
_space_group_symop_operation_xyz
x,y,z
y,-x,-z
-x,-y,z
-y,x,-z
1/2+x,1/2+y,1/2+z
1/2+y,1/2-x,1/2-z
1/2-x,1/2-y,1/2+z
1/2-y,1/2+x,1/2-z
loop_
_atom_site_type_symbol
_atom_site_label
_atom_site_fract_x
_atom_site_fract_y
_atom_site_fract_z
Si Si1 0.500000 0.500000 0.000000
Si Si2 0.604185 0.401754 0.245177
Si Si3 0.000000 0.500000 0.250000
Si Si4 0.000000 0.000000 0.000000
Si Si5 0.000000 0.500000 0.750000
Si Si6 0.283977 0.260199 0.950133
Si Si7 0.887883 0.603019 0.985611
Si Si8 0.899890 0.776861 0.769706
O O1 0.479839 0.406483 0.893777
O O2 0.593091 0.463408 0.400729
O O3 0.702225 0.343178 0.203353
O O4 0.498142 0.342613 0.241297
O O5 0.075943 0.560607 0.355549
O O6 0.909107 0.512442 0.869205
O O7 0.223488 0.360174 0.997598
O O8 0.197515 0.189556 0.876829
O O9 0.351029 0.240945 0.103318
O O10 0.937715 0.691653 0.888112
#
# Coordination Sequence:
#
# PCOD9542613 Si02
#       8
#     2   8   2   2   2   8   8   8
#     4  10  20  38  68  86 120 194 216 258 328 390
#     4  11  21  44  64  93 135 176 226 268 327 399
#     4  10  20  50  64 102 132 170 228 258 348 406
#     4  10  28  38  68  98 132 186 228 270 320 406
#     4  10  16  42  60  90 136 162 228 254 340 394
#     4  10  23  42  64  98 132 176 217 276 335 383
#     4   9  22  38  65  98 127 176 211 273 328 403
#     4  10  23  42  62 100 130 173 219 270 338 385
#
# _framework density 25.595196999999999
#
# number of rings (size 3 to 8) (size 9 to 14) (size 15 to 20)
#    1.200    0.800    2.000    1.200    2.800    0.000 
#   14.400    0.000    0.000    0.000    0.000    0.000 
#    0.000    0.000    0.000    0.000    0.000    0.000 
#
# Total GULP energy -111351.676762 kJ/mol
# GULP energy per Si atom -5567.583838 kJ/mol
# Density = 2.553694 g / cm^3
# Si number density = 25.595197 Si / 1000 Ang^3
#
#
#
# Elastic Constant Matrix: (Units=GPa)
#
#
# Indices 1 2 3 4 5 6 
#
# 1 58.0748 23.0957 31.9424 0.0000 0.0000 0.4189
# 2 23.0957 58.0748 31.9424 0.0000 0.0000 -0.4189
# 3 31.9424 31.9424 147.2859 0.0000 0.0000 0.0000
# 4 0.0000 0.0000 0.0000 33.5127 0.0000 0.0000
# 5 0.0000 0.0000 0.0000 0.0000 33.5127 0.0000
# 6 0.4189 -0.4189 0.0000 0.0000 0.0000 50.9363
#
#
#
# Elastic Compliance Matrix: (Units=1/GPa)
#
#
# Indices 1 2 3 4 5 6 
#
# 1 0.021725 -0.006869 -0.003222 0.000000 0.000000 -0.000235
# 2 -0.006869 0.021725 -0.003222 0.000000 0.000000 0.000235
# 3 -0.003222 -0.003222 0.008187 0.000000 0.000000 0.000000
# 4 0.000000 0.000000 0.000000 0.029839 0.000000 0.000000
# 5 0.000000 0.000000 0.000000 0.000000 0.029839 0.000000
# 6 -0.000235 0.000235 0.000000 0.000000 0.000000 0.019636
#
#
# Mechanical properties :
#
#
# Convention : Reuss Voigt Hill
#
# Bulk Modulus (GPa) = 39.98276 48.59962 44.29119
# Shear Modulus (GPa) = 30.13607 35.35601 32.74604
#
# Velocity S-wave (km/s) = 3.43507 3.72069 3.58073
# Velocity P-wave (km/s) = 5.60250 6.12267 5.86835
#
# Compressibility (1/GPa) = 0.02501078
#
# Stress axis : x y z
#
# Youngs Moduli (GPa) = 46.03044 46.03044 122.14571
#
# Poissons Ratio (x) = 0.31620 0.39352
# Poissons Ratio (y) = 0.31620 0.39352
# Poissons Ratio (z) = 0.14830 0.14830
#
# Static dielectric constant tensor:
#      x y z
#    x 2.110000 0.000000 0.000000 
#    y 0.000000 2.110000 0.000000 
#    z 0.000000 0.000000 2.058950 
# 
# From -- ./inp_files/1034.got.cif
#   From: 2010.05.17/outbox.cif.g08.bks.cpg/sg82_1_cif.got.tgz:1034.got - 2010.06.03 18:52:26.
