data_PCOD9542198
_publ_section_title
;
Structure prediction by ZEFSAII (Michael W. Deem and Ramdas Pophale) SiO2 
 PCOD9542198
Probable space group: I 41
;
_chemical_formula_sum "Si O2"
_cell_formula_units_Z 60
_cell_length_a 17.261152
_cell_length_b 17.261152
_cell_length_c 9.302300
_cell_angle_alpha 90.000000
_cell_angle_beta 90.000000
_cell_angle_gamma 90.000000
_cell_volume 2771.595805
_symmetry_space_group_name_H-M "I 41"
_symmetry_group_IT_number 80
_symmetry_cell_setting 'tetragonal'
loop_
_space_group_symop_operation_xyz
x,y,z
-y,1/2+x,1/4+z
-x,-y,z
y,1/2-x,1/4+z
1/2+x,1/2+y,1/2+z
1/2-y,x,3/4+z
1/2-x,1/2-y,1/2+z
1/2+y,-x,3/4+z
loop_
_atom_site_type_symbol
_atom_site_label
_atom_site_fract_x
_atom_site_fract_y
_atom_site_fract_z
Si Si1 0.704543 0.188435 0.039730
Si Si2 0.438633 0.148267 0.178786
Si Si3 0.461194 0.787970 0.434546
Si Si4 0.500000 0.000000 0.735438
Si Si5 0.196102 0.460944 0.758323
Si Si6 0.464135 0.781755 0.749210
Si Si7 0.368098 0.935791 0.516623
Si Si8 0.087456 0.946476 0.209408
O O1 0.732095 0.201999 0.201599
O O2 0.769159 0.128173 0.982112
O O3 0.624972 0.141702 0.010073
O O4 0.477523 0.174739 0.326436
O O5 0.432934 0.224345 0.080329
O O6 0.358552 0.107498 0.209068
O O7 0.496963 0.091163 0.094305
O O8 0.497781 0.773110 0.591666
O O9 0.396440 0.852802 0.461265
O O10 0.431636 0.709359 0.362642
O O11 0.563861 0.027085 0.613138
O O12 0.565979 0.008228 0.872790
O O13 0.220408 0.509589 0.618053
O O14 0.152837 0.512925 0.876965
O O15 0.482520 0.865274 0.820045
#
# Coordination Sequence:
#
# PCOD9542198 Si02
#       8
#     8   8   8   4   8   8   8   8
#     4  10  23  42  61  95 138 185 227 273 332 410
#     4  10  24  45  70  98 135 171 232 288 359 413
#     4  11  24  45  65 103 139 185 226 286 338 427
#     4  12  22  42  72  96 130 186 242 280 346 408
#     4  10  24  47  71  99 137 179 225 301 353 421
#     4  10  22  43  61  95 137 172 227 282 338 407
#     4  11  25  44  70 100 144 182 235 286 349 417
#     4  10  23  39  62  98 132 175 234 282 333 418
#
# _framework density 21.648178000000001
#
# number of rings (size 3 to 8) (size 9 to 14) (size 15 to 20)
#    0.000    1.600    1.333    1.600    7.467    1.067 
#    4.800    2.667    0.000    0.000    0.000    0.000 
#    0.000    0.000    0.000    0.000    0.000    0.000 
#
# Total GULP energy -167192.737474 kJ/mol
# GULP energy per Si atom -5573.091249 kJ/mol
# Density = 2.159891 g / cm^3
# Si number density = 21.648178 Si / 1000 Ang^3
#
#
#
# Elastic Constant Matrix: (Units=GPa)
#
#
# Indices 1 2 3 4 5 6 
#
# 1 83.7415 50.1154 56.9591 0.0000 0.0000 4.5658
# 2 50.1154 83.7415 56.9591 0.0000 0.0000 -4.5658
# 3 56.9591 56.9591 163.3674 0.0000 0.0000 0.0000
# 4 0.0000 0.0000 0.0000 28.6747 0.0000 0.0000
# 5 0.0000 0.0000 0.0000 0.0000 28.6747 0.0000
# 6 4.5658 -4.5658 0.0000 0.0000 0.0000 38.3830
#
#
#
# Elastic Compliance Matrix: (Units=1/GPa)
#
#
# Indices 1 2 3 4 5 6 
#
# 1 0.020677 -0.010054 -0.003704 0.000000 0.000000 -0.003656
# 2 -0.010054 0.020677 -0.003704 0.000000 0.000000 0.003656
# 3 -0.003704 -0.003704 0.008704 0.000000 0.000000 0.000000
# 4 0.000000 0.000000 0.000000 0.034874 0.000000 0.000000
# 5 0.000000 0.000000 0.000000 0.000000 0.034874 0.000000
# 6 -0.003656 0.003656 0.000000 0.000000 0.000000 0.026923
#
#
# Mechanical properties :
#
#
# Convention : Reuss Voigt Hill
#
# Bulk Modulus (GPa) = 66.07447 73.21310 69.64378
# Shear Modulus (GPa) = 26.78136 30.26762 28.52449
#
# Velocity S-wave (km/s) = 3.52109 3.74325 3.63387
# Velocity P-wave (km/s) = 6.86432 7.25090 7.06026
#
# Compressibility (1/GPa) = 0.01513444
#
# Stress axis : x y z
#
# Youngs Moduli (GPa) = 48.36269 48.36269 114.89262
#
# Poissons Ratio (x) = 0.48626 0.42552
# Poissons Ratio (y) = 0.48626 0.42552
# Poissons Ratio (z) = 0.17912 0.17912
#
# Static dielectric constant tensor:
#      x y z
#    x 1.700990 0.000000 0.000000 
#    y 0.000000 1.700990 0.000000 
#    z 0.000000 0.000000 1.823340 
# 
# From -- ./inp_files/765.got.cif
#   From: 2010.05.17/outbox.cif.g08.bks.cpg/sg80_cif.got.tgz:765.got - 2010.06.03 18:49:13.
