data_PCOD9542583
_publ_section_title
;
Structure prediction by ZEFSAII (Michael W. Deem and Ramdas Pophale) SiO2 
 PCOD9542583
Probable space group: P -4
;
_chemical_formula_sum "Si O2"
_cell_formula_units_Z 12
_cell_length_a 5.221993
_cell_length_b 5.221993
_cell_length_c 17.752572
_cell_angle_alpha 90.000000
_cell_angle_beta 90.000000
_cell_angle_gamma 90.000000
_cell_volume 484.098630
_symmetry_space_group_name_H-M "P -4"
_symmetry_group_IT_number 81
_symmetry_cell_setting 'tetragonal'
loop_
_space_group_symop_operation_xyz
x,y,z
y,-x,-z
-x,-y,z
-y,x,-z
loop_
_atom_site_type_symbol
_atom_site_label
_atom_site_fract_x
_atom_site_fract_y
_atom_site_fract_z
Si Si1 0.500000 0.000000 0.099857
Si Si2 0.824360 0.751939 0.618889
Si Si3 0.166507 0.737334 0.210817
Si Si4 0.000000 0.000000 0.000000
Si Si5 0.500000 0.500000 0.500000
O O1 0.593157 0.219297 0.157059
O O2 0.747462 0.942021 0.049176
O O3 0.700361 0.762539 0.701848
O O4 0.616119 0.714775 0.554331
O O5 0.000000 0.500000 0.617157
O O6 0.000000 0.000000 0.608093
O O7 0.000000 0.500000 0.184369
O O8 0.000000 0.000000 0.208418
#
# Coordination Sequence:
#
# PCOD9542583 Si02
#       5
#     2   4   4   1   1
#     4  12  28  58  78 132 162 224 268 344 414 504
#     4  11  29  52  78 119 162 220 280 350 414 489
#     4  11  27  52  87 118 162 218 281 341 407 494
#     4  12  32  48  88 120 176 210 268 340 428 496
#     4  12  32  48  80 116 176 214 284 344 432 468
#
# _framework density 24.788333999999999
#
# number of rings (size 3 to 8) (size 9 to 14) (size 15 to 20)
#    0.000    0.667    3.333    0.000   16.333    4.667 
#    0.000    0.000    0.000    0.000    0.000    0.000 
#    0.000    0.000    0.000    0.000    0.000    0.000 
#
# Total GULP energy -67371.422270 kJ/mol
# GULP energy per Si atom -5614.285189 kJ/mol
# Density = 2.473191 g / cm^3
# Si number density = 24.788334 Si / 1000 Ang^3
#
#
#
# Elastic Constant Matrix: (Units=GPa)
#
#
# Indices 1 2 3 4 5 6 
#
# 1 172.6947 72.5215 76.4347 0.0000 0.0000 -5.2003
# 2 72.5215 172.6947 76.4347 0.0000 0.0000 5.2003
# 3 76.4347 76.4347 198.9395 0.0000 0.0000 0.0000
# 4 0.0000 0.0000 0.0000 91.6033 0.0000 0.0000
# 5 0.0000 0.0000 0.0000 0.0000 91.6033 0.0000
# 6 -5.2003 5.2003 0.0000 0.0000 0.0000 58.0088
#
#
#
# Elastic Compliance Matrix: (Units=1/GPa)
#
#
# Indices 1 2 3 4 5 6 
#
# 1 0.007719 -0.002357 -0.002060 0.000000 0.000000 0.000903
# 2 -0.002357 0.007719 -0.002060 0.000000 0.000000 -0.000903
# 3 -0.002060 -0.002060 0.006610 0.000000 0.000000 0.000000
# 4 0.000000 0.000000 0.000000 0.010917 0.000000 0.000000
# 5 0.000000 0.000000 0.000000 0.000000 0.010917 0.000000
# 6 0.000903 -0.000903 0.000000 0.000000 0.000000 0.017401
#
#
# Mechanical properties :
#
#
# Convention : Reuss Voigt Hill
#
# Bulk Modulus (GPa) = 109.96875 110.56786 110.26831
# Shear Modulus (GPa) = 64.70879 69.50561 67.10720
#
# Velocity S-wave (km/s) = 5.11480 5.30099 5.20873
# Velocity P-wave (km/s) = 8.90736 9.06471 8.98638
#
# Compressibility (1/GPa) = 0.00909349
#
# Stress axis : x y z
#
# Youngs Moduli (GPa) = 129.54251 129.54251 151.28953
#
# Poissons Ratio (x) = 0.30534 0.31170
# Poissons Ratio (y) = 0.30534 0.31170
# Poissons Ratio (z) = 0.26690 0.26690
#
# Static dielectric constant tensor:
#      x y z
#    x 1.914310 0.000000 0.000000 
#    y 0.000000 1.914310 0.000000 
#    z 0.000000 0.000000 1.958950 
# 
# From -- ./inp_files/1694.got.cif
#   From: 2010.05.17/outbox.cif.g08.bks.cpg/sg81_cif.got.tgz:1694.got - 2010.06.03 18:51:07.
