data_PCOD9542384
_publ_section_title
;
Structure prediction by ZEFSAII (Michael W. Deem and Ramdas Pophale) SiO2 
 PCOD9542384
Probable space group: P -4
;
_chemical_formula_sum "Si O2"
_cell_formula_units_Z 20
_cell_length_a 7.858287
_cell_length_b 7.858287
_cell_length_c 12.517147
_cell_angle_alpha 90.000000
_cell_angle_beta 90.000000
_cell_angle_gamma 90.000000
_cell_volume 772.967305
_symmetry_space_group_name_H-M "P -4"
_symmetry_group_IT_number 81
_symmetry_cell_setting 'tetragonal'
loop_
_space_group_symop_operation_xyz
x,y,z
y,-x,-z
-x,-y,z
-y,x,-z
loop_
_atom_site_type_symbol
_atom_site_label
_atom_site_fract_x
_atom_site_fract_y
_atom_site_fract_z
Si Si1 0.172454 0.243691 0.251645
Si Si2 0.314315 0.906830 0.191699
Si Si3 0.081881 0.264059 0.472688
Si Si4 0.695011 0.533262 0.636747
Si Si5 0.745408 0.639322 0.021175
O O1 0.052372 0.301645 0.347821
O O2 0.355654 0.270505 0.305968
O O3 0.174682 0.337279 0.137913
O O4 0.177573 0.042120 0.230704
O O5 0.332762 0.744205 0.269417
O O6 0.500000 0.000000 0.193516
O O7 0.276512 0.855204 0.071431
O O8 0.180626 0.408886 0.540151
O O9 0.902941 0.203039 0.520147
O O10 0.500000 0.500000 0.607952
O O11 0.720527 0.443077 0.985488
#
# Coordination Sequence:
#
# PCOD9542384 Si02
#       5
#     4   4   4   4   4
#     4  11  24  44  67  99 139 184 232 293 352 412
#     4  10  20  42  68  93 143 180 221 299 352 410
#     4  11  26  48  71  99 149 194 230 286 357 429
#     4  11  23  44  73 102 134 181 241 296 351 404
#     4  11  21  39  67  95 132 174 229 289 351 408
#
# _framework density 25.874313999999998
#
# number of rings (size 3 to 8) (size 9 to 14) (size 15 to 20)
#    0.000    1.200    6.000    1.200    2.800    0.000 
#    3.600    0.000    0.000    0.000    0.000    0.000 
#    0.000    0.000    0.000    0.000    0.000    0.000 
#
# Total GULP energy -111907.574857 kJ/mol
# GULP energy per Si atom -5595.378743 kJ/mol
# Density = 2.581542 g / cm^3
# Si number density = 25.874314 Si / 1000 Ang^3
#
#
#
# Elastic Constant Matrix: (Units=GPa)
#
#
# Indices 1 2 3 4 5 6 
#
# 1 94.1124 12.0430 28.2727 0.0000 0.0000 21.1467
# 2 12.0430 94.1124 28.2727 0.0000 0.0000 -21.1467
# 3 28.2727 28.2727 237.0383 0.0000 0.0000 0.0000
# 4 0.0000 0.0000 0.0000 26.3188 0.0000 0.0000
# 5 0.0000 0.0000 0.0000 0.0000 26.3188 0.0000
# 6 21.1467 -21.1467 0.0000 0.0000 0.0000 12.4881
#
#
#
# Elastic Compliance Matrix: (Units=1/GPa)
#
#
# Indices 1 2 3 4 5 6 
#
# 1 0.052866 -0.042807 -0.001200 0.000000 0.000000 -0.162006
# 2 -0.042807 0.052866 -0.001200 0.000000 0.000000 0.162006
# 3 -0.001200 -0.001200 0.004505 0.000000 0.000000 0.000000
# 4 0.000000 0.000000 0.000000 0.037996 0.000000 0.000000
# 5 0.000000 0.000000 0.000000 0.000000 0.037996 0.000000
# 6 -0.162006 0.162006 0.000000 0.000000 0.000000 0.628739
#
#
# Mechanical properties :
#
#
# Convention : Reuss Voigt Hill
#
# Bulk Modulus (GPa) = 50.44345 62.49334 56.46840
# Shear Modulus (GPa) = 5.48253 36.80348 21.14301
#
# Velocity S-wave (km/s) = 1.45723 3.77556 2.86167
# Velocity P-wave (km/s) = 4.72961 6.57355 5.72629
#
# Compressibility (1/GPa) = 0.01982418
#
# Stress axis : x y z
#
# Youngs Moduli (GPa) = 18.91581 18.91581 221.97840
#
# Poissons Ratio (x) = 0.80972 0.26633
# Poissons Ratio (y) = 0.80972 0.26633
# Poissons Ratio (z) = 0.02270 0.02270
#
# Static dielectric constant tensor:
#      x y z
#    x 2.115130 0.000000 0.000000 
#    y 0.000000 2.115130 0.000000 
#    z 0.000000 0.000000 2.062170 
# 
# From -- ./inp_files/1255.got.cif
#   From: 2010.05.17/outbox.cif.g08.bks.cpg/sg81_cif.got.tgz:1255.got - 2010.06.03 18:51:07.
