data_PCOD9542060
_publ_section_title
;
Structure prediction by ZEFSAII (Michael W. Deem and Ramdas Pophale) SiO2 
 PCOD9542060
Probable space group: I 41
;
_chemical_formula_sum "Si O2"
_cell_formula_units_Z 40
_cell_length_a 15.453179
_cell_length_b 15.453179
_cell_length_c 7.424439
_cell_angle_alpha 90.000000
_cell_angle_beta 90.000000
_cell_angle_gamma 90.000000
_cell_volume 1772.961536
_symmetry_space_group_name_H-M "I 41"
_symmetry_group_IT_number 80
_symmetry_cell_setting 'tetragonal'
loop_
_space_group_symop_operation_xyz
x,y,z
-y,1/2+x,1/4+z
-x,-y,z
y,1/2-x,1/4+z
1/2+x,1/2+y,1/2+z
1/2-y,x,3/4+z
1/2-x,1/2-y,1/2+z
1/2+y,-x,3/4+z
loop_
_atom_site_type_symbol
_atom_site_label
_atom_site_fract_x
_atom_site_fract_y
_atom_site_fract_z
Si Si1 0.224123 0.958667 0.673760
Si Si2 0.099912 0.491326 0.687590
Si Si3 0.667163 0.321180 0.866217
Si Si4 0.550987 0.415881 0.356165
Si Si5 0.351640 0.189989 0.263968
O O1 0.207640 0.888172 0.514108
O O2 0.326060 0.958469 0.709900
O O3 0.152281 0.936270 0.823064
O O4 0.201017 0.054579 0.604549
O O5 0.152678 0.568464 0.601837
O O6 0.137643 0.397421 0.647512
O O7 0.000000 0.500000 0.635464
O O8 0.101407 0.509558 0.905280
O O9 0.725090 0.327117 0.691984
O O10 0.500000 0.500000 0.427683
O O11 0.275143 0.171348 0.403416
#
# Coordination Sequence:
#
# PCOD9542060 Si02
#       5
#     8   8   8   8   8
#     4  11  17  31  55  85 107 134 191 236 265 312
#     4  10  18  32  57  83 102 141 191 235 257 314
#     4  11  20  34  56  87 111 139 181 229 281 323
#     4  10  17  29  51  84 106 137 182 239 269 309
#     4  12  22  36  57  84 111 146 187 227 273 330
#
# _framework density 22.561122000000001
#
# number of rings (size 3 to 8) (size 9 to 14) (size 15 to 20)
#    0.000    1.200   12.000    0.000    0.000    0.000 
#    0.000    2.000    0.000    0.000    0.000    0.000 
#    0.000    0.000    0.000    0.000    0.000    0.000 
#
# Total GULP energy -111941.096351 kJ/mol
# GULP energy per Si atom -5597.054818 kJ/mol
# Density = 2.250977 g / cm^3
# Si number density = 22.561122 Si / 1000 Ang^3
#
#
#
# Elastic Constant Matrix: (Units=GPa)
#
#
# Indices 1 2 3 4 5 6 
#
# 1 139.9202 103.8389 25.9158 0.0000 0.0000 -23.3261
# 2 103.8389 139.9202 25.9158 0.0000 0.0000 23.3261
# 3 25.9158 25.9158 46.0193 0.0000 0.0000 0.0000
# 4 0.0000 0.0000 0.0000 -17.8430 0.0000 0.0000
# 5 0.0000 0.0000 0.0000 0.0000 -17.8430 0.0000
# 6 -23.3261 23.3261 0.0000 0.0000 0.0000 19.1746
#
#
#
# Elastic Compliance Matrix: (Units=1/GPa)
#
#
# Indices 1 2 3 4 5 6 
#
# 1 -0.021857 0.026518 -0.002625 0.000000 0.000000 -0.058849
# 2 0.026518 -0.021857 -0.002625 0.000000 0.000000 0.058849
# 3 -0.002625 -0.002625 0.024686 0.000000 0.000000 0.000000
# 4 0.000000 0.000000 0.000000 -0.056044 0.000000 0.000000
# 5 0.000000 0.000000 0.000000 0.000000 -0.056044 0.000000
# 6 -0.058849 0.058849 0.000000 0.000000 0.000000 -0.091030
#
#
# Mechanical properties :
#
#
# Convention : Reuss Voigt Hill
#
# Bulk Modulus (GPa) = 42.53723 70.80004 56.66864
# Shear Modulus (GPa) = -19.46671 8.04367 -5.71152
#
# Velocity S-wave (km/s) = -2.94061 1.89024 -1.59282
# Velocity P-wave (km/s) = 2.71396 6.01777 4.66793
#
# Compressibility (1/GPa) = 0.02350882
#
# Stress axis : x y z
#
# Youngs Moduli (GPa) = -45.75092 -45.75092 40.50870
#
# Poissons Ratio (x) = 1.21322 0.10632
# Poissons Ratio (y) = 1.21322 0.10632
# Poissons Ratio (z) = -0.12008 -0.12008
#
# Static dielectric constant tensor:
#      x y z
#    x 1.818840 0.000000 0.000000 
#    y 0.000000 1.818840 0.000000 
#    z 0.000000 0.000000 1.847510 
# 
# From -- ./inp_files/592.got.cif
#   From: 2010.05.17/outbox.cif.g08.bks.cpg/sg80_cif.got.tgz:592.got - 2010.06.03 18:49:13.
