data_PCOD9542814
_publ_section_title
;
Structure prediction by ZEFSAII (Michael W. Deem and Ramdas Pophale) SiO2 
 PCOD9542814
Probable space group: I -4 
;
_chemical_formula_sum "Si O2"
_cell_formula_units_Z 36
_cell_length_a 12.953078
_cell_length_b 12.953078
_cell_length_c 9.055685
_cell_angle_alpha 90.000000
_cell_angle_beta 90.000000
_cell_angle_gamma 90.000000
_cell_volume 1519.383021
_symmetry_space_group_name_H-M "I -4 "
_symmetry_group_IT_number 82
_symmetry_cell_setting 'tetragonal'
loop_
_space_group_symop_operation_xyz
x,y,z
y,-x,-z
-x,-y,z
-y,x,-z
1/2+x,1/2+y,1/2+z
1/2+y,1/2-x,1/2-z
1/2-x,1/2-y,1/2+z
1/2-y,1/2+x,1/2-z
loop_
_atom_site_type_symbol
_atom_site_label
_atom_site_fract_x
_atom_site_fract_y
_atom_site_fract_z
Si Si1 0.188293 0.741568 0.198064
Si Si2 0.500000 0.000000 0.250000
Si Si3 0.357873 0.429138 0.544147
Si Si4 0.277296 0.957375 0.267726
Si Si5 0.500000 0.000000 0.750000
Si Si6 0.712604 0.020960 0.614973
O O1 0.259969 0.835620 0.247711
O O2 0.246787 0.631861 0.183606
O O3 0.087335 0.740554 0.306016
O O4 0.145077 0.778004 0.038511
O O5 0.615564 0.012417 0.185957
O O6 0.376958 0.530573 0.441261
O O7 0.313310 0.480194 0.689555
O O8 0.274169 0.983149 0.440293
O O9 0.591306 0.033115 0.645441
#
# Coordination Sequence:
#
# PCOD9542814 Si02
#       6
#     8   2   8   8   2   8
#     4  10  23  40  63  92 129 167 205 264 330 380
#     4  12  26  40  60  90 122 152 212 270 306 376
#     4   9  20  41  65  90 124 166 209 258 320 385
#     4  11  24  41  65  93 123 169 218 265 320 388
#     4   8  18  40  64  86 130 172 208 266 330 376
#     4  10  21  39  62  92 124 164 211 258 316 390
#
# _framework density 23.693829000000001
#
# number of rings (size 3 to 8) (size 9 to 14) (size 15 to 20)
#    0.000    2.000    0.000    2.000    0.000   12.444 
#    0.000    0.000    0.000    0.000    0.000    0.000 
#    0.000    0.000    0.000    0.000    0.000    0.000 
#
# Total GULP energy -100550.274676 kJ/mol
# GULP energy per Si atom -5586.126371 kJ/mol
# Density = 2.363990 g / cm^3
# Si number density = 23.693829 Si / 1000 Ang^3
#
#
#
# Elastic Constant Matrix: (Units=GPa)
#
#
# Indices 1 2 3 4 5 6 
#
# 1 82.1426 18.8423 21.8162 0.0000 0.0000 3.4947
# 2 18.8423 82.1426 21.8162 0.0000 0.0000 -3.4947
# 3 21.8162 21.8162 118.0070 0.0000 0.0000 0.0000
# 4 0.0000 0.0000 0.0000 28.1085 0.0000 0.0000
# 5 0.0000 0.0000 0.0000 0.0000 28.1085 0.0000
# 6 3.4947 -3.4947 0.0000 0.0000 0.0000 49.9967
#
#
#
# Elastic Compliance Matrix: (Units=1/GPa)
#
#
# Indices 1 2 3 4 5 6 
#
# 1 0.013341 -0.002579 -0.001990 0.000000 0.000000 -0.001113
# 2 -0.002579 0.013341 -0.001990 0.000000 0.000000 0.001113
# 3 -0.001990 -0.001990 0.009210 0.000000 0.000000 0.000000
# 4 0.000000 0.000000 0.000000 0.035576 0.000000 0.000000
# 5 0.000000 0.000000 0.000000 0.000000 0.035576 0.000000
# 6 -0.001113 0.001113 0.000000 0.000000 0.000000 0.020157
#
#
# Mechanical properties :
#
#
# Convention : Reuss Voigt Hill
#
# Bulk Modulus (GPa) = 43.90682 45.24906 44.57794
# Shear Modulus (GPa) = 33.80411 35.89723 34.85067
#
# Velocity S-wave (km/s) = 3.78127 3.89658 3.83936
# Velocity P-wave (km/s) = 6.13475 6.27561 6.20558
#
# Compressibility (1/GPa) = 0.02277551
#
# Stress axis : x y z
#
# Youngs Moduli (GPa) = 74.95493 74.95493 108.58085
#
# Poissons Ratio (x) = 0.19333 0.21603
# Poissons Ratio (y) = 0.19333 0.21603
# Poissons Ratio (z) = 0.14913 0.14913
#
# Static dielectric constant tensor:
#      x y z
#    x 1.944510 0.000000 0.000000 
#    y 0.000000 1.944510 0.000000 
#    z 0.000000 0.000000 1.905930 
# 
# From -- ./inp_files/871.got.cif
#   From: 2010.05.17/outbox.cif.g08.bks.cpg/sg82_1_cif.got.tgz:871.got - 2010.06.03 18:52:26.
