data_PCOD9542641
_publ_section_title
;
Structure prediction by ZEFSAII (Michael W. Deem and Ramdas Pophale) SiO2 
 PCOD9542641
Probable space group: I -4 
;
_chemical_formula_sum "Si O2"
_cell_formula_units_Z 34
_cell_length_a 10.664854
_cell_length_b 10.664854
_cell_length_c 12.516332
_cell_angle_alpha 90.000000
_cell_angle_beta 90.000000
_cell_angle_gamma 90.000000
_cell_volume 1423.596473
_symmetry_space_group_name_H-M "I -4 "
_symmetry_group_IT_number 82
_symmetry_cell_setting 'tetragonal'
loop_
_space_group_symop_operation_xyz
x,y,z
y,-x,-z
-x,-y,z
-y,x,-z
1/2+x,1/2+y,1/2+z
1/2+y,1/2-x,1/2-z
1/2-x,1/2-y,1/2+z
1/2-y,1/2+x,1/2-z
loop_
_atom_site_type_symbol
_atom_site_label
_atom_site_fract_x
_atom_site_fract_y
_atom_site_fract_z
Si Si1 0.615461 0.731232 0.846215
Si Si2 0.000000 0.000000 0.000000
Si Si3 0.562190 0.202289 0.261982
Si Si4 0.069005 0.747137 0.007950
Si Si5 0.884242 0.600791 0.132020
O O1 0.689665 0.604692 0.820770
O O2 0.682964 0.813725 0.936505
O O3 0.469831 0.751884 0.877287
O O4 0.621119 0.809343 0.734237
O O5 0.946448 0.117484 0.062370
O O6 0.420427 0.151591 0.250269
O O7 0.583016 0.253139 0.381717
O O8 0.938306 0.676435 0.032172
O O9 0.000000 0.500000 0.142425
#
# Coordination Sequence:
#
# PCOD9542641 Si02
#       5
#     8   2   8   8   8
#     4  11  20  41  67 102 128 190 252 301 355 464
#     4  12  24  40  68 108 132 174 248 296 380 440
#     4  11  27  45  63  99 150 194 244 314 399 447
#     4  11  23  41  69 101 144 186 240 317 374 449
#     4  10  18  37  69 101 130 182 241 295 360 445
#
# _framework density 23.88317
#
# number of rings (size 3 to 8) (size 9 to 14) (size 15 to 20)
#    0.000    1.176    4.706    2.824    9.882    0.000 
#    0.000    0.000    0.000    0.000    0.000    0.000 
#    0.000    0.000    0.000    0.000    0.000    0.000 
#
# Total GULP energy -94863.634691 kJ/mol
# GULP energy per Si atom -5580.213805 kJ/mol
# Density = 2.382881 g / cm^3
# Si number density = 23.883170 Si / 1000 Ang^3
#
#
#
# Elastic Constant Matrix: (Units=GPa)
#
#
# Indices 1 2 3 4 5 6 
#
# 1 53.5231 8.0542 20.1725 0.0000 0.0000 -1.2926
# 2 8.0542 53.5231 20.1725 0.0000 0.0000 1.2926
# 3 20.1725 20.1725 81.7348 0.0000 0.0000 0.0000
# 4 0.0000 0.0000 0.0000 29.1709 0.0000 0.0000
# 5 0.0000 0.0000 0.0000 0.0000 29.1709 0.0000
# 6 -1.2926 1.2926 0.0000 0.0000 0.0000 41.8653
#
#
#
# Elastic Compliance Matrix: (Units=1/GPa)
#
#
# Indices 1 2 3 4 5 6 
#
# 1 0.020702 -0.001330 -0.004781 0.000000 0.000000 0.000680
# 2 -0.001330 0.020702 -0.004781 0.000000 0.000000 -0.000680
# 3 -0.004781 -0.004781 0.014595 0.000000 0.000000 0.000000
# 4 0.000000 0.000000 0.000000 0.034281 0.000000 0.000000
# 5 0.000000 0.000000 0.000000 0.000000 0.034281 0.000000
# 6 0.000680 -0.000680 0.000000 0.000000 0.000000 0.023928
#
#
# Mechanical properties :
#
#
# Convention : Reuss Voigt Hill
#
# Bulk Modulus (GPa) = 29.22720 31.73103 30.47911
# Shear Modulus (GPa) = 27.52132 29.40022 28.46077
#
# Velocity S-wave (km/s) = 3.39828 3.51237 3.45580
# Velocity P-wave (km/s) = 5.25946 5.45562 5.35844
#
# Compressibility (1/GPa) = 0.03421470
#
# Stress axis : x y z
#
# Youngs Moduli (GPa) = 48.30444 48.30443 68.51796
#
# Poissons Ratio (x) = 0.06423 0.32760
# Poissons Ratio (y) = 0.06423 0.32760
# Poissons Ratio (z) = 0.23095 0.23095
#
# Static dielectric constant tensor:
#      x y z
#    x 2.013700 0.000000 0.000000 
#    y 0.000000 2.013700 0.000000 
#    z 0.000000 0.000000 1.863720 
# 
# From -- ./inp_files/1564.got.cif
#   From: 2010.05.17/outbox.cif.g08.bks.cpg/sg82_1_cif.got.tgz:1564.got - 2010.06.03 18:52:26.
