data_PCOD9542189
_publ_section_title
;
Structure prediction by ZEFSAII (Michael W. Deem and Ramdas Pophale) SiO2 
 PCOD9542189
Probable space group: I 41
;
_chemical_formula_sum "Si O2"
_cell_formula_units_Z 56
_cell_length_a 11.337626
_cell_length_b 11.337626
_cell_length_c 19.045451
_cell_angle_alpha 90.000000
_cell_angle_beta 90.000000
_cell_angle_gamma 90.000000
_cell_volume 2448.135855
_symmetry_space_group_name_H-M "I 41"
_symmetry_group_IT_number 80
_symmetry_cell_setting 'tetragonal'
loop_
_space_group_symop_operation_xyz
x,y,z
-y,1/2+x,1/4+z
-x,-y,z
y,1/2-x,1/4+z
1/2+x,1/2+y,1/2+z
1/2-y,x,3/4+z
1/2-x,1/2-y,1/2+z
1/2+y,-x,3/4+z
loop_
_atom_site_type_symbol
_atom_site_label
_atom_site_fract_x
_atom_site_fract_y
_atom_site_fract_z
Si Si1 0.010093 0.807698 0.911510
Si Si2 0.099990 0.155714 0.676156
Si Si3 0.625337 0.929109 0.171309
Si Si4 0.000000 0.500000 0.048524
Si Si5 0.628771 0.057296 0.299752
Si Si6 0.739046 0.237433 0.212164
Si Si7 0.500000 0.500000 0.522461
Si Si8 0.244094 0.923331 0.075577
O O1 0.914871 0.708716 0.889548
O O2 0.124477 0.744330 0.944501
O O3 0.050405 0.899932 0.851188
O O4 0.957654 0.893417 0.971752
O O5 0.123234 0.292197 0.687718
O O6 0.078380 0.078266 0.745546
O O7 0.983180 0.164189 0.626831
O O8 0.500000 0.000000 0.164147
O O9 0.693970 0.985939 0.237835
O O10 0.690466 0.958814 0.099218
O O11 0.641774 0.188332 0.268180
O O12 0.500000 0.000000 0.297554
O O13 0.732636 0.168152 0.139062
O O14 0.860855 0.213788 0.254461
O O15 0.607182 0.450548 0.567005
#
# Coordination Sequence:
#
# PCOD9542189 Si02
#       8
#     8   8   8   4   8   8   4   8
#     4  10  25  44  69 104 153 195 251 314 387 460
#     4  12  24  42  70 107 144 199 243 320 384 454
#     4  10  23  43  67  95 145 180 238 310 369 448
#     4  11  26  44  68 112 153 200 252 318 389 462
#     4  10  22  41  64 101 137 182 244 304 362 448
#     4  10  23  43  72 101 142 200 249 313 379 463
#     4   9  22  46  64 100 143 188 252 304 373 466
#     4  10  22  44  68 101 133 191 248 309 370 453
#
# _framework density 22.874547
#
# number of rings (size 3 to 8) (size 9 to 14) (size 15 to 20)
#    0.000    1.714    0.714    1.714    6.000    5.714 
#   11.571    0.000    0.000    0.000    0.000    0.000 
#    0.000    0.000    0.000    0.000    0.000    0.000 
#
# Total GULP energy -156142.489349 kJ/mol
# GULP energy per Si atom -5576.517477 kJ/mol
# Density = 2.282248 g / cm^3
# Si number density = 22.874547 Si / 1000 Ang^3
#
#
#
# Elastic Constant Matrix: (Units=GPa)
#
#
# Indices 1 2 3 4 5 6 
#
# 1 118.2861 41.7392 31.6708 0.0000 0.0000 -6.6938
# 2 41.7392 118.2861 31.6708 0.0000 0.0000 6.6938
# 3 31.6708 31.6708 81.3219 0.0000 0.0000 0.0000
# 4 0.0000 0.0000 0.0000 27.6911 0.0000 0.0000
# 5 0.0000 0.0000 0.0000 0.0000 27.6911 0.0000
# 6 -6.6938 6.6938 0.0000 0.0000 0.0000 35.0759
#
#
#
# Elastic Compliance Matrix: (Units=1/GPa)
#
#
# Indices 1 2 3 4 5 6 
#
# 1 0.010451 -0.003064 -0.002877 0.000000 0.000000 0.002579
# 2 -0.003064 0.010451 -0.002877 0.000000 0.000000 -0.002579
# 3 -0.002877 -0.002877 0.014538 0.000000 0.000000 0.000000
# 4 0.000000 0.000000 0.000000 0.036113 0.000000 0.000000
# 5 0.000000 0.000000 0.000000 0.000000 0.036113 0.000000
# 6 0.002579 -0.002579 0.000000 0.000000 0.000000 0.029494
#
#
# Mechanical properties :
#
#
# Convention : Reuss Voigt Hill
#
# Bulk Modulus (GPa) = 56.16463 58.67283 57.41873
# Shear Modulus (GPa) = 31.10786 32.27915 31.69350
#
# Velocity S-wave (km/s) = 3.69173 3.76059 3.72632
# Velocity P-wave (km/s) = 6.54052 6.67544 6.60833
#
# Compressibility (1/GPa) = 0.01780480
#
# Stress axis : x y z
#
# Youngs Moduli (GPa) = 95.68077 95.68077 68.78587
#
# Poissons Ratio (x) = 0.29312 0.19791
# Poissons Ratio (y) = 0.29312 0.19791
# Poissons Ratio (z) = 0.27529 0.27529
#
# Static dielectric constant tensor:
#      x y z
#    x 1.915970 0.000000 0.000000 
#    y 0.000000 1.915970 0.000000 
#    z 0.000000 0.000000 1.960740 
# 
# From -- ./inp_files/1840.got.cif
#   From: 2010.05.17/outbox.cif.g08.bks.cpg/sg80_cif.got.tgz:1840.got - 2010.06.03 18:49:13.
