data_PCOD9542393
_publ_section_title
;
Structure prediction by ZEFSAII (Michael W. Deem and Ramdas Pophale) SiO2 
 PCOD9542393
Probable space group: P -4
;
_chemical_formula_sum "Si O2"
_cell_formula_units_Z 32
_cell_length_a 11.109806
_cell_length_b 11.109806
_cell_length_c 11.452653
_cell_angle_alpha 90.000000
_cell_angle_beta 90.000000
_cell_angle_gamma 90.000000
_cell_volume 1413.575642
_symmetry_space_group_name_H-M "P -4"
_symmetry_group_IT_number 81
_symmetry_cell_setting 'tetragonal'
loop_
_space_group_symop_operation_xyz
x,y,z
y,-x,-z
-x,-y,z
-y,x,-z
loop_
_atom_site_type_symbol
_atom_site_label
_atom_site_fract_x
_atom_site_fract_y
_atom_site_fract_z
Si Si1 0.977820 0.356219 0.241275
Si Si2 0.643328 0.022727 0.294484
Si Si3 0.198121 0.346945 0.094352
Si Si4 0.200941 0.984051 0.521196
Si Si5 0.761809 0.384025 0.072947
Si Si6 0.723671 0.609198 0.767108
Si Si7 0.760911 0.331757 0.713914
Si Si8 0.623855 0.653238 0.519458
O O1 0.848485 0.347715 0.179704
O O2 0.000000 0.500000 0.268389
O O3 0.062397 0.320576 0.130358
O O4 0.998458 0.270702 0.354281
O O5 0.699568 0.897225 0.250792
O O6 0.500000 0.000000 0.306613
O O7 0.700686 0.043959 0.421377
O O8 0.658135 0.140243 0.213652
O O9 0.205160 0.480396 0.039159
O O10 0.254890 0.341509 0.224351
O O11 0.281408 0.253161 0.024441
O O12 0.101900 0.877091 0.515479
O O13 0.633065 0.375698 0.135708
O O14 0.736539 0.468030 0.749748
O O15 0.680430 0.663146 0.644987
O O16 0.747756 0.331220 0.574847
O O17 0.657114 0.520226 0.473057
#
# Coordination Sequence:
#
# PCOD9542393 Si02
#       8
#     4   4   4   4   4   4   4   4
#     4  10  24  44  67  96 129 172 219 269 327 388
#     4  10  22  36  56  87 120 160 202 251 316 386
#     4  11  24  42  66  93 124 168 219 272 326 383
#     4  11  23  40  63  91 128 169 213 260 311 379
#     4  11  24  42  66  93 124 168 219 272 326 383
#     4  10  21  36  57  87 122 161 206 263 327 391
#     4  10  21  36  57  87 122 161 206 263 327 391
#     4   9  18  32  52  82 117 152 196 254 325 396
#
# _framework density 22.637630000000001
#
# number of rings (size 3 to 8) (size 9 to 14) (size 15 to 20)
#    0.000    1.750    0.000    3.375    5.250    3.750 
#    0.000    6.250    0.000    0.000    0.000    0.000 
#    0.000    0.000    0.000    0.000    0.000    0.000 
#
# Total GULP energy -178558.347462 kJ/mol
# GULP energy per Si atom -5579.948358 kJ/mol
# Density = 2.258611 g / cm^3
# Si number density = 22.637630 Si / 1000 Ang^3
#
#
#
# Elastic Constant Matrix: (Units=GPa)
#
#
# Indices 1 2 3 4 5 6 
#
# 1 57.4650 44.9906 17.5135 0.0000 0.0000 -0.2481
# 2 44.9906 57.4650 17.5135 0.0000 0.0000 0.2481
# 3 17.5135 17.5135 24.8519 0.0000 0.0000 0.0000
# 4 0.0000 0.0000 0.0000 34.6099 0.0000 0.0000
# 5 0.0000 0.0000 0.0000 0.0000 34.6099 0.0000
# 6 -0.2481 0.2481 0.0000 0.0000 0.0000 31.4417
#
#
#
# Elastic Compliance Matrix: (Units=1/GPa)
#
#
# Indices 1 2 3 4 5 6 
#
# 1 0.046524 -0.033666 -0.009061 0.000000 0.000000 0.000633
# 2 -0.033666 0.046524 -0.009061 0.000000 0.000000 -0.000633
# 3 -0.009061 -0.009061 0.053010 0.000000 0.000000 0.000000
# 4 0.000000 0.000000 0.000000 0.028893 0.000000 0.000000
# 5 0.000000 0.000000 0.000000 0.000000 0.028893 0.000000
# 6 0.000633 -0.000633 0.000000 0.000000 0.000000 0.031815
#
#
# Mechanical properties :
#
#
# Convention : Reuss Voigt Hill
#
# Bulk Modulus (GPa) = 23.54012 33.31301 28.42656
# Shear Modulus (GPa) = 14.14840 24.11657 19.13249
#
# Velocity S-wave (km/s) = 2.50270 3.26748 2.91032
# Velocity P-wave (km/s) = 4.33274 5.38358 4.88649
#
# Compressibility (1/GPa) = 0.04248067
#
# Stress axis : x y z
#
# Youngs Moduli (GPa) = 21.49427 21.49427 18.86448
#
# Poissons Ratio (x) = 0.72362 0.17094
# Poissons Ratio (y) = 0.72362 0.17094
# Poissons Ratio (z) = 0.19477 0.19477
#
# Static dielectric constant tensor:
#      x y z
#    x 1.906920 0.000000 0.000000 
#    y 0.000000 1.906920 0.000000 
#    z 0.000000 0.000000 1.860440 
# 
# From -- ./inp_files/1447.got.cif
#   From: 2010.05.17/outbox.cif.g08.bks.cpg/sg81_cif.got.tgz:1447.got - 2010.06.03 18:51:07.
