data_PCOD9542994
_publ_section_title
;
Structure prediction by ZEFSAII (Michael W. Deem and Ramdas Pophale) SiO2 
 PCOD9542994
Probable space group: I -4 
;
_chemical_formula_sum "Si O2"
_cell_formula_units_Z 44
_cell_length_a 14.834629
_cell_length_b 14.834629
_cell_length_c 10.173154
_cell_angle_alpha 90.000000
_cell_angle_beta 90.000000
_cell_angle_gamma 90.000000
_cell_volume 2238.767522
_symmetry_space_group_name_H-M "I -4 "
_symmetry_group_IT_number 82
_symmetry_cell_setting 'tetragonal'
loop_
_space_group_symop_operation_xyz
x,y,z
y,-x,-z
-x,-y,z
-y,x,-z
1/2+x,1/2+y,1/2+z
1/2+y,1/2-x,1/2-z
1/2-x,1/2-y,1/2+z
1/2-y,1/2+x,1/2-z
loop_
_atom_site_type_symbol
_atom_site_label
_atom_site_fract_x
_atom_site_fract_y
_atom_site_fract_z
Si Si1 0.821641 0.593635 0.879687
Si Si2 0.500000 0.000000 0.061630
Si Si3 0.187348 0.074288 0.162231
Si Si4 0.125353 0.512393 0.324078
Si Si5 0.468932 0.632344 0.059333
Si Si6 0.266951 0.593512 0.483075
O O1 0.777984 0.607315 0.736504
O O2 0.739280 0.546697 0.959357
O O3 0.908792 0.530019 0.868245
O O4 0.849724 0.685910 0.950835
O O5 0.583373 0.980501 0.962827
O O6 0.121372 0.053768 0.285666
O O7 0.151632 0.149527 0.064499
O O8 0.204635 0.982372 0.085896
O O9 0.098646 0.434567 0.222128
O O10 0.224875 0.543701 0.354634
O O11 0.568460 0.598468 0.022391
#
# Coordination Sequence:
#
# PCOD9542994 Si02
#       6
#     8   4   8   8   8   8
#     4   9  22  42  65 102 129 174 226 269 349 395
#     4   8  15  36  63  90 132 166 212 280 320 398
#     4  10  26  41  63 101 127 178 228 268 352 397
#     4   8  17  34  60  95 125 172 219 259 338 387
#     4   9  21  44  69  99 129 177 234 276 329 403
#     4  11  23  43  62  97 139 172 222 285 332 408
#
# _framework density 19.653670999999999
#
# number of rings (size 3 to 8) (size 9 to 14) (size 15 to 20)
#    1.091    1.818    0.000    0.000    0.000   13.455 
#    6.545    2.727    0.000    0.000    0.000    0.000 
#    0.000    0.000    0.000    0.000    0.000    0.000 
#
# Total GULP energy -122509.718397 kJ/mol
# GULP energy per Si atom -5568.623563 kJ/mol
# Density = 1.960894 g / cm^3
# Si number density = 19.653671 Si / 1000 Ang^3
#
#
#
# Elastic Constant Matrix: (Units=GPa)
#
#
# Indices 1 2 3 4 5 6 
#
# 1 112.9997 50.6173 41.9967 0.0000 0.0000 6.0395
# 2 50.6173 112.9997 41.9967 0.0000 0.0000 -6.0395
# 3 41.9967 41.9967 77.5002 0.0000 0.0000 0.0000
# 4 0.0000 0.0000 0.0000 38.3265 0.0000 0.0000
# 5 0.0000 0.0000 0.0000 0.0000 38.3265 0.0000
# 6 6.0395 -6.0395 0.0000 0.0000 0.0000 34.3382
#
#
#
# Elastic Compliance Matrix: (Units=1/GPa)
#
#
# Indices 1 2 3 4 5 6 
#
# 1 0.012531 -0.004064 -0.004588 0.000000 0.000000 -0.002919
# 2 -0.004064 0.012531 -0.004588 0.000000 0.000000 0.002919
# 3 -0.004588 -0.004588 0.017876 0.000000 0.000000 0.000000
# 4 0.000000 0.000000 0.000000 0.026092 0.000000 0.000000
# 5 0.000000 0.000000 0.000000 0.000000 0.026092 0.000000
# 6 -0.002919 0.002919 0.000000 0.000000 0.000000 0.030149
#
#
# Mechanical properties :
#
#
# Convention : Reuss Voigt Hill
#
# Bulk Modulus (GPa) = 60.76390 63.63565 62.19978
# Shear Modulus (GPa) = 31.79898 33.45751 32.62824
#
# Velocity S-wave (km/s) = 4.02676 4.13044 4.07893
# Velocity P-wave (km/s) = 7.25287 7.42941 7.34167
#
# Compressibility (1/GPa) = 0.01645714
#
# Stress axis : x y z
#
# Youngs Moduli (GPa) = 79.80017 79.80017 55.94106
#
# Poissons Ratio (x) = 0.32431 0.25668
# Poissons Ratio (y) = 0.32431 0.25668
# Poissons Ratio (z) = 0.36615 0.36615
#
# Static dielectric constant tensor:
#      x y z
#    x 1.691570 0.000000 0.000000 
#    y 0.000000 1.691570 0.000000 
#    z 0.000000 0.000000 1.724320 
# 
# From -- ./inp_files/1694.got.cif
#   From: 2010.05.17/outbox.cif.g08.bks.cpg/sg82_1_cif.got.tgz:1694.got - 2010.06.03 18:52:26.
