data_PCOD9542306
_publ_section_title
;
Structure prediction by ZEFSAII (Michael W. Deem and Ramdas Pophale) SiO2 
 PCOD9542306
Probable space group: I 41
;
_chemical_formula_sum "Si O2"
_cell_formula_units_Z 28
_cell_length_a 13.199809
_cell_length_b 13.199809
_cell_length_c 5.954548
_cell_angle_alpha 90.000000
_cell_angle_beta 90.000000
_cell_angle_gamma 90.000000
_cell_volume 1037.490419
_symmetry_space_group_name_H-M "I 41"
_symmetry_group_IT_number 80
_symmetry_cell_setting 'tetragonal'
loop_
_space_group_symop_operation_xyz
x,y,z
-y,1/2+x,1/4+z
-x,-y,z
y,1/2-x,1/4+z
1/2+x,1/2+y,1/2+z
1/2-y,x,3/4+z
1/2-x,1/2-y,1/2+z
1/2+y,-x,3/4+z
loop_
_atom_site_type_symbol
_atom_site_label
_atom_site_fract_x
_atom_site_fract_y
_atom_site_fract_z
Si Si1 0.500000 0.000000 0.314420
Si Si2 0.564392 0.316519 0.373878
Si Si3 0.935608 0.316519 0.504963
Si Si4 0.402676 0.250000 0.689420
O O1 0.593734 0.007235 0.489457
O O2 0.507236 0.093734 0.139384
O O3 0.632215 0.367785 0.564420
O O4 0.484167 0.238933 0.488294
O O5 0.620012 0.250000 0.189420
O O6 0.015833 0.238933 0.390547
O O7 0.329984 0.170016 0.814420
#
# Coordination Sequence:
#
# PCOD9542306 Si02
#       4
#     4   8   8   8
#     4  12  26  52  88 118 176 228 292 358 430 524
#     4  12  26  50  86 123 167 230 288 352 437 520
#     4  12  26  50  86 123 167 230 288 352 437 520
#     4  12  28  48  80 130 168 218 280 356 438 520
#
# _framework density 26.988201
#
# number of rings (size 3 to 8) (size 9 to 14) (size 15 to 20)
#    0.000    0.000    0.000   11.143    4.000    0.000 
#    5.143    0.000   88.000    0.000    0.000    0.000 
#    0.000    0.000    0.000    0.000    0.000    0.000 
#
# Total GULP energy -78160.045728 kJ/mol
# GULP energy per Si atom -5582.860409 kJ/mol
# Density = 2.692677 g / cm^3
# Si number density = 26.988201 Si / 1000 Ang^3
#
#
#
# Elastic Constant Matrix: (Units=GPa)
#
#
# Indices 1 2 3 4 5 6 
#
# 1 125.3008 76.2387 121.4957 0.0000 0.0000 0.0000
# 2 76.2387 125.3008 121.4957 0.0000 0.0000 0.0000
# 3 121.4957 121.4957 252.4053 0.0000 0.0000 0.0000
# 4 0.0000 0.0000 0.0000 66.9098 0.0000 0.0000
# 5 0.0000 0.0000 0.0000 0.0000 66.9098 0.0000
# 6 0.0000 0.0000 0.0000 0.0000 0.0000 18.0740
#
#
#
# Elastic Compliance Matrix: (Units=1/GPa)
#
#
# Indices 1 2 3 4 5 6 
#
# 1 0.016103 -0.004279 -0.005691 0.000000 0.000000 0.000000
# 2 -0.004279 0.016103 -0.005691 0.000000 0.000000 0.000000
# 3 -0.005691 -0.005691 0.009441 0.000000 0.000000 0.000000
# 4 0.000000 0.000000 0.000000 0.014945 0.000000 0.000000
# 5 0.000000 0.000000 0.000000 0.000000 0.014945 0.000000
# 6 0.000000 0.000000 0.000000 0.000000 0.000000 0.055328
#
#
# Mechanical properties :
#
#
# Convention : Reuss Voigt Hill
#
# Bulk Modulus (GPa) = 96.87109 126.82968 111.85039
# Shear Modulus (GPa) = 30.93460 42.63053 36.78256
#
# Velocity S-wave (km/s) = 3.38927 3.97873 3.69577
# Velocity P-wave (km/s) = 7.16156 8.25854 7.72954
#
# Compressibility (1/GPa) = 0.01032300
#
# Stress axis : x y z
#
# Youngs Moduli (GPa) = 62.09997 62.09997 105.92080
#
# Poissons Ratio (x) = 0.26574 0.60284
# Poissons Ratio (y) = 0.26574 0.60284
# Poissons Ratio (z) = 0.35344 0.35344
#
# Static dielectric constant tensor:
#      x y z
#    x 2.109580 0.000000 0.000000 
#    y 0.000000 2.109580 0.000000 
#    z 0.000000 0.000000 2.062690 
# 
# From -- ./inp_files/105.got.cif
#   From: 2010.05.17/outbox.cif.g08.bks.cpg/sg80_cif.got.tgz:105.got - 2010.06.03 18:49:13.
