data_PCOD9542289
_publ_section_title
;
Structure prediction by ZEFSAII (Michael W. Deem and Ramdas Pophale) SiO2 
 PCOD9542289
Probable space group: I 41
;
_chemical_formula_sum "Si O2"
_cell_formula_units_Z 20
_cell_length_a 5.152305
_cell_length_b 5.152305
_cell_length_c 28.272474
_cell_angle_alpha 90.000000
_cell_angle_beta 90.000000
_cell_angle_gamma 90.000000
_cell_volume 750.528073
_symmetry_space_group_name_H-M "I 41"
_symmetry_group_IT_number 80
_symmetry_cell_setting 'tetragonal'
loop_
_space_group_symop_operation_xyz
x,y,z
-y,1/2+x,1/4+z
-x,-y,z
y,1/2-x,1/4+z
1/2+x,1/2+y,1/2+z
1/2-y,x,3/4+z
1/2-x,1/2-y,1/2+z
1/2+y,-x,3/4+z
loop_
_atom_site_type_symbol
_atom_site_label
_atom_site_fract_x
_atom_site_fract_y
_atom_site_fract_z
Si Si1 0.737660 0.163310 0.814030
Si Si2 0.668377 0.228129 0.414811
Si Si3 0.500000 0.500000 0.729958
O O1 0.794657 0.337199 0.859634
O O2 0.607634 0.291326 0.768168
O O3 0.500000 0.000000 0.833997
O O4 0.000000 0.000000 0.803421
O O5 0.500000 0.500000 0.417971
O O6 0.938729 0.276510 0.441376
O O7 0.500000 0.000000 0.437449
#
# Coordination Sequence:
#
# PCOD9542289 Si02
#       3
#     8   8   4
#     4  11  27  48  76 121 165 222 278 347 416 503
#     4  11  27  50  76 117 168 217 279 345 420 501
#     4  12  26  48  86 116 164 218 286 334 432 494
#
# _framework density 26.647898999999999
#
# number of rings (size 3 to 8) (size 9 to 14) (size 15 to 20)
#    0.000    0.800    2.000    2.400   11.200    4.800 
#    0.000    0.000    0.000    0.000    0.000    0.000 
#    0.000    0.000    0.000    0.000    0.000    0.000 
#
# Total GULP energy -55673.557359 kJ/mol
# GULP energy per Si atom -5567.355736 kJ/mol
# Density = 2.658725 g / cm^3
# Si number density = 26.647899 Si / 1000 Ang^3
#
#
#
# Elastic Constant Matrix: (Units=GPa)
#
#
# Indices 1 2 3 4 5 6 
#
# 1 134.9560 69.6454 19.7225 0.0000 0.0000 -1.8789
# 2 69.6454 134.9560 19.7225 0.0000 0.0000 1.8789
# 3 19.7225 19.7225 164.7924 0.0000 0.0000 0.0000
# 4 0.0000 0.0000 0.0000 -115.6836 0.0000 0.0000
# 5 0.0000 0.0000 0.0000 0.0000 -115.6835 0.0000
# 6 -1.8789 1.8789 0.0000 0.0000 0.0000 71.5766
#
#
#
# Elastic Compliance Matrix: (Units=1/GPa)
#
#
# Indices 1 2 3 4 5 6 
#
# 1 0.010169 -0.005166 -0.000599 0.000000 0.000000 0.000403
# 2 -0.005166 0.010169 -0.000599 0.000000 0.000000 -0.000403
# 3 -0.000599 -0.000599 0.006212 0.000000 0.000000 0.000000
# 4 0.000000 0.000000 0.000000 -0.008644 0.000000 0.000000
# 5 0.000000 0.000000 0.000000 0.000000 -0.008644 0.000000
# 6 0.000403 -0.000403 0.000000 0.000000 0.000000 0.013992
#
#
# Mechanical properties :
#
#
# Convention : Reuss Voigt Hill
#
# Bulk Modulus (GPa) = 72.34589 72.54281 72.44435
# Shear Modulus (GPa) = 123.19234 -10.25049 56.47092
#
# Velocity S-wave (km/s) = 6.80662 -1.96341 4.60842
# Velocity P-wave (km/s) = 9.43298 4.70551 7.45396
#
# Compressibility (1/GPa) = 0.01382249
#
# Stress axis : x y z
#
# Youngs Moduli (GPa) = 98.34009 98.34008 160.99013
#
# Poissons Ratio (x) = 0.50801 0.09639
# Poissons Ratio (y) = 0.50801 0.09639
# Poissons Ratio (z) = 0.05888 0.05888
#
# Static dielectric constant tensor:
#      x y z
#    x 2.189050 0.000000 0.000000 
#    y 0.000000 2.189050 0.000000 
#    z 0.000000 0.000000 2.080540 
# 
# From -- ./inp_files/2166.got.cif
#   From: 2010.05.17/outbox.cif.g08.bks.cpg/sg80_cif.got.tgz:2166.got - 2010.06.03 18:49:13.
