data_PCOD9542100
_publ_section_title
;
Structure prediction by ZEFSAII (Michael W. Deem and Ramdas Pophale) SiO2 
 PCOD9542100
Probable space group: I 41
;
_chemical_formula_sum "Si O2"
_cell_formula_units_Z 36
_cell_length_a 7.466885
_cell_length_b 7.466885
_cell_length_c 28.876690
_cell_angle_alpha 90.000000
_cell_angle_beta 90.000000
_cell_angle_gamma 90.000000
_cell_volume 1610.001705
_symmetry_space_group_name_H-M "I 41"
_symmetry_group_IT_number 80
_symmetry_cell_setting 'tetragonal'
loop_
_space_group_symop_operation_xyz
x,y,z
-y,1/2+x,1/4+z
-x,-y,z
y,1/2-x,1/4+z
1/2+x,1/2+y,1/2+z
1/2-y,x,3/4+z
1/2-x,1/2-y,1/2+z
1/2+y,-x,3/4+z
loop_
_atom_site_type_symbol
_atom_site_label
_atom_site_fract_x
_atom_site_fract_y
_atom_site_fract_z
Si Si1 0.783913 0.982225 0.697130
Si Si2 0.330436 0.882648 0.359370
Si Si3 0.436981 0.791781 0.548684
Si Si4 0.343805 0.100434 0.168492
Si Si5 0.500000 0.000000 0.869112
O O1 0.750595 0.771711 0.691794
O O2 0.749371 0.093714 0.650362
O O3 0.719618 0.047909 0.746551
O O4 0.000000 0.000000 0.699322
O O5 0.272518 0.764973 0.316555
O O6 0.500000 0.000000 0.345200
O O7 0.189003 0.024830 0.379611
O O8 0.539924 0.668357 0.585610
O O9 0.500000 0.000000 0.550630
O O10 0.180845 0.982601 0.149240
O O11 0.500000 0.000000 0.197823
#
# Coordination Sequence:
#
# PCOD9542100 Si02
#       5
#     8   8   8   8   4
#     4   8  19  38  63  95 125 169 224 272 337 398
#     4   9  18  38  66  89 127 181 216 272 342 395
#     4  11  21  40  63  97 135 169 225 286 330 404
#     4  10  19  40  63  89 130 174 220 277 331 400
#     4  12  24  38  68 102 126 178 232 268 340 412
#
# _framework density 22.360223999999999
#
# number of rings (size 3 to 8) (size 9 to 14) (size 15 to 20)
#    0.000    2.667    2.222    2.667    0.000    0.000 
#    6.000   16.667    2.444    0.000    0.000    0.000 
#    0.000    0.000    0.000    0.000    0.000    0.000 
#
# Total GULP energy -100300.492486 kJ/mol
# GULP energy per Si atom -5572.249583 kJ/mol
# Density = 2.230933 g / cm^3
# Si number density = 22.360224 Si / 1000 Ang^3
#
#
#
# Elastic Constant Matrix: (Units=GPa)
#
#
# Indices 1 2 3 4 5 6 
#
# 1 86.2528 2.8246 29.6105 0.0000 0.0000 -0.8164
# 2 2.8246 86.2528 29.6105 0.0000 0.0000 0.8164
# 3 29.6105 29.6105 108.0718 0.0000 0.0000 0.0000
# 4 0.0000 0.0000 0.0000 3.8032 0.0000 0.0000
# 5 0.0000 0.0000 0.0000 0.0000 3.8032 0.0000
# 6 -0.8164 0.8164 0.0000 0.0000 0.0000 26.5951
#
#
#
# Elastic Compliance Matrix: (Units=1/GPa)
#
#
# Indices 1 2 3 4 5 6 
#
# 1 0.012860 0.000866 -0.003761 0.000000 0.000000 0.000368
# 2 0.000866 0.012860 -0.003761 0.000000 0.000000 -0.000368
# 3 -0.003761 -0.003761 0.011314 0.000000 0.000000 0.000000
# 4 0.000000 0.000000 0.000000 0.262936 0.000000 0.000000
# 5 0.000000 0.000000 0.000000 0.000000 0.262936 0.000000
# 6 0.000368 -0.000368 0.000000 0.000000 0.000000 0.037624
#
#
# Mechanical properties :
#
#
# Convention : Reuss Voigt Hill
#
# Bulk Modulus (GPa) = 42.15246 44.96318 43.55782
# Shear Modulus (GPa) = 8.04183 21.40910 14.72546
#
# Velocity S-wave (km/s) = 1.89850 3.09765 2.56902
# Velocity P-wave (km/s) = 4.86808 5.73987 5.32186
#
# Compressibility (1/GPa) = 0.02372341
#
# Stress axis : x y z
#
# Youngs Moduli (GPa) = 77.76022 77.76022 88.38604
#
# Poissons Ratio (x) = -0.06738 0.33241
# Poissons Ratio (y) = -0.06738 0.33241
# Poissons Ratio (z) = 0.29245 0.29245
#
# Static dielectric constant tensor:
#      x y z
#    x 1.949610 0.000000 0.000000 
#    y 0.000000 1.949610 0.000000 
#    z 0.000000 0.000000 1.863760 
# 
# From -- ./inp_files/2253.got.cif
#   From: 2010.05.17/outbox.cif.g08.bks.cpg/sg80_cif.got.tgz:2253.got - 2010.06.03 18:49:13.
