data_PCOD9542599
_publ_section_title
;
Structure prediction by ZEFSAII (Michael W. Deem and Ramdas Pophale) SiO2 
 PCOD9542599
Probable space group: P -4
;
_chemical_formula_sum "Si O2"
_cell_formula_units_Z 13
_cell_length_a 8.579100
_cell_length_b 8.579100
_cell_length_c 7.990616
_cell_angle_alpha 90.000000
_cell_angle_beta 90.000000
_cell_angle_gamma 90.000000
_cell_volume 588.116983
_symmetry_space_group_name_H-M "P -4"
_symmetry_group_IT_number 81
_symmetry_cell_setting 'tetragonal'
loop_
_space_group_symop_operation_xyz
x,y,z
y,-x,-z
-x,-y,z
-y,x,-z
loop_
_atom_site_type_symbol
_atom_site_label
_atom_site_fract_x
_atom_site_fract_y
_atom_site_fract_z
Si Si1 0.639243 0.739775 0.831247
Si Si2 0.612466 0.714756 0.192247
Si Si3 0.080274 0.667319 0.505747
Si Si4 0.000000 0.000000 0.500000
O O1 0.726289 0.575440 0.802627
O O2 0.460334 0.677770 0.826236
O O3 0.667883 0.864645 0.687355
O O4 0.666895 0.798162 0.020786
O O5 0.672035 0.775598 0.367522
O O6 0.000000 0.500000 0.532540
O O7 0.981937 0.819595 0.558824
#
# Coordination Sequence:
#
# PCOD9542599 Si02
#       4
#     4   4   4   1
#     4   9  18  35  62  93 122 161 215 265 316 382
#     4   9  18  35  62  93 122 161 215 265 316 382
#     4  12  24  41  62  85 130 176 208 264 326 374
#     4  12  28  44  62 104 132 158 228 268 302 392
#
# _framework density 22.104444000000001
#
# number of rings (size 3 to 8) (size 9 to 14) (size 15 to 20)
#    0.000    1.846    0.000    7.385    0.000    3.692 
#    0.000    4.615    0.000    0.000    0.000    0.000 
#    0.000    0.000    0.000    0.000    0.000    0.000 
#
# Total GULP energy -72386.323608 kJ/mol
# GULP energy per Si atom -5568.178739 kJ/mol
# Density = 2.205413 g / cm^3
# Si number density = 22.104444 Si / 1000 Ang^3
#
#
#
# Elastic Constant Matrix: (Units=GPa)
#
#
# Indices 1 2 3 4 5 6 
#
# 1 54.6487 1.0914 -2.9429 0.0000 0.0000 3.5022
# 2 1.0914 54.6487 -2.9429 0.0000 0.0000 -3.5022
# 3 -2.9429 -2.9429 101.0534 0.0000 0.0000 0.0000
# 4 0.0000 0.0000 0.0000 15.4687 0.0000 0.0000
# 5 0.0000 0.0000 0.0000 0.0000 15.4687 0.0000
# 6 3.5022 -3.5022 0.0000 0.0000 0.0000 24.3144
#
#
#
# Elastic Compliance Matrix: (Units=1/GPa)
#
#
# Indices 1 2 3 4 5 6 
#
# 1 0.018513 -0.000517 0.000524 0.000000 0.000000 -0.002741
# 2 -0.000517 0.018513 0.000524 0.000000 0.000000 0.002741
# 3 0.000524 0.000524 0.009926 0.000000 0.000000 0.000000
# 4 0.000000 0.000000 0.000000 0.064647 0.000000 0.000000
# 5 0.000000 0.000000 0.000000 0.000000 0.064647 0.000000
# 6 -0.002741 0.002741 0.000000 0.000000 0.000000 0.041918
#
#
# Mechanical properties :
#
#
# Convention : Reuss Voigt Hill
#
# Bulk Modulus (GPa) = 20.82722 22.30688 21.56705
# Shear Modulus (GPa) = 21.44953 25.39340 23.42146
#
# Velocity S-wave (km/s) = 3.11846 3.39306 3.25865
# Velocity P-wave (km/s) = 4.73382 5.04618 4.89249
#
# Compressibility (1/GPa) = 0.04801408
#
# Stress axis : x y z
#
# Youngs Moduli (GPa) = 54.01635 54.01635 100.74265
#
# Poissons Ratio (x) = 0.02794 -0.05280
# Poissons Ratio (y) = 0.02794 -0.05280
# Poissons Ratio (z) = -0.02831 -0.02831
#
# Static dielectric constant tensor:
#      x y z
#    x 1.880960 0.000000 0.000000 
#    y 0.000000 1.880960 0.000000 
#    z 0.000000 0.000000 1.783430 
# 
# From -- ./inp_files/484.got.cif
#   From: 2010.05.17/outbox.cif.g08.bks.cpg/sg81_cif.got.tgz:484.got - 2010.06.03 18:51:07.
