data_PCOD9542828
_publ_section_title
;
Structure prediction by ZEFSAII (Michael W. Deem and Ramdas Pophale) SiO2 
 PCOD9542828
Probable space group: I -4 
;
_chemical_formula_sum "Si O2"
_cell_formula_units_Z 48
_cell_length_a 8.630302
_cell_length_b 8.630302
_cell_length_c 28.825794
_cell_angle_alpha 90.000000
_cell_angle_beta 90.000000
_cell_angle_gamma 90.000000
_cell_volume 2147.006035
_symmetry_space_group_name_H-M "I -4 "
_symmetry_group_IT_number 82
_symmetry_cell_setting 'tetragonal'
loop_
_space_group_symop_operation_xyz
x,y,z
y,-x,-z
-x,-y,z
-y,x,-z
1/2+x,1/2+y,1/2+z
1/2+y,1/2-x,1/2-z
1/2-x,1/2-y,1/2+z
1/2-y,1/2+x,1/2-z
loop_
_atom_site_type_symbol
_atom_site_label
_atom_site_fract_x
_atom_site_fract_y
_atom_site_fract_z
Si Si1 0.170506 0.215419 0.304719
Si Si2 0.851215 0.295519 0.927777
Si Si3 0.536789 0.664654 0.709550
Si Si4 0.209887 0.864860 0.515846
Si Si5 0.343221 0.099937 0.636602
Si Si6 0.178871 0.346368 0.896871
O O1 0.232733 0.380870 0.285701
O O2 0.295128 0.157505 0.341829
O O3 0.121462 0.129754 0.258144
O O4 0.021462 0.229748 0.338373
O O5 0.703786 0.206814 0.906749
O O6 0.830716 0.474212 0.911513
O O7 0.021841 0.255743 0.909773
O O8 0.843403 0.295712 0.983445
O O9 0.500000 0.500000 0.687391
O O10 0.635746 0.769475 0.675779
O O11 0.219899 0.814380 0.569333
O O12 0.047550 0.800487 0.494625
O O13 0.500000 0.000000 0.628660
#
# Coordination Sequence:
#
# PCOD9542828 Si02
#       6
#     8   8   8   8   8   8
#     4  11  22  39  61  90 126 162 223 260 325 384
#     4  10  21  41  61  96 132 164 220 268 328 390
#     4  11  23  39  61  92 126 169 210 275 322 389
#     4   9  18  37  63  92 126 168 220 264 318 394
#     4  10  22  39  62  88 122 171 214 265 313 388
#     4  10  22  38  64  93 130 171 207 279 329 384
#
# _framework density 22.356712000000002
#
# number of rings (size 3 to 8) (size 9 to 14) (size 15 to 20)
#    0.000    1.833    1.667    2.000    2.333    1.333 
#   12.000    0.000    0.000    2.000    0.000    0.000 
#    0.000    0.000    0.000    0.000    0.000    0.000 
#
# Total GULP energy -133887.366044 kJ/mol
# GULP energy per Si atom -5578.640252 kJ/mol
# Density = 2.230583 g / cm^3
# Si number density = 22.356712 Si / 1000 Ang^3
#
#
#
# Elastic Constant Matrix: (Units=GPa)
#
#
# Indices 1 2 3 4 5 6 
#
# 1 54.2036 -6.1940 22.2638 0.0000 0.0000 0.9768
# 2 -6.1940 54.2036 22.2638 0.0000 0.0000 -0.9768
# 3 22.2638 22.2638 133.0406 0.0000 0.0000 0.0000
# 4 0.0000 0.0000 0.0000 23.2455 0.0000 0.0000
# 5 0.0000 0.0000 0.0000 0.0000 23.2455 0.0000
# 6 0.9768 -0.9768 0.0000 0.0000 0.0000 16.5293
#
#
#
# Elastic Compliance Matrix: (Units=1/GPa)
#
#
# Indices 1 2 3 4 5 6 
#
# 1 0.020622 0.004034 -0.004126 0.000000 0.000000 -0.000980
# 2 0.004034 0.020622 -0.004126 0.000000 0.000000 0.000980
# 3 -0.004126 -0.004126 0.008897 0.000000 0.000000 0.000000
# 4 0.000000 0.000000 0.000000 0.043019 0.000000 0.000000
# 5 0.000000 0.000000 0.000000 0.000000 0.043019 0.000000
# 6 -0.000980 0.000980 0.000000 0.000000 0.000000 0.060614
#
#
# Mechanical properties :
#
#
# Convention : Reuss Voigt Hill
#
# Bulk Modulus (GPa) = 23.97786 35.34609 29.66198
# Shear Modulus (GPa) = 22.81716 26.14502 24.48109
#
# Velocity S-wave (km/s) = 3.19814 3.42343 3.31270
# Velocity P-wave (km/s) = 4.93821 5.60989 5.28473
#
# Compressibility (1/GPa) = 0.04170514
#
# Stress axis : x y z
#
# Youngs Moduli (GPa) = 48.49113 48.49113 112.39161
#
# Poissons Ratio (x) = -0.19560 0.46374
# Poissons Ratio (y) = -0.19560 0.46374
# Poissons Ratio (z) = 0.20008 0.20008
#
# Static dielectric constant tensor:
#      x y z
#    x 1.862510 0.000000 0.000000 
#    y 0.000000 1.862510 0.000000 
#    z 0.000000 0.000000 1.819340 
# 
# From -- ./inp_files/4040.got.cif
#   From: 2010.05.17/outbox.cif.g08.bks.cpg/sg82_3_cif.got.tgz:4040.got - 2010.06.03 18:52:26.
