data_PCOD9542737
_publ_section_title
;
Structure prediction by ZEFSAII (Michael W. Deem and Ramdas Pophale) SiO2 
 PCOD9542737
Probable space group: I -4 
;
_chemical_formula_sum "Si O2"
_cell_formula_units_Z 40
_cell_length_a 19.413195
_cell_length_b 19.413195
_cell_length_c 4.928006
_cell_angle_alpha 90.000000
_cell_angle_beta 90.000000
_cell_angle_gamma 90.000000
_cell_volume 1857.228168
_symmetry_space_group_name_H-M "I -4 "
_symmetry_group_IT_number 82
_symmetry_cell_setting 'tetragonal'
loop_
_space_group_symop_operation_xyz
x,y,z
y,-x,-z
-x,-y,z
-y,x,-z
1/2+x,1/2+y,1/2+z
1/2+y,1/2-x,1/2-z
1/2-x,1/2-y,1/2+z
1/2-y,1/2+x,1/2-z
loop_
_atom_site_type_symbol
_atom_site_label
_atom_site_fract_x
_atom_site_fract_y
_atom_site_fract_z
Si Si1 0.563595 0.089614 0.296124
Si Si2 0.203460 0.247509 0.465602
Si Si3 0.181782 0.093362 0.451068
Si Si4 0.388407 0.833539 0.802236
Si Si5 0.038082 0.892192 0.047294
O O1 0.488619 0.086341 0.156789
O O2 0.563079 0.134086 0.569927
O O3 0.612989 0.120683 0.069533
O O4 0.229444 0.260042 0.770235
O O5 0.164776 0.175044 0.445816
O O6 0.167964 0.314501 0.345078
O O7 0.258024 0.090961 0.583981
O O8 0.169128 0.061778 0.154783
O O9 0.131400 0.052910 0.649218
O O10 0.959365 0.915295 0.012610
#
# Coordination Sequence:
#
# PCOD9542737 Si02
#       5
#     8   8   8   8   8
#     4  11  24  44  64  89 133 178 209 254 326 384
#     4  10  20  38  64  92 128 168 192 256 338 370
#     4  11  22  42  66  97 127 165 216 269 315 376
#     4  11  22  42  66  97 127 165 216 269 315 376
#     4  11  24  44  64  89 133 178 209 254 326 384
#
# _framework density 21.537474
#
# number of rings (size 3 to 8) (size 9 to 14) (size 15 to 20)
#    0.000    1.200    0.000    8.400    0.000    3.200 
#   21.600    0.000    0.000    0.000    0.000    0.000 
#    0.000    0.000    0.000    0.000    0.000    0.000 
#
# Total GULP energy -111767.770918 kJ/mol
# GULP energy per Si atom -5588.388546 kJ/mol
# Density = 2.148845 g / cm^3
# Si number density = 21.537474 Si / 1000 Ang^3
#
#
#
# Elastic Constant Matrix: (Units=GPa)
#
#
# Indices 1 2 3 4 5 6 
#
# 1 43.3434 7.0263 19.9598 0.0000 0.0000 -8.4965
# 2 7.0263 43.3434 19.9598 0.0000 0.0000 8.4965
# 3 19.9598 19.9598 60.7788 0.0000 0.0000 0.0000
# 4 0.0000 0.0000 0.0000 26.8851 0.0000 0.0000
# 5 0.0000 0.0000 0.0000 0.0000 26.8851 0.0000
# 6 -8.4965 8.4965 0.0000 0.0000 0.0000 29.7719
#
#
#
# Elastic Compliance Matrix: (Units=1/GPa)
#
#
# Indices 1 2 3 4 5 6 
#
# 1 0.029309 -0.002470 -0.008814 0.000000 0.000000 0.009069
# 2 -0.002470 0.029309 -0.008814 0.000000 0.000000 -0.009069
# 3 -0.008814 -0.008814 0.022242 0.000000 0.000000 0.000000
# 4 0.000000 0.000000 0.000000 0.037195 0.000000 0.000000
# 5 0.000000 0.000000 0.000000 0.000000 0.037195 0.000000
# 6 0.009069 -0.009069 0.000000 0.000000 0.000000 0.038765
#
#
# Mechanical properties :
#
#
# Convention : Reuss Voigt Hill
#
# Bulk Modulus (GPa) = 24.59191 26.81748 25.70470
# Shear Modulus (GPa) = 20.18045 23.40975 21.79510
#
# Velocity S-wave (km/s) = 3.06435 3.30044 3.18459
# Velocity P-wave (km/s) = 4.89524 5.19639 5.04806
#
# Compressibility (1/GPa) = 0.04066377
#
# Stress axis : x y z
#
# Youngs Moduli (GPa) = 34.11977 34.11977 44.96008
#
# Poissons Ratio (x) = 0.08428 0.39627
# Poissons Ratio (y) = 0.08428 0.39627
# Poissons Ratio (z) = 0.30072 0.30072
#
# Static dielectric constant tensor:
#      x y z
#    x 1.793000 0.000000 0.000000 
#    y 0.000000 1.793000 0.000000 
#    z 0.000000 0.000000 1.731130 
# 
# From -- ./inp_files/233.got.cif
#   From: 2010.05.17/outbox.cif.g08.bks.cpg/sg82_1_cif.got.tgz:233.got - 2010.06.03 18:52:26.
