data_PCOD9542779
_publ_section_title
;
Structure prediction by ZEFSAII (Michael W. Deem and Ramdas Pophale) SiO2 
 PCOD9542779
Probable space group: I -4 
;
_chemical_formula_sum "Si O2"
_cell_formula_units_Z 48
_cell_length_a 18.505742
_cell_length_b 18.505742
_cell_length_c 5.465003
_cell_angle_alpha 90.000000
_cell_angle_beta 90.000000
_cell_angle_gamma 90.000000
_cell_volume 1871.558519
_symmetry_space_group_name_H-M "I -4 "
_symmetry_group_IT_number 82
_symmetry_cell_setting 'tetragonal'
loop_
_space_group_symop_operation_xyz
x,y,z
y,-x,-z
-x,-y,z
-y,x,-z
1/2+x,1/2+y,1/2+z
1/2+y,1/2-x,1/2-z
1/2-x,1/2-y,1/2+z
1/2-y,1/2+x,1/2-z
loop_
_atom_site_type_symbol
_atom_site_label
_atom_site_fract_x
_atom_site_fract_y
_atom_site_fract_z
Si Si1 0.491700 0.827381 0.750000
Si Si2 0.802435 0.490300 0.750000
Si Si3 0.842991 0.026616 0.750000
Si Si4 0.827244 0.295298 0.250000
Si Si5 0.253763 0.660695 0.750000
Si Si6 0.444985 0.655208 0.250000
O O1 0.515478 0.852413 0.486359
O O2 0.519259 0.743914 0.750000
O O3 0.406023 0.827007 0.750000
O O4 0.515478 0.852413 0.013641
O O5 0.745286 0.424656 0.750000
O O6 0.744562 0.557476 0.750000
O O7 0.866579 0.986159 0.500690
O O8 0.871081 0.109079 0.750000
O O9 0.866579 0.986159 0.999310
O O10 0.787600 0.318458 0.499628
O O11 0.826344 0.207754 0.250000
O O12 0.787600 0.318458 0.000372
#
# Coordination Sequence:
#
# PCOD9542779 Si02
#       6
#     8   8   8   8   8   8
#     4  10  21  35  55  82 113 146 189 237 292 346
#     4  10  21  35  55  82 113 146 189 237 292 346
#     4  10  21  34  47  68 103 148 191 227 266 318
#     4  10  21  38  59  82 113 157 207 255 298 344
#     4  10  21  38  59  82 113 157 207 255 298 344
#     4  10  21  34  47  68 103 148 191 227 266 318
#
# _framework density 25.647072999999999
#
# number of rings (size 3 to 8) (size 9 to 14) (size 15 to 20)
#    0.000    2.000    0.000    3.000    0.000   12.667 
#    0.000    3.333    0.000    0.000    0.000    0.000 
#    0.000   46.667    0.000    0.000    0.000    0.000 
#
# Total GULP energy -134162.615322 kJ/mol
# GULP energy per Si atom -5590.108972 kJ/mol
# Density = 2.558870 g / cm^3
# Si number density = 25.647073 Si / 1000 Ang^3
#
#
#
# Elastic Constant Matrix: (Units=GPa)
#
#
# Indices 1 2 3 4 5 6 
#
# 1 54.8452 -8.9368 21.0031 0.0000 0.0000 -0.6224
# 2 -8.9368 54.8452 21.0031 0.0000 0.0000 0.6224
# 3 21.0031 21.0031 269.6895 0.0000 0.0000 0.0000
# 4 0.0000 0.0000 0.0000 24.1519 0.0000 0.0000
# 5 0.0000 0.0000 0.0000 0.0000 24.1519 0.0000
# 6 -0.6224 0.6224 0.0000 0.0000 0.0000 20.0838
#
#
#
# Elastic Compliance Matrix: (Units=1/GPa)
#
#
# Indices 1 2 3 4 5 6 
#
# 1 0.019571 0.003883 -0.001827 0.000000 0.000000 0.000486
# 2 0.003883 0.019571 -0.001827 0.000000 0.000000 -0.000486
# 3 -0.001827 -0.001827 0.003992 0.000000 0.000000 0.000000
# 4 0.000000 0.000000 0.000000 0.041405 0.000000 0.000000
# 5 0.000000 0.000000 0.000000 0.000000 0.041405 0.000000
# 6 0.000486 -0.000486 0.000000 0.000000 0.000000 0.049822
#
#
# Mechanical properties :
#
#
# Convention : Reuss Voigt Hill
#
# Bulk Modulus (GPa) = 22.93900 49.50208 36.22054
# Shear Modulus (GPa) = 26.33845 36.76488 31.55166
#
# Velocity S-wave (km/s) = 3.20809 3.79026 3.51126
# Velocity P-wave (km/s) = 4.76298 6.20467 5.53100
#
# Compressibility (1/GPa) = 0.04359389
#
# Stress axis : x y z
#
# Youngs Moduli (GPa) = 51.09638 51.09638 250.47162
#
# Poissons Ratio (x) = -0.19841 0.45750
# Poissons Ratio (y) = -0.19841 0.45750
# Poissons Ratio (z) = 0.09333 0.09333
#
# Static dielectric constant tensor:
#      x y z
#    x 2.024240 0.000000 0.000000 
#    y 0.000000 2.024240 0.000000 
#    z 0.000000 0.000000 2.174810 
# 
# From -- ./inp_files/367.got.cif
#   From: 2010.05.17/outbox.cif.g08.bks.cpg/sg82_1_cif.got.tgz:367.got - 2010.06.03 18:52:26.
