data_PCOD9542273
_publ_section_title
;
Structure prediction by ZEFSAII (Michael W. Deem and Ramdas Pophale) SiO2 
 PCOD9542273
Probable space group: I 41
;
_chemical_formula_sum "Si O2"
_cell_formula_units_Z 40
_cell_length_a 15.366628
_cell_length_b 15.366628
_cell_length_c 6.989644
_cell_angle_alpha 90.000000
_cell_angle_beta 90.000000
_cell_angle_gamma 90.000000
_cell_volume 1650.487397
_symmetry_space_group_name_H-M "I 41"
_symmetry_group_IT_number 80
_symmetry_cell_setting 'tetragonal'
loop_
_space_group_symop_operation_xyz
x,y,z
-y,1/2+x,1/4+z
-x,-y,z
y,1/2-x,1/4+z
1/2+x,1/2+y,1/2+z
1/2-y,x,3/4+z
1/2-x,1/2-y,1/2+z
1/2+y,-x,3/4+z
loop_
_atom_site_type_symbol
_atom_site_label
_atom_site_fract_x
_atom_site_fract_y
_atom_site_fract_z
Si Si1 0.823236 0.648320 0.258290
Si Si2 0.552693 0.130559 0.325999
Si Si3 0.369083 0.056759 0.407008
Si Si4 0.370123 0.762961 0.669549
Si Si5 0.020546 0.287362 0.448427
O O1 0.734944 0.662132 0.376344
O O2 0.827268 0.565183 0.117052
O O3 0.911396 0.640278 0.382113
O O4 0.454785 0.114431 0.399814
O O5 0.606949 0.183510 0.479708
O O6 0.538992 0.176775 0.121951
O O7 0.599832 0.037003 0.331805
O O8 0.290218 0.082380 0.271501
O O9 0.315106 0.684665 0.579790
O O10 0.461156 0.749841 0.779017
#
# Coordination Sequence:
#
# PCOD9542273 Si02
#       5
#     8   8   8   8   8
#     4  12  25  45  75 114 153 203 258 316 390 463
#     4  11  25  49  70 111 149 200 254 316 385 451
#     4  11  24  45  76 103 156 197 252 320 382 456
#     4  12  29  47  77 112 150 202 255 315 380 462
#     4  12  25  48  76 110 152 202 254 318 381 454
#
# _framework density 24.235264000000001
#
# number of rings (size 3 to 8) (size 9 to 14) (size 15 to 20)
#    0.000    0.400    2.000    6.000    8.400    0.000 
#    7.200    0.000    0.000    0.000    0.000    0.000 
#    0.000    0.000    0.000    0.000    0.000    0.000 
#
# Total GULP energy -111873.093655 kJ/mol
# GULP energy per Si atom -5593.654683 kJ/mol
# Density = 2.418010 g / cm^3
# Si number density = 24.235264 Si / 1000 Ang^3
#
#
#
# Elastic Constant Matrix: (Units=GPa)
#
#
# Indices 1 2 3 4 5 6 
#
# 1 65.9989 5.2222 24.9151 0.0000 0.0000 5.5987
# 2 5.2222 65.9989 24.9151 0.0000 0.0000 -5.5987
# 3 24.9151 24.9151 106.6206 0.0000 0.0000 0.0000
# 4 0.0000 0.0000 0.0000 49.0512 0.0000 0.0000
# 5 0.0000 0.0000 0.0000 0.0000 49.0512 0.0000
# 6 5.5987 -5.5987 0.0000 0.0000 0.0000 20.0655
#
#
#
# Elastic Compliance Matrix: (Units=1/GPa)
#
#
# Indices 1 2 3 4 5 6 
#
# 1 0.017065 -0.000280 -0.003922 0.000000 0.000000 -0.004840
# 2 -0.000280 0.017065 -0.003922 0.000000 0.000000 0.004840
# 3 -0.003922 -0.003922 0.011212 0.000000 0.000000 0.000000
# 4 0.000000 0.000000 0.000000 0.020387 0.000000 0.000000
# 5 0.000000 0.000000 0.000000 0.000000 0.020387 0.000000
# 6 -0.004840 0.004840 0.000000 0.000000 0.000000 0.052538
#
#
# Mechanical properties :
#
#
# Convention : Reuss Voigt Hill
#
# Bulk Modulus (GPa) = 34.37258 38.74703 36.55981
# Shear Modulus (GPa) = 30.37647 35.87131 33.12389
#
# Velocity S-wave (km/s) = 3.54418 3.85142 3.70099
# Velocity P-wave (km/s) = 5.56435 5.98335 5.77765
#
# Compressibility (1/GPa) = 0.02909296
#
# Stress axis : x y z
#
# Youngs Moduli (GPa) = 58.59886 58.59886 89.18868
#
# Poissons Ratio (x) = 0.01642 0.34983
# Poissons Ratio (y) = 0.01642 0.34983
# Poissons Ratio (z) = 0.22984 0.22984
#
# Static dielectric constant tensor:
#      x y z
#    x 1.946590 0.000000 0.000000 
#    y 0.000000 1.946590 0.000000 
#    z 0.000000 0.000000 1.938270 
# 
# From -- ./inp_files/185.got.cif
#   From: 2010.05.17/outbox.cif.g08.bks.cpg/sg80_cif.got.tgz:185.got - 2010.06.03 18:49:13.
