data_PCOD9542644
_publ_section_title
;
Structure prediction by ZEFSAII (Michael W. Deem and Ramdas Pophale) SiO2 
 PCOD9542644
Probable space group: I -4 
;
_chemical_formula_sum "Si O2"
_cell_formula_units_Z 64
_cell_length_a 24.201904
_cell_length_b 24.201904
_cell_length_c 6.252241
_cell_angle_alpha 90.000000
_cell_angle_beta 90.000000
_cell_angle_gamma 90.000000
_cell_volume 3662.138608
_symmetry_space_group_name_H-M "I -4 "
_symmetry_group_IT_number 82
_symmetry_cell_setting 'tetragonal'
loop_
_space_group_symop_operation_xyz
x,y,z
y,-x,-z
-x,-y,z
-y,x,-z
1/2+x,1/2+y,1/2+z
1/2+y,1/2-x,1/2-z
1/2-x,1/2-y,1/2+z
1/2-y,1/2+x,1/2-z
loop_
_atom_site_type_symbol
_atom_site_label
_atom_site_fract_x
_atom_site_fract_y
_atom_site_fract_z
Si Si1 0.154591 0.351896 0.453274
Si Si2 0.731111 0.199023 0.898221
Si Si3 0.768181 0.595297 0.813098
Si Si4 0.090157 0.502470 0.808021
Si Si5 0.883337 0.742062 0.724211
Si Si6 0.508424 0.791506 0.432825
Si Si7 0.187980 0.186865 0.448024
Si Si8 0.154596 0.455520 0.180838
O O1 0.183896 0.316906 0.267638
O O2 0.197776 0.368742 0.638808
O O3 0.111780 0.308983 0.557199
O O4 0.133286 0.407874 0.342506
O O5 0.788029 0.181488 0.787779
O O6 0.726291 0.165274 0.113762
O O7 0.724648 0.263012 0.952014
O O8 0.756783 0.540744 0.675541
O O9 0.716395 0.627473 0.915707
O O10 0.809183 0.576060 0.001649
O O11 0.055029 0.449613 0.724062
O O12 0.147304 0.509717 0.677383
O O13 0.108024 0.488435 0.051077
O O14 0.936716 0.740993 0.872543
O O15 0.864554 0.796722 0.593105
O O16 0.494845 0.805833 0.678072
#
# Coordination Sequence:
#
# PCOD9542644 Si02
#       8
#     8   8   8   8   8   8   8   8
#     4  10  19  32  57  78 106 140 178 233 279 354
#     4  11  19  30  53  83 113 135 175 229 290 338
#     4  10  20  38  54  77 105 144 191 222 278 343
#     4  10  24  42  56  72  96 134 206 267 294 328
#     4  11  23  34  52  85 118 142 186 235 290 358
#     4  10  25  38  55  77 111 148 188 238 292 349
#     4  11  19  32  55  83 110 142 183 232 280 350
#     4  10  21  38  58  72  98 145 186 238 300 342
#
# _framework density 17.476127000000002
#
# number of rings (size 3 to 8) (size 9 to 14) (size 15 to 20)
#    0.000    1.625    3.750    0.750    7.000    5.000 
#    0.000    1.250    0.000    0.000    0.000    0.000 
#    0.000    0.500    0.000    0.500    0.000    0.000 
#
# Total GULP energy -178433.086460 kJ/mol
# GULP energy per Si atom -5576.033952 kJ/mol
# Density = 1.743635 g / cm^3
# Si number density = 17.476127 Si / 1000 Ang^3
#
#
#
# Elastic Constant Matrix: (Units=GPa)
#
#
# Indices 1 2 3 4 5 6 
#
# 1 62.1087 29.5859 27.9441 0.0000 0.0000 -0.1634
# 2 29.5859 62.1087 27.9441 0.0000 0.0000 0.1634
# 3 27.9441 27.9441 93.4379 0.0000 0.0000 0.0000
# 4 0.0000 0.0000 0.0000 13.8216 0.0000 0.0000
# 5 0.0000 0.0000 0.0000 0.0000 13.8216 0.0000
# 6 -0.1634 0.1634 0.0000 0.0000 0.0000 23.8889
#
#
#
# Elastic Compliance Matrix: (Units=1/GPa)
#
#
# Indices 1 2 3 4 5 6 
#
# 1 0.022043 -0.008706 -0.003989 0.000000 0.000000 0.000210
# 2 -0.008706 0.022043 -0.003989 0.000000 0.000000 -0.000210
# 3 -0.003989 -0.003989 0.013088 0.000000 0.000000 0.000000
# 4 0.000000 0.000000 0.000000 0.072351 0.000000 0.000000
# 5 0.000000 0.000000 0.000000 0.000000 0.072351 0.000000
# 6 0.000210 -0.000210 0.000000 0.000000 0.000000 0.041863
#
#
# Mechanical properties :
#
#
# Convention : Reuss Voigt Hill
#
# Bulk Modulus (GPa) = 42.00393 43.17815 42.59104
# Shear Modulus (GPa) = 17.54127 19.11850 18.32988
#
# Velocity S-wave (km/s) = 3.17160 3.31112 3.24211
# Velocity P-wave (km/s) = 6.12367 6.27524 6.19992
#
# Compressibility (1/GPa) = 0.02380730
#
# Stress axis : x y z
#
# Youngs Moduli (GPa) = 45.36529 45.36529 76.40593
#
# Poissons Ratio (x) = 0.39497 0.30475
# Poissons Ratio (y) = 0.39497 0.30475
# Poissons Ratio (z) = 0.18094 0.18094
#
# Static dielectric constant tensor:
#      x y z
#    x 1.627630 0.000000 0.000000 
#    y 0.000000 1.627630 0.000000 
#    z 0.000000 0.000000 1.650710 
# 
# From -- ./inp_files/476.got.cif
#   From: 2010.05.17/outbox.cif.g08.bks.cpg/sg82_1_cif.got.tgz:476.got - 2010.06.03 18:52:26.
