data_PCOD9542941
_publ_section_title
;
Structure prediction by ZEFSAII (Michael W. Deem and Ramdas Pophale) SiO2 
 PCOD9542941
Probable space group: I -4 
;
_chemical_formula_sum "Si O2"
_cell_formula_units_Z 40
_cell_length_a 14.476725
_cell_length_b 14.476725
_cell_length_c 9.210430
_cell_angle_alpha 90.000000
_cell_angle_beta 90.000000
_cell_angle_gamma 90.000000
_cell_volume 1930.281087
_symmetry_space_group_name_H-M "I -4 "
_symmetry_group_IT_number 82
_symmetry_cell_setting 'tetragonal'
loop_
_space_group_symop_operation_xyz
x,y,z
y,-x,-z
-x,-y,z
-y,x,-z
1/2+x,1/2+y,1/2+z
1/2+y,1/2-x,1/2-z
1/2-x,1/2-y,1/2+z
1/2-y,1/2+x,1/2-z
loop_
_atom_site_type_symbol
_atom_site_label
_atom_site_fract_x
_atom_site_fract_y
_atom_site_fract_z
Si Si1 0.403843 0.610903 0.031376
Si Si2 0.425081 0.134029 0.742249
Si Si3 0.767002 0.569776 0.743601
Si Si4 0.699193 0.781344 0.992626
Si Si5 0.884169 0.692037 0.922384
O O1 0.416413 0.667929 0.180489
O O2 0.317588 0.660133 0.953243
O O3 0.502346 0.617061 0.950635
O O4 0.532649 0.119509 0.774260
O O5 0.372928 0.184204 0.872790
O O6 0.414026 0.185126 0.589291
O O7 0.785827 0.644776 0.618296
O O8 0.843352 0.594211 0.865827
O O9 0.779095 0.469299 0.676778
O O10 0.797060 0.760353 0.917465
#
# Coordination Sequence:
#
# PCOD9542941 Si02
#       5
#     8   8   8   8   8
#     4  10  23  44  68  99 139 186 235 286 350 422
#     4  11  25  44  69 100 142 182 231 294 364 419
#     4  11  24  44  70 101 135 177 238 290 344 424
#     4  11  24  47  69 101 138 182 236 292 354 418
#     4  11  24  42  68 100 135 182 225 295 347 417
#
# _framework density 20.722370000000002
#
# number of rings (size 3 to 8) (size 9 to 14) (size 15 to 20)
#    0.000    1.200    2.000    3.600    8.400    2.000 
#    3.600    0.000    0.000    0.000    0.000    0.000 
#    0.000    0.000    0.000    0.000    0.000    0.000 
#
# Total GULP energy -111844.801517 kJ/mol
# GULP energy per Si atom -5592.240076 kJ/mol
# Density = 2.067521 g / cm^3
# Si number density = 20.722370 Si / 1000 Ang^3
#
#
#
# Elastic Constant Matrix: (Units=GPa)
#
#
# Indices 1 2 3 4 5 6 
#
# 1 111.9296 49.8965 28.3106 0.0000 0.0000 4.4248
# 2 49.8965 111.9296 28.3106 0.0000 0.0000 -4.4248
# 3 28.3106 28.3106 88.5466 0.0000 0.0000 0.0000
# 4 0.0000 0.0000 0.0000 37.4943 0.0000 0.0000
# 5 0.0000 0.0000 0.0000 0.0000 37.4943 0.0000
# 6 4.4248 -4.4248 0.0000 0.0000 0.0000 20.5437
#
#
#
# Elastic Compliance Matrix: (Units=1/GPa)
#
#
# Indices 1 2 3 4 5 6 
#
# 1 0.011795 -0.004837 -0.002225 0.000000 0.000000 -0.003582
# 2 -0.004837 0.011795 -0.002225 0.000000 0.000000 0.003582
# 3 -0.002225 -0.002225 0.012716 0.000000 0.000000 0.000000
# 4 0.000000 0.000000 0.000000 0.026671 0.000000 0.000000
# 5 0.000000 0.000000 0.000000 0.000000 0.026671 0.000000
# 6 -0.003582 0.003582 0.000000 0.000000 0.000000 0.050220
#
#
# Mechanical properties :
#
#
# Convention : Reuss Voigt Hill
#
# Bulk Modulus (GPa) = 56.39109 58.38234 57.38672
# Shear Modulus (GPa) = 30.42296 32.83236 31.62766
#
# Velocity S-wave (km/s) = 3.83576 3.98476 3.91097
# Velocity P-wave (km/s) = 6.84757 7.02893 6.93884
#
# Compressibility (1/GPa) = 0.01773330
#
# Stress axis : x y z
#
# Youngs Moduli (GPa) = 84.78427 84.78427 78.64104
#
# Poissons Ratio (x) = 0.41009 0.17494
# Poissons Ratio (y) = 0.41009 0.17494
# Poissons Ratio (z) = 0.18861 0.18861
#
# Static dielectric constant tensor:
#      x y z
#    x 1.741520 0.000000 0.000000 
#    y 0.000000 1.741520 0.000000 
#    z 0.000000 0.000000 1.736570 
# 
# From -- ./inp_files/921.got.cif
#   From: 2010.05.17/outbox.cif.g08.bks.cpg/sg82_1_cif.got.tgz:921.got - 2010.06.03 18:52:26.
