data_PCOD9542113
_publ_section_title
;
Structure prediction by ZEFSAII (Michael W. Deem and Ramdas Pophale) SiO2 
 PCOD9542113
Probable space group: I 41
;
_chemical_formula_sum "Si O2"
_cell_formula_units_Z 44
_cell_length_a 19.249249
_cell_length_b 19.249249
_cell_length_c 4.917757
_cell_angle_alpha 90.000000
_cell_angle_beta 90.000000
_cell_angle_gamma 90.000000
_cell_volume 1822.194142
_symmetry_space_group_name_H-M "I 41"
_symmetry_group_IT_number 80
_symmetry_cell_setting 'tetragonal'
loop_
_space_group_symop_operation_xyz
x,y,z
-y,1/2+x,1/4+z
-x,-y,z
y,1/2-x,1/4+z
1/2+x,1/2+y,1/2+z
1/2-y,x,3/4+z
1/2-x,1/2-y,1/2+z
1/2+y,-x,3/4+z
loop_
_atom_site_type_symbol
_atom_site_label
_atom_site_fract_x
_atom_site_fract_y
_atom_site_fract_z
Si Si1 0.779560 0.147435 0.636820
Si Si2 0.029304 0.808556 0.855464
Si Si3 0.623122 0.084887 0.096465
Si Si4 0.500000 0.000000 0.989242
Si Si5 0.602190 0.616489 0.532447
Si Si6 0.818443 0.834916 0.563695
O O1 0.817094 0.206394 0.811290
O O2 0.759040 0.069159 0.719824
O O3 0.834246 0.134002 0.396095
O O4 0.068003 0.868029 0.031195
O O5 0.950379 0.824520 0.918406
O O6 0.046552 0.820332 0.539196
O O7 0.550892 0.048278 0.168555
O O8 0.547750 0.944531 0.825895
O O9 0.664455 0.613506 0.314737
O O10 0.631161 0.641853 0.820437
O O11 0.831849 0.758151 0.685225
#
# Coordination Sequence:
#
# PCOD9542113 Si02
#       6
#     8   8   8   4   8   8
#     4  10  20  37  63  93 131 176 218 265 332 402
#     4  10  22  40  61  95 133 167 225 281 322 398
#     4  10  22  39  63  89 128 178 220 277 328 385
#     4  10  24  46  68 100 140 180 234 282 334 416
#     4  11  24  44  74 101 138 186 226 282 358 421
#     4  12  26  49  75 106 140 177 232 302 361 420
#
# _framework density 24.146712999999998
#
# number of rings (size 3 to 8) (size 9 to 14) (size 15 to 20)
#    0.000    1.455    0.000    5.455    0.000   12.364 
#    0.000   20.000    0.000    0.000    0.000    0.000 
#    0.000    0.000    0.000    0.000    0.000    0.000 
#
# Total GULP energy -122732.781283 kJ/mol
# GULP energy per Si atom -5578.762786 kJ/mol
# Density = 2.409175 g / cm^3
# Si number density = 24.146713 Si / 1000 Ang^3
#
#
#
# Elastic Constant Matrix: (Units=GPa)
#
#
# Indices 1 2 3 4 5 6 
#
# 1 87.4085 50.4134 39.2252 0.0000 0.0000 1.3234
# 2 50.4134 87.4085 39.2252 0.0000 0.0000 -1.3234
# 3 39.2252 39.2252 114.1697 0.0000 0.0000 0.0000
# 4 0.0000 0.0000 0.0000 26.8262 0.0000 0.0000
# 5 0.0000 0.0000 0.0000 0.0000 26.8262 0.0000
# 6 1.3234 -1.3234 0.0000 0.0000 0.0000 49.9499
#
#
#
# Elastic Compliance Matrix: (Units=1/GPa)
#
#
# Indices 1 2 3 4 5 6 
#
# 1 0.018051 -0.009031 -0.003099 0.000000 0.000000 -0.000718
# 2 -0.009031 0.018051 -0.003099 0.000000 0.000000 0.000718
# 3 -0.003099 -0.003099 0.010888 0.000000 0.000000 0.000000
# 4 0.000000 0.000000 0.000000 0.037277 0.000000 0.000000
# 5 0.000000 0.000000 0.000000 0.000000 0.037277 0.000000
# 6 -0.000718 0.000718 0.000000 0.000000 0.000000 0.020058
#
#
# Mechanical properties :
#
#
# Convention : Reuss Voigt Hill
#
# Bulk Modulus (GPa) = 60.48851 60.74605 60.61728
# Shear Modulus (GPa) = 28.15784 31.39530 29.77657
#
# Velocity S-wave (km/s) = 3.41855 3.60973 3.51544
# Velocity P-wave (km/s) = 6.37862 6.52573 6.45259
#
# Compressibility (1/GPa) = 0.01653207
#
# Stress axis : x y z
#
# Youngs Moduli (GPa) = 55.39918 55.39918 91.84203
#
# Poissons Ratio (x) = 0.50032 0.28461
# Poissons Ratio (y) = 0.50032 0.28461
# Poissons Ratio (z) = 0.17168 0.17168
#
# Static dielectric constant tensor:
#      x y z
#    x 1.976020 0.000000 0.000000 
#    y 0.000000 1.976020 0.000000 
#    z 0.000000 0.000000 1.939580 
# 
# From -- ./inp_files/266.got.cif
#   From: 2010.05.17/outbox.cif.g08.bks.cpg/sg80_cif.got.tgz:266.got - 2010.06.03 18:49:13.
