data_PCOD9542167
_publ_section_title
;
Structure prediction by ZEFSAII (Michael W. Deem and Ramdas Pophale) SiO2 
 PCOD9542167
Probable space group: I 41
;
_chemical_formula_sum "Si O2"
_cell_formula_units_Z 52
_cell_length_a 17.280174
_cell_length_b 17.280174
_cell_length_c 9.283643
_cell_angle_alpha 90.000000
_cell_angle_beta 90.000000
_cell_angle_gamma 90.000000
_cell_volume 2772.136773
_symmetry_space_group_name_H-M "I 41"
_symmetry_group_IT_number 80
_symmetry_cell_setting 'tetragonal'
loop_
_space_group_symop_operation_xyz
x,y,z
-y,1/2+x,1/4+z
-x,-y,z
y,1/2-x,1/4+z
1/2+x,1/2+y,1/2+z
1/2-y,x,3/4+z
1/2-x,1/2-y,1/2+z
1/2+y,-x,3/4+z
loop_
_atom_site_type_symbol
_atom_site_label
_atom_site_fract_x
_atom_site_fract_y
_atom_site_fract_z
Si Si1 0.438161 0.849581 0.244150
Si Si2 0.171789 0.399018 0.967820
Si Si3 0.957954 0.724954 0.976397
Si Si4 0.543091 0.298780 0.044194
Si Si5 0.967704 0.834130 0.249414
Si Si6 0.292796 0.310166 0.764518
Si Si7 0.000000 0.500000 0.594262
O O1 0.470480 0.812399 0.390716
O O2 0.442103 0.782292 0.123428
O O3 0.352613 0.882761 0.269766
O O4 0.490830 0.922575 0.191960
O O5 0.222375 0.415377 0.107739
O O6 0.100182 0.345517 0.008600
O O7 0.154213 0.481372 0.893371
O O8 0.227181 0.356793 0.850557
O O9 0.977627 0.779398 0.111280
O O10 0.503161 0.291147 0.888330
O O11 0.876435 0.846953 0.273622
O O12 0.000761 0.921227 0.250950
O O13 0.269820 0.298742 0.600490
#
# Coordination Sequence:
#
# PCOD9542167 Si02
#       7
#     8   8   8   8   8   8   4
#     4  10  22  43  65  87 116 164 208 256 306 379
#     4  11  20  35  55  85 126 167 194 238 304 390
#     4  11  23  34  55  90 124 156 201 252 311 362
#     4  10  21  43  66  84 116 161 215 250 307 371
#     4  11  23  37  59  90 121 161 208 261 299 371
#     4  12  22  33  55  89 126 163 198 245 307 380
#     4  10  22  42  66  86 122 174 210 236 312 388
#
# _framework density 18.758092000000001
#
# number of rings (size 3 to 8) (size 9 to 14) (size 15 to 20)
#    0.000    1.231    3.077    4.615    2.154    0.000 
#    0.000   12.308    0.000    0.923    0.000    0.000 
#    0.000    0.000    0.000    0.000    0.000    0.000 
#
# Total GULP energy -145162.302252 kJ/mol
# GULP energy per Si atom -5583.165471 kJ/mol
# Density = 1.871540 g / cm^3
# Si number density = 18.758092 Si / 1000 Ang^3
#
#
#
# Elastic Constant Matrix: (Units=GPa)
#
#
# Indices 1 2 3 4 5 6 
#
# 1 84.6540 34.2288 37.1533 0.0000 0.0000 -0.2099
# 2 34.2288 84.6540 37.1533 0.0000 0.0000 0.2099
# 3 37.1533 37.1533 85.4724 0.0000 0.0000 0.0000
# 4 0.0000 0.0000 0.0000 24.6636 0.0000 0.0000
# 5 0.0000 0.0000 0.0000 0.0000 24.6636 0.0000
# 6 -0.2099 0.2099 0.0000 0.0000 0.0000 30.5550
#
#
#
# Elastic Compliance Matrix: (Units=1/GPa)
#
#
# Indices 1 2 3 4 5 6 
#
# 1 0.015691 -0.004141 -0.005020 0.000000 0.000000 0.000136
# 2 -0.004141 0.015691 -0.005020 0.000000 0.000000 -0.000136
# 3 -0.005020 -0.005020 0.016064 0.000000 0.000000 0.000000
# 4 0.000000 0.000000 0.000000 0.040546 0.000000 0.000000
# 5 0.000000 0.000000 0.000000 0.000000 0.040546 0.000000
# 6 0.000136 -0.000136 0.000000 0.000000 0.000000 0.032730
#
#
# Mechanical properties :
#
#
# Convention : Reuss Voigt Hill
#
# Bulk Modulus (GPa) = 52.40587 52.42791 52.41689
# Shear Modulus (GPa) = 25.51122 25.72612 25.61867
#
# Velocity S-wave (km/s) = 3.69183 3.70735 3.69960
# Velocity P-wave (km/s) = 6.79494 6.80706 6.80101
#
# Compressibility (1/GPa) = 0.01908183
#
# Stress axis : x y z
#
# Youngs Moduli (GPa) = 63.73061 63.73061 62.25009
#
# Poissons Ratio (x) = 0.26394 0.31252
# Poissons Ratio (y) = 0.26394 0.31252
# Poissons Ratio (z) = 0.31995 0.31995
#
# Static dielectric constant tensor:
#      x y z
#    x 1.677850 0.000000 0.000000 
#    y 0.000000 1.677850 0.000000 
#    z 0.000000 0.000000 1.650470 
# 
# From -- ./inp_files/712.got.cif
#   From: 2010.05.17/outbox.cif.g08.bks.cpg/sg80_cif.got.tgz:712.got - 2010.06.03 18:49:13.
