data_PCOD9542669
_publ_section_title
;
Structure prediction by ZEFSAII (Michael W. Deem and Ramdas Pophale) SiO2 
 PCOD9542669
Probable space group: I -4 
;
_chemical_formula_sum "Si O2"
_cell_formula_units_Z 40
_cell_length_a 16.204792
_cell_length_b 16.204792
_cell_length_c 6.709972
_cell_angle_alpha 90.000000
_cell_angle_beta 90.000000
_cell_angle_gamma 90.000000
_cell_volume 1762.007001
_symmetry_space_group_name_H-M "I -4 "
_symmetry_group_IT_number 82
_symmetry_cell_setting 'tetragonal'
loop_
_space_group_symop_operation_xyz
x,y,z
y,-x,-z
-x,-y,z
-y,x,-z
1/2+x,1/2+y,1/2+z
1/2+y,1/2-x,1/2-z
1/2-x,1/2-y,1/2+z
1/2-y,1/2+x,1/2-z
loop_
_atom_site_type_symbol
_atom_site_label
_atom_site_fract_x
_atom_site_fract_y
_atom_site_fract_z
Si Si1 0.817840 0.672109 0.550262
Si Si2 0.672610 0.600569 0.291226
Si Si3 0.650077 0.291930 0.107736
Si Si4 0.372112 0.952136 0.730756
Si Si5 0.697945 0.428581 0.432946
O O1 0.759174 0.628045 0.388067
O O2 0.791410 0.640246 0.766743
O O3 0.790162 0.767008 0.525856
O O4 0.910015 0.657956 0.475494
O O5 0.652778 0.514688 0.396660
O O6 0.607368 0.670834 0.354180
O O7 0.684634 0.583967 0.057497
O O8 0.665230 0.361598 0.273340
O O9 0.454050 0.901854 0.794840
O O10 0.294971 0.941111 0.882699
#
# Coordination Sequence:
#
# PCOD9542669 Si02
#       5
#     8   8   8   8   8
#     4  10  19  36  63  98 127 182 225 274 341 410
#     4  11  22  42  65  96 134 177 232 285 341 417
#     4  10  21  37  66  95 131 176 231 281 336 411
#     4  10  20  39  69 103 144 181 223 291 358 419
#     4  10  24  40  66 100 132 183 228 284 349 412
#
# _framework density 22.701384999999998
#
# number of rings (size 3 to 8) (size 9 to 14) (size 15 to 20)
#    0.000    1.800    4.000    0.000    0.000    3.600 
#    0.000    0.000    0.000    0.000    0.000    0.000 
#    0.000    0.000    0.000    0.000    0.000    0.000 
#
# Total GULP energy -111681.188566 kJ/mol
# GULP energy per Si atom -5584.059428 kJ/mol
# Density = 2.264972 g / cm^3
# Si number density = 22.701385 Si / 1000 Ang^3
#
#
#
# Elastic Constant Matrix: (Units=GPa)
#
#
# Indices 1 2 3 4 5 6 
#
# 1 88.0047 25.8914 24.9144 0.0000 0.0000 0.7349
# 2 25.8914 88.0047 24.9144 0.0000 0.0000 -0.7349
# 3 24.9144 24.9144 101.1120 0.0000 0.0000 0.0000
# 4 0.0000 0.0000 0.0000 21.9748 0.0000 0.0000
# 5 0.0000 0.0000 0.0000 0.0000 21.9748 0.0000
# 6 0.7349 -0.7349 0.0000 0.0000 0.0000 29.9083
#
#
#
# Elastic Compliance Matrix: (Units=1/GPa)
#
#
# Indices 1 2 3 4 5 6 
#
# 1 0.012975 -0.003134 -0.002425 0.000000 0.000000 -0.000396
# 2 -0.003134 0.012975 -0.002425 0.000000 0.000000 0.000396
# 3 -0.002425 -0.002425 0.011085 0.000000 0.000000 0.000000
# 4 0.000000 0.000000 0.000000 0.045507 0.000000 0.000000
# 5 0.000000 0.000000 0.000000 0.000000 0.045507 0.000000
# 6 -0.000396 0.000396 0.000000 0.000000 0.000000 0.033455
#
#
# Mechanical properties :
#
#
# Convention : Reuss Voigt Hill
#
# Bulk Modulus (GPa) = 47.46692 47.61797 47.54244
# Shear Modulus (GPa) = 27.10131 28.19833 27.64982
#
# Velocity S-wave (km/s) = 3.45891 3.52823 3.49374
# Velocity P-wave (km/s) = 6.07509 6.13345 6.10434
#
# Compressibility (1/GPa) = 0.02106731
#
# Stress axis : x y z
#
# Youngs Moduli (GPa) = 77.07205 77.07205 90.21209
#
# Poissons Ratio (x) = 0.24155 0.21875
# Poissons Ratio (y) = 0.24155 0.21875
# Poissons Ratio (z) = 0.18688 0.18688
#
# Static dielectric constant tensor:
#      x y z
#    x 1.889730 0.000000 0.000000 
#    y 0.000000 1.889730 0.000000 
#    z 0.000000 0.000000 1.872920 
# 
# From -- ./inp_files/219.got.cif
#   From: 2010.05.17/outbox.cif.g08.bks.cpg/sg82_1_cif.got.tgz:219.got - 2010.06.03 18:52:26.
