data_PCOD9542894
_publ_section_title
;
Structure prediction by ZEFSAII (Michael W. Deem and Ramdas Pophale) SiO2 
 PCOD9542894
Probable space group: I -4 
;
_chemical_formula_sum "Si O2"
_cell_formula_units_Z 48
_cell_length_a 7.963606
_cell_length_b 7.963606
_cell_length_c 32.620191
_cell_angle_alpha 90.000000
_cell_angle_beta 90.000000
_cell_angle_gamma 90.000000
_cell_volume 2068.740563
_symmetry_space_group_name_H-M "I -4 "
_symmetry_group_IT_number 82
_symmetry_cell_setting 'tetragonal'
loop_
_space_group_symop_operation_xyz
x,y,z
y,-x,-z
-x,-y,z
-y,x,-z
1/2+x,1/2+y,1/2+z
1/2+y,1/2-x,1/2-z
1/2-x,1/2-y,1/2+z
1/2-y,1/2+x,1/2-z
loop_
_atom_site_type_symbol
_atom_site_label
_atom_site_fract_x
_atom_site_fract_y
_atom_site_fract_z
Si Si1 0.740229 0.077502 0.989559
Si Si2 0.500000 0.500000 0.185186
Si Si3 0.747429 0.373014 0.748848
Si Si4 0.034942 0.313273 0.106551
Si Si5 0.809203 0.388806 0.866081
Si Si6 0.398133 0.329440 0.336646
Si Si7 0.500000 0.000000 0.055194
O O1 0.601306 0.115566 0.023042
O O2 0.800587 0.895343 0.004705
O O3 0.696896 0.063453 0.942046
O O4 0.373870 0.402587 0.217750
O O5 0.508712 0.334204 0.154395
O O6 0.788793 0.572587 0.741104
O O7 0.697132 0.296060 0.705040
O O8 0.203896 0.269027 0.130192
O O9 0.000000 0.500000 0.118574
O O10 0.881691 0.197436 0.121882
O O11 0.986202 0.333439 0.844376
O O12 0.865197 0.429860 0.912219
O O13 0.500000 0.500000 0.327568
#
# Coordination Sequence:
#
# PCOD9542894 Si02
#       7
#     8   4   8   8   8   8   4
#     4  11  23  43  69 101 135 185 239 286 354 429
#     4  12  26  44  70 101 146 184 245 300 354 436
#     4  11  24  43  68  99 137 192 235 285 360 430
#     4  11  24  43  71 103 138 181 239 299 360 428
#     4  11  26  43  65 105 137 193 232 290 369 415
#     4  10  22  43  68  97 136 180 240 292 353 425
#     4  12  24  44  70  99 148 184 235 298 350 438
#
# _framework density 23.202525000000001
#
# number of rings (size 3 to 8) (size 9 to 14) (size 15 to 20)
#    0.000    1.000    5.000    1.000    9.333    1.333 
#    0.000    0.000    0.000    0.000    0.000    0.000 
#    0.000    0.000    0.000    0.000    0.000    0.000 
#
# Total GULP energy -133646.698683 kJ/mol
# GULP energy per Si atom -5568.612445 kJ/mol
# Density = 2.314971 g / cm^3
# Si number density = 23.202525 Si / 1000 Ang^3
#
#
#
# Elastic Constant Matrix: (Units=GPa)
#
#
# Indices 1 2 3 4 5 6 
#
# 1 80.7762 19.5303 17.8691 0.0000 0.0000 -7.0104
# 2 19.5303 80.7762 17.8691 0.0000 0.0000 7.0104
# 3 17.8691 17.8691 150.1316 0.0000 0.0000 0.0000
# 4 0.0000 0.0000 0.0000 18.4655 0.0000 0.0000
# 5 0.0000 0.0000 0.0000 0.0000 18.4654 0.0000
# 6 -7.0104 7.0104 0.0000 0.0000 0.0000 6.7332
#
#
#
# Elastic Compliance Matrix: (Units=1/GPa)
#
#
# Indices 1 2 3 4 5 6 
#
# 1 0.015924 -0.005513 -0.001239 0.000000 0.000000 0.022320
# 2 -0.005513 0.015924 -0.001239 0.000000 0.000000 -0.022320
# 3 -0.001239 -0.001239 0.006956 0.000000 0.000000 0.000000
# 4 0.000000 0.000000 0.000000 0.054155 0.000000 0.000000
# 5 0.000000 0.000000 0.000000 0.000000 0.054155 0.000000
# 6 0.022320 -0.022320 0.000000 0.000000 0.000000 0.194996
#
#
# Mechanical properties :
#
#
# Convention : Reuss Voigt Hill
#
# Bulk Modulus (GPa) = 43.81909 46.91346 45.36627
# Shear Modulus (GPa) = 13.67238 25.82718 19.74978
#
# Velocity S-wave (km/s) = 2.43011 3.33996 2.92068
# Velocity P-wave (km/s) = 5.17691 5.92763 5.56494
#
# Compressibility (1/GPa) = 0.02282110
#
# Stress axis : x y z
#
# Youngs Moduli (GPa) = 62.79784 62.79784 143.76504
#
# Poissons Ratio (x) = 0.34622 0.17815
# Poissons Ratio (y) = 0.34622 0.17815
# Poissons Ratio (z) = 0.07782 0.07782
#
# Static dielectric constant tensor:
#      x y z
#    x 1.907700 0.000000 0.000000 
#    y 0.000000 1.907700 0.000000 
#    z 0.000000 0.000000 2.017170 
# 
# From -- ./inp_files/4073.got.cif
#   From: 2010.05.17/outbox.cif.g08.bks.cpg/sg82_3_cif.got.tgz:4073.got - 2010.06.03 18:52:26.
