data_PCOD9542320
_publ_section_title
;
Structure prediction by ZEFSAII (Michael W. Deem and Ramdas Pophale) SiO2 
 PCOD9542320
Probable space group: P -4
;
_chemical_formula_sum "Si O2"
_cell_formula_units_Z 12
_cell_length_a 8.727479
_cell_length_b 8.727479
_cell_length_c 8.653323
_cell_angle_alpha 90.000000
_cell_angle_beta 90.000000
_cell_angle_gamma 90.000000
_cell_volume 659.114005
_symmetry_space_group_name_H-M "P -4"
_symmetry_group_IT_number 81
_symmetry_cell_setting 'tetragonal'
loop_
_space_group_symop_operation_xyz
x,y,z
y,-x,-z
-x,-y,z
-y,x,-z
loop_
_atom_site_type_symbol
_atom_site_label
_atom_site_fract_x
_atom_site_fract_y
_atom_site_fract_z
Si Si1 0.500000 0.000000 0.305665
Si Si2 0.000000 0.000000 0.000000
Si Si3 0.165043 0.201162 0.756470
Si Si4 0.265944 0.581405 0.466795
Si Si5 0.000000 0.000000 0.500000
O O1 0.633580 0.087539 0.214457
O O2 0.420872 0.123675 0.417973
O O3 0.913026 0.125317 0.104986
O O4 0.337883 0.226380 0.695708
O O5 0.082201 0.123562 0.608657
O O6 0.406537 0.676392 0.541663
#
# Coordination Sequence:
#
# PCOD9542320 Si02
#       5
#     2   1   4   4   1
#     4  10  18  32  58  82 106 136 186 238 266 306
#     4  10  24  34  52  78 120 150 176 210 276 342
#     4  10  19  35  52  80 109 143 180 223 271 321
#     4   9  18  31  53  84 108 134 182 238 269 304
#     4  10  16  30  56  78 100 134 188 230 252 298
#
# _framework density 18.206257999999998
#
# number of rings (size 3 to 8) (size 9 to 14) (size 15 to 20)
#    0.000    2.333    3.333    0.000    0.000    0.000 
#    0.000    5.000    0.000    0.000    0.000    0.000 
#    0.000    0.000    0.000    0.000    0.000    0.000 
#
# Total GULP energy -66859.212166 kJ/mol
# GULP energy per Si atom -5571.601014 kJ/mol
# Density = 1.816482 g / cm^3
# Si number density = 18.206258 Si / 1000 Ang^3
#
#
#
# Elastic Constant Matrix: (Units=GPa)
#
#
# Indices 1 2 3 4 5 6 
#
# 1 74.4936 15.0227 26.3908 0.0000 0.0000 -1.5170
# 2 15.0227 74.4936 26.3908 0.0000 0.0000 1.5170
# 3 26.3908 26.3908 65.7704 0.0000 0.0000 0.0000
# 4 0.0000 0.0000 0.0000 17.5740 0.0000 0.0000
# 5 0.0000 0.0000 0.0000 0.0000 17.5740 0.0000
# 6 -1.5170 1.5170 0.0000 0.0000 0.0000 18.4791
#
#
#
# Elastic Compliance Matrix: (Units=1/GPa)
#
#
# Indices 1 2 3 4 5 6 
#
# 1 0.015759 -0.001126 -0.005872 0.000000 0.000000 0.001386
# 2 -0.001126 0.015759 -0.005872 0.000000 0.000000 -0.001386
# 3 -0.005872 -0.005872 0.019917 0.000000 0.000000 0.000000
# 4 0.000000 0.000000 0.000000 0.056902 0.000000 0.000000
# 5 0.000000 0.000000 0.000000 0.000000 0.056902 0.000000
# 6 0.001386 -0.001386 0.000000 0.000000 0.000000 0.054343
#
#
# Mechanical properties :
#
#
# Convention : Reuss Voigt Hill
#
# Bulk Modulus (GPa) = 38.91613 38.92959 38.92286
# Shear Modulus (GPa) = 19.69375 20.52228 20.10801
#
# Velocity S-wave (km/s) = 3.29249 3.36104 3.32694
# Velocity P-wave (km/s) = 5.98962 6.04078 6.01526
#
# Compressibility (1/GPa) = 0.02569629
#
# Stress axis : x y z
#
# Youngs Moduli (GPa) = 63.45385 63.45385 50.20947
#
# Poissons Ratio (x) = 0.07146 0.29482
# Poissons Ratio (y) = 0.07146 0.29482
# Poissons Ratio (z) = 0.37258 0.37258
#
# Static dielectric constant tensor:
#      x y z
#    x 1.662220 0.000000 0.000000 
#    y 0.000000 1.662220 0.000000 
#    z 0.000000 0.000000 1.587210 
# 
# From -- ./inp_files/512.got.cif
#   From: 2010.05.17/outbox.cif.g08.bks.cpg/sg81_cif.got.tgz:512.got - 2010.06.03 18:51:07.
