data_PCOD9542512
_publ_section_title
;
Structure prediction by ZEFSAII (Michael W. Deem and Ramdas Pophale) SiO2 
 PCOD9542512
Probable space group: P -4
;
_chemical_formula_sum "Si O2"
_cell_formula_units_Z 14
_cell_length_a 6.937260
_cell_length_b 6.937260
_cell_length_c 10.921319
_cell_angle_alpha 90.000000
_cell_angle_beta 90.000000
_cell_angle_gamma 90.000000
_cell_volume 525.594771
_symmetry_space_group_name_H-M "P -4"
_symmetry_group_IT_number 81
_symmetry_cell_setting 'tetragonal'
loop_
_space_group_symop_operation_xyz
x,y,z
y,-x,-z
-x,-y,z
-y,x,-z
loop_
_atom_site_type_symbol
_atom_site_label
_atom_site_fract_x
_atom_site_fract_y
_atom_site_fract_z
Si Si1 0.889966 0.777946 0.081991
Si Si2 0.785329 0.148126 0.286045
Si Si3 0.000000 0.000000 0.500000
Si Si4 0.291676 0.634339 0.723137
Si Si5 0.500000 0.500000 0.500000
O O1 0.741120 0.639306 0.151988
O O2 0.759178 0.960151 0.032154
O O3 0.050342 0.805608 0.188009
O O4 0.894870 0.157439 0.415108
O O5 0.595608 0.271951 0.262640
O O6 0.712533 0.926353 0.288109
O O7 0.401138 0.651740 0.593610
#
# Coordination Sequence:
#
# PCOD9542512 Si02
#       5
#     4   4   1   4   1
#     4  11  19  45  77 110 140 187 266 310 381 464
#     4  11  22  37  73 105 136 199 244 313 376 446
#     4  12  16  36  62 104 136 184 256 286 372 456
#     4  11  23  43  66 103 154 199 242 318 372 461
#     4  12  28  48  60 114 172 196 256 306 408 472
#
# _framework density 26.636492000000001
#
# number of rings (size 3 to 8) (size 9 to 14) (size 15 to 20)
#    0.000    0.857    8.571    1.714    0.000    0.000 
#    0.000    5.714    0.000    0.000    0.000    0.000 
#    0.000    0.000    0.000    0.000    0.000    0.000 
#
# Total GULP energy -77933.961441 kJ/mol
# GULP energy per Si atom -5566.711531 kJ/mol
# Density = 2.657587 g / cm^3
# Si number density = 26.636492 Si / 1000 Ang^3
#
#
#
# Elastic Constant Matrix: (Units=GPa)
#
#
# Indices 1 2 3 4 5 6 
#
# 1 116.3890 30.6339 63.8502 0.0000 0.0000 -12.8271
# 2 30.6339 116.3890 63.8502 0.0000 0.0000 12.8271
# 3 63.8502 63.8502 219.8419 0.0000 0.0000 0.0000
# 4 0.0000 0.0000 0.0000 45.7847 0.0000 0.0000
# 5 0.0000 0.0000 0.0000 0.0000 45.7847 0.0000
# 6 -12.8271 12.8271 0.0000 0.0000 0.0000 28.1649
#
#
#
# Elastic Compliance Matrix: (Units=1/GPa)
#
#
# Indices 1 2 3 4 5 6 
#
# 1 0.011298 -0.002202 -0.002642 0.000000 0.000000 0.006148
# 2 -0.002202 0.011298 -0.002642 0.000000 0.000000 -0.006148
# 3 -0.002642 -0.002642 0.006083 0.000000 0.000000 0.000000
# 4 0.000000 0.000000 0.000000 0.021841 0.000000 0.000000
# 5 0.000000 0.000000 0.000000 0.000000 0.021841 0.000000
# 6 0.006148 -0.006148 0.000000 0.000000 0.000000 0.041106
#
#
# Mechanical properties :
#
#
# Convention : Reuss Voigt Hill
#
# Bulk Modulus (GPa) = 72.94798 85.47649 79.21224
# Shear Modulus (GPa) = 37.59122 43.56589 40.57856
#
# Velocity S-wave (km/s) = 3.76076 4.04861 3.90734
# Velocity P-wave (km/s) = 6.80468 7.34946 7.08231
#
# Compressibility (1/GPa) = 0.01370840
#
# Stress axis : x y z
#
# Youngs Moduli (GPa) = 88.50798 88.50798 164.38332
#
# Poissons Ratio (x) = 0.19490 0.43429
# Poissons Ratio (y) = 0.19490 0.43429
# Poissons Ratio (z) = 0.23383 0.23383
#
# Static dielectric constant tensor:
#      x y z
#    x 2.185260 0.000000 0.000000 
#    y 0.000000 2.185260 0.000000 
#    z 0.000000 0.000000 2.177130 
# 
# From -- ./inp_files/626.got.cif
#   From: 2010.05.17/outbox.cif.g08.bks.cpg/sg81_cif.got.tgz:626.got - 2010.06.03 18:51:07.
