data_PCOD9542133
_publ_section_title
;
Structure prediction by ZEFSAII (Michael W. Deem and Ramdas Pophale) SiO2 
 PCOD9542133
Probable space group: I 41
;
_chemical_formula_sum "Si O2"
_cell_formula_units_Z 60
_cell_length_a 17.896272
_cell_length_b 17.896272
_cell_length_c 9.269356
_cell_angle_alpha 90.000000
_cell_angle_beta 90.000000
_cell_angle_gamma 90.000000
_cell_volume 2968.757374
_symmetry_space_group_name_H-M "I 41"
_symmetry_group_IT_number 80
_symmetry_cell_setting 'tetragonal'
loop_
_space_group_symop_operation_xyz
x,y,z
-y,1/2+x,1/4+z
-x,-y,z
y,1/2-x,1/4+z
1/2+x,1/2+y,1/2+z
1/2-y,x,3/4+z
1/2-x,1/2-y,1/2+z
1/2+y,-x,3/4+z
loop_
_atom_site_type_symbol
_atom_site_label
_atom_site_fract_x
_atom_site_fract_y
_atom_site_fract_z
Si Si1 0.000000 0.500000 0.011070
Si Si2 0.658580 0.958294 0.376690
Si Si3 0.326929 0.605664 0.907626
Si Si4 0.445938 0.845613 0.638550
Si Si5 0.228949 0.552889 0.642391
Si Si6 0.285802 0.321918 0.182194
Si Si7 0.494433 0.220023 0.353969
Si Si8 0.281467 0.818707 0.642120
O O1 0.986346 0.424788 0.107129
O O2 0.926791 0.520450 0.915141
O O3 0.682505 0.871877 0.381723
O O4 0.706782 0.997771 0.503851
O O5 0.686380 0.985722 0.221769
O O6 0.275670 0.590847 0.771044
O O7 0.391760 0.660664 0.856126
O O8 0.342581 0.525728 0.988828
O O9 0.280074 0.646285 0.035025
O O10 0.466129 0.789875 0.770101
O O11 0.457981 0.795214 0.496337
O O12 0.358353 0.863315 0.650624
O O13 0.285636 0.277858 0.332427
O O14 0.276864 0.411172 0.169699
O O15 0.255450 0.801468 0.802234
#
# Coordination Sequence:
#
# PCOD9542133 Si02
#       8
#     4   8   8   8   8   8   8   8
#     4  12  24  44  70  96 130 194 236 274 344 426
#     4  10  23  43  68  92 133 175 227 275 343 423
#     4  11  20  38  59  91 137 176 213 253 327 421
#     4  12  25  39  64  93 133 173 227 277 330 401
#     4  11  25  36  62  95 134 172 213 275 335 407
#     4  10  22  42  71  99 123 163 228 295 347 397
#     4  10  20  42  66  96 127 173 224 275 334 413
#     4  12  23  36  60  97 134 178 216 266 325 415
#
# _framework density 20.210477000000001
#
# number of rings (size 3 to 8) (size 9 to 14) (size 15 to 20)
#    0.000    1.067    4.000    3.200    1.867    1.067 
#    0.000    0.000   11.733    0.800    0.000    0.000 
#    0.000    0.000    0.000    0.000    0.000    0.000 
#
# Total GULP energy -167036.736715 kJ/mol
# GULP energy per Si atom -5567.891224 kJ/mol
# Density = 2.016448 g / cm^3
# Si number density = 20.210477 Si / 1000 Ang^3
#
#
#
# Elastic Constant Matrix: (Units=GPa)
#
#
# Indices 1 2 3 4 5 6 
#
# 1 73.9074 4.7005 24.7061 0.0000 0.0000 3.4767
# 2 4.7005 73.9074 24.7061 0.0000 0.0000 -3.4767
# 3 24.7061 24.7061 77.9803 0.0000 0.0000 0.0000
# 4 0.0000 0.0000 0.0000 28.9843 0.0000 0.0000
# 5 0.0000 0.0000 0.0000 0.0000 28.9843 0.0000
# 6 3.4767 -3.4767 0.0000 0.0000 0.0000 22.1259
#
#
#
# Elastic Compliance Matrix: (Units=1/GPa)
#
#
# Indices 1 2 3 4 5 6 
#
# 1 0.015283 0.000602 -0.005033 0.000000 0.000000 -0.002307
# 2 0.000602 0.015283 -0.005033 0.000000 0.000000 0.002307
# 3 -0.005033 -0.005033 0.016013 0.000000 0.000000 0.000000
# 4 0.000000 0.000000 0.000000 0.034501 0.000000 0.000000
# 5 0.000000 0.000000 0.000000 0.000000 0.034501 0.000000
# 6 -0.002307 0.002307 0.000000 0.000000 0.000000 0.045921
#
#
# Mechanical properties :
#
#
# Convention : Reuss Voigt Hill
#
# Bulk Modulus (GPa) = 36.16425 37.11338 36.63881
# Shear Modulus (GPa) = 26.36475 27.46438 26.91457
#
# Velocity S-wave (km/s) = 3.61572 3.69035 3.65322
# Velocity P-wave (km/s) = 5.94675 6.04661 5.99689
#
# Compressibility (1/GPa) = 0.02765162
#
# Stress axis : x y z
#
# Youngs Moduli (GPa) = 65.43199 65.43199 62.45030
#
# Poissons Ratio (x) = -0.03938 0.31430
# Poissons Ratio (y) = -0.03938 0.31430
# Poissons Ratio (z) = 0.32930 0.32930
#
# Static dielectric constant tensor:
#      x y z
#    x 1.814580 0.000000 0.000000 
#    y 0.000000 1.814580 0.000000 
#    z 0.000000 0.000000 1.691860 
# 
# From -- ./inp_files/768.got.cif
#   From: 2010.05.17/outbox.cif.g08.bks.cpg/sg80_cif.got.tgz:768.got - 2010.06.03 18:49:13.
