data_PCOD9542012
_publ_section_title
;
Structure prediction by ZEFSAII (Michael W. Deem and Ramdas Pophale) SiO2 
 PCOD9542012
Probable space group: I 4
;
_chemical_formula_sum "Si O2"
_cell_formula_units_Z 46
_cell_length_a 8.413877
_cell_length_b 8.413877
_cell_length_c 29.654129
_cell_angle_alpha 90.000000
_cell_angle_beta 90.000000
_cell_angle_gamma 90.000000
_cell_volume 2099.314427
_symmetry_space_group_name_H-M "I 4"
_symmetry_group_IT_number 79
_symmetry_cell_setting 'tetragonal'
loop_
_space_group_symop_operation_xyz
x,y,z
-y,x,z
-x,-y,z
y,-x,z
1/2+x,1/2+y,1/2+z
1/2-y,1/2+x,1/2+z
1/2-x,1/2-y,1/2+z
1/2+y,1/2-x,1/2+z
loop_
_atom_site_type_symbol
_atom_site_label
_atom_site_fract_x
_atom_site_fract_y
_atom_site_fract_z
Si Si1 0.500000 0.500000 0.484771
Si Si2 0.414916 0.247467 0.189302
Si Si3 0.880015 0.240975 0.274238
Si Si4 0.256722 0.406576 0.055557
Si Si5 0.862059 0.229598 0.376355
Si Si6 0.591259 0.835550 0.464692
Si Si7 0.000000 0.500000 0.618801
O O1 0.480051 0.694224 0.482384
O O2 0.596209 0.306789 0.184369
O O3 0.367362 0.176150 0.237625
O O4 0.398209 0.112973 0.151656
O O5 0.840411 0.291405 0.325462
O O6 0.068314 0.204888 0.268849
O O7 0.411257 0.304005 0.065517
O O8 0.102982 0.384806 0.086579
O O9 0.216859 0.378307 0.003575
O O10 0.793902 0.335618 0.416140
O O11 0.052585 0.208980 0.380985
O O12 0.500000 0.000000 0.457916
#
# Coordination Sequence:
#
# PCOD9542012 Si02
#       7
#     2   8   8   8   8   8   4
#     4  12  28  44  72 108 148 196 260 316 356 460
#     4  11  24  44  66  95 133 175 223 290 366 439
#     4   9  19  39  67  99 136 180 235 286 350 432
#     4  11  24  44  71 103 137 185 240 297 368 443
#     4   9  18  37  66  98 139 194 242 288 354 433
#     4  12  24  45  67 103 151 197 241 310 363 421
#     4  12  24  42  68  96 128 174 232 292 364 448
#
# _framework density 21.911913999999999
#
# number of rings (size 3 to 8) (size 9 to 14) (size 15 to 20)
#    0.000    1.391    0.870    6.261    0.000    2.783 
#   10.957    0.000    0.000    2.087    0.000    0.000 
#    0.000    0.000    0.000    0.000    0.000    0.000 
#
# Total GULP energy -128373.119925 kJ/mol
# GULP energy per Si atom -5581.439997 kJ/mol
# Density = 2.186204 g / cm^3
# Si number density = 21.911914 Si / 1000 Ang^3
#
#
#
# Elastic Constant Matrix: (Units=GPa)
#
#
# Indices 1 2 3 4 5 6 
#
# 1 148.7510 -47.3724 38.8178 0.0000 0.0000 102.2080
# 2 -47.3724 148.7510 38.8178 0.0000 0.0000 -102.2080
# 3 38.8178 38.8178 120.1231 0.0000 0.0000 0.0000
# 4 0.0000 0.0000 0.0000 27.7318 0.0000 0.0000
# 5 0.0000 0.0000 0.0000 0.0000 27.7317 0.0000
# 6 102.2080 -102.2080 0.0000 0.0000 0.0000 146.4688
#
#
#
# Elastic Compliance Matrix: (Units=1/GPa)
#
#
# Indices 1 2 3 4 5 6 
#
# 1 0.015903 -0.002796 -0.004236 0.000000 0.000000 -0.013048
# 2 -0.002796 0.015903 -0.004236 0.000000 0.000000 0.013048
# 3 -0.004236 -0.004236 0.011062 0.000000 0.000000 0.000000
# 4 0.000000 0.000000 0.000000 0.036060 0.000000 0.000000
# 5 0.000000 0.000000 0.000000 0.000000 0.036060 0.000000
# 6 -0.013048 0.013048 0.000000 0.000000 0.000000 0.025038
#
#
# Mechanical properties :
#
#
# Convention : Reuss Voigt Hill
#
# Bulk Modulus (GPa) = 49.17679 53.12796 51.15237
# Shear Modulus (GPa) = 29.52652 66.21058 47.86855
#
# Velocity S-wave (km/s) = 3.67483 5.50294 4.67903
# Velocity P-wave (km/s) = 6.36376 8.04209 7.25164
#
# Compressibility (1/GPa) = 0.02033480
#
# Stress axis : x y z
#
# Youngs Moduli (GPa) = 62.87980 62.87982 90.39651
#
# Poissons Ratio (x) = 0.17579 0.38290
# Poissons Ratio (y) = 0.17579 0.38290
# Poissons Ratio (z) = 0.26634 0.26634
#
# Static dielectric constant tensor:
#      x y z
#    x 1.822280 0.000000 0.000000 
#    y 0.000000 1.822280 0.000000 
#    z 0.000000 0.000000 1.802110 
# 
# From -- ./inp_files/2125.got.cif
#   From: 2010.05.17/outbox.cif.g08.bks.cpg/sg79_cif.got.tgz:2125.got - 2010.06.03 18:47:27.
