data_PCOD9542795
_publ_section_title
;
Structure prediction by ZEFSAII (Michael W. Deem and Ramdas Pophale) SiO2 
 PCOD9542795
Probable space group: I -4 
;
_chemical_formula_sum "Si O2"
_cell_formula_units_Z 44
_cell_length_a 13.737945
_cell_length_b 13.737945
_cell_length_c 11.715737
_cell_angle_alpha 90.000000
_cell_angle_beta 90.000000
_cell_angle_gamma 90.000000
_cell_volume 2211.124316
_symmetry_space_group_name_H-M "I -4 "
_symmetry_group_IT_number 82
_symmetry_cell_setting 'tetragonal'
loop_
_space_group_symop_operation_xyz
x,y,z
y,-x,-z
-x,-y,z
-y,x,-z
1/2+x,1/2+y,1/2+z
1/2+y,1/2-x,1/2-z
1/2-x,1/2-y,1/2+z
1/2-y,1/2+x,1/2-z
loop_
_atom_site_type_symbol
_atom_site_label
_atom_site_fract_x
_atom_site_fract_y
_atom_site_fract_z
Si Si1 0.724689 0.894018 0.458232
Si Si2 0.000000 0.000000 0.500000
Si Si3 0.602611 0.815062 0.667430
Si Si4 0.000000 0.500000 0.250000
Si Si5 0.092289 0.185960 0.582168
Si Si6 0.208746 0.229166 0.809172
Si Si7 0.913642 0.868461 0.010778
O O1 0.653911 0.868732 0.561049
O O2 0.823400 0.835001 0.490904
O O3 0.697250 0.842996 0.340488
O O4 0.738825 0.008953 0.451708
O O5 0.084347 0.964032 0.417846
O O6 0.682404 0.798488 0.767624
O O7 0.577657 0.708100 0.615657
O O8 0.517240 0.890565 0.698829
O O9 0.142067 0.207316 0.700781
O O10 0.164030 0.173066 0.918757
O O11 0.022180 0.879787 0.957714
#
# Coordination Sequence:
#
# PCOD9542795 Si02
#       7
#     8   2   8   2   8   8   8
#     4   9  20  37  57  88 119 154 198 249 297 354
#     4   8  16  32  56  84 110 140 200 248 284 352
#     4  10  23  40  60  92 123 161 206 251 300 375
#     4  12  24  40  64  88 122 172 200 236 320 380
#     4   9  18  35  57  83 115 152 195 248 300 347
#     4  10  21  37  60  90 121 158 200 250 307 358
#     4  10  22  41  62  90 124 162 208 260 307 356
#
# _framework density 19.899380000000001
#
# number of rings (size 3 to 8) (size 9 to 14) (size 15 to 20)
#    0.000    2.364    0.000    1.091    5.091    1.455 
#    6.545    0.000    0.000    0.000    0.000    0.000 
#    0.000    0.000    0.000    0.000    0.000    0.000 
#
# Total GULP energy -122482.640457 kJ/mol
# GULP energy per Si atom -5567.392748 kJ/mol
# Density = 1.985409 g / cm^3
# Si number density = 19.899380 Si / 1000 Ang^3
#
#
#
# Elastic Constant Matrix: (Units=GPa)
#
#
# Indices 1 2 3 4 5 6 
#
# 1 73.5196 -0.4577 6.5901 0.0000 0.0000 -6.9331
# 2 -0.4577 73.5196 6.5901 0.0000 0.0000 6.9331
# 3 6.5901 6.5901 48.9772 0.0000 0.0000 0.0000
# 4 0.0000 0.0000 0.0000 11.7961 0.0000 0.0000
# 5 0.0000 0.0000 0.0000 0.0000 11.7961 0.0000
# 6 -6.9331 6.9331 0.0000 0.0000 0.0000 33.1141
#
#
#
# Elastic Compliance Matrix: (Units=1/GPa)
#
#
# Indices 1 2 3 4 5 6 
#
# 1 0.014049 -0.000021 -0.001887 0.000000 0.000000 0.002946
# 2 -0.000021 0.014049 -0.001887 0.000000 0.000000 -0.002946
# 3 -0.001887 -0.001887 0.020926 0.000000 0.000000 0.000000
# 4 0.000000 0.000000 0.000000 0.084774 0.000000 0.000000
# 5 0.000000 0.000000 0.000000 0.000000 0.084774 0.000000
# 6 0.002946 -0.002946 0.000000 0.000000 0.000000 0.031432
#
#
# Mechanical properties :
#
#
# Convention : Reuss Voigt Hill
#
# Bulk Modulus (GPa) = 24.13665 24.60683 24.37174
# Shear Modulus (GPa) = 18.42264 23.56084 20.99174
#
# Velocity S-wave (km/s) = 3.04598 3.44466 3.25144
# Velocity P-wave (km/s) = 4.95241 5.31163 5.13516
#
# Compressibility (1/GPa) = 0.04143077
#
# Stress axis : x y z
#
# Youngs Moduli (GPa) = 71.18111 71.18111 47.78833
#
# Poissons Ratio (x) = 0.00151 0.09020
# Poissons Ratio (y) = 0.00151 0.09020
# Poissons Ratio (z) = 0.13435 0.13435
#
# Static dielectric constant tensor:
#      x y z
#    x 1.750220 0.000000 0.000000 
#    y 0.000000 1.750220 0.000000 
#    z 0.000000 0.000000 1.653830 
# 
# From -- ./inp_files/1722.got.cif
#   From: 2010.05.17/outbox.cif.g08.bks.cpg/sg82_1_cif.got.tgz:1722.got - 2010.06.03 18:52:26.
