data_PCOD9542121
_publ_section_title
;
Structure prediction by ZEFSAII (Michael W. Deem and Ramdas Pophale) SiO2 
 PCOD9542121
Probable space group: I 41
;
_chemical_formula_sum "Si O2"
_cell_formula_units_Z 48
_cell_length_a 10.317226
_cell_length_b 10.317226
_cell_length_c 18.936516
_cell_angle_alpha 90.000000
_cell_angle_beta 90.000000
_cell_angle_gamma 90.000000
_cell_volume 2015.700330
_symmetry_space_group_name_H-M "I 41"
_symmetry_group_IT_number 80
_symmetry_cell_setting 'tetragonal'
loop_
_space_group_symop_operation_xyz
x,y,z
-y,1/2+x,1/4+z
-x,-y,z
y,1/2-x,1/4+z
1/2+x,1/2+y,1/2+z
1/2-y,x,3/4+z
1/2-x,1/2-y,1/2+z
1/2+y,-x,3/4+z
loop_
_atom_site_type_symbol
_atom_site_label
_atom_site_fract_x
_atom_site_fract_y
_atom_site_fract_z
Si Si1 0.359035 0.294145 0.981590
Si Si2 0.342976 0.299339 0.371915
Si Si3 0.500000 0.000000 0.538614
Si Si4 0.877970 0.091828 0.197552
Si Si5 0.335714 0.718242 0.827449
Si Si6 0.500000 0.000000 0.152931
Si Si7 0.923467 0.377696 0.902671
O O1 0.271096 0.207745 0.928927
O O2 0.384773 0.435885 0.948518
O O3 0.291489 0.299342 0.056697
O O4 0.501498 0.233921 0.981558
O O5 0.392473 0.431279 0.336351
O O6 0.469245 0.233974 0.406775
O O7 0.599512 0.067734 0.482514
O O8 0.848604 0.127015 0.117490
O O9 0.861940 0.220039 0.244522
O O10 0.000000 0.000000 0.203373
O O11 0.439126 0.611504 0.854972
O O12 0.198071 0.670503 0.858182
O O13 0.000000 0.500000 0.867691
#
# Coordination Sequence:
#
# PCOD9542121 Si02
#       7
#     8   8   4   8   8   4   8
#     4  11  24  40  74  99 147 181 238 303 363 431
#     4  12  23  44  67 105 140 191 238 298 365 433
#     4  10  24  41  66 102 143 188 238 286 368 433
#     4  11  26  46  71 105 144 192 249 300 367 437
#     4  11  23  41  71 100 143 189 234 309 358 434
#     4  10  20  39  64 108 129 176 236 294 364 417
#     4  10  22  40  65 104 140 181 237 298 359 432
#
# _framework density 23.813064000000001
#
# number of rings (size 3 to 8) (size 9 to 14) (size 15 to 20)
#    0.500    0.667    2.500    4.000   10.500    1.333 
#    0.000    0.000    1.833    0.000    0.000    0.000 
#    0.000    0.000    0.000    0.000    0.000    0.000 
#
# Total GULP energy -134171.750074 kJ/mol
# GULP energy per Si atom -5590.489586 kJ/mol
# Density = 2.375886 g / cm^3
# Si number density = 23.813064 Si / 1000 Ang^3
#
#
#
# Elastic Constant Matrix: (Units=GPa)
#
#
# Indices 1 2 3 4 5 6 
#
# 1 59.9017 -8.9405 20.4635 0.0000 0.0000 -8.9487
# 2 -8.9405 59.9017 20.4635 0.0000 0.0000 8.9487
# 3 20.4635 20.4635 104.9986 0.0000 0.0000 0.0000
# 4 0.0000 0.0000 0.0000 20.6291 0.0000 0.0000
# 5 0.0000 0.0000 0.0000 0.0000 20.6291 0.0000
# 6 -8.9487 8.9487 0.0000 0.0000 0.0000 29.8597
#
#
#
# Elastic Compliance Matrix: (Units=1/GPa)
#
#
# Indices 1 2 3 4 5 6 
#
# 1 0.019509 0.003755 -0.004534 0.000000 0.000000 0.004721
# 2 0.003755 0.019509 -0.004534 0.000000 0.000000 -0.004721
# 3 -0.004534 -0.004534 0.011291 0.000000 0.000000 0.000000
# 4 0.000000 0.000000 0.000000 0.048475 0.000000 0.000000
# 5 0.000000 0.000000 0.000000 0.000000 0.048475 0.000000
# 6 0.004721 -0.004721 0.000000 0.000000 0.000000 0.036320
#
#
# Mechanical properties :
#
#
# Convention : Reuss Voigt Hill
#
# Bulk Modulus (GPa) = 25.19956 32.08615 28.64286
# Shear Modulus (GPa) = 24.10428 27.07793 25.59111
#
# Velocity S-wave (km/s) = 3.18501 3.37576 3.28177
# Velocity P-wave (km/s) = 4.91232 5.35703 5.13949
#
# Compressibility (1/GPa) = 0.03968323
#
# Stress axis : x y z
#
# Youngs Moduli (GPa) = 51.25919 51.25919 88.56429
#
# Poissons Ratio (x) = -0.19249 0.40155
# Poissons Ratio (y) = -0.19249 0.40155
# Poissons Ratio (z) = 0.23241 0.23241
#
# Static dielectric constant tensor:
#      x y z
#    x 1.926520 0.000000 0.000000 
#    y 0.000000 1.926520 0.000000 
#    z 0.000000 0.000000 1.955850 
# 
# From -- ./inp_files/1786.got.cif
#   From: 2010.05.17/outbox.cif.g08.bks.cpg/sg80_cif.got.tgz:1786.got - 2010.06.03 18:49:13.
