data_PCOD9542231
_publ_section_title
;
Structure prediction by ZEFSAII (Michael W. Deem and Ramdas Pophale) SiO2 
 PCOD9542231
Probable space group: I 41
;
_chemical_formula_sum "Si O2"
_cell_formula_units_Z 60
_cell_length_a 17.895043
_cell_length_b 17.895043
_cell_length_c 8.525461
_cell_angle_alpha 90.000000
_cell_angle_beta 90.000000
_cell_angle_gamma 90.000000
_cell_volume 2730.130235
_symmetry_space_group_name_H-M "I 41"
_symmetry_group_IT_number 80
_symmetry_cell_setting 'tetragonal'
loop_
_space_group_symop_operation_xyz
x,y,z
-y,1/2+x,1/4+z
-x,-y,z
y,1/2-x,1/4+z
1/2+x,1/2+y,1/2+z
1/2-y,x,3/4+z
1/2-x,1/2-y,1/2+z
1/2+y,-x,3/4+z
loop_
_atom_site_type_symbol
_atom_site_label
_atom_site_fract_x
_atom_site_fract_y
_atom_site_fract_z
Si Si1 0.576071 0.271688 0.163200
Si Si2 0.000000 0.000000 0.574480
Si Si3 0.261416 0.342207 0.720134
Si Si4 0.108729 0.895914 0.400089
Si Si5 0.574400 0.649362 0.210244
Si Si6 0.933896 0.089816 0.064297
Si Si7 0.605899 0.585448 0.521537
Si Si8 0.682047 0.302783 0.437448
O O1 0.576323 0.189438 0.095149
O O2 0.497593 0.297091 0.235545
O O3 0.635158 0.260991 0.303440
O O4 0.600815 0.330700 0.029979
O O5 0.934223 0.033971 0.471876
O O6 0.035985 0.069777 0.664963
O O7 0.217465 0.301031 0.582088
O O8 0.196410 0.384056 0.822817
O O9 0.329750 0.390984 0.644769
O O10 0.069491 0.876701 0.238704
O O11 0.627607 0.623730 0.353823
O O12 0.018646 0.111309 0.022164
O O13 0.912612 0.002437 0.048605
O O14 0.869014 0.125585 0.960017
O O15 0.686681 0.260920 0.602795
#
# Coordination Sequence:
#
# PCOD9542231 Si02
#       8
#     8   4   8   8   8   8   8   8
#     4  11  24  43  68 107 141 194 248 301 373 438
#     4  10  24  46  78 106 144 194 250 304 370 446
#     4  12  29  51  74 109 149 195 246 308 388 454
#     4  11  25  43  73 106 147 192 247 308 368 445
#     4  11  25  45  78 106 147 195 250 309 372 450
#     4  11  26  45  76 111 148 198 252 313 374 446
#     4  11  25  49  77 111 149 192 254 312 370 455
#     4  12  28  46  68 105 153 199 247 305 376 450
#
# _framework density 21.976973999999998
#
# number of rings (size 3 to 8) (size 9 to 14) (size 15 to 20)
#    0.000    0.800    2.667    3.200   13.067    1.067 
#    0.000    0.000    0.000    0.000    0.000    0.000 
#    0.000    0.000    0.000    0.000    0.000    0.000 
#
# Total GULP energy -167188.032013 kJ/mol
# GULP energy per Si atom -5572.934400 kJ/mol
# Density = 2.192695 g / cm^3
# Si number density = 21.976974 Si / 1000 Ang^3
#
#
#
# Elastic Constant Matrix: (Units=GPa)
#
#
# Indices 1 2 3 4 5 6 
#
# 1 57.5539 53.9967 25.4398 0.0000 0.0000 5.4369
# 2 53.9967 57.5539 25.4398 0.0000 0.0000 -5.4369
# 3 25.4398 25.4398 84.4111 0.0000 0.0000 0.0000
# 4 0.0000 0.0000 0.0000 45.3187 0.0000 0.0000
# 5 0.0000 0.0000 0.0000 0.0000 45.3187 0.0000
# 6 5.4369 -5.4369 0.0000 0.0000 0.0000 5.9334
#
#
#
# Elastic Compliance Matrix: (Units=1/GPa)
#
#
# Indices 1 2 3 4 5 6 
#
# 1 -0.072847 0.083240 -0.003132 0.000000 0.000000 0.143026
# 2 0.083240 -0.072847 -0.003132 0.000000 0.000000 -0.143026
# 3 -0.003132 -0.003132 0.013735 0.000000 0.000000 0.000000
# 4 0.000000 0.000000 0.000000 0.022066 0.000000 0.000000
# 5 0.000000 0.000000 0.000000 0.000000 0.022066 0.000000
# 6 0.143026 -0.143026 0.000000 0.000000 0.000000 -0.093577
#
#
# Mechanical properties :
#
#
# Convention : Reuss Voigt Hill
#
# Bulk Modulus (GPa) = 45.47102 45.47462 45.47282
# Shear Modulus (GPa) = -15.24271 25.62369 5.19049
#
# Velocity S-wave (km/s) = -2.63644 3.41828 1.53848
# Velocity P-wave (km/s) = 3.38636 6.02631 4.88794
#
# Compressibility (1/GPa) = 0.02199203
#
# Stress axis : x y z
#
# Youngs Moduli (GPa) = -13.72738 -13.72738 72.80769
#
# Poissons Ratio (x) = 1.14267 0.22806
# Poissons Ratio (y) = 1.14267 0.22806
# Poissons Ratio (z) = -0.04300 -0.04300
#
# Static dielectric constant tensor:
#      x y z
#    x 1.830280 0.000000 0.000000 
#    y 0.000000 1.830280 0.000000 
#    z 0.000000 0.000000 1.858680 
# 
# From -- ./inp_files/738.got.cif
#   From: 2010.05.17/outbox.cif.g08.bks.cpg/sg80_cif.got.tgz:738.got - 2010.06.03 18:49:13.
