data_PCOD9542307
_publ_section_title
;
Structure prediction by ZEFSAII (Michael W. Deem and Ramdas Pophale) SiO2 
 PCOD9542307
Probable space group: I 41
;
_chemical_formula_sum "Si O2"
_cell_formula_units_Z 20
_cell_length_a 8.904532
_cell_length_b 8.904532
_cell_length_c 8.884197
_cell_angle_alpha 90.000000
_cell_angle_beta 90.000000
_cell_angle_gamma 90.000000
_cell_volume 704.434111
_symmetry_space_group_name_H-M "I 41"
_symmetry_group_IT_number 80
_symmetry_cell_setting 'tetragonal'
loop_
_space_group_symop_operation_xyz
x,y,z
-y,1/2+x,1/4+z
-x,-y,z
y,1/2-x,1/4+z
1/2+x,1/2+y,1/2+z
1/2-y,x,3/4+z
1/2-x,1/2-y,1/2+z
1/2+y,-x,3/4+z
loop_
_atom_site_type_symbol
_atom_site_label
_atom_site_fract_x
_atom_site_fract_y
_atom_site_fract_z
Si Si1 0.000000 0.000000 0.667310
Si Si2 0.234898 0.404827 0.309857
Si Si3 0.066970 0.730279 0.447071
O O1 0.145718 0.964105 0.773311
O O2 0.997004 0.141435 0.555222
O O3 0.348620 0.297650 0.394385
O O4 0.075353 0.369768 0.390191
O O5 0.186622 0.636208 0.548483
#
# Coordination Sequence:
#
# PCOD9542307 Si02
#       3
#     4   8   8
#     4  12  26  54  86 126 176 242 304 378 460 550
#     4  12  26  52  86 124 178 232 302 381 453 546
#     4  12  29  55  83 130 183 236 305 380 456 555
#
# _framework density 28.391584000000002
#
# number of rings (size 3 to 8) (size 9 to 14) (size 15 to 20)
#    0.000    0.000    4.000    4.800    5.600    3.200 
#    0.000    0.000    0.000    0.000    0.000    0.000 
#    0.000    0.000    0.000    0.000    0.000    0.000 
#
# Total GULP energy -55744.550371 kJ/mol
# GULP energy per Si atom -5574.455037 kJ/mol
# Density = 2.832696 g / cm^3
# Si number density = 28.391584 Si / 1000 Ang^3
#
#
#
# Elastic Constant Matrix: (Units=GPa)
#
#
# Indices 1 2 3 4 5 6 
#
# 1 172.5193 125.8457 76.2337 0.0000 0.0000 34.0116
# 2 125.8457 172.5193 76.2337 0.0000 0.0000 -34.0116
# 3 76.2337 76.2337 156.8837 0.0000 0.0000 0.0000
# 4 0.0000 0.0000 0.0000 -114.1199 0.0000 0.0000
# 5 0.0000 0.0000 0.0000 0.0000 -114.1199 0.0000
# 6 34.0116 -34.0116 0.0000 0.0000 0.0000 45.7925
#
#
#
# Elastic Compliance Matrix: (Units=1/GPa)
#
#
# Indices 1 2 3 4 5 6 
#
# 1 -0.127658 0.132117 -0.002167 0.000000 0.000000 0.192943
# 2 0.132117 -0.127658 -0.002167 0.000000 0.000000 -0.192943
# 3 -0.002167 -0.002167 0.008480 0.000000 0.000000 0.000000
# 4 0.000000 0.000000 0.000000 -0.008763 0.000000 0.000000
# 5 0.000000 0.000000 0.000000 0.000000 -0.008763 0.000000
# 6 0.192943 -0.192943 0.000000 0.000000 0.000000 -0.264772
#
#
# Mechanical properties :
#
#
# Convention : Reuss Voigt Hill
#
# Bulk Modulus (GPa) = 114.53688 117.61651 116.07669
# Shear Modulus (GPa) = -6.39558 -21.58216 -13.98887
#
# Velocity S-wave (km/s) = -1.50251 -2.76009 -2.22212
# Velocity P-wave (km/s) = 6.11714 5.59991 5.86423
#
# Compressibility (1/GPa) = 0.00873081
#
# Stress axis : x y z
#
# Youngs Moduli (GPa) = -7.83344 -7.83344 117.92760
#
# Poissons Ratio (x) = 1.03493 0.25550
# Poissons Ratio (y) = 1.03493 0.25550
# Poissons Ratio (z) = -0.01697 -0.01697
#
# Static dielectric constant tensor:
#      x y z
#    x 2.507460 0.000000 0.000000 
#    y 0.000000 2.507460 0.000000 
#    z 0.000000 0.000000 2.094070 
# 
# From -- ./inp_files/845.got.cif
#   From: 2010.05.17/outbox.cif.g08.bks.cpg/sg80_cif.got.tgz:845.got - 2010.06.03 18:49:13.
