data_PCOD9542544
_publ_section_title
;
Structure prediction by ZEFSAII (Michael W. Deem and Ramdas Pophale) SiO2 
 PCOD9542544
Probable space group: P -4
;
_chemical_formula_sum "Si O2"
_cell_formula_units_Z 19
_cell_length_a 8.974769
_cell_length_b 8.974769
_cell_length_c 10.293513
_cell_angle_alpha 90.000000
_cell_angle_beta 90.000000
_cell_angle_gamma 90.000000
_cell_volume 829.106225
_symmetry_space_group_name_H-M "P -4"
_symmetry_group_IT_number 81
_symmetry_cell_setting 'tetragonal'
loop_
_space_group_symop_operation_xyz
x,y,z
y,-x,-z
-x,-y,z
-y,x,-z
loop_
_atom_site_type_symbol
_atom_site_label
_atom_site_fract_x
_atom_site_fract_y
_atom_site_fract_z
Si Si1 0.000000 0.000000 0.500000
Si Si2 0.191397 0.756158 0.467702
Si Si3 0.720688 0.239060 0.754863
Si Si4 0.344154 0.692978 0.019217
Si Si5 0.555923 0.175048 0.278120
Si Si6 0.500000 0.000000 0.653525
O O1 0.097963 0.892223 0.412123
O O2 0.188885 0.785166 0.621567
O O3 0.352711 0.775254 0.405275
O O4 0.101461 0.609757 0.432099
O O5 0.708795 0.418500 0.737040
O O6 0.590766 0.119259 0.737027
O O7 0.759593 0.235796 0.907109
O O8 0.343615 0.785357 0.152468
O O9 0.517215 0.695010 0.967613
O O10 0.500000 0.000000 0.277169
#
# Coordination Sequence:
#
# PCOD9542544 Si02
#       6
#     1   4   4   4   4   2
#     4  12  24  44  68  94 140 196 216 290 356 432
#     4  12  25  44  72 100 145 183 241 289 362 428
#     4  11  24  42  72 101 137 183 242 290 358 427
#     4   9  20  42  67  97 135 179 231 300 362 415
#     4  11  25  44  70 104 143 188 239 298 356 429
#     4  12  26  42  70 108 140 188 232 298 360 422
#
# _framework density 22.916243999999999
#
# number of rings (size 3 to 8) (size 9 to 14) (size 15 to 20)
#    0.000    1.053    2.105    3.789    4.421    2.526 
#    0.000    6.316    0.000    1.263    0.000    0.000 
#    0.000    0.000    0.000    0.000    0.000    0.000 
#
# Total GULP energy -105788.938864 kJ/mol
# GULP energy per Si atom -5567.838888 kJ/mol
# Density = 2.286409 g / cm^3
# Si number density = 22.916244 Si / 1000 Ang^3
#
#
#
# Elastic Constant Matrix: (Units=GPa)
#
#
# Indices 1 2 3 4 5 6 
#
# 1 74.5136 21.9391 23.7859 0.0000 0.0000 -11.5181
# 2 21.9391 74.5136 23.7859 0.0000 0.0000 11.5181
# 3 23.7859 23.7859 105.6108 0.0000 0.0000 0.0000
# 4 0.0000 0.0000 0.0000 15.7586 0.0000 0.0000
# 5 0.0000 0.0000 0.0000 0.0000 15.7586 0.0000
# 6 -11.5181 11.5181 0.0000 0.0000 0.0000 45.7957
#
#
#
# Elastic Compliance Matrix: (Units=1/GPa)
#
#
# Indices 1 2 3 4 5 6 
#
# 1 0.016520 -0.004856 -0.002627 0.000000 0.000000 0.005376
# 2 -0.004856 0.016520 -0.002627 0.000000 0.000000 -0.005376
# 3 -0.002627 -0.002627 0.010652 0.000000 0.000000 0.000000
# 4 0.000000 0.000000 0.000000 0.063457 0.000000 0.000000
# 5 0.000000 0.000000 0.000000 0.000000 0.063457 0.000000
# 6 0.005376 -0.005376 0.000000 0.000000 0.000000 0.024541
#
#
# Mechanical properties :
#
#
# Convention : Reuss Voigt Hill
#
# Bulk Modulus (GPa) = 42.60515 43.73995 43.17255
# Shear Modulus (GPa) = 22.40232 27.80439 25.10335
#
# Velocity S-wave (km/s) = 3.13001 3.48703 3.31333
# Velocity P-wave (km/s) = 5.62980 5.94482 5.78945
#
# Compressibility (1/GPa) = 0.02347134
#
# Stress axis : x y z
#
# Youngs Moduli (GPa) = 60.53320 60.53320 93.87926
#
# Poissons Ratio (x) = 0.29398 0.24661
# Poissons Ratio (y) = 0.29398 0.24661
# Poissons Ratio (z) = 0.15901 0.15901
#
# Static dielectric constant tensor:
#      x y z
#    x 1.915120 0.000000 0.000000 
#    y 0.000000 1.915120 0.000000 
#    z 0.000000 0.000000 1.914150 
# 
# From -- ./inp_files/1269.got.cif
#   From: 2010.05.17/outbox.cif.g08.bks.cpg/sg81_cif.got.tgz:1269.got - 2010.06.03 18:51:07.
