data_PCOD9542859
_publ_section_title
;
Structure prediction by ZEFSAII (Michael W. Deem and Ramdas Pophale) SiO2 
 PCOD9542859
Probable space group: I -4 
;
_chemical_formula_sum "Si O2"
_cell_formula_units_Z 40
_cell_length_a 8.722020
_cell_length_b 8.722020
_cell_length_c 21.869848
_cell_angle_alpha 90.000000
_cell_angle_beta 90.000000
_cell_angle_gamma 90.000000
_cell_volume 1663.718788
_symmetry_space_group_name_H-M "I -4 "
_symmetry_group_IT_number 82
_symmetry_cell_setting 'tetragonal'
loop_
_space_group_symop_operation_xyz
x,y,z
y,-x,-z
-x,-y,z
-y,x,-z
1/2+x,1/2+y,1/2+z
1/2+y,1/2-x,1/2-z
1/2-x,1/2-y,1/2+z
1/2-y,1/2+x,1/2-z
loop_
_atom_site_type_symbol
_atom_site_label
_atom_site_fract_x
_atom_site_fract_y
_atom_site_fract_z
Si Si1 0.548055 0.828057 0.483692
Si Si2 0.208039 0.144902 0.387954
Si Si3 0.781577 0.387326 0.731608
Si Si4 0.634501 0.391224 0.400672
Si Si5 0.193560 0.123336 0.656133
O O1 0.718881 0.831028 0.454380
O O2 0.442937 0.758597 0.430441
O O3 0.530705 0.718354 0.541612
O O4 0.500000 0.000000 0.498305
O O5 0.319870 0.211617 0.335811
O O6 0.042248 0.215264 0.373673
O O7 0.189220 0.963177 0.374299
O O8 0.813238 0.568810 0.734539
O O9 0.633859 0.343346 0.771696
O O10 0.500000 0.500000 0.376485
O O11 0.768551 0.336894 0.356875
#
# Coordination Sequence:
#
# PCOD9542859 Si02
#       5
#     8   8   8   8   8
#     4  12  24  43  68  96 135 180 230 286 341 414
#     4  10  22  39  68  99 137 178 231 290 349 404
#     4   9  18  37  65  94 130 181 232 279 340 421
#     4  12  25  45  65  98 136 183 234 277 346 420
#     4  10  22  41  64 103 136 177 234 289 346 408
#
# _framework density 24.042522000000002
#
# number of rings (size 3 to 8) (size 9 to 14) (size 15 to 20)
#    0.000    1.400    4.000    1.200    5.600    0.000 
#   10.800    2.000    4.400    0.000    0.000    0.000 
#    0.000    0.000    0.000    0.000    0.000    0.000 
#
# Total GULP energy -111941.928362 kJ/mol
# GULP energy per Si atom -5597.096418 kJ/mol
# Density = 2.398780 g / cm^3
# Si number density = 24.042522 Si / 1000 Ang^3
#
#
#
# Elastic Constant Matrix: (Units=GPa)
#
#
# Indices 1 2 3 4 5 6 
#
# 1 107.7123 31.8693 24.0074 0.0000 0.0000 -1.1591
# 2 31.8693 107.7123 24.0074 0.0000 0.0000 1.1591
# 3 24.0074 24.0074 48.6348 0.0000 0.0000 0.0000
# 4 0.0000 0.0000 0.0000 25.0955 0.0000 0.0000
# 5 0.0000 0.0000 0.0000 0.0000 25.0955 0.0000
# 6 -1.1591 1.1591 0.0000 0.0000 0.0000 44.5223
#
#
#
# Elastic Compliance Matrix: (Units=1/GPa)
#
#
# Indices 1 2 3 4 5 6 
#
# 1 0.010913 -0.002283 -0.004260 0.000000 0.000000 0.000344
# 2 -0.002283 0.010913 -0.004260 0.000000 0.000000 -0.000344
# 3 -0.004260 -0.004260 0.024767 0.000000 0.000000 0.000000
# 4 0.000000 0.000000 0.000000 0.039848 0.000000 0.000000
# 5 0.000000 0.000000 0.000000 0.000000 0.039848 0.000000
# 6 0.000344 -0.000344 0.000000 0.000000 0.000000 0.022479
#
#
# Mechanical properties :
#
#
# Convention : Reuss Voigt Hill
#
# Bulk Modulus (GPa) = 40.02093 47.09195 43.55644
# Shear Modulus (GPa) = 27.97982 31.22103 29.60042
#
# Velocity S-wave (km/s) = 3.41510 3.60748 3.51261
# Velocity P-wave (km/s) = 5.67737 6.08123 5.88277
#
# Compressibility (1/GPa) = 0.02498692
#
# Stress axis : x y z
#
# Youngs Moduli (GPa) = 91.63708 91.63708 40.37649
#
# Poissons Ratio (x) = 0.20921 0.17200
# Poissons Ratio (y) = 0.20921 0.17200
# Poissons Ratio (z) = 0.39035 0.39035
#
# Static dielectric constant tensor:
#      x y z
#    x 1.929270 0.000000 0.000000 
#    y 0.000000 1.929270 0.000000 
#    z 0.000000 0.000000 1.914180 
# 
# From -- ./inp_files/3341.got.cif
#   From: 2010.05.17/outbox.cif.g08.bks.cpg/sg82_2_cif.got.tgz:3341.got - 2010.06.03 18:52:26.
