data_PCOD9542053
_publ_section_title
;
Structure prediction by ZEFSAII (Michael W. Deem and Ramdas Pophale) SiO2 
 PCOD9542053
Probable space group: I 4
;
_chemical_formula_sum "Si O2"
_cell_formula_units_Z 30
_cell_length_a 18.000000
_cell_length_b 18.000000
_cell_length_c 9.000000
_cell_angle_alpha 90.000000
_cell_angle_beta 90.000000
_cell_angle_gamma 90.000000
_cell_volume 2916.000000
_symmetry_space_group_name_H-M "I 4"
_symmetry_group_IT_number 79
_symmetry_cell_setting 'tetragonal'
loop_
_space_group_symop_operation_xyz
x,y,z
-y,x,z
-x,-y,z
y,-x,z
1/2+x,1/2+y,1/2+z
1/2-y,1/2+x,1/2+z
1/2-x,1/2-y,1/2+z
1/2+y,1/2-x,1/2+z
loop_
_atom_site_type_symbol
_atom_site_label
_atom_site_fract_x
_atom_site_fract_y
_atom_site_fract_z
Si Si1 0.140092 0.272990 0.809540
Si Si2 0.000000 0.500000 0.249964
Si Si3 0.772177 0.419125 0.652059
Si Si4 0.002133 0.766736 0.604540
Si Si5 0.970694 0.876162 0.334226
Si Si6 0.150292 0.729182 0.795768
Si Si7 0.106333 0.502038 0.001705
Si Si8 0.912828 0.329888 0.099726
O O1 0.067349 0.247061 0.715550
O O2 0.208735 0.215414 0.792025
O O3 0.165739 0.351662 0.733536
O O4 0.113762 0.273726 0.982373
O O5 0.933227 0.530363 0.148716
O O6 0.028010 0.564128 0.359016
O O7 0.690663 0.438776 0.726738
O O8 0.814882 0.351756 0.742971
O O9 0.807486 0.502726 0.641845
O O10 0.981623 0.836147 0.497187
O O11 0.006005 0.693492 0.500820
O O12 0.080659 0.759792 0.694778
O O13 0.053644 0.913501 0.314603
O O14 0.119503 0.720312 0.964539
O O15 0.085719 0.588352 0.024756
#
# Coordination Sequence:
#
# PCOD9542053 Si02
#       8
#     8   4   8   8   8   8   8   8
#     4  11  26  48  75 113 152 203 256 330 398 480
#     4  10  22  36  56  88 138 186 232 280 342 440
#     4  12  28  46  80 108 152 206 258 331 397 478
#     4  11  24  46  72 112 152 197 255 315 394 480
#     4  11  28  51  78 110 149 204 266 333 401 470
#     4  12  26  46  77 113 152 204 260 325 406 481
#     4  10  23  36  61  90 140 185 231 285 358 444
#     4  11  26  46  66 107 153 190 258 309 389 481
#
# _framework density 10.288066000000001
#
# number of rings (size 3 to 8) (size 9 to 14) (size 15 to 20)
#    0.000    0.933    1.333    4.000   14.933    0.000 
#    0.000    0.000    0.000    1.600    0.000    0.000 
#    0.000    0.000    0.000    0.000    0.000    0.000 
#
# Total GULP energy -167623.123459 kJ/mol
# GULP energy per Si atom -5587.437449 kJ/mol
# Density = 1.026465 g / cm^3
# Si number density = 10.288066 Si / 1000 Ang^3
#
#
#
# Elastic Constant Matrix: (Units=GPa)
#
#
# Indices 1 2 3 4 5 6 
#
# 1 147.1739 61.2001 54.1170 0.0000 0.0000 -3.4922
# 2 61.2001 147.1739 54.1170 0.0000 0.0000 3.4922
# 3 54.1170 54.1170 142.7078 0.0000 0.0000 0.0000
# 4 0.0000 0.0000 0.0000 37.5162 0.0000 0.0000
# 5 0.0000 0.0000 0.0000 0.0000 37.5162 0.0000
# 6 -3.4922 3.4922 0.0000 0.0000 0.0000 50.7656
#
#
#
# Elastic Compliance Matrix: (Units=1/GPa)
#
#
# Indices 1 2 3 4 5 6 
#
# 1 0.008837 -0.002860 -0.002266 0.000000 0.000000 0.000805
# 2 -0.002860 0.008837 -0.002266 0.000000 0.000000 -0.000805
# 3 -0.002266 -0.002266 0.008726 0.000000 0.000000 0.000000
# 4 0.000000 0.000000 0.000000 0.026655 0.000000 0.000000
# 5 0.000000 0.000000 0.000000 0.000000 0.026655 0.000000
# 6 0.000805 -0.000805 0.000000 0.000000 0.000000 0.019809
#
#
# Mechanical properties :
#
#
# Convention : Reuss Voigt Hill
#
# Bulk Modulus (GPa) = 86.10690 86.21378 86.16034
# Shear Modulus (GPa) = 42.30998 43.00103 42.65550
#
# Velocity S-wave (km/s) = 4.53953 4.57645 4.55802
# Velocity P-wave (km/s) = 8.33158 8.36158 8.34659
#
# Compressibility (1/GPa) = 0.01161347
#
# Stress axis : x y z
#
# Youngs Moduli (GPa) = 113.16680 113.16680 114.59823
#
# Poissons Ratio (x) = 0.32369 0.25971
# Poissons Ratio (y) = 0.32369 0.25971
# Poissons Ratio (z) = 0.25647 0.25647
#
# Static dielectric constant tensor:
#      x y z
#    x 1.752940 0.000000 0.000000 
#    y 0.000000 1.752940 0.000000 
#    z 0.000000 0.000000 1.792980 
# 
# From -- ./inp_files/726.got.cif
#   From: 2010.05.17/outbox.ucp.g08.bks.cvg/sg79_cif.got.tgz:726.got - 2010.06.11 16:42:17.
