data_PCOD9542129
_publ_section_title
;
Structure prediction by ZEFSAII (Michael W. Deem and Ramdas Pophale) SiO2 
 PCOD9542129
Probable space group: I 41
;
_chemical_formula_sum "Si O2"
_cell_formula_units_Z 60
_cell_length_a 18.033375
_cell_length_b 18.033375
_cell_length_c 8.907006
_cell_angle_alpha 90.000000
_cell_angle_beta 90.000000
_cell_angle_gamma 90.000000
_cell_volume 2896.581633
_symmetry_space_group_name_H-M "I 41"
_symmetry_group_IT_number 80
_symmetry_cell_setting 'tetragonal'
loop_
_space_group_symop_operation_xyz
x,y,z
-y,1/2+x,1/4+z
-x,-y,z
y,1/2-x,1/4+z
1/2+x,1/2+y,1/2+z
1/2-y,x,3/4+z
1/2-x,1/2-y,1/2+z
1/2+y,-x,3/4+z
loop_
_atom_site_type_symbol
_atom_site_label
_atom_site_fract_x
_atom_site_fract_y
_atom_site_fract_z
Si Si1 0.246178 0.487510 0.936570
Si Si2 0.074679 0.623984 0.171177
Si Si3 0.677496 0.553019 0.633946
Si Si4 0.562143 0.273724 0.481811
Si Si5 0.670203 0.938508 0.948706
Si Si6 0.000000 0.000000 0.717400
Si Si7 0.725576 0.670229 0.049973
Si Si8 0.441605 0.384321 0.000730
O O1 0.305792 0.474031 0.804469
O O2 0.171552 0.494497 0.840825
O O3 0.251034 0.550626 0.059470
O O4 0.242786 0.412713 0.037770
O O5 0.157689 0.618458 0.235112
O O6 0.010500 0.632702 0.296347
O O7 0.074202 0.698959 0.073744
O O8 0.051912 0.551789 0.071982
O O9 0.635676 0.631177 0.642049
O O10 0.752730 0.565953 0.539792
O O11 0.491465 0.313195 0.560602
O O12 0.612643 0.966561 0.078138
O O13 0.055498 0.043436 0.604106
O O14 0.716603 0.718865 0.196904
O O15 0.639954 0.654155 0.001052
#
# Coordination Sequence:
#
# PCOD9542129 Si02
#       8
#     8   8   8   8   8   4   8   8
#     4  10  20  41  60  90 136 172 223 271 331 395
#     4  11  25  44  73  98 134 172 230 285 353 416
#     4  10  22  41  66  97 138 186 222 281 335 411
#     4  11  24  47  68  99 131 176 223 296 343 412
#     4  10  22  41  62  94 143 176 230 274 333 403
#     4  12  22  42  74 100 128 182 232 274 346 412
#     4  10  21  37  56  91 137 178 218 260 319 396
#     4  10  21  36  61  94 129 174 227 272 315 402
#
# _framework density 20.714072000000002
#
# number of rings (size 3 to 8) (size 9 to 14) (size 15 to 20)
#    0.000    1.600    2.667    1.600    0.000    2.133 
#    2.400    2.667    0.000    0.000    0.000    0.000 
#    0.000    0.000    0.000    0.000    0.000    0.000 
#
# Total GULP energy -167209.992361 kJ/mol
# GULP energy per Si atom -5573.666412 kJ/mol
# Density = 2.066693 g / cm^3
# Si number density = 20.714072 Si / 1000 Ang^3
#
#
#
# Elastic Constant Matrix: (Units=GPa)
#
#
# Indices 1 2 3 4 5 6 
#
# 1 50.3112 16.6471 24.7057 0.0000 0.0000 -3.8113
# 2 16.6471 50.3112 24.7057 0.0000 0.0000 3.8113
# 3 24.7057 24.7057 78.1700 0.0000 0.0000 0.0000
# 4 0.0000 0.0000 0.0000 22.0761 0.0000 0.0000
# 5 0.0000 0.0000 0.0000 0.0000 22.0761 0.0000
# 6 -3.8113 3.8113 0.0000 0.0000 0.0000 21.9245
#
#
#
# Elastic Compliance Matrix: (Units=1/GPa)
#
#
# Indices 1 2 3 4 5 6 
#
# 1 0.025200 -0.005723 -0.006156 0.000000 0.000000 0.005375
# 2 -0.005723 0.025200 -0.006156 0.000000 0.000000 -0.005375
# 3 -0.006156 -0.006156 0.016684 0.000000 0.000000 0.000000
# 4 0.000000 0.000000 0.000000 0.045298 0.000000 0.000000
# 5 0.000000 0.000000 0.000000 0.000000 0.045298 0.000000
# 6 0.005375 -0.005375 0.000000 0.000000 0.000000 0.047480
#
#
# Mechanical properties :
#
#
# Convention : Reuss Voigt Hill
#
# Bulk Modulus (GPa) = 32.24238 34.54548 33.39393
# Shear Modulus (GPa) = 19.87550 20.73092 20.30321
#
# Velocity S-wave (km/s) = 3.10097 3.16700 3.13416
# Velocity P-wave (km/s) = 5.33109 5.48513 5.40866
#
# Compressibility (1/GPa) = 0.03101508
#
# Stress axis : x y z
#
# Youngs Moduli (GPa) = 39.68279 39.68279 59.93869
#
# Poissons Ratio (x) = 0.22709 0.36897
# Poissons Ratio (y) = 0.22709 0.36897
# Poissons Ratio (z) = 0.24428 0.24428
#
# Static dielectric constant tensor:
#      x y z
#    x 1.769560 0.000000 0.000000 
#    y 0.000000 1.769560 0.000000 
#    z 0.000000 0.000000 1.764870 
# 
# From -- ./inp_files/762.got.cif
#   From: 2010.05.17/outbox.cif.g08.bks.cpg/sg80_cif.got.tgz:762.got - 2010.06.03 18:49:13.
