data_PCOD9542093
_publ_section_title
;
Structure prediction by ZEFSAII (Michael W. Deem and Ramdas Pophale) SiO2 
 PCOD9542093
Probable space group: I 41
;
_chemical_formula_sum "Si O2"
_cell_formula_units_Z 64
_cell_length_a 23.810853
_cell_length_b 23.810853
_cell_length_c 5.208656
_cell_angle_alpha 90.000000
_cell_angle_beta 90.000000
_cell_angle_gamma 90.000000
_cell_volume 2953.082524
_symmetry_space_group_name_H-M "I 41"
_symmetry_group_IT_number 80
_symmetry_cell_setting 'tetragonal'
loop_
_space_group_symop_operation_xyz
x,y,z
-y,1/2+x,1/4+z
-x,-y,z
y,1/2-x,1/4+z
1/2+x,1/2+y,1/2+z
1/2-y,x,3/4+z
1/2-x,1/2-y,1/2+z
1/2+y,-x,3/4+z
loop_
_atom_site_type_symbol
_atom_site_label
_atom_site_fract_x
_atom_site_fract_y
_atom_site_fract_z
Si Si1 0.701077 0.682049 0.382530
Si Si2 0.811654 0.930391 0.756366
Si Si3 0.560473 0.352041 0.877887
Si Si4 0.590343 0.709151 0.163138
Si Si5 0.510084 0.240344 0.860519
Si Si6 0.925127 0.986397 0.736101
Si Si7 0.118722 0.493105 0.128550
Si Si8 0.544846 0.118843 0.002083
O O1 0.687823 0.733612 0.567115
O O2 0.689223 0.618561 0.472589
O O3 0.655356 0.690496 0.149444
O O4 0.769362 0.906997 0.549506
O O5 0.874519 0.942179 0.683975
O O6 0.784583 0.988949 0.843247
O O7 0.560122 0.284792 0.847291
O O8 0.515451 0.374674 0.666616
O O9 0.614517 0.388569 0.801077
O O10 0.539672 0.363851 0.167432
O O11 0.558489 0.662015 0.334575
O O12 0.544094 0.722359 0.946617
O O13 0.523299 0.183386 0.018528
O O14 0.024543 0.054974 0.812623
O O15 0.922660 0.019919 0.470220
O O16 0.905039 0.023980 0.977710
#
# Coordination Sequence:
#
# PCOD9542093 Si02
#       8
#     8   8   8   8   8   8   8   8
#     4  10  22  34  50  78 111 152 207 266 300 342
#     4  10  19  37  54  78 113 153 208 244 297 350
#     4  11  24  40  63  91 120 158 201 248 311 371
#     4  10  19  37  54  78 113 153 208 244 297 350
#     4  10  22  38  64  82 118 156 200 254 298 376
#     4  11  22  39  60  89 122 163 202 252 303 358
#     4  11  22  39  60  89 122 163 202 252 303 358
#     4  11  24  40  63  91 120 158 201 248 311 371
#
# _framework density 21.672269
#
# number of rings (size 3 to 8) (size 9 to 14) (size 15 to 20)
#    0.000    1.500    3.750    1.500    1.750    3.000 
#    0.000    0.000    0.000    0.000    0.000    7.000 
#    0.000    0.000    0.000    0.000    0.000    0.000 
#
# Total GULP energy -178382.131782 kJ/mol
# GULP energy per Si atom -5574.441618 kJ/mol
# Density = 2.162294 g / cm^3
# Si number density = 21.672269 Si / 1000 Ang^3
#
#
#
# Elastic Constant Matrix: (Units=GPa)
#
#
# Indices 1 2 3 4 5 6 
#
# 1 70.6650 19.4302 10.7555 0.0000 0.0000 -10.7429
# 2 19.4302 70.6650 10.7555 0.0000 0.0000 10.7429
# 3 10.7555 10.7555 78.9856 0.0000 0.0000 0.0000
# 4 0.0000 0.0000 0.0000 20.9108 0.0000 0.0000
# 5 0.0000 0.0000 0.0000 0.0000 20.9108 0.0000
# 6 -10.7429 10.7429 0.0000 0.0000 0.0000 39.3122
#
#
#
# Elastic Compliance Matrix: (Units=1/GPa)
#
#
# Indices 1 2 3 4 5 6 
#
# 1 0.016758 -0.005286 -0.001562 0.000000 0.000000 0.006024
# 2 -0.005286 0.016758 -0.001562 0.000000 0.000000 -0.006024
# 3 -0.001562 -0.001562 0.013086 0.000000 0.000000 0.000000
# 4 0.000000 0.000000 0.000000 0.047822 0.000000 0.000000
# 5 0.000000 0.000000 0.000000 0.000000 0.047822 0.000000
# 6 0.006024 -0.006024 0.000000 0.000000 0.000000 0.028730
#
#
# Mechanical properties :
#
#
# Convention : Reuss Voigt Hill
#
# Bulk Modulus (GPa) = 33.57741 33.57754 33.57748
# Shear Modulus (GPa) = 25.28768 28.18504 26.73636
#
# Velocity S-wave (km/s) = 3.41958 3.61017 3.51617
# Velocity P-wave (km/s) = 5.57838 5.73627 5.65787
#
# Compressibility (1/GPa) = 0.02978193
#
# Stress axis : x y z
#
# Youngs Moduli (GPa) = 59.67196 59.67196 76.41766
#
# Poissons Ratio (x) = 0.31542 0.11938
# Poissons Ratio (y) = 0.31542 0.11938
# Poissons Ratio (z) = 0.09322 0.09322
#
# Static dielectric constant tensor:
#      x y z
#    x 1.893550 0.000000 0.000000 
#    y 0.000000 1.893550 0.000000 
#    z 0.000000 0.000000 1.857210 
# 
# From -- ./inp_files/427.got.cif
#   From: 2010.05.17/outbox.cif.g08.bks.cpg/sg80_cif.got.tgz:427.got - 2010.06.03 18:49:13.
