data_PCOD9542676
_publ_section_title
;
Structure prediction by ZEFSAII (Michael W. Deem and Ramdas Pophale) SiO2 
 PCOD9542676
Probable space group: I -4 
;
_chemical_formula_sum "Si O2"
_cell_formula_units_Z 38
_cell_length_a 10.850975
_cell_length_b 10.850975
_cell_length_c 12.910843
_cell_angle_alpha 90.000000
_cell_angle_beta 90.000000
_cell_angle_gamma 90.000000
_cell_volume 1520.169889
_symmetry_space_group_name_H-M "I -4 "
_symmetry_group_IT_number 82
_symmetry_cell_setting 'tetragonal'
loop_
_space_group_symop_operation_xyz
x,y,z
y,-x,-z
-x,-y,z
-y,x,-z
1/2+x,1/2+y,1/2+z
1/2+y,1/2-x,1/2-z
1/2-x,1/2-y,1/2+z
1/2-y,1/2+x,1/2-z
loop_
_atom_site_type_symbol
_atom_site_label
_atom_site_fract_x
_atom_site_fract_y
_atom_site_fract_z
Si Si1 0.520866 0.256738 0.214042
Si Si2 0.500000 0.500000 0.320335
Si Si3 0.258145 0.953577 0.892306
Si Si4 0.500000 0.000000 0.250000
Si Si5 0.357337 0.209272 0.829035
Si Si6 0.145514 0.465832 0.003520
O O1 0.458826 0.383653 0.249718
O O2 0.499048 0.141798 0.291772
O O3 0.664065 0.287638 0.194073
O O4 0.484739 0.200452 0.103125
O O5 0.611834 0.444365 0.385010
O O6 0.321519 0.906088 0.785635
O O7 0.319398 0.868742 0.979522
O O8 0.285231 0.099449 0.885688
O O9 0.473083 0.225510 0.905753
O O10 0.000000 0.500000 0.013692
#
# Coordination Sequence:
#
# PCOD9542676 Si02
#       6
#     8   4   8   2   8   8
#     4  11  24  43  67 102 140 186 234 298 366 438
#     4  10  24  42  67 101 142 182 230 300 367 427
#     4  10  19  39  64  97 128 180 231 277 351 427
#     4  12  24  48  72  92 146 192 244 280 388 456
#     4  10  20  36  66  94 129 170 229 279 338 418
#     4  10  21  40  68 100 131 177 234 286 351 436
#
# _framework density 24.997205999999998
#
# number of rings (size 3 to 8) (size 9 to 14) (size 15 to 20)
#    0.000    1.684    3.158    1.263    0.000    3.368 
#    7.579    3.158    0.000    1.263    0.000    0.000 
#    0.000    0.000    0.000    0.000    0.000    0.000 
#
# Total GULP energy -105931.828167 kJ/mol
# GULP energy per Si atom -5575.359377 kJ/mol
# Density = 2.494031 g / cm^3
# Si number density = 24.997206 Si / 1000 Ang^3
#
#
#
# Elastic Constant Matrix: (Units=GPa)
#
#
# Indices 1 2 3 4 5 6 
#
# 1 103.2527 6.0856 11.7324 0.0000 0.0000 -13.4304
# 2 6.0856 103.2527 11.7324 0.0000 0.0000 13.4304
# 3 11.7324 11.7324 79.6101 0.0000 0.0000 0.0000
# 4 0.0000 0.0000 0.0000 21.9623 0.0000 0.0000
# 5 0.0000 0.0000 0.0000 0.0000 21.9623 0.0000
# 6 -13.4304 13.4304 0.0000 0.0000 0.0000 33.6570
#
#
#
# Elastic Compliance Matrix: (Units=1/GPa)
#
#
# Indices 1 2 3 4 5 6 
#
# 1 0.010506 -0.001061 -0.001392 0.000000 0.000000 0.004616
# 2 -0.001061 0.010506 -0.001392 0.000000 0.000000 -0.004616
# 3 -0.001392 -0.001392 0.012971 0.000000 0.000000 0.000000
# 4 0.000000 0.000000 0.000000 0.045533 0.000000 0.000000
# 5 0.000000 0.000000 0.000000 0.000000 0.045533 0.000000
# 6 0.004616 -0.004616 0.000000 0.000000 0.000000 0.033395
#
#
# Mechanical properties :
#
#
# Convention : Reuss Voigt Hill
#
# Bulk Modulus (GPa) = 38.03265 38.35736 38.19501
# Shear Modulus (GPa) = 28.58790 32.62064 30.60427
#
# Velocity S-wave (km/s) = 3.38545 3.61636 3.50281
# Velocity P-wave (km/s) = 5.52535 5.72847 5.62783
#
# Compressibility (1/GPa) = 0.02629320
#
# Stress axis : x y z
#
# Youngs Moduli (GPa) = 95.18277 95.18277 77.09224
#
# Poissons Ratio (x) = 0.10103 0.10730
# Poissons Ratio (y) = 0.10103 0.10730
# Poissons Ratio (z) = 0.13248 0.13248
#
# Static dielectric constant tensor:
#      x y z
#    x 2.029280 0.000000 0.000000 
#    y 0.000000 2.029280 0.000000 
#    z 0.000000 0.000000 2.104480 
# 
# From -- ./inp_files/2220.got.cif
#   From: 2010.05.17/outbox.cif.g08.bks.cpg/sg82_2_cif.got.tgz:2220.got - 2010.06.03 18:52:26.
