data_PCOD9542844
_publ_section_title
;
Structure prediction by ZEFSAII (Michael W. Deem and Ramdas Pophale) SiO2 
 PCOD9542844
Probable space group: I -4 
;
_chemical_formula_sum "Si O2"
_cell_formula_units_Z 56
_cell_length_a 15.340146
_cell_length_b 15.340146
_cell_length_c 11.108164
_cell_angle_alpha 90.000000
_cell_angle_beta 90.000000
_cell_angle_gamma 90.000000
_cell_volume 2613.974033
_symmetry_space_group_name_H-M "I -4 "
_symmetry_group_IT_number 82
_symmetry_cell_setting 'tetragonal'
loop_
_space_group_symop_operation_xyz
x,y,z
y,-x,-z
-x,-y,z
-y,x,-z
1/2+x,1/2+y,1/2+z
1/2+y,1/2-x,1/2-z
1/2-x,1/2-y,1/2+z
1/2-y,1/2+x,1/2-z
loop_
_atom_site_type_symbol
_atom_site_label
_atom_site_fract_x
_atom_site_fract_y
_atom_site_fract_z
Si Si1 0.756456 0.328669 0.390955
Si Si2 0.785595 0.713688 0.829629
Si Si3 0.113116 0.144835 0.752067
Si Si4 0.807279 0.005821 0.598697
Si Si5 0.639060 0.035704 0.757355
Si Si6 0.586640 0.384049 0.498223
Si Si7 0.063106 0.834903 0.660390
O O1 0.767794 0.277188 0.264319
O O2 0.777103 0.286605 0.523164
O O3 0.812974 0.415710 0.368904
O O4 0.652828 0.346086 0.401330
O O5 0.874717 0.751321 0.772998
O O6 0.752298 0.616210 0.810273
O O7 0.155600 0.086039 0.649009
O O8 0.157582 0.108717 0.873117
O O9 0.010307 0.127866 0.747767
O O10 0.810885 0.994297 0.456659
O O11 0.713074 0.022737 0.655972
O O12 0.869245 0.086914 0.633771
O O13 0.558500 0.096786 0.716111
O O14 0.484078 0.383478 0.491108
#
# Coordination Sequence:
#
# PCOD9542844 Si02
#       7
#     8   8   8   8   8   8   8
#     4  11  23  44  65 101 135 187 240 295 354 427
#     4  11  24  43  68  96 143 183 236 293 352 437
#     4  11  24  39  61  94 135 177 225 290 357 419
#     4  12  24  41  69 103 142 180 242 298 366 429
#     4  11  24  43  70 101 140 191 242 302 359 436
#     4  10  22  36  58  89 128 174 218 275 353 424
#     4  12  24  41  66 103 138 185 232 305 363 428
#
# _framework density 21.423317999999998
#
# number of rings (size 3 to 8) (size 9 to 14) (size 15 to 20)
#    0.000    0.857    2.857    4.714    4.000    1.143 
#    0.000    2.857    0.000    2.143    0.000    0.000 
#    0.000    0.000    0.000    0.000    0.000    0.000 
#
# Total GULP energy -155933.181111 kJ/mol
# GULP energy per Si atom -5569.042183 kJ/mol
# Density = 2.137456 g / cm^3
# Si number density = 21.423318 Si / 1000 Ang^3
#
#
#
# Elastic Constant Matrix: (Units=GPa)
#
#
# Indices 1 2 3 4 5 6 
#
# 1 76.6485 25.7494 25.6073 0.0000 0.0000 -1.9984
# 2 25.7494 76.6485 25.6073 0.0000 0.0000 1.9984
# 3 25.6073 25.6073 96.4314 0.0000 0.0000 0.0000
# 4 0.0000 0.0000 0.0000 27.3485 0.0000 0.0000
# 5 0.0000 0.0000 0.0000 0.0000 27.3485 0.0000
# 6 -1.9984 1.9984 0.0000 0.0000 0.0000 41.2247
#
#
#
# Elastic Compliance Matrix: (Units=1/GPa)
#
#
# Indices 1 2 3 4 5 6 
#
# 1 0.015492 -0.004230 -0.002990 0.000000 0.000000 0.000956
# 2 -0.004230 0.015492 -0.002990 0.000000 0.000000 -0.000956
# 3 -0.002990 -0.002990 0.011958 0.000000 0.000000 0.000000
# 4 0.000000 0.000000 0.000000 0.036565 0.000000 0.000000
# 5 0.000000 0.000000 0.000000 0.000000 0.036565 0.000000
# 6 0.000956 -0.000956 0.000000 0.000000 0.000000 0.024350
#
#
# Mechanical properties :
#
#
# Convention : Reuss Voigt Hill
#
# Bulk Modulus (GPa) = 44.40615 44.85070 44.62842
# Shear Modulus (GPa) = 29.69996 30.70198 30.20097
#
# Velocity S-wave (km/s) = 3.72740 3.78975 3.75870
# Velocity P-wave (km/s) = 6.26878 6.33487 6.30191
#
# Compressibility (1/GPa) = 0.02251940
#
# Stress axis : x y z
#
# Youngs Moduli (GPa) = 64.55087 64.55087 83.62383
#
# Poissons Ratio (x) = 0.27306 0.25008
# Poissons Ratio (y) = 0.27306 0.25008
# Poissons Ratio (z) = 0.19304 0.19304
#
# Static dielectric constant tensor:
#      x y z
#    x 1.824870 0.000000 0.000000 
#    y 0.000000 1.824870 0.000000 
#    z 0.000000 0.000000 1.826490 
# 
# From -- ./inp_files/1839.got.cif
#   From: 2010.05.17/outbox.cif.g08.bks.cpg/sg82_1_cif.got.tgz:1839.got - 2010.06.03 18:52:26.
