data_PCOD9542851
_publ_section_title
;
Structure prediction by ZEFSAII (Michael W. Deem and Ramdas Pophale) SiO2 
 PCOD9542851
Probable space group: I -4 
;
_chemical_formula_sum "Si O2"
_cell_formula_units_Z 40
_cell_length_a 13.776181
_cell_length_b 13.776181
_cell_length_c 8.776910
_cell_angle_alpha 90.000000
_cell_angle_beta 90.000000
_cell_angle_gamma 90.000000
_cell_volume 1665.709741
_symmetry_space_group_name_H-M "I -4 "
_symmetry_group_IT_number 82
_symmetry_cell_setting 'tetragonal'
loop_
_space_group_symop_operation_xyz
x,y,z
y,-x,-z
-x,-y,z
-y,x,-z
1/2+x,1/2+y,1/2+z
1/2+y,1/2-x,1/2-z
1/2-x,1/2-y,1/2+z
1/2-y,1/2+x,1/2-z
loop_
_atom_site_type_symbol
_atom_site_label
_atom_site_fract_x
_atom_site_fract_y
_atom_site_fract_z
Si Si1 0.471105 0.767571 0.169930
Si Si2 0.032797 0.224593 0.359695
Si Si3 0.921292 0.653620 0.951316
Si Si4 0.807594 0.606044 0.374153
Si Si5 0.835798 0.830425 0.123561
O O1 0.444753 0.869739 0.094803
O O2 0.548878 0.784207 0.301610
O O3 0.369091 0.739970 0.250143
O O4 0.505671 0.698103 0.032876
O O5 0.124918 0.298956 0.373680
O O6 0.067373 0.150589 0.226143
O O7 0.939936 0.277063 0.286034
O O8 0.855957 0.724072 0.056073
O O9 0.019764 0.635340 0.042329
O O10 0.709444 0.619091 0.474155
#
# Coordination Sequence:
#
# PCOD9542851 Si02
#       5
#     8   8   8   8   8
#     4  11  22  37  63  92 119 160 203 243 297 364
#     4  11  22  37  63  92 119 160 203 243 297 364
#     4  10  22  38  59  90 126 159 191 247 309 355
#     4  10  22  38  59  90 126 159 191 247 309 355
#     4  10  22  40  58  85 124 161 200 244 292 350
#
# _framework density 24.013788000000002
#
# number of rings (size 3 to 8) (size 9 to 14) (size 15 to 20)
#    0.000    1.600    0.000    6.000    0.000    6.400 
#    0.000    0.000    0.000   70.800    0.000    0.000 
#    0.000    0.000    0.000    0.000    0.000    0.000 
#
# Total GULP energy -111341.895978 kJ/mol
# GULP energy per Si atom -5567.094799 kJ/mol
# Density = 2.395913 g / cm^3
# Si number density = 24.013788 Si / 1000 Ang^3
#
#
#
# Elastic Constant Matrix: (Units=GPa)
#
#
# Indices 1 2 3 4 5 6 
#
# 1 48.8162 29.7819 25.5566 0.0000 0.0000 -2.0112
# 2 29.7819 48.8162 25.5566 0.0000 0.0000 2.0112
# 3 25.5566 25.5566 168.9626 0.0000 0.0000 0.0000
# 4 0.0000 0.0000 0.0000 33.9914 0.0000 0.0000
# 5 0.0000 0.0000 0.0000 0.0000 33.9914 0.0000
# 6 -2.0112 2.0112 0.0000 0.0000 0.0000 8.5982
#
#
#
# Elastic Compliance Matrix: (Units=1/GPa)
#
#
# Indices 1 2 3 4 5 6 
#
# 1 0.034690 -0.020579 -0.002134 0.000000 0.000000 0.012928
# 2 -0.020579 0.034690 -0.002134 0.000000 0.000000 -0.012928
# 3 -0.002134 -0.002134 0.006564 0.000000 0.000000 0.000000
# 4 0.000000 0.000000 0.000000 0.029419 0.000000 0.000000
# 5 0.000000 0.000000 0.000000 0.000000 0.029419 0.000000
# 6 0.012928 -0.012928 0.000000 0.000000 0.000000 0.122352
#
#
# Mechanical properties :
#
#
# Convention : Reuss Voigt Hill
#
# Bulk Modulus (GPa) = 38.09727 47.59836 42.84782
# Shear Modulus (GPa) = 15.84390 27.69619 21.77004
#
# Velocity S-wave (km/s) = 2.57141 3.39978 3.01419
# Velocity P-wave (km/s) = 4.97146 5.93933 5.47682
#
# Compressibility (1/GPa) = 0.02624860
#
# Stress axis : x y z
#
# Youngs Moduli (GPa) = 28.82682 28.82682 152.34285
#
# Poissons Ratio (x) = 0.59323 0.32516
# Poissons Ratio (y) = 0.59323 0.32516
# Poissons Ratio (z) = 0.06153 0.06153
#
# Static dielectric constant tensor:
#      x y z
#    x 1.954470 0.000000 0.000000 
#    y 0.000000 1.954470 0.000000 
#    z 0.000000 0.000000 1.983440 
# 
# From -- ./inp_files/931.got.cif
#   From: 2010.05.17/outbox.cif.g08.bks.cpg/sg82_1_cif.got.tgz:931.got - 2010.06.03 18:52:26.
