data_PCOD9542110
_publ_section_title
;
Structure prediction by ZEFSAII (Michael W. Deem and Ramdas Pophale) SiO2 
 PCOD9542110
Probable space group: I 41
;
_chemical_formula_sum "Si O2"
_cell_formula_units_Z 44
_cell_length_a 12.111271
_cell_length_b 12.111271
_cell_length_c 16.550699
_cell_angle_alpha 90.000000
_cell_angle_beta 90.000000
_cell_angle_gamma 90.000000
_cell_volume 2427.704282
_symmetry_space_group_name_H-M "I 41"
_symmetry_group_IT_number 80
_symmetry_cell_setting 'tetragonal'
loop_
_space_group_symop_operation_xyz
x,y,z
-y,1/2+x,1/4+z
-x,-y,z
y,1/2-x,1/4+z
1/2+x,1/2+y,1/2+z
1/2-y,x,3/4+z
1/2-x,1/2-y,1/2+z
1/2+y,-x,3/4+z
loop_
_atom_site_type_symbol
_atom_site_label
_atom_site_fract_x
_atom_site_fract_y
_atom_site_fract_z
Si Si1 0.000000 0.500000 0.950910
Si Si2 0.149106 0.103815 0.383872
Si Si3 0.814083 0.404654 0.061382
Si Si4 0.726919 0.218417 0.940580
Si Si5 0.882508 0.662163 0.825388
Si Si6 0.865338 0.405148 0.575866
O O1 0.073705 0.428028 0.889581
O O2 0.075568 0.573076 0.010094
O O3 0.254686 0.173211 0.353048
O O4 0.131547 0.115803 0.480267
O O5 0.033838 0.131635 0.342403
O O6 0.158791 0.974594 0.358144
O O7 0.819494 0.338999 0.146081
O O8 0.758252 0.524275 0.076910
O O9 0.745815 0.320655 0.003055
O O10 0.646305 0.264398 0.873468
O O11 0.661418 0.121827 0.984357
#
# Coordination Sequence:
#
# PCOD9542110 Si02
#       6
#     4   8   8   8   8   8
#     4  12  22  40  64  90 130 158 212 264 322 376
#     4  11  23  37  61  91 130 159 214 264 321 365
#     4  11  22  38  63  93 121 163 204 264 315 373
#     4  10  20  38  63  89 122 158 216 251 312 378
#     4  12  22  38  59  96 121 161 202 268 312 376
#     4  10  20  37  59  90 117 170 204 264 307 380
#
# _framework density 18.124119
#
# number of rings (size 3 to 8) (size 9 to 14) (size 15 to 20)
#    0.000    1.091    5.455    2.182    2.545    0.000 
#    3.273    0.000    0.000    4.364    0.000    0.000 
#    0.000    0.000    0.000    0.000    0.000    0.000 
#
# Total GULP energy -122510.266521 kJ/mol
# GULP energy per Si atom -5568.648478 kJ/mol
# Density = 1.808287 g / cm^3
# Si number density = 18.124119 Si / 1000 Ang^3
#
#
#
# Elastic Constant Matrix: (Units=GPa)
#
#
# Indices 1 2 3 4 5 6 
#
# 1 62.7686 29.6588 35.3985 0.0000 0.0000 2.6114
# 2 29.6588 62.7686 35.3985 0.0000 0.0000 -2.6114
# 3 35.3985 35.3985 83.8049 0.0000 0.0000 0.0000
# 4 0.0000 0.0000 0.0000 25.9198 0.0000 0.0000
# 5 0.0000 0.0000 0.0000 0.0000 25.9198 0.0000
# 6 2.6114 -2.6114 0.0000 0.0000 0.0000 18.1423
#
#
#
# Elastic Compliance Matrix: (Units=1/GPa)
#
#
# Indices 1 2 3 4 5 6 
#
# 1 0.023449 -0.007455 -0.006756 0.000000 0.000000 -0.004448
# 2 -0.007455 0.023449 -0.006756 0.000000 0.000000 0.004448
# 3 -0.006756 -0.006756 0.017640 0.000000 0.000000 0.000000
# 4 0.000000 0.000000 0.000000 0.038581 0.000000 0.000000
# 5 0.000000 0.000000 0.000000 0.000000 0.038581 0.000000
# 6 -0.004448 0.004448 0.000000 0.000000 0.000000 0.056401
#
#
# Mechanical properties :
#
#
# Convention : Reuss Voigt Hill
#
# Bulk Modulus (GPa) = 44.23862 45.58377 44.91119
# Shear Modulus (GPa) = 20.19651 21.25546 20.72599
#
# Velocity S-wave (km/s) = 3.34180 3.42829 3.38532
# Velocity P-wave (km/s) = 6.27311 6.39347 6.33357
#
# Compressibility (1/GPa) = 0.02260468
#
# Stress axis : x y z
#
# Youngs Moduli (GPa) = 42.64553 42.64553 56.69056
#
# Poissons Ratio (x) = 0.31793 0.38299
# Poissons Ratio (y) = 0.31793 0.38299
# Poissons Ratio (z) = 0.28810 0.28810
#
# Static dielectric constant tensor:
#      x y z
#    x 1.670370 0.000000 0.000000 
#    y 0.000000 1.670370 0.000000 
#    z 0.000000 0.000000 1.652780 
# 
# From -- ./inp_files/1494.got.cif
#   From: 2010.05.17/outbox.cif.g08.bks.cpg/sg80_cif.got.tgz:1494.got - 2010.06.03 18:49:13.
