data_PCOD9542864
_publ_section_title
;
Structure prediction by ZEFSAII (Michael W. Deem and Ramdas Pophale) SiO2 
 PCOD9542864
Probable space group: I -4 
;
_chemical_formula_sum "Si O2"
_cell_formula_units_Z 46
_cell_length_a 11.011157
_cell_length_b 11.011157
_cell_length_c 16.756883
_cell_angle_alpha 90.000000
_cell_angle_beta 90.000000
_cell_angle_gamma 90.000000
_cell_volume 2031.697973
_symmetry_space_group_name_H-M "I -4 "
_symmetry_group_IT_number 82
_symmetry_cell_setting 'tetragonal'
loop_
_space_group_symop_operation_xyz
x,y,z
y,-x,-z
-x,-y,z
-y,x,-z
1/2+x,1/2+y,1/2+z
1/2+y,1/2-x,1/2-z
1/2-x,1/2-y,1/2+z
1/2-y,1/2+x,1/2-z
loop_
_atom_site_type_symbol
_atom_site_label
_atom_site_fract_x
_atom_site_fract_y
_atom_site_fract_z
Si Si1 0.000000 0.500000 0.750000
Si Si2 0.500000 0.500000 0.801374
Si Si3 0.673369 0.211833 0.825153
Si Si4 0.823257 0.014960 0.980162
Si Si5 0.626186 0.935705 0.524417
Si Si6 0.766752 0.474030 0.860365
Si Si7 0.547712 0.283942 0.680465
O O1 0.878127 0.519103 0.803897
O O2 0.628551 0.525171 0.846533
O O3 0.536933 0.393336 0.741687
O O4 0.574158 0.209484 0.896585
O O5 0.752531 0.330993 0.840075
O O6 0.627210 0.196869 0.734542
O O7 0.740887 0.086869 0.838036
O O8 0.698834 0.080688 0.001864
O O9 0.807029 0.913815 0.909506
O O10 0.927387 0.112232 0.955416
O O11 0.500000 0.000000 0.546755
O O12 0.691418 0.000682 0.450738
#
# Coordination Sequence:
#
# PCOD9542864 Si02
#       7
#     2   4   8   8   8   8   8
#     4  12  24  44  80 104 152 190 244 308 364 448
#     4  10  22  42  66  96 140 182 232 284 359 412
#     4  10  25  42  67  97 134 178 236 290 360 416
#     4  10  23  42  70 103 134 180 229 292 352 415
#     4  11  26  43  69  98 141 180 233 296 356 438
#     4  11  25  45  67 106 140 193 235 299 362 445
#     4  10  22  40  64  95 130 174 224 291 336 430
#
# _framework density 22.641159999999999
#
# number of rings (size 3 to 8) (size 9 to 14) (size 15 to 20)
#    0.000    1.565    0.870    2.087    9.739    8.348 
#    0.000    0.870    0.000    0.000    0.000    0.000 
#    0.000    0.000    0.000    0.000    0.000    0.000 
#
# Total GULP energy -128122.224033 kJ/mol
# GULP energy per Si atom -5570.531480 kJ/mol
# Density = 2.258963 g / cm^3
# Si number density = 22.641160 Si / 1000 Ang^3
#
#
#
# Elastic Constant Matrix: (Units=GPa)
#
#
# Indices 1 2 3 4 5 6 
#
# 1 62.7255 5.1652 7.7340 0.0000 0.0000 0.8763
# 2 5.1652 62.7255 7.7340 0.0000 0.0000 -0.8763
# 3 7.7340 7.7340 118.6019 0.0000 0.0000 0.0000
# 4 0.0000 0.0000 0.0000 23.3866 0.0000 0.0000
# 5 0.0000 0.0000 0.0000 0.0000 23.3866 0.0000
# 6 0.8763 -0.8763 0.0000 0.0000 0.0000 25.9876
#
#
#
# Elastic Compliance Matrix: (Units=1/GPa)
#
#
# Indices 1 2 3 4 5 6 
#
# 1 0.016171 -0.001220 -0.000975 0.000000 0.000000 -0.000586
# 2 -0.001220 0.016171 -0.000975 0.000000 0.000000 0.000586
# 3 -0.000975 -0.000975 0.008559 0.000000 0.000000 0.000000
# 4 0.000000 0.000000 0.000000 0.042760 0.000000 0.000000
# 5 0.000000 0.000000 0.000000 0.000000 0.042760 0.000000
# 6 -0.000586 0.000586 0.000000 0.000000 0.000000 0.038519
#
#
# Mechanical properties :
#
#
# Convention : Reuss Voigt Hill
#
# Bulk Modulus (GPa) = 28.93339 31.70214 30.31777
# Shear Modulus (GPa) = 27.35233 29.44681 28.39957
#
# Velocity S-wave (km/s) = 3.47952 3.61028 3.54550
# Velocity P-wave (km/s) = 5.38048 5.60457 5.49367
#
# Compressibility (1/GPa) = 0.03456215
#
# Stress axis : x y z
#
# Youngs Moduli (GPa) = 61.83789 61.83789 116.83975
#
# Poissons Ratio (x) = 0.07542 0.11392
# Poissons Ratio (y) = 0.07542 0.11392
# Poissons Ratio (z) = 0.06029 0.06029
#
# Static dielectric constant tensor:
#      x y z
#    x 2.165350 0.000000 0.000000 
#    y 0.000000 2.165350 0.000000 
#    z 0.000000 0.000000 2.011130 
# 
# From -- ./inp_files/2668.got.cif
#   From: 2010.05.17/outbox.cif.g08.bks.cpg/sg82_2_cif.got.tgz:2668.got - 2010.06.03 18:52:26.
