data_PCOD9542863
_publ_section_title
;
Structure prediction by ZEFSAII (Michael W. Deem and Ramdas Pophale) SiO2 
 PCOD9542863
Probable space group: I -4 
;
_chemical_formula_sum "Si O2"
_cell_formula_units_Z 24
_cell_length_a 13.111609
_cell_length_b 13.111609
_cell_length_c 5.232075
_cell_angle_alpha 90.000000
_cell_angle_beta 90.000000
_cell_angle_gamma 90.000000
_cell_volume 899.468462
_symmetry_space_group_name_H-M "I -4 "
_symmetry_group_IT_number 82
_symmetry_cell_setting 'tetragonal'
loop_
_space_group_symop_operation_xyz
x,y,z
y,-x,-z
-x,-y,z
-y,x,-z
1/2+x,1/2+y,1/2+z
1/2+y,1/2-x,1/2-z
1/2-x,1/2-y,1/2+z
1/2-y,1/2+x,1/2-z
loop_
_atom_site_type_symbol
_atom_site_label
_atom_site_fract_x
_atom_site_fract_y
_atom_site_fract_z
Si Si1 0.319117 0.143705 0.960982
Si Si2 0.897251 0.116627 0.892758
Si Si3 0.771047 0.530105 0.954696
O O1 0.320270 0.088841 0.690123
O O2 0.202518 0.181955 0.007832
O O3 0.410801 0.221341 0.989619
O O4 0.328427 0.062238 0.192876
O O5 0.933421 0.156914 0.617704
O O6 0.000894 0.132098 0.062803
#
# Coordination Sequence:
#
# PCOD9542863 Si02
#       3
#     8   8   8
#     4  10  22  40  64 101 135 174 231 286 351 429
#     4   9  22  46  69  96 138 186 235 288 357 433
#     4  10  22  40  66 101 133 180 225 290 352 417
#
# _framework density 26.682427000000001
#
# number of rings (size 3 to 8) (size 9 to 14) (size 15 to 20)
#    2.000    0.333    0.000    2.000    0.000    6.667 
#    6.000    3.333    0.000    0.000    0.000    0.000 
#    0.000    0.000    0.000    0.000    0.000    0.000 
#
# Total GULP energy -67113.098165 kJ/mol
# GULP energy per Si atom -5592.758180 kJ/mol
# Density = 2.662170 g / cm^3
# Si number density = 26.682427 Si / 1000 Ang^3
#
#
#
# Elastic Constant Matrix: (Units=GPa)
#
#
# Indices 1 2 3 4 5 6 
#
# 1 133.8767 49.8650 47.2445 0.0000 0.0000 17.2590
# 2 49.8650 133.8767 47.2445 0.0000 0.0000 -17.2590
# 3 47.2445 47.2445 217.7329 0.0000 0.0000 0.0000
# 4 0.0000 0.0000 0.0000 30.1374 0.0000 0.0000
# 5 0.0000 0.0000 0.0000 0.0000 30.1374 0.0000
# 6 17.2590 -17.2590 0.0000 0.0000 0.0000 49.4184
#
#
#
# Elastic Compliance Matrix: (Units=1/GPa)
#
#
# Indices 1 2 3 4 5 6 
#
# 1 0.010012 -0.003886 -0.001329 0.000000 0.000000 -0.004854
# 2 -0.003886 0.010012 -0.001329 0.000000 0.000000 0.004854
# 3 -0.001329 -0.001329 0.005170 0.000000 0.000000 0.000000
# 4 0.000000 0.000000 0.000000 0.033181 0.000000 0.000000
# 5 0.000000 0.000000 0.000000 0.000000 0.033181 0.000000
# 6 -0.004854 0.004854 0.000000 0.000000 0.000000 0.023626
#
#
# Mechanical properties :
#
#
# Convention : Reuss Voigt Hill
#
# Bulk Modulus (GPa) = 82.61295 86.02159 84.31727
# Shear Modulus (GPa) = 37.79170 44.68080 41.23625
#
# Velocity S-wave (km/s) = 3.76753 4.09655 3.93548
# Velocity P-wave (km/s) = 7.06785 7.39491 7.23323
#
# Compressibility (1/GPa) = 0.01210464
#
# Stress axis : x y z
#
# Youngs Moduli (GPa) = 99.88380 99.88380 193.43749
#
# Poissons Ratio (x) = 0.38811 0.25712
# Poissons Ratio (y) = 0.38811 0.25712
# Poissons Ratio (z) = 0.13277 0.13277
#
# Static dielectric constant tensor:
#      x y z
#    x 2.070720 0.000000 0.000000 
#    y 0.000000 2.070720 0.000000 
#    z 0.000000 0.000000 2.136030 
# 
# From -- ./inp_files/80.got.cif
#   From: 2010.05.17/outbox.cif.g08.bks.cpg/sg82_1_cif.got.tgz:80.got - 2010.06.03 18:52:26.
