data_PCOD9542280
_publ_section_title
;
Structure prediction by ZEFSAII (Michael W. Deem and Ramdas Pophale) SiO2 
 PCOD9542280
Probable space group: I 41
;
_chemical_formula_sum "Si O2"
_cell_formula_units_Z 36
_cell_length_a 12.310840
_cell_length_b 12.310840
_cell_length_c 9.060271
_cell_angle_alpha 90.000000
_cell_angle_beta 90.000000
_cell_angle_gamma 90.000000
_cell_volume 1373.145512
_symmetry_space_group_name_H-M "I 41"
_symmetry_group_IT_number 80
_symmetry_cell_setting 'tetragonal'
loop_
_space_group_symop_operation_xyz
x,y,z
-y,1/2+x,1/4+z
-x,-y,z
y,1/2-x,1/4+z
1/2+x,1/2+y,1/2+z
1/2-y,x,3/4+z
1/2-x,1/2-y,1/2+z
1/2+y,-x,3/4+z
loop_
_atom_site_type_symbol
_atom_site_label
_atom_site_fract_x
_atom_site_fract_y
_atom_site_fract_z
Si Si1 0.167494 0.463502 0.962040
Si Si2 0.463502 0.832506 0.461843
Si Si3 0.170957 0.826727 0.164493
Si Si4 0.000000 0.000000 0.211942
Si Si5 0.326727 0.329043 0.759390
O O1 0.109972 0.570477 0.898639
O O2 0.231957 0.395910 0.841415
O O3 0.070477 0.390028 0.025244
O O4 0.250000 0.500000 0.086942
O O5 0.395910 0.768043 0.582468
O O6 0.173684 0.787486 0.333810
O O7 0.101981 0.936291 0.139701
O O8 0.063709 0.101981 0.284183
O O9 0.287486 0.326316 0.590073
#
# Coordination Sequence:
#
# PCOD9542280 Si02
#       5
#     8   8   8   4   8
#     4  11  25  44  75 113 155 201 263 313 386 458
#     4  11  25  44  75 113 155 201 263 313 386 458
#     4  12  29  52  81 114 159 206 262 323 393 465
#     4  12  32  48  80 118 164 192 264 330 396 448
#     4  12  29  52  81 114 159 206 262 323 393 465
#
# _framework density 26.217177
#
# number of rings (size 3 to 8) (size 9 to 14) (size 15 to 20)
#    0.000    0.444    4.444    1.333   12.444    0.000 
#    0.000    0.000    0.000    0.000    0.000    0.000 
#    0.000    0.000    0.000    0.000    0.000    0.000 
#
# Total GULP energy -100912.150254 kJ/mol
# GULP energy per Si atom -5606.230570 kJ/mol
# Density = 2.615751 g / cm^3
# Si number density = 26.217177 Si / 1000 Ang^3
#
#
#
# Elastic Constant Matrix: (Units=GPa)
#
#
# Indices 1 2 3 4 5 6 
#
# 1 124.5026 51.3739 30.3283 0.0000 0.0000 12.3586
# 2 51.3739 124.5026 30.3283 0.0000 0.0000 -12.3586
# 3 30.3283 30.3283 74.8568 0.0000 0.0000 0.0000
# 4 0.0000 0.0000 0.0000 24.5789 0.0000 0.0000
# 5 0.0000 0.0000 0.0000 0.0000 24.5789 0.0000
# 6 12.3586 -12.3586 0.0000 0.0000 0.0000 83.9676
#
#
#
# Elastic Compliance Matrix: (Units=1/GPa)
#
#
# Indices 1 2 3 4 5 6 
#
# 1 0.010500 -0.003891 -0.002678 0.000000 0.000000 -0.002118
# 2 -0.003891 0.010500 -0.002678 0.000000 0.000000 0.002118
# 3 -0.002678 -0.002678 0.015529 0.000000 0.000000 0.000000
# 4 0.000000 0.000000 0.000000 0.040685 0.000000 0.000000
# 5 0.000000 0.000000 0.000000 0.000000 0.040685 0.000000
# 6 -0.002118 0.002118 0.000000 0.000000 0.000000 0.012533
#
#
# Mechanical properties :
#
#
# Convention : Reuss Voigt Hill
#
# Bulk Modulus (GPa) = 55.44405 60.88034 58.16219
# Shear Modulus (GPa) = 32.27140 40.74720 36.50930
#
# Velocity S-wave (km/s) = 3.51226 3.94663 3.73577
# Velocity P-wave (km/s) = 6.13530 6.63625 6.39069
#
# Compressibility (1/GPa) = 0.01803620
#
# Stress axis : x y z
#
# Youngs Moduli (GPa) = 95.23938 95.23938 64.39714
#
# Poissons Ratio (x) = 0.37053 0.17244
# Poissons Ratio (y) = 0.37053 0.17244
# Poissons Ratio (z) = 0.25503 0.25503
#
# Static dielectric constant tensor:
#      x y z
#    x 2.055240 0.000000 0.000000 
#    y 0.000000 2.055240 0.000000 
#    z 0.000000 0.000000 2.057110 
# 
# From -- ./inp_files/955.got.cif
#   From: 2010.05.17/outbox.cif.g08.bks.cpg/sg80_cif.got.tgz:955.got - 2010.06.03 18:49:13.
