data_PCOD9542610
_publ_section_title
;
Structure prediction by ZEFSAII (Michael W. Deem and Ramdas Pophale) SiO2 
 PCOD9542610
Probable space group: I -4 
;
_chemical_formula_sum "Si O2"
_cell_formula_units_Z 36
_cell_length_a 7.338173
_cell_length_b 7.338173
_cell_length_c 27.626465
_cell_angle_alpha 90.000000
_cell_angle_beta 90.000000
_cell_angle_gamma 90.000000
_cell_volume 1487.651518
_symmetry_space_group_name_H-M "I -4 "
_symmetry_group_IT_number 82
_symmetry_cell_setting 'tetragonal'
loop_
_space_group_symop_operation_xyz
x,y,z
y,-x,-z
-x,-y,z
-y,x,-z
1/2+x,1/2+y,1/2+z
1/2+y,1/2-x,1/2-z
1/2-x,1/2-y,1/2+z
1/2-y,1/2+x,1/2-z
loop_
_atom_site_type_symbol
_atom_site_label
_atom_site_fract_x
_atom_site_fract_y
_atom_site_fract_z
Si Si1 0.220965 0.121004 0.083006
Si Si2 0.000000 0.500000 0.750000
Si Si3 0.500000 0.000000 0.750000
Si Si4 0.000000 0.000000 0.336914
Si Si5 0.369588 0.724279 0.080054
Si Si6 0.000000 0.000000 0.500000
Si Si7 0.000000 0.000000 0.000000
Si Si8 0.712357 0.283687 0.307551
O O1 0.418510 0.212343 0.077475
O O2 0.158452 0.173319 0.136956
O O3 0.253304 0.903936 0.082457
O O4 0.095441 0.146259 0.035943
O O5 0.179945 0.459071 0.717135
O O6 0.557219 0.820236 0.719733
O O7 0.893902 0.858901 0.371639
O O8 0.145231 0.884176 0.308793
O O9 0.350280 0.593812 0.034257
#
# Coordination Sequence:
#
# PCOD9542610 Si02
#       8
#     8   2   2   4   8   2   2   8
#     4  10  22  39  57  85 126 171 216 264 320 399
#     4  12  24  44  76  98 128 188 228 256 332 418
#     4  12  28  44  68 106 136 168 220 288 348 378
#     4   9  18  37  63  90 124 170 211 263 330 391
#     4   9  18  34  57  84 120 165 213 259 318 382
#     4  10  16  28  56  88 118 156 212 276 308 362
#     4  12  24  36  58  88 122 168 214 264 332 382
#     4  11  24  43  67  98 133 171 220 277 331 400
#
# _framework density 24.199217999999998
#
# number of rings (size 3 to 8) (size 9 to 14) (size 15 to 20)
#    0.000    1.778    0.000    5.333    0.000    3.556 
#    0.000    4.444    0.000    0.000    0.000    0.000 
#    0.000    0.000    0.000    0.000    0.000    0.000 
#
# Total GULP energy -100585.661932 kJ/mol
# GULP energy per Si atom -5588.092330 kJ/mol
# Density = 2.414414 g / cm^3
# Si number density = 24.199218 Si / 1000 Ang^3
#
#
#
# Elastic Constant Matrix: (Units=GPa)
#
#
# Indices 1 2 3 4 5 6 
#
# 1 66.0394 5.8888 36.6603 0.0000 0.0000 6.3936
# 2 5.8888 66.0394 36.6603 0.0000 0.0000 -6.3936
# 3 36.6603 36.6603 155.8088 0.0000 0.0000 0.0000
# 4 0.0000 0.0000 0.0000 33.3562 0.0000 0.0000
# 5 0.0000 0.0000 0.0000 0.0000 33.3562 0.0000
# 6 6.3936 -6.3936 0.0000 0.0000 0.0000 37.9660
#
#
#
# Elastic Compliance Matrix: (Units=1/GPa)
#
#
# Indices 1 2 3 4 5 6 
#
# 1 0.017766 0.000524 -0.004303 0.000000 0.000000 -0.002904
# 2 0.000524 0.017766 -0.004303 0.000000 0.000000 0.002904
# 3 -0.004303 -0.004303 0.008443 0.000000 0.000000 0.000000
# 4 0.000000 0.000000 0.000000 0.029979 0.000000 0.000000
# 5 0.000000 0.000000 0.000000 0.000000 0.029979 0.000000
# 6 -0.002904 0.002904 0.000000 0.000000 0.000000 0.027317
#
#
# Mechanical properties :
#
#
# Convention : Reuss Voigt Hill
#
# Bulk Modulus (GPa) = 35.95999 49.58959 42.77479
# Shear Modulus (GPa) = 31.91084 34.84757 33.37921
#
# Velocity S-wave (km/s) = 3.63529 3.79889 3.71799
# Velocity P-wave (km/s) = 5.70199 6.30704 6.01213
#
# Compressibility (1/GPa) = 0.02780869
#
# Stress axis : x y z
#
# Youngs Moduli (GPa) = 56.28793 56.28793 118.43884
#
# Poissons Ratio (x) = -0.02947 0.50968
# Poissons Ratio (y) = -0.02947 0.50968
# Poissons Ratio (z) = 0.24222 0.24222
#
# Static dielectric constant tensor:
#      x y z
#    x 1.968960 0.000000 0.000000 
#    y 0.000000 1.968960 0.000000 
#    z 0.000000 0.000000 1.954000 
# 
# From -- ./inp_files/3679.got.cif
#   From: 2010.05.17/outbox.cif.g08.bks.cpg/sg82_2_cif.got.tgz:3679.got - 2010.06.03 18:52:26.
