data_PCOD9542010
_publ_section_title
;
Structure prediction by ZEFSAII (Michael W. Deem and Ramdas Pophale) SiO2 
 PCOD9542010
Probable space group: I 4
;
_chemical_formula_sum "Si O2"
_cell_formula_units_Z 48
_cell_length_a 13.453110
_cell_length_b 13.453110
_cell_length_c 14.053870
_cell_angle_alpha 90.000000
_cell_angle_beta 90.000000
_cell_angle_gamma 90.000000
_cell_volume 2543.556086
_symmetry_space_group_name_H-M "I 4"
_symmetry_group_IT_number 79
_symmetry_cell_setting 'tetragonal'
loop_
_space_group_symop_operation_xyz
x,y,z
-y,x,z
-x,-y,z
y,-x,z
1/2+x,1/2+y,1/2+z
1/2-y,1/2+x,1/2+z
1/2-x,1/2-y,1/2+z
1/2+y,1/2-x,1/2+z
loop_
_atom_site_type_symbol
_atom_site_label
_atom_site_fract_x
_atom_site_fract_y
_atom_site_fract_z
Si Si1 0.958168 0.161326 0.392420
Si Si2 0.651819 0.185045 0.766071
Si Si3 0.380291 0.004910 0.112877
Si Si4 0.348181 0.814956 0.237463
Si Si5 0.119709 0.495091 0.390657
Si Si6 0.958168 0.161326 0.611114
O O1 0.928178 0.246468 0.320746
O O2 0.949503 0.196371 0.501767
O O3 0.068108 0.116665 0.379904
O O4 0.604851 0.153454 0.665706
O O5 0.750000 0.250000 0.751767
O O6 0.664113 0.088180 0.832375
O O7 0.335886 0.911820 0.171160
O O8 0.500000 0.000000 0.121366
O O9 0.353981 0.002243 0.001767
O O10 0.395149 0.846546 0.337828
O O11 0.428178 0.746468 0.182788
O O12 0.000000 0.500000 0.382168
O O13 0.068108 0.116665 0.623631
#
# Coordination Sequence:
#
# PCOD9542010 Si02
#       6
#     8   8   8   8   8   8
#     4   9  19  35  57  88 122 157 202 255 306 359
#     4  12  22  39  63  91 123 163 212 253 311 375
#     4  11  24  43  63  89 127 164 206 258 310 367
#     4  12  22  39  63  91 123 163 212 253 311 375
#     4  11  24  43  63  89 127 164 206 258 310 367
#     4   9  19  35  57  88 122 157 202 255 306 359
#
# _framework density 18.871219
#
# number of rings (size 3 to 8) (size 9 to 14) (size 15 to 20)
#    0.000    1.333    3.333    4.000    0.000    2.667 
#    0.000    0.000    0.000    0.000    0.000    7.000 
#    0.000    0.000    0.000    0.000    0.000    0.000 
#
# Total GULP energy -134191.541283 kJ/mol
# GULP energy per Si atom -5591.314220 kJ/mol
# Density = 1.882827 g / cm^3
# Si number density = 18.871219 Si / 1000 Ang^3
#
#
#
# Elastic Constant Matrix: (Units=GPa)
#
#
# Indices 1 2 3 4 5 6 
#
# 1 83.1435 30.5401 63.3491 0.0000 0.0000 15.8923
# 2 30.5401 83.1435 63.3491 0.0000 0.0000 -15.8923
# 3 63.3491 63.3491 141.8925 0.0000 0.0000 0.0000
# 4 0.0000 0.0000 0.0000 22.3788 0.0000 0.0000
# 5 0.0000 0.0000 0.0000 0.0000 22.3788 0.0000
# 6 15.8923 -15.8923 0.0000 0.0000 0.0000 38.5737
#
#
#
# Elastic Compliance Matrix: (Units=1/GPa)
#
#
# Indices 1 2 3 4 5 6 
#
# 1 0.021409 -0.003902 -0.007816 0.000000 0.000000 -0.010428
# 2 -0.003902 0.021409 -0.007816 0.000000 0.000000 0.010428
# 3 -0.007816 -0.007816 0.014027 0.000000 0.000000 0.000000
# 4 0.000000 0.000000 0.000000 0.044685 0.000000 0.000000
# 5 0.000000 0.000000 0.000000 0.000000 0.044685 0.000000
# 6 -0.010428 0.010428 0.000000 0.000000 0.000000 0.034517
#
#
# Mechanical properties :
#
#
# Convention : Reuss Voigt Hill
#
# Bulk Modulus (GPa) = 56.25396 69.18402 62.71899
# Shear Modulus (GPa) = 22.15057 26.72902 24.43979
#
# Velocity S-wave (km/s) = 3.42976 3.76758 3.60263
# Velocity P-wave (km/s) = 6.74970 7.46103 7.11426
#
# Compressibility (1/GPa) = 0.01777653
#
# Stress axis : x y z
#
# Youngs Moduli (GPa) = 46.70848 46.70849 71.29106
#
# Poissons Ratio (x) = 0.18225 0.55724
# Poissons Ratio (y) = 0.18225 0.55724
# Poissons Ratio (z) = 0.36509 0.36509
#
# Static dielectric constant tensor:
#      x y z
#    x 1.655170 0.000000 0.000000 
#    y 0.000000 1.655170 0.000000 
#    z 0.000000 0.000000 1.633280 
# 
# From -- ./inp_files/1081.got.cif
#   From: 2010.05.17/outbox.cif.g08.bks.cpg/sg79_cif.got.tgz:1081.got - 2010.06.03 18:47:27.
