data_PCOD9542995
_publ_section_title
;
Structure prediction by ZEFSAII (Michael W. Deem and Ramdas Pophale) SiO2 
 PCOD9542995
Probable space group: I -4 
;
_chemical_formula_sum "Si O2"
_cell_formula_units_Z 40
_cell_length_a 8.803468
_cell_length_b 8.803468
_cell_length_c 21.449726
_cell_angle_alpha 90.000000
_cell_angle_beta 90.000000
_cell_angle_gamma 90.000000
_cell_volume 1662.376262
_symmetry_space_group_name_H-M "I -4 "
_symmetry_group_IT_number 82
_symmetry_cell_setting 'tetragonal'
loop_
_space_group_symop_operation_xyz
x,y,z
y,-x,-z
-x,-y,z
-y,x,-z
1/2+x,1/2+y,1/2+z
1/2+y,1/2-x,1/2-z
1/2-x,1/2-y,1/2+z
1/2-y,1/2+x,1/2-z
loop_
_atom_site_type_symbol
_atom_site_label
_atom_site_fract_x
_atom_site_fract_y
_atom_site_fract_z
Si Si1 0.969790 0.728882 0.268021
Si Si2 0.934919 0.326514 0.047849
Si Si3 0.570461 0.219198 0.280309
Si Si4 0.158380 0.786302 0.918753
Si Si5 0.321551 0.484607 0.095107
O O1 0.845414 0.595137 0.276123
O O2 0.881706 0.871366 0.241729
O O3 0.040475 0.766568 0.334066
O O4 0.765558 0.364810 0.071621
O O5 0.000000 0.500000 0.050871
O O6 0.035564 0.205150 0.086365
O O7 0.941507 0.260424 0.977950
O O8 0.406391 0.177331 0.253322
O O9 0.590871 0.219002 0.354911
O O10 0.324240 0.717769 0.935859
O O11 0.500000 0.500000 0.092014
#
# Coordination Sequence:
#
# PCOD9542995 Si02
#       5
#     8   8   8   8   8
#     4  11  23  41  69  97 143 188 235 295 365 440
#     4  10  26  43  75 105 145 200 239 314 367 440
#     4  11  25  43  70 106 148 190 241 307 370 437
#     4  11  24  48  68 103 152 191 251 302 374 444
#     4  11  24  42  73 108 142 187 252 303 365 448
#
# _framework density 24.061938000000001
#
# number of rings (size 3 to 8) (size 9 to 14) (size 15 to 20)
#    0.000    1.200    2.000    2.400   14.000    2.000 
#    0.000    2.000    0.000    0.000    0.000    0.000 
#    0.000    0.000    0.000    0.000    0.000    0.000 
#
# Total GULP energy -111828.037960 kJ/mol
# GULP energy per Si atom -5591.401898 kJ/mol
# Density = 2.400717 g / cm^3
# Si number density = 24.061938 Si / 1000 Ang^3
#
#
#
# Elastic Constant Matrix: (Units=GPa)
#
#
# Indices 1 2 3 4 5 6 
#
# 1 83.8396 32.8291 20.7465 0.0000 0.0000 -5.2129
# 2 32.8291 83.8396 20.7465 0.0000 0.0000 5.2129
# 3 20.7465 20.7465 100.7212 0.0000 0.0000 0.0000
# 4 0.0000 0.0000 0.0000 30.3455 0.0000 0.0000
# 5 0.0000 0.0000 0.0000 0.0000 30.3455 0.0000
# 6 -5.2129 5.2129 0.0000 0.0000 0.0000 31.8737
#
#
#
# Elastic Compliance Matrix: (Units=1/GPa)
#
#
# Indices 1 2 3 4 5 6 
#
# 1 0.014765 -0.005516 -0.001905 0.000000 0.000000 0.003317
# 2 -0.005516 0.014765 -0.001905 0.000000 0.000000 -0.003317
# 3 -0.001905 -0.001905 0.010713 0.000000 0.000000 0.000000
# 4 0.000000 0.000000 0.000000 0.032954 0.000000 0.000000
# 5 0.000000 0.000000 0.000000 0.000000 0.032954 0.000000
# 6 0.003317 -0.003317 0.000000 0.000000 0.000000 0.032459
#
#
# Mechanical properties :
#
#
# Convention : Reuss Voigt Hill
#
# Bulk Modulus (GPa) = 46.31653 46.33830 46.32742
# Shear Modulus (GPa) = 30.40246 31.45147 30.92697
#
# Velocity S-wave (km/s) = 3.55844 3.61931 3.58901
# Velocity P-wave (km/s) = 6.01448 6.06347 6.03903
#
# Compressibility (1/GPa) = 0.02159056
#
# Stress axis : x y z
#
# Youngs Moduli (GPa) = 67.72639 67.72639 93.34276
#
# Poissons Ratio (x) = 0.37361 0.17782
# Poissons Ratio (y) = 0.37361 0.17782
# Poissons Ratio (z) = 0.12902 0.12902
#
# Static dielectric constant tensor:
#      x y z
#    x 1.972360 0.000000 0.000000 
#    y 0.000000 1.972360 0.000000 
#    z 0.000000 0.000000 1.876660 
# 
# From -- ./inp_files/3369.got.cif
#   From: 2010.05.17/outbox.cif.g08.bks.cpg/sg82_2_cif.got.tgz:3369.got - 2010.06.03 18:52:26.
