data_PCOD9542794
_publ_section_title
;
Structure prediction by ZEFSAII (Michael W. Deem and Ramdas Pophale) SiO2 
 PCOD9542794
Probable space group: I -4 
;
_chemical_formula_sum "Si O2"
_cell_formula_units_Z 48
_cell_length_a 8.052884
_cell_length_b 8.052884
_cell_length_c 29.867672
_cell_angle_alpha 90.000000
_cell_angle_beta 90.000000
_cell_angle_gamma 90.000000
_cell_volume 1936.886891
_symmetry_space_group_name_H-M "I -4 "
_symmetry_group_IT_number 82
_symmetry_cell_setting 'tetragonal'
loop_
_space_group_symop_operation_xyz
x,y,z
y,-x,-z
-x,-y,z
-y,x,-z
1/2+x,1/2+y,1/2+z
1/2+y,1/2-x,1/2-z
1/2-x,1/2-y,1/2+z
1/2-y,1/2+x,1/2-z
loop_
_atom_site_type_symbol
_atom_site_label
_atom_site_fract_x
_atom_site_fract_y
_atom_site_fract_z
Si Si1 0.251319 0.399149 0.261955
Si Si2 0.733101 0.361313 0.988093
Si Si3 0.247669 0.895740 0.155194
Si Si4 0.254544 0.899889 0.319530
Si Si5 0.374403 0.766737 0.573394
Si Si6 0.240168 0.383061 0.098930
O O1 0.205978 0.583000 0.245866
O O2 0.312954 0.389996 0.312813
O O3 0.387637 0.311125 0.230671
O O4 0.733723 0.343687 0.934772
O O5 0.556722 0.277934 0.001694
O O6 0.867541 0.269423 0.019369
O O7 0.415172 0.791976 0.164503
O O8 0.192530 0.883193 0.103505
O O9 0.295143 0.077858 0.171910
O O10 0.124875 0.809190 0.351608
O O11 0.554128 0.817369 0.591605
O O12 0.257683 0.925121 0.584582
#
# Coordination Sequence:
#
# PCOD9542794 Si02
#       6
#     8   8   8   8   8   8
#     4  11  24  41  62  88 116 147 186 231 280 336
#     4   9  18  34  56  81 112 152 194 235 282 335
#     4  11  24  40  59  85 116 150 190 234 280 333
#     4  11  24  40  59  85 116 150 190 234 280 333
#     4  10  21  37  58  85 116 150 190 235 283 337
#     4  10  21  37  58  85 116 150 190 235 283 337
#
# _framework density 24.782038
#
# number of rings (size 3 to 8) (size 9 to 14) (size 15 to 20)
#    0.000    1.667    0.000    4.000    0.000   13.333 
#    0.000    3.333    0.000    0.000    0.000    0.000 
#    0.000    0.000    0.000    0.000    0.000    0.000 
#
# Total GULP energy -134345.529491 kJ/mol
# GULP energy per Si atom -5597.730395 kJ/mol
# Density = 2.472563 g / cm^3
# Si number density = 24.782038 Si / 1000 Ang^3
#
#
#
# Elastic Constant Matrix: (Units=GPa)
#
#
# Indices 1 2 3 4 5 6 
#
# 1 55.8167 -0.7112 3.0586 0.0000 0.0000 -2.7451
# 2 -0.7112 55.8167 3.0586 0.0000 0.0000 2.7451
# 3 3.0586 3.0586 71.1879 0.0000 0.0000 0.0000
# 4 0.0000 0.0000 0.0000 28.1283 0.0000 0.0000
# 5 0.0000 0.0000 0.0000 0.0000 28.1283 0.0000
# 6 -2.7451 2.7451 0.0000 0.0000 0.0000 22.3551
#
#
#
# Elastic Compliance Matrix: (Units=1/GPa)
#
#
# Indices 1 2 3 4 5 6 
#
# 1 0.018069 0.000165 -0.000783 0.000000 0.000000 0.002199
# 2 0.000165 0.018069 -0.000783 0.000000 0.000000 -0.002199
# 3 -0.000783 -0.000783 0.014115 0.000000 0.000000 0.000000
# 4 0.000000 0.000000 0.000000 0.035551 0.000000 0.000000
# 5 0.000000 0.000000 0.000000 0.000000 0.035551 0.000000
# 6 0.002199 -0.002199 0.000000 0.000000 0.000000 0.045272
#
#
# Mechanical properties :
#
#
# Convention : Reuss Voigt Hill
#
# Bulk Modulus (GPa) = 21.07531 21.51481 21.29506
# Shear Modulus (GPa) = 26.99089 27.55003 27.27046
#
# Velocity S-wave (km/s) = 3.30378 3.33782 3.32085
# Velocity P-wave (km/s) = 4.80375 4.85337 4.82862
#
# Compressibility (1/GPa) = 0.04744890
#
# Stress axis : x y z
#
# Youngs Moduli (GPa) = 55.34356 55.34358 70.84835
#
# Poissons Ratio (x) = -0.00913 0.05550
# Poissons Ratio (y) = -0.00913 0.05550
# Poissons Ratio (z) = 0.04336 0.04336
#
# Static dielectric constant tensor:
#      x y z
#    x 1.951640 0.000000 0.000000 
#    y 0.000000 1.951640 0.000000 
#    z 0.000000 0.000000 1.949670 
# 
# From -- ./inp_files/4031.got.cif
#   From: 2010.05.17/outbox.cif.g08.bks.cpg/sg82_3_cif.got.tgz:4031.got - 2010.06.03 18:52:26.
