data_PCOD9542077
_publ_section_title
;
Structure prediction by ZEFSAII (Michael W. Deem and Ramdas Pophale) SiO2 
 PCOD9542077
Probable space group: I 41
;
_chemical_formula_sum "Si O2"
_cell_formula_units_Z 64
_cell_length_a 16.823260
_cell_length_b 16.823260
_cell_length_c 11.466342
_cell_angle_alpha 90.000000
_cell_angle_beta 90.000000
_cell_angle_gamma 90.000000
_cell_volume 3245.227929
_symmetry_space_group_name_H-M "I 41"
_symmetry_group_IT_number 80
_symmetry_cell_setting 'tetragonal'
loop_
_space_group_symop_operation_xyz
x,y,z
-y,1/2+x,1/4+z
-x,-y,z
y,1/2-x,1/4+z
1/2+x,1/2+y,1/2+z
1/2-y,x,3/4+z
1/2-x,1/2-y,1/2+z
1/2+y,-x,3/4+z
loop_
_atom_site_type_symbol
_atom_site_label
_atom_site_fract_x
_atom_site_fract_y
_atom_site_fract_z
Si Si1 0.300580 0.757017 0.643750
Si Si2 0.481263 0.782860 0.593498
Si Si3 0.999396 0.592104 0.487753
Si Si4 0.680656 0.880849 0.948180
Si Si5 0.279026 0.942891 0.620574
Si Si6 0.858342 0.796359 0.456160
Si Si7 0.226951 0.043454 0.410081
Si Si8 0.572312 0.440839 0.501991
O O1 0.286932 0.754835 0.785430
O O2 0.395225 0.744881 0.626586
O O3 0.278946 0.848258 0.610978
O O4 0.559858 0.733034 0.623293
O O5 0.473845 0.791220 0.454534
O O6 0.479347 0.862728 0.667509
O O7 0.913112 0.607585 0.428010
O O8 0.001277 0.654486 0.593527
O O9 0.000000 0.500000 0.526583
O O10 0.063455 0.605017 0.384874
O O11 0.693169 0.785308 0.943831
O O12 0.694735 0.902831 0.083158
O O13 0.360102 0.957613 0.692595
O O14 0.271854 0.987356 0.499275
O O15 0.920000 0.782043 0.559126
O O16 0.808298 0.876733 0.470630
O O17 0.500000 0.500000 0.512737
#
# Coordination Sequence:
#
# PCOD9542077 Si02
#       8
#     8   8   8   8   8   8   8   8
#     4   9  20  42  58  84 119 151 197 263 312 380
#     4  10  19  35  59  81 116 153 193 248 310 359
#     4   9  18  35  60  84 120 150 200 256 300 349
#     4  10  18  36  57  91 117 155 204 257 290 362
#     4  10  22  38  56  83 126 150 200 248 299 378
#     4   8  19  37  56  80 130 153 203 257 288 351
#     4  10  20  40  56  85 123 166 196 255 303 364
#     4  10  20  37  57  84 115 153 197 257 300 355
#
# _framework density 19.721264999999999
#
# number of rings (size 3 to 8) (size 9 to 14) (size 15 to 20)
#    0.000    2.750    0.000    3.000    0.000    1.000 
#   24.750    6.875    0.000    0.000    0.000    0.000 
#    0.000    0.000    0.000    0.000    0.000    0.000 
#
# Total GULP energy -178159.063584 kJ/mol
# GULP energy per Si atom -5567.470737 kJ/mol
# Density = 1.967638 g / cm^3
# Si number density = 19.721265 Si / 1000 Ang^3
#
#
#
# Elastic Constant Matrix: (Units=GPa)
#
#
# Indices 1 2 3 4 5 6 
#
# 1 71.9651 7.9308 32.0060 0.0000 0.0000 -2.7559
# 2 7.9308 71.9651 32.0060 0.0000 0.0000 2.7559
# 3 32.0060 32.0060 93.0694 0.0000 0.0000 0.0000
# 4 0.0000 0.0000 0.0000 33.5116 0.0000 0.0000
# 5 0.0000 0.0000 0.0000 0.0000 33.5116 0.0000
# 6 -2.7559 2.7559 0.0000 0.0000 0.0000 16.3191
#
#
#
# Elastic Compliance Matrix: (Units=1/GPa)
#
#
# Indices 1 2 3 4 5 6 
#
# 1 0.016562 0.000715 -0.005941 0.000000 0.000000 0.002676
# 2 0.000715 0.016562 -0.005941 0.000000 0.000000 -0.002676
# 3 -0.005941 -0.005941 0.014831 0.000000 0.000000 0.000000
# 4 0.000000 0.000000 0.000000 0.029840 0.000000 0.000000
# 5 0.000000 0.000000 0.000000 0.000000 0.029840 0.000000
# 6 0.002676 -0.002676 0.000000 0.000000 0.000000 0.062182
#
#
# Mechanical properties :
#
#
# Convention : Reuss Voigt Hill
#
# Bulk Modulus (GPa) = 39.03393 42.32061 40.67727
# Shear Modulus (GPa) = 24.91380 27.67226 26.29303
#
# Velocity S-wave (km/s) = 3.55814 3.74995 3.65531
# Velocity P-wave (km/s) = 6.05940 6.34472 6.20370
#
# Compressibility (1/GPa) = 0.02561874
#
# Stress axis : x y z
#
# Youngs Moduli (GPa) = 60.38038 60.38038 67.42644
#
# Poissons Ratio (x) = -0.04315 0.40060
# Poissons Ratio (y) = -0.04315 0.40060
# Poissons Ratio (z) = 0.35873 0.35873
#
# Static dielectric constant tensor:
#      x y z
#    x 1.734470 0.000000 0.000000 
#    y 0.000000 1.734470 0.000000 
#    z 0.000000 0.000000 1.752010 
# 
# From -- ./inp_files/1112.got.cif
#   From: 2010.05.17/outbox.cif.g08.bks.cpg/sg80_cif.got.tgz:1112.got - 2010.06.03 18:49:13.
