data_PCOD9542536
_publ_section_title
;
Structure prediction by ZEFSAII (Michael W. Deem and Ramdas Pophale) SiO2 
 PCOD9542536
Probable space group: P -4
;
_chemical_formula_sum "Si O2"
_cell_formula_units_Z 17
_cell_length_a 10.766695
_cell_length_b 10.766695
_cell_length_c 5.843607
_cell_angle_alpha 90.000000
_cell_angle_beta 90.000000
_cell_angle_gamma 90.000000
_cell_volume 677.400982
_symmetry_space_group_name_H-M "P -4"
_symmetry_group_IT_number 81
_symmetry_cell_setting 'tetragonal'
loop_
_space_group_symop_operation_xyz
x,y,z
y,-x,-z
-x,-y,z
-y,x,-z
loop_
_atom_site_type_symbol
_atom_site_label
_atom_site_fract_x
_atom_site_fract_y
_atom_site_fract_z
Si Si1 0.259013 0.230855 0.423963
Si Si2 0.316177 0.540013 0.923150
Si Si3 0.959334 0.745824 0.740335
Si Si4 0.000000 0.000000 0.000000
Si Si5 0.908811 0.587392 0.149930
O O1 0.386381 0.285795 0.312489
O O2 0.181863 0.269737 0.649510
O O3 0.158001 0.291564 0.249951
O O4 0.263788 0.081227 0.420537
O O5 0.407755 0.615545 0.092373
O O6 0.195620 0.506919 0.065918
O O7 0.979336 0.642627 0.932531
O O8 0.967381 0.882795 0.844473
O O9 0.000000 0.500000 0.297348
#
# Coordination Sequence:
#
# PCOD9542536 Si02
#       5
#     4   4   4   1   4
#     4  11  24  42  70 108 152 195 255 320 380 477
#     4   9  20  44  73  99 142 203 256 312 379 458
#     4  12  24  42  68 112 152 199 252 316 399 456
#     4  12  24  46  68 104 166 212 240 326 392 492
#     4  11  23  44  72 105 148 202 261 316 388 459
#
# _framework density 25.095915000000002
#
# number of rings (size 3 to 8) (size 9 to 14) (size 15 to 20)
#    0.000    1.176    4.706    1.412    0.000    0.941 
#    0.000    7.059    0.000    2.824    0.000    0.000 
#    0.000    0.000    0.000    0.000    0.000    0.000 
#
# Total GULP energy -94820.729336 kJ/mol
# GULP energy per Si atom -5577.689961 kJ/mol
# Density = 2.503880 g / cm^3
# Si number density = 25.095915 Si / 1000 Ang^3
#
#
#
# Elastic Constant Matrix: (Units=GPa)
#
#
# Indices 1 2 3 4 5 6 
#
# 1 99.7884 54.9112 17.6899 0.0000 0.0000 0.0919
# 2 54.9112 99.7884 17.6899 0.0000 0.0000 -0.0919
# 3 17.6899 17.6899 29.1946 0.0000 0.0000 0.0000
# 4 0.0000 0.0000 0.0000 37.1440 0.0000 0.0000
# 5 0.0000 0.0000 0.0000 0.0000 37.1440 0.0000
# 6 0.0919 -0.0919 0.0000 0.0000 0.0000 49.2466
#
#
#
# Elastic Compliance Matrix: (Units=1/GPa)
#
#
# Indices 1 2 3 4 5 6 
#
# 1 0.014894 -0.007390 -0.004547 0.000000 0.000000 -0.000042
# 2 -0.007390 0.014894 -0.004547 0.000000 0.000000 0.000042
# 3 -0.004547 -0.004547 0.039763 0.000000 0.000000 0.000000
# 4 0.000000 0.000000 0.000000 0.026922 0.000000 0.000000
# 5 0.000000 0.000000 0.000000 0.000000 0.026922 0.000000
# 6 -0.000042 0.000042 0.000000 0.000000 0.000000 0.020306
#
#
# Mechanical properties :
#
#
# Convention : Reuss Voigt Hill
#
# Bulk Modulus (GPa) = 27.33469 45.48369 36.40919
# Shear Modulus (GPa) = 26.47432 33.93897 30.20665
#
# Velocity S-wave (km/s) = 3.25149 3.68145 3.47313
# Velocity P-wave (km/s) = 5.00119 6.01947 5.53380
#
# Compressibility (1/GPa) = 0.03658355
#
# Stress axis : x y z
#
# Youngs Moduli (GPa) = 67.14291 67.14291 25.14891
#
# Poissons Ratio (x) = 0.49616 0.11435
# Poissons Ratio (y) = 0.49616 0.11435
# Poissons Ratio (z) = 0.30529 0.30529
#
# Static dielectric constant tensor:
#      x y z
#    x 1.981980 0.000000 0.000000 
#    y 0.000000 1.981980 0.000000 
#    z 0.000000 0.000000 2.095450 
# 
# From -- ./inp_files/203.got.cif
#   From: 2010.05.17/outbox.cif.g08.bks.cpg/sg81_cif.got.tgz:203.got - 2010.06.03 18:51:07.
