data_PCOD9542310
_publ_section_title
;
Structure prediction by ZEFSAII (Michael W. Deem and Ramdas Pophale) SiO2 
 PCOD9542310
Probable space group: I 41
;
_chemical_formula_sum "Si O2"
_cell_formula_units_Z 24
_cell_length_a 6.560684
_cell_length_b 6.560684
_cell_length_c 17.981987
_cell_angle_alpha 90.000000
_cell_angle_beta 90.000000
_cell_angle_gamma 90.000000
_cell_volume 773.991016
_symmetry_space_group_name_H-M "I 41"
_symmetry_group_IT_number 80
_symmetry_cell_setting 'tetragonal'
loop_
_space_group_symop_operation_xyz
x,y,z
-y,1/2+x,1/4+z
-x,-y,z
y,1/2-x,1/4+z
1/2+x,1/2+y,1/2+z
1/2-y,x,3/4+z
1/2-x,1/2-y,1/2+z
1/2+y,-x,3/4+z
loop_
_atom_site_type_symbol
_atom_site_label
_atom_site_fract_x
_atom_site_fract_y
_atom_site_fract_z
Si Si1 0.779400 0.779400 0.653520
Si Si2 0.750000 0.121631 0.528520
Si Si3 0.000000 0.500000 0.552920
Si Si4 0.000000 0.000000 0.004120
O O1 0.775155 0.977093 0.599525
O O2 0.977094 0.775155 0.707515
O O3 0.575923 0.810414 0.702060
O O4 0.810414 0.575922 0.604980
O O5 0.434850 0.718352 0.537206
O O6 0.065149 0.718353 0.519834
#
# Coordination Sequence:
#
# PCOD9542310 Si02
#       4
#     8   8   4   4
#     4  12  31  56  91 138 205 242 333 406 463 594
#     4  12  28  56  86 138 190 258 312 410 468 568
#     4  12  28  50  95 123 192 260 320 390 490 556
#     4  12  28  50  95 123 192 260 320 390 490 556
#
# _framework density 31.008109000000001
#
# number of rings (size 3 to 8) (size 9 to 14) (size 15 to 20)
#    0.000    0.000    0.000    8.000   18.667    0.000 
#    0.000    0.000    0.000    0.000    0.000    0.000 
#    0.000    0.000    0.000    0.000    0.000    0.000 
#
# Total GULP energy -67335.288938 kJ/mol
# GULP energy per Si atom -5611.274078 kJ/mol
# Density = 3.093753 g / cm^3
# Si number density = 31.008109 Si / 1000 Ang^3
#
#
#
# Elastic Constant Matrix: (Units=GPa)
#
#
# Indices 1 2 3 4 5 6 
#
# 1 198.5217 75.7261 75.4589 0.0000 0.0000 0.0001
# 2 75.7261 198.5217 75.4589 0.0000 0.0000 -0.0001
# 3 75.4589 75.4589 184.9278 0.0000 0.0000 0.0000
# 4 0.0000 0.0000 0.0000 57.0860 0.0000 0.0000
# 5 0.0000 0.0000 0.0000 0.0000 57.0860 0.0000
# 6 0.0001 -0.0001 0.0000 0.0000 0.0000 122.8540
#
#
#
# Elastic Compliance Matrix: (Units=1/GPa)
#
#
# Indices 1 2 3 4 5 6 
#
# 1 0.006423 -0.001721 -0.001919 0.000000 0.000000 0.000000
# 2 -0.001721 0.006423 -0.001919 0.000000 0.000000 0.000000
# 3 -0.001919 -0.001919 0.006973 0.000000 0.000000 0.000000
# 4 0.000000 0.000000 0.000000 0.017517 0.000000 0.000000
# 5 0.000000 0.000000 0.000000 0.000000 0.017517 0.000000
# 6 0.000000 0.000000 0.000000 0.000000 0.000000 0.008140
#
#
# Mechanical properties :
#
#
# Convention : Reuss Voigt Hill
#
# Bulk Modulus (GPa) = 114.90403 115.02878 114.96641
# Shear Modulus (GPa) = 64.92581 71.09369 68.00975
#
# Velocity S-wave (km/s) = 4.58081 4.79346 4.68834
# Velocity P-wave (km/s) = 8.06938 8.23488 8.15255
#
# Compressibility (1/GPa) = 0.00870291
#
# Stress axis : x y z
#
# Youngs Moduli (GPa) = 155.69271 155.69271 143.40295
#
# Poissons Ratio (x) = 0.26790 0.27515
# Poissons Ratio (y) = 0.26790 0.27515
# Poissons Ratio (z) = 0.29873 0.29873
#
# Static dielectric constant tensor:
#      x y z
#    x 2.462470 0.000000 0.000000 
#    y 0.000000 2.462470 0.000000 
#    z 0.000000 0.000000 2.627350 
# 
# From -- ./inp_files/1633.got.cif
#   From: 2010.05.17/outbox.cif.g08.bks.cpg/sg80_cif.got.tgz:1633.got - 2010.06.03 18:49:13.
