data_PCOD9542799
_publ_section_title
;
Structure prediction by ZEFSAII (Michael W. Deem and Ramdas Pophale) SiO2 
 PCOD9542799
Probable space group: I -4 
;
_chemical_formula_sum "Si O2"
_cell_formula_units_Z 48
_cell_length_a 7.593948
_cell_length_b 7.593948
_cell_length_c 31.168021
_cell_angle_alpha 90.000000
_cell_angle_beta 90.000000
_cell_angle_gamma 90.000000
_cell_volume 1797.398876
_symmetry_space_group_name_H-M "I -4 "
_symmetry_group_IT_number 82
_symmetry_cell_setting 'tetragonal'
loop_
_space_group_symop_operation_xyz
x,y,z
y,-x,-z
-x,-y,z
-y,x,-z
1/2+x,1/2+y,1/2+z
1/2+y,1/2-x,1/2-z
1/2-x,1/2-y,1/2+z
1/2-y,1/2+x,1/2-z
loop_
_atom_site_type_symbol
_atom_site_label
_atom_site_fract_x
_atom_site_fract_y
_atom_site_fract_z
Si Si1 0.767503 0.333901 0.762925
Si Si2 0.299474 0.433259 0.941520
Si Si3 0.741146 0.365553 0.485325
Si Si4 0.284582 0.508409 0.850550
Si Si5 0.306484 0.039704 0.907085
Si Si6 0.383655 0.678353 0.680760
O O1 0.500000 0.500000 0.851666
O O2 0.747561 0.346134 0.813829
O O3 0.961151 0.263757 0.752433
O O4 0.624924 0.255733 0.729938
O O5 0.500000 0.500000 0.945598
O O6 0.227419 0.540907 0.899820
O O7 0.274881 0.238458 0.921646
O O8 0.219258 0.405292 0.989095
O O9 0.565234 0.266619 0.498779
O O10 0.707530 0.394784 0.434633
O O11 0.190466 0.326312 0.833496
O O12 0.293166 0.029295 0.856494
O O13 0.500000 0.000000 0.922655
O O14 0.500000 0.500000 0.678268
#
# Coordination Sequence:
#
# PCOD9542799 Si02
#       6
#     8   8   8   8   8   8
#     4   9  18  36  63  95 131 178 229 294 362 437
#     4   9  19  39  65  95 130 182 233 294 362 442
#     4   9  19  37  70  98 134 185 244 300 364 441
#     4   9  18  35  65  90 137 177 221 294 367 430
#     4  10  22  41  63  93 137 182 224 301 373 430
#     4  10  21  37  65  98 130 182 235 294 360 450
#
# _framework density 26.705255000000001
#
# number of rings (size 3 to 8) (size 9 to 14) (size 15 to 20)
#    0.000    2.667    0.000    0.500    7.000    0.000 
#   15.000    0.000   25.667    0.000    0.000    0.000 
#    0.000    0.000    0.000    0.000    0.000    0.000 
#
# Total GULP energy -133763.477926 kJ/mol
# GULP energy per Si atom -5573.478247 kJ/mol
# Density = 2.664447 g / cm^3
# Si number density = 26.705255 Si / 1000 Ang^3
#
#
#
# Elastic Constant Matrix: (Units=GPa)
#
#
# Indices 1 2 3 4 5 6 
#
# 1 90.5451 25.4691 59.7133 0.0000 0.0000 12.8914
# 2 25.4691 90.5451 59.7133 0.0000 0.0000 -12.8914
# 3 59.7133 59.7133 192.4977 0.0000 0.0000 0.0000
# 4 0.0000 0.0000 0.0000 35.1438 0.0000 0.0000
# 5 0.0000 0.0000 0.0000 0.0000 35.1438 0.0000
# 6 12.8914 -12.8914 0.0000 0.0000 0.0000 42.7409
#
#
#
# Elastic Compliance Matrix: (Units=1/GPa)
#
#
# Indices 1 2 3 4 5 6 
#
# 1 0.015058 -0.002394 -0.003928 0.000000 0.000000 -0.005264
# 2 -0.002394 0.015058 -0.003928 0.000000 0.000000 0.005264
# 3 -0.003928 -0.003928 0.007632 0.000000 0.000000 0.000000
# 4 0.000000 0.000000 0.000000 0.028454 0.000000 0.000000
# 5 0.000000 0.000000 0.000000 0.000000 0.028454 0.000000
# 6 -0.005264 0.005264 0.000000 0.000000 0.000000 0.026572
#
#
# Mechanical properties :
#
#
# Convention : Reuss Voigt Hill
#
# Bulk Modulus (GPa) = 57.98488 73.70880 65.84684
# Shear Modulus (GPa) = 33.90315 37.85186 35.87750
#
# Velocity S-wave (km/s) = 3.56691 3.76891 3.66930
# Velocity P-wave (km/s) = 6.22285 6.82645 6.53163
#
# Compressibility (1/GPa) = 0.01724587
#
# Stress axis : x y z
#
# Youngs Moduli (GPa) = 66.41082 66.41084 131.02802
#
# Poissons Ratio (x) = 0.15901 0.51471
# Poissons Ratio (y) = 0.15901 0.51471
# Poissons Ratio (z) = 0.26088 0.26088
#
# Static dielectric constant tensor:
#      x y z
#    x 2.060580 0.000000 0.000000 
#    y 0.000000 2.060580 0.000000 
#    z 0.000000 0.000000 2.176180 
# 
# From -- ./inp_files/4006.got.cif
#   From: 2010.05.17/outbox.cif.g08.bks.cpg/sg82_3_cif.got.tgz:4006.got - 2010.06.03 18:52:26.
