data_PCOD9542966
_publ_section_title
;
Structure prediction by ZEFSAII (Michael W. Deem and Ramdas Pophale) SiO2 
 PCOD9542966
Probable space group: I -4 
;
_chemical_formula_sum "Si O2"
_cell_formula_units_Z 48
_cell_length_a 9.260962
_cell_length_b 9.260962
_cell_length_c 25.875329
_cell_angle_alpha 90.000000
_cell_angle_beta 90.000000
_cell_angle_gamma 90.000000
_cell_volume 2219.208386
_symmetry_space_group_name_H-M "I -4 "
_symmetry_group_IT_number 82
_symmetry_cell_setting 'tetragonal'
loop_
_space_group_symop_operation_xyz
x,y,z
y,-x,-z
-x,-y,z
-y,x,-z
1/2+x,1/2+y,1/2+z
1/2+y,1/2-x,1/2-z
1/2-x,1/2-y,1/2+z
1/2-y,1/2+x,1/2-z
loop_
_atom_site_type_symbol
_atom_site_label
_atom_site_fract_x
_atom_site_fract_y
_atom_site_fract_z
Si Si1 0.253438 0.769717 0.743433
Si Si2 0.485587 0.328884 0.190059
Si Si3 0.006054 0.170894 0.572666
Si Si4 0.574096 0.841599 0.476739
Si Si5 0.818971 0.817219 0.074677
Si Si6 0.826349 0.001526 0.818769
O O1 0.293340 0.672683 0.791989
O O2 0.088037 0.745788 0.728955
O O3 0.253058 0.926531 0.769110
O O4 0.341296 0.735114 0.691178
O O5 0.500000 0.500000 0.195165
O O6 0.528828 0.296346 0.132204
O O7 0.891362 0.265878 0.540884
O O8 0.172467 0.222519 0.570513
O O9 0.000000 0.000000 0.562107
O O10 0.478656 0.744692 0.436806
O O11 0.583463 0.745293 0.528242
O O12 0.500000 0.000000 0.484309
O O13 0.910595 0.803846 0.127835
O O14 0.000000 0.000000 0.811602
#
# Coordination Sequence:
#
# PCOD9542966 Si02
#       6
#     8   8   8   8   8   8
#     4  12  22  46  68  98 141 179 236 288 354 431
#     4  11  23  44  65 103 136 180 236 288 349 432
#     4  10  24  44  76 103 145 187 245 301 364 437
#     4  10  26  47  72 110 144 191 246 305 375 448
#     4  11  26  47  72 106 146 189 246 299 375 437
#     4  12  27  47  70 105 145 191 232 299 369 432
#
# _framework density 21.629335000000001
#
# number of rings (size 3 to 8) (size 9 to 14) (size 15 to 20)
#    0.000    1.000    5.000    0.000    9.333    0.667 
#    9.000    0.000    0.000    0.000    0.000    0.000 
#    0.000    0.000    0.000    0.000    0.000    0.000 
#
# Total GULP energy -133733.441713 kJ/mol
# GULP energy per Si atom -5572.226738 kJ/mol
# Density = 2.158011 g / cm^3
# Si number density = 21.629335 Si / 1000 Ang^3
#
#
#
# Elastic Constant Matrix: (Units=GPa)
#
#
# Indices 1 2 3 4 5 6 
#
# 1 -2.5391 75.6489 30.7830 0.0000 0.0000 -12.2776
# 2 75.6489 -2.5391 30.7830 0.0000 0.0000 12.2776
# 3 30.7830 30.7830 124.3211 0.0000 0.0000 0.0000
# 4 0.0000 0.0000 0.0000 -15.5697 0.0000 0.0000
# 5 0.0000 0.0000 0.0000 0.0000 -15.5697 0.0000
# 6 -12.2776 12.2776 0.0000 0.0000 0.0000 20.1419
#
#
#
# Elastic Compliance Matrix: (Units=1/GPa)
#
#
# Indices 1 2 3 4 5 6 
#
# 1 0.003273 0.014008 -0.004279 0.000000 0.000000 -0.006543
# 2 0.014008 0.003273 -0.004279 0.000000 0.000000 0.006543
# 3 -0.004279 -0.004279 0.010163 0.000000 0.000000 0.000000
# 4 0.000000 0.000000 0.000000 -0.064227 0.000000 0.000000
# 5 0.000000 0.000000 0.000000 0.000000 -0.064227 0.000000
# 6 -0.006543 0.006543 0.000000 0.000000 0.000000 0.041671
#
#
# Mechanical properties :
#
#
# Convention : Reuss Voigt Hill
#
# Bulk Modulus (GPa) = 36.21943 43.74142 39.98042
# Shear Modulus (GPa) = -69.66569 -3.39764 -36.53167
#
# Velocity S-wave (km/s) = -5.68144 -1.25469 -4.11419
# Velocity P-wave (km/s) = 5.12411 4.26240 2.01103
#
# Compressibility (1/GPa) = 0.02760949
#
# Stress axis : x y z
#
# Youngs Moduli (GPa) = 305.49454 305.49444 98.39854
#
# Poissons Ratio (x) = -4.27939 0.42105
# Poissons Ratio (y) = -4.27939 0.42105
# Poissons Ratio (z) = 1.30723 1.30723
#
# Static dielectric constant tensor:
#      x y z
#    x 1.793430 0.000000 0.000000 
#    y 0.000000 1.793430 0.000000 
#    z 0.000000 0.000000 1.842600 
# 
# From -- ./inp_files/4010.got.cif
#   From: 2010.05.17/outbox.cif.g08.bks.cpg/sg82_3_cif.got.tgz:4010.got - 2010.06.03 18:52:26.
