data_PCOD9542201
_publ_section_title
;
Structure prediction by ZEFSAII (Michael W. Deem and Ramdas Pophale) SiO2 
 PCOD9542201
Probable space group: I 41
;
_chemical_formula_sum "Si O2"
_cell_formula_units_Z 44
_cell_length_a 10.798527
_cell_length_b 10.798527
_cell_length_c 17.383212
_cell_angle_alpha 90.000000
_cell_angle_beta 90.000000
_cell_angle_gamma 90.000000
_cell_volume 2027.024807
_symmetry_space_group_name_H-M "I 41"
_symmetry_group_IT_number 80
_symmetry_cell_setting 'tetragonal'
loop_
_space_group_symop_operation_xyz
x,y,z
-y,1/2+x,1/4+z
-x,-y,z
y,1/2-x,1/4+z
1/2+x,1/2+y,1/2+z
1/2-y,x,3/4+z
1/2-x,1/2-y,1/2+z
1/2+y,-x,3/4+z
loop_
_atom_site_type_symbol
_atom_site_label
_atom_site_fract_x
_atom_site_fract_y
_atom_site_fract_z
Si Si1 0.675942 0.880951 0.995150
Si Si2 0.500000 0.000000 0.489811
Si Si3 0.765308 0.327455 0.328557
Si Si4 0.895998 0.342166 0.485704
Si Si5 0.684801 0.667736 0.343176
Si Si6 0.241521 0.952789 0.676832
O O1 0.540604 0.818847 0.993562
O O2 0.741904 0.897976 0.912500
O O3 0.643746 0.021998 0.017543
O O4 0.760755 0.790652 0.045825
O O5 0.415430 0.093390 0.540299
O O6 0.579542 0.096148 0.438362
O O7 0.865733 0.332632 0.395443
O O8 0.756916 0.198737 0.281727
O O9 0.792007 0.430146 0.263575
O O10 0.636139 0.325756 0.374566
O O11 0.587546 0.753809 0.389504
#
# Coordination Sequence:
#
# PCOD9542201 Si02
#       6
#     8   4   8   8   8   8
#     4  11  25  43  66 101 138 183 232 294 359 434
#     4  12  24  44  66 104 136 186 240 292 356 428
#     4  10  22  43  68  97 132 186 235 298 353 427
#     4  10  23  44  69  98 138 183 239 288 364 427
#     4  12  25  43  68 102 143 183 236 298 360 431
#     4  11  23  41  65  97 137 177 237 292 357 423
#
# _framework density 21.706692
#
# number of rings (size 3 to 8) (size 9 to 14) (size 15 to 20)
#    0.000    1.091    3.636    2.182    5.091    0.000 
#    0.000    0.000    0.000    0.000    0.000    0.000 
#    0.000    0.000    0.000    0.000    0.000    0.000 
#
# Total GULP energy -122639.475221 kJ/mol
# GULP energy per Si atom -5574.521601 kJ/mol
# Density = 2.165729 g / cm^3
# Si number density = 21.706692 Si / 1000 Ang^3
#
#
#
# Elastic Constant Matrix: (Units=GPa)
#
#
# Indices 1 2 3 4 5 6 
#
# 1 80.6709 5.8723 26.1852 0.0000 0.0000 1.5735
# 2 5.8723 80.6709 26.1852 0.0000 0.0000 -1.5735
# 3 26.1852 26.1852 102.7557 0.0000 0.0000 0.0000
# 4 0.0000 0.0000 0.0000 32.5923 0.0000 0.0000
# 5 0.0000 0.0000 0.0000 0.0000 32.5923 0.0000
# 6 1.5735 -1.5735 0.0000 0.0000 0.0000 37.4675
#
#
#
# Elastic Compliance Matrix: (Units=1/GPa)
#
#
# Indices 1 2 3 4 5 6 
#
# 1 0.013527 0.000134 -0.003481 0.000000 0.000000 -0.000562
# 2 0.000134 0.013527 -0.003481 0.000000 0.000000 0.000562
# 3 -0.003481 -0.003481 0.011506 0.000000 0.000000 0.000000
# 4 0.000000 0.000000 0.000000 0.030682 0.000000 0.000000
# 5 0.000000 0.000000 0.000000 0.000000 0.030682 0.000000
# 6 -0.000562 0.000562 0.000000 0.000000 0.000000 0.026737
#
#
# Mechanical properties :
#
#
# Convention : Reuss Voigt Hill
#
# Bulk Modulus (GPa) = 40.15441 42.28699 41.22070
# Shear Modulus (GPa) = 33.64285 34.25408 33.94846
#
# Velocity S-wave (km/s) = 3.94113 3.97677 3.95899
# Velocity P-wave (km/s) = 6.26488 6.37257 6.31895
#
# Compressibility (1/GPa) = 0.02490386
#
# Stress axis : x y z
#
# Youngs Moduli (GPa) = 73.92474 73.92474 86.91013
#
# Poissons Ratio (x) = -0.00993 0.30257
# Poissons Ratio (y) = -0.00993 0.30257
# Poissons Ratio (z) = 0.25736 0.25736
#
# Static dielectric constant tensor:
#      x y z
#    x 1.840000 0.000000 0.000000 
#    y 0.000000 1.840000 0.000000 
#    z 0.000000 0.000000 1.816840 
# 
# From -- ./inp_files/1492.got.cif
#   From: 2010.05.17/outbox.cif.g08.bks.cpg/sg80_cif.got.tgz:1492.got - 2010.06.03 18:49:13.
