data_PCOD9542858
_publ_section_title
;
Structure prediction by ZEFSAII (Michael W. Deem and Ramdas Pophale) SiO2 
 PCOD9542858
Probable space group: I -4 
;
_chemical_formula_sum "Si O2"
_cell_formula_units_Z 52
_cell_length_a 16.382338
_cell_length_b 16.382338
_cell_length_c 8.373248
_cell_angle_alpha 90.000000
_cell_angle_beta 90.000000
_cell_angle_gamma 90.000000
_cell_volume 2247.220658
_symmetry_space_group_name_H-M "I -4 "
_symmetry_group_IT_number 82
_symmetry_cell_setting 'tetragonal'
loop_
_space_group_symop_operation_xyz
x,y,z
y,-x,-z
-x,-y,z
-y,x,-z
1/2+x,1/2+y,1/2+z
1/2+y,1/2-x,1/2-z
1/2-x,1/2-y,1/2+z
1/2-y,1/2+x,1/2-z
loop_
_atom_site_type_symbol
_atom_site_label
_atom_site_fract_x
_atom_site_fract_y
_atom_site_fract_z
Si Si1 0.098144 0.250129 0.090910
Si Si2 0.347538 0.312332 0.065888
Si Si3 0.171605 0.468547 0.600295
Si Si4 0.000000 0.500000 0.750000
Si Si5 0.169585 0.997337 0.624016
Si Si6 0.912967 0.400289 0.226519
Si Si7 0.500000 0.500000 0.000000
Si Si8 0.818362 0.246005 0.767912
O O1 0.035470 0.211905 0.218614
O O2 0.126292 0.338664 0.160728
O O3 0.175972 0.191776 0.095848
O O4 0.044435 0.269985 0.937851
O O5 0.330037 0.405624 0.114672
O O6 0.312343 0.249620 0.191865
O O7 0.442655 0.296047 0.022537
O O8 0.299717 0.302621 0.897729
O O9 0.083373 0.500978 0.651092
O O10 0.151684 0.419824 0.434848
O O11 0.211847 0.405795 0.721675
O O12 0.074105 0.973018 0.611772
O O13 0.897109 0.497025 0.193911
#
# Coordination Sequence:
#
# PCOD9542858 Si02
#       8
#     8   8   8   2   8   8   2   8
#     4  10  22  39  64  92 123 173 216 279 343 410
#     4  10  23  41  67  97 131 173 222 278 344 409
#     4  11  24  42  62  93 133 173 230 277 351 414
#     4  12  28  44  62  96 136 196 220 294 356 404
#     4   9  19  39  66  92 125 170 217 266 336 410
#     4   9  18  36  63  87 115 160 218 267 322 408
#     4   8  16  36  60  96 122 156 216 268 314 412
#     4  11  25  41  62  98 133 171 227 284 342 406
#
# _framework density 23.139695
#
# number of rings (size 3 to 8) (size 9 to 14) (size 15 to 20)
#    0.000    2.000    0.000    3.692    8.615    2.462 
#    0.000    3.077    0.000    0.000    0.000    0.000 
#    0.000    0.000    0.000    0.000    0.000    0.000 
#
# Total GULP energy -145390.461245 kJ/mol
# GULP energy per Si atom -5591.940817 kJ/mol
# Density = 2.308703 g / cm^3
# Si number density = 23.139695 Si / 1000 Ang^3
#
#
#
# Elastic Constant Matrix: (Units=GPa)
#
#
# Indices 1 2 3 4 5 6 
#
# 1 70.1071 34.9755 14.4871 0.0000 0.0000 -10.2872
# 2 34.9755 70.1071 14.4871 0.0000 0.0000 10.2872
# 3 14.4871 14.4871 31.6995 0.0000 0.0000 0.0000
# 4 0.0000 0.0000 0.0000 23.4656 0.0000 0.0000
# 5 0.0000 0.0000 0.0000 0.0000 23.4656 0.0000
# 6 -10.2872 10.2872 0.0000 0.0000 0.0000 36.1240
#
#
#
# Elastic Compliance Matrix: (Units=1/GPa)
#
#
# Indices 1 2 3 4 5 6 
#
# 1 0.022525 -0.011637 -0.004976 0.000000 0.000000 0.009728
# 2 -0.011637 0.022525 -0.004976 0.000000 0.000000 -0.009728
# 3 -0.004976 -0.004976 0.036094 0.000000 0.000000 0.000000
# 4 0.000000 0.000000 0.000000 0.042615 0.000000 0.000000
# 5 0.000000 0.000000 0.000000 0.000000 0.042615 0.000000
# 6 0.009728 -0.009728 0.000000 0.000000 0.000000 0.033223
#
#
# Mechanical properties :
#
#
# Convention : Reuss Voigt Hill
#
# Bulk Modulus (GPa) = 26.33882 33.31256 29.82569
# Shear Modulus (GPa) = 19.57468 23.80867 21.69167
#
# Velocity S-wave (km/s) = 2.91165 3.21114 3.06506
# Velocity P-wave (km/s) = 4.76559 5.30812 5.04415
#
# Compressibility (1/GPa) = 0.03796678
#
# Stress axis : x y z
#
# Youngs Moduli (GPa) = 44.39509 44.39509 27.70506
#
# Poissons Ratio (x) = 0.51661 0.13786
# Poissons Ratio (y) = 0.51661 0.13786
# Poissons Ratio (z) = 0.22092 0.22092
#
# Static dielectric constant tensor:
#      x y z
#    x 1.891240 0.000000 0.000000 
#    y 0.000000 1.891240 0.000000 
#    z 0.000000 0.000000 1.888190 
# 
# From -- ./inp_files/1146.got.cif
#   From: 2010.05.17/outbox.cif.g08.bks.cpg/sg82_1_cif.got.tgz:1146.got - 2010.06.03 18:52:26.
