data_PCOD9542410
_publ_section_title
;
Structure prediction by ZEFSAII (Michael W. Deem and Ramdas Pophale) SiO2 
 PCOD9542410
Probable space group: P -4
;
_chemical_formula_sum "Si O2"
_cell_formula_units_Z 17
_cell_length_a 7.817570
_cell_length_b 7.817570
_cell_length_c 13.468123
_cell_angle_alpha 90.000000
_cell_angle_beta 90.000000
_cell_angle_gamma 90.000000
_cell_volume 823.096266
_symmetry_space_group_name_H-M "P -4"
_symmetry_group_IT_number 81
_symmetry_cell_setting 'tetragonal'
loop_
_space_group_symop_operation_xyz
x,y,z
y,-x,-z
-x,-y,z
-y,x,-z
loop_
_atom_site_type_symbol
_atom_site_label
_atom_site_fract_x
_atom_site_fract_y
_atom_site_fract_z
Si Si1 0.229139 0.161800 0.275530
Si Si2 0.508373 0.206437 0.844234
Si Si3 0.795644 0.822837 0.697195
Si Si4 0.716656 0.323628 0.510830
Si Si5 0.500000 0.500000 0.000000
O O1 0.267591 0.305131 0.194320
O O2 0.310924 0.198378 0.382293
O O3 0.025758 0.186622 0.290756
O O4 0.260868 0.963181 0.253566
O O5 0.374973 0.233352 0.753794
O O6 0.500000 0.000000 0.866260
O O7 0.462654 0.332219 0.933566
O O8 0.787162 0.788536 0.579708
O O9 0.519261 0.273904 0.523784
#
# Coordination Sequence:
#
# PCOD9542410 Si02
#       5
#     4   4   4   4   1
#     4  10  21  38  61  89 125 169 208 243 296 363
#     4  10  24  46  65  91 126 155 199 264 313 360
#     4  10  21  38  61  89 125 169 208 243 296 363
#     4  11  22  33  54  90 134 171 208 245 290 356
#     4  12  28  44  72  94 116 152 208 260 320 394
#
# _framework density 20.653718000000001
#
# number of rings (size 3 to 8) (size 9 to 14) (size 15 to 20)
#    0.000    1.647    2.353    1.412    3.294    6.588 
#    0.000    0.000    0.000    0.000    0.000    0.000 
#    0.000    0.000    0.000    0.000    0.000    0.000 
#
# Total GULP energy -94930.197712 kJ/mol
# GULP energy per Si atom -5584.129277 kJ/mol
# Density = 2.060671 g / cm^3
# Si number density = 20.653718 Si / 1000 Ang^3
#
#
#
# Elastic Constant Matrix: (Units=GPa)
#
#
# Indices 1 2 3 4 5 6 
#
# 1 79.8134 -46.7443 1.5817 0.0000 0.0000 11.9692
# 2 -46.7443 79.8134 1.5817 0.0000 0.0000 -11.9692
# 3 1.5817 1.5817 55.4136 0.0000 0.0000 0.0000
# 4 0.0000 0.0000 0.0000 20.4212 0.0000 0.0000
# 5 0.0000 0.0000 0.0000 0.0000 20.4212 0.0000
# 6 11.9692 -11.9692 0.0000 0.0000 0.0000 16.4324
#
#
#
# Elastic Compliance Matrix: (Units=1/GPa)
#
#
# Indices 1 2 3 4 5 6 
#
# 1 0.019743 0.010579 -0.000866 0.000000 0.000000 -0.006675
# 2 0.010579 0.019743 -0.000866 0.000000 0.000000 0.006675
# 3 -0.000866 -0.000866 0.018096 0.000000 0.000000 0.000000
# 4 0.000000 0.000000 0.000000 0.048969 0.000000 0.000000
# 5 0.000000 0.000000 0.000000 0.000000 0.048969 0.000000
# 6 -0.006675 0.006675 0.000000 0.000000 0.000000 0.070580
#
#
# Mechanical properties :
#
#
# Convention : Reuss Voigt Hill
#
# Bulk Modulus (GPa) = 13.28403 14.20875 13.74639
# Shear Modulus (GPa) = 21.41368 28.69639 25.05504
#
# Velocity S-wave (km/s) = 3.22342 3.73152 3.48674
# Velocity P-wave (km/s) = 4.50552 5.04580 4.78329
#
# Compressibility (1/GPa) = 0.07527838
#
# Stress axis : x y z
#
# Youngs Moduli (GPa) = 50.65011 50.65011 55.26234
#
# Poissons Ratio (x) = -0.53584 0.04783
# Poissons Ratio (y) = -0.53584 0.04783
# Poissons Ratio (z) = 0.04384 0.04384
#
# Static dielectric constant tensor:
#      x y z
#    x 1.771890 0.000000 0.000000 
#    y 0.000000 1.771890 0.000000 
#    z 0.000000 0.000000 1.649640 
# 
# From -- ./inp_files/1109.got.cif
#   From: 2010.05.17/outbox.cif.g08.bks.cpg/sg81_cif.got.tgz:1109.got - 2010.06.03 18:51:07.
