data_PCOD9542342
_publ_section_title
;
Structure prediction by ZEFSAII (Michael W. Deem and Ramdas Pophale) SiO2 
 PCOD9542342
Probable space group: P -4
;
_chemical_formula_sum "Si O2"
_cell_formula_units_Z 28
_cell_length_a 11.884702
_cell_length_b 11.884702
_cell_length_c 10.327537
_cell_angle_alpha 90.000000
_cell_angle_beta 90.000000
_cell_angle_gamma 90.000000
_cell_volume 1458.724754
_symmetry_space_group_name_H-M "P -4"
_symmetry_group_IT_number 81
_symmetry_cell_setting 'tetragonal'
loop_
_space_group_symop_operation_xyz
x,y,z
y,-x,-z
-x,-y,z
-y,x,-z
loop_
_atom_site_type_symbol
_atom_site_label
_atom_site_fract_x
_atom_site_fract_y
_atom_site_fract_z
Si Si1 0.138849 0.630687 0.801348
Si Si2 0.809468 0.286079 0.076245
Si Si3 0.876278 0.522715 0.177003
Si Si4 0.385582 0.885991 0.118947
Si Si5 0.980004 0.130575 0.189507
Si Si6 0.262210 0.815300 0.672802
Si Si7 0.096490 0.144834 0.548881
O O1 0.146644 0.496452 0.800605
O O2 0.196747 0.698098 0.686920
O O3 0.006518 0.654900 0.826926
O O4 0.203153 0.674973 0.928904
O O5 0.821642 0.400271 0.158244
O O6 0.707965 0.208506 0.120261
O O7 0.921813 0.208970 0.083514
O O8 0.814293 0.614024 0.265432
O O9 0.000000 0.500000 0.233263
O O10 0.895352 0.573744 0.031666
O O11 0.889956 0.130320 0.307831
O O12 0.091671 0.192226 0.242213
O O13 0.000000 0.000000 0.155580
O O14 0.253066 0.856949 0.524459
O O15 0.962059 0.139192 0.536371
#
# Coordination Sequence:
#
# PCOD9542342 Si02
#       7
#     4   4   4   4   4   4   4
#     4  10  20  34  53  78 109 144 180 224 280 336
#     4  11  21  33  55  77 112 147 180 225 279 336
#     4  11  19  35  50  78 113 149 177 222 276 330
#     4  10  19  35  50  75 115 145 172 227 280 328
#     4  11  19  33  53  82 110 140 177 225 284 339
#     4  11  19  33  57  74 107 148 183 219 275 336
#     4   9  17  32  50  76 109 138 171 222 275 321
#
# _framework density 19.194848
#
# number of rings (size 3 to 8) (size 9 to 14) (size 15 to 20)
#    0.000    1.571    8.571    0.857    0.000    0.000 
#    0.000    0.714    3.143    0.000    0.000    0.000 
#    0.000    0.000    0.000    0.000    0.000    0.000 
#
# Total GULP energy -156275.532102 kJ/mol
# GULP energy per Si atom -5581.269004 kJ/mol
# Density = 1.915116 g / cm^3
# Si number density = 19.194848 Si / 1000 Ang^3
#
#
#
# Elastic Constant Matrix: (Units=GPa)
#
#
# Indices 1 2 3 4 5 6 
#
# 1 99.9608 46.8056 6.9537 0.0000 0.0000 -0.7928
# 2 46.8056 99.9608 6.9537 0.0000 0.0000 0.7928
# 3 6.9537 6.9537 17.2468 0.0000 0.0000 0.0000
# 4 0.0000 0.0000 0.0000 16.1109 0.0000 0.0000
# 5 0.0000 0.0000 0.0000 0.0000 16.1109 0.0000
# 6 -0.7928 0.7928 0.0000 0.0000 0.0000 31.7335
#
#
#
# Elastic Compliance Matrix: (Units=1/GPa)
#
#
# Indices 1 2 3 4 5 6 
#
# 1 0.012956 -0.005871 -0.002856 0.000000 0.000000 0.000470
# 2 -0.005871 0.012956 -0.002856 0.000000 0.000000 -0.000470
# 3 -0.002856 -0.002856 0.060285 0.000000 0.000000 0.000000
# 4 0.000000 0.000000 0.000000 0.062070 0.000000 0.000000
# 5 0.000000 0.000000 0.000000 0.000000 0.062070 0.000000
# 6 0.000470 -0.000470 0.000000 0.000000 0.000000 0.031536
#
#
# Mechanical properties :
#
#
# Convention : Reuss Voigt Hill
#
# Bulk Modulus (GPa) = 15.86587 37.62158 26.74372
# Shear Modulus (GPa) = 17.47956 23.22145 20.35051
#
# Velocity S-wave (km/s) = 3.02095 3.48196 3.25961
# Velocity P-wave (km/s) = 4.52237 5.98396 5.30375
#
# Compressibility (1/GPa) = 0.06302839
#
# Stress axis : x y z
#
# Youngs Moduli (GPa) = 77.18718 77.18718 16.58788
#
# Poissons Ratio (x) = 0.45319 0.04738
# Poissons Ratio (y) = 0.45319 0.04738
# Poissons Ratio (z) = 0.22047 0.22047
#
# Static dielectric constant tensor:
#      x y z
#    x 1.685560 0.000000 0.000000 
#    y 0.000000 1.685560 0.000000 
#    z 0.000000 0.000000 1.707050 
# 
# From -- ./inp_files/1395.got.cif
#   From: 2010.05.17/outbox.cif.g08.bks.cpg/sg81_cif.got.tgz:1395.got - 2010.06.03 18:51:07.
