data_PCOD9542502
_publ_section_title
;
Structure prediction by ZEFSAII (Michael W. Deem and Ramdas Pophale) SiO2 
 PCOD9542502
Probable space group: P -4
;
_chemical_formula_sum "Si O2"
_cell_formula_units_Z 24
_cell_length_a 14.165134
_cell_length_b 14.165134
_cell_length_c 5.225226
_cell_angle_alpha 90.000000
_cell_angle_beta 90.000000
_cell_angle_gamma 90.000000
_cell_volume 1048.446933
_symmetry_space_group_name_H-M "P -4"
_symmetry_group_IT_number 81
_symmetry_cell_setting 'tetragonal'
loop_
_space_group_symop_operation_xyz
x,y,z
y,-x,-z
-x,-y,z
-y,x,-z
loop_
_atom_site_type_symbol
_atom_site_label
_atom_site_fract_x
_atom_site_fract_y
_atom_site_fract_z
Si Si1 0.000000 0.000000 0.500000
Si Si2 0.975321 0.679050 0.283502
Si Si3 0.500000 0.000000 0.009563
Si Si4 0.895729 0.183604 0.590646
Si Si5 0.832664 0.588481 0.664545
Si Si6 0.775668 0.162311 0.069920
Si Si7 0.502184 0.640614 0.392040
Si Si8 0.500000 0.500000 0.000000
O O1 0.913685 0.951467 0.347987
O O2 0.939101 0.748116 0.057821
O O3 0.882655 0.636825 0.421595
O O4 0.034570 0.734877 0.493971
O O5 0.027718 0.589490 0.164068
O O6 0.466202 0.913789 0.182944
O O7 0.835526 0.161343 0.331611
O O8 0.832928 0.210004 0.836664
O O9 0.796664 0.674225 0.844964
O O10 0.748721 0.519659 0.590353
O O11 0.537277 0.596033 0.130290
O O12 0.405308 0.580149 0.424757
#
# Coordination Sequence:
#
# PCOD9542502 Si02
#       8
#     1   4   2   4   4   4   4   1
#     4  12  24  38  76 102 136 198 240 306 360 430
#     4  11  25  48  68 101 148 194 251 306 363 449
#     4  10  26  44  72  98 152 198 242 306 368 442
#     4  12  26  43  70 104 145 189 254 300 375 419
#     4  11  23  50  68 109 147 194 248 303 373 449
#     4  11  25  44  69 100 142 194 236 314 356 442
#     4   9  21  43  76 106 143 179 237 305 376 444
#     4   8  18  44  64 106 136 176 214 304 364 450
#
# _framework density 22.890999999999998
#
# number of rings (size 3 to 8) (size 9 to 14) (size 15 to 20)
#    0.000    1.500    3.333    0.500    7.000    6.000 
#   12.000    0.000    0.000    0.000    0.000    0.000 
#    0.000    0.000    0.000    0.000    0.000    0.000 
#
# Total GULP energy -133962.895886 kJ/mol
# GULP energy per Si atom -5581.787329 kJ/mol
# Density = 2.283890 g / cm^3
# Si number density = 22.891000 Si / 1000 Ang^3
#
#
#
# Elastic Constant Matrix: (Units=GPa)
#
#
# Indices 1 2 3 4 5 6 
#
# 1 78.9281 14.0465 18.3698 0.0000 0.0000 23.3810
# 2 14.0465 78.9281 18.3698 0.0000 0.0000 -23.3810
# 3 18.3698 18.3698 113.9984 0.0000 0.0000 0.0000
# 4 0.0000 0.0000 0.0000 75.9250 0.0000 0.0000
# 5 0.0000 0.0000 0.0000 0.0000 75.9250 0.0000
# 6 23.3810 -23.3810 0.0000 0.0000 0.0000 18.7445
#
#
#
# Elastic Compliance Matrix: (Units=1/GPa)
#
#
# Indices 1 2 3 4 5 6 
#
# 1 0.082046 -0.070559 -0.001851 0.000000 0.000000 -0.190352
# 2 -0.070559 0.082046 -0.001851 0.000000 0.000000 0.190352
# 3 -0.001851 -0.001851 0.009369 0.000000 0.000000 0.000000
# 4 0.000000 0.000000 0.000000 0.013171 0.000000 0.000000
# 5 0.000000 0.000000 0.000000 0.000000 0.013171 0.000000
# 6 -0.190352 0.190352 0.000000 0.000000 0.000000 0.528221
#
#
# Mechanical properties :
#
#
# Convention : Reuss Voigt Hill
#
# Bulk Modulus (GPa) = 40.09848 41.49189 40.79518
# Shear Modulus (GPa) = 5.65062 48.85682 27.25372
#
# Velocity S-wave (km/s) = 1.57285 4.62489 3.45423
# Velocity P-wave (km/s) = 4.56658 6.83262 5.81112
#
# Compressibility (1/GPa) = 0.02493860
#
# Stress axis : x y z
#
# Youngs Moduli (GPa) = 12.18829 12.18829 106.73947
#
# Poissons Ratio (x) = 0.85999 0.19758
# Poissons Ratio (y) = 0.85999 0.19758
# Poissons Ratio (z) = 0.02256 0.02256
#
# Static dielectric constant tensor:
#      x y z
#    x 1.852580 0.000000 0.000000 
#    y 0.000000 1.852580 0.000000 
#    z 0.000000 0.000000 2.078100 
# 
# From -- ./inp_files/373.got.cif
#   From: 2010.05.17/outbox.cif.g08.bks.cpg/sg81_cif.got.tgz:373.got - 2010.06.03 18:51:07.
