data_PCOD9542763
_publ_section_title
;
Structure prediction by ZEFSAII (Michael W. Deem and Ramdas Pophale) SiO2 
 PCOD9542763
Probable space group: I -4 
;
_chemical_formula_sum "Si O2"
_cell_formula_units_Z 40
_cell_length_a 17.303767
_cell_length_b 17.303767
_cell_length_c 4.820812
_cell_angle_alpha 90.000000
_cell_angle_beta 90.000000
_cell_angle_gamma 90.000000
_cell_volume 1443.449228
_symmetry_space_group_name_H-M "I -4 "
_symmetry_group_IT_number 82
_symmetry_cell_setting 'tetragonal'
loop_
_space_group_symop_operation_xyz
x,y,z
y,-x,-z
-x,-y,z
-y,x,-z
1/2+x,1/2+y,1/2+z
1/2+y,1/2-x,1/2-z
1/2-x,1/2-y,1/2+z
1/2-y,1/2+x,1/2-z
loop_
_atom_site_type_symbol
_atom_site_label
_atom_site_fract_x
_atom_site_fract_y
_atom_site_fract_z
Si Si1 0.610827 0.181424 0.241228
Si Si2 0.620402 0.511134 0.028067
Si Si3 0.710545 0.635340 0.264367
Si Si4 0.258595 0.914729 0.400166
Si Si5 0.482101 0.121513 0.662784
O O1 0.609954 0.224963 0.953423
O O2 0.851693 0.254538 0.950972
O O3 0.670375 0.110875 0.209820
O O4 0.535781 0.151508 0.407478
O O5 0.653495 0.562081 0.277652
O O6 0.693315 0.479656 0.855234
O O7 0.569654 0.438193 0.122202
O O8 0.661466 0.704539 0.129351
O O9 0.306321 0.942404 0.672222
O O10 0.421228 0.049779 0.644348
#
# Coordination Sequence:
#
# PCOD9542763 Si02
#       5
#     8   8   8   8   8
#     4  11  23  43  66  97 127 166 212 266 321 377
#     4   9  19  40  65  94 130 171 214 262 318 380
#     4  11  23  43  66  97 127 166 212 266 321 377
#     4  10  20  40  68  94 130 166 214 264 318 382
#     4   9  19  40  65  94 130 171 214 262 318 380
#
# _framework density 27.711402
#
# number of rings (size 3 to 8) (size 9 to 14) (size 15 to 20)
#    0.000    2.000    2.000    1.200    0.000    0.000 
#   14.400    0.000    0.000   14.400    0.000    0.000 
#    0.000    0.000    0.000    0.000    0.000    0.000 
#
# Total GULP energy -111789.305766 kJ/mol
# GULP energy per Si atom -5589.465288 kJ/mol
# Density = 2.764833 g / cm^3
# Si number density = 27.711402 Si / 1000 Ang^3
#
#
#
# Elastic Constant Matrix: (Units=GPa)
#
#
# Indices 1 2 3 4 5 6 
#
# 1 156.1227 46.5434 19.8114 0.0000 0.0000 -13.8257
# 2 46.5434 156.1227 19.8114 0.0000 0.0000 13.8257
# 3 19.8114 19.8114 111.2398 0.0000 0.0000 0.0000
# 4 0.0000 0.0000 0.0000 18.9690 0.0000 0.0000
# 5 0.0000 0.0000 0.0000 0.0000 18.9690 0.0000
# 6 -13.8257 13.8257 0.0000 0.0000 0.0000 65.8552
#
#
#
# Elastic Compliance Matrix: (Units=1/GPa)
#
#
# Indices 1 2 3 4 5 6 
#
# 1 0.007374 -0.002262 -0.000910 0.000000 0.000000 0.002023
# 2 -0.002262 0.007374 -0.000910 0.000000 0.000000 -0.002023
# 3 -0.000910 -0.000910 0.009314 0.000000 0.000000 0.000000
# 4 0.000000 0.000000 0.000000 0.052718 0.000000 0.000000
# 5 0.000000 0.000000 0.000000 0.000000 0.052718 0.000000
# 6 0.002023 -0.002023 0.000000 0.000000 0.000000 0.016034
#
#
# Mechanical properties :
#
#
# Convention : Reuss Voigt Hill
#
# Bulk Modulus (GPa) = 62.90705 66.20196 64.55450
# Shear Modulus (GPa) = 31.44721 43.24658 37.34689
#
# Velocity S-wave (km/s) = 3.37235 3.95474 3.67510
# Velocity P-wave (km/s) = 6.15741 6.69290 6.43073
#
# Compressibility (1/GPa) = 0.01589647
#
# Stress axis : x y z
#
# Youngs Moduli (GPa) = 135.60668 135.60668 107.36647
#
# Poissons Ratio (x) = 0.30675 0.09775
# Poissons Ratio (y) = 0.30675 0.09775
# Poissons Ratio (z) = 0.12347 0.12347
#
# Static dielectric constant tensor:
#      x y z
#    x 2.283190 0.000000 0.000000 
#    y 0.000000 2.283190 0.000000 
#    z 0.000000 0.000000 2.131250 
# 
# From -- ./inp_files/237.got.cif
#   From: 2010.05.17/outbox.cif.g08.bks.cpg/sg82_1_cif.got.tgz:237.got - 2010.06.03 18:52:26.
