data_PCOD9542987
_publ_section_title
;
Structure prediction by ZEFSAII (Michael W. Deem and Ramdas Pophale) SiO2 
 PCOD9542987
Probable space group: I -4 
;
_chemical_formula_sum "Si O2"
_cell_formula_units_Z 48
_cell_length_a 11.235583
_cell_length_b 11.235583
_cell_length_c 17.104496
_cell_angle_alpha 90.000000
_cell_angle_beta 90.000000
_cell_angle_gamma 90.000000
_cell_volume 2159.242931
_symmetry_space_group_name_H-M "I -4 "
_symmetry_group_IT_number 82
_symmetry_cell_setting 'tetragonal'
loop_
_space_group_symop_operation_xyz
x,y,z
y,-x,-z
-x,-y,z
-y,x,-z
1/2+x,1/2+y,1/2+z
1/2+y,1/2-x,1/2-z
1/2-x,1/2-y,1/2+z
1/2-y,1/2+x,1/2-z
loop_
_atom_site_type_symbol
_atom_site_label
_atom_site_fract_x
_atom_site_fract_y
_atom_site_fract_z
Si Si1 0.172541 0.649814 0.517607
Si Si2 0.497471 0.323033 0.289130
Si Si3 0.081462 0.616725 0.361007
Si Si4 0.224247 0.390230 0.554829
Si Si5 0.356720 0.999133 0.348068
Si Si6 0.993324 0.796431 0.228756
O O1 0.089395 0.681955 0.444241
O O2 0.177459 0.506353 0.510640
O O3 0.300263 0.706081 0.500298
O O4 0.114970 0.678084 0.601194
O O5 0.550812 0.299155 0.374574
O O6 0.486208 0.207761 0.234587
O O7 0.372730 0.391658 0.297452
O O8 0.598583 0.403030 0.247677
O O9 0.031641 0.707783 0.297129
O O10 0.212540 0.571856 0.334472
O O11 0.000000 0.500000 0.362598
O O12 0.115184 0.325890 0.598624
O O13 0.500000 0.000000 0.342954
#
# Coordination Sequence:
#
# PCOD9542987 Si02
#       6
#     8   8   8   8   8   8
#     4  11  26  43  66 100 136 179 231 282 353 411
#     4  11  26  43  71 102 144 175 241 286 351 418
#     4  12  22  43  69  98 140 180 233 282 349 417
#     4  11  25  43  69  99 135 184 224 293 343 417
#     4  10  25  45  67 101 133 189 232 285 353 420
#     4  11  24  42  68 109 133 186 226 292 348 413
#
# _framework density 22.230015999999999
#
# number of rings (size 3 to 8) (size 9 to 14) (size 15 to 20)
#    0.000    1.000    3.333    2.500    7.000    3.000 
#    0.000    0.000    0.000    2.000    0.000    0.000 
#    0.000    0.000    0.000    0.000    0.000    0.000 
#
# Total GULP energy -134236.917447 kJ/mol
# GULP energy per Si atom -5593.204894 kJ/mol
# Density = 2.217942 g / cm^3
# Si number density = 22.230016 Si / 1000 Ang^3
#
#
#
# Elastic Constant Matrix: (Units=GPa)
#
#
# Indices 1 2 3 4 5 6 
#
# 1 58.1204 4.8052 6.7936 0.0000 0.0000 4.1797
# 2 4.8052 58.1204 6.7936 0.0000 0.0000 -4.1797
# 3 6.7936 6.7936 80.2781 0.0000 0.0000 0.0000
# 4 0.0000 0.0000 0.0000 29.2483 0.0000 0.0000
# 5 0.0000 0.0000 0.0000 0.0000 29.2483 0.0000
# 6 4.1797 -4.1797 0.0000 0.0000 0.0000 28.9386
#
#
#
# Elastic Compliance Matrix: (Units=1/GPa)
#
#
# Indices 1 2 3 4 5 6 
#
# 1 0.017689 -0.001502 -0.001370 0.000000 0.000000 -0.002772
# 2 -0.001502 0.017689 -0.001370 0.000000 0.000000 0.002772
# 3 -0.001370 -0.001370 0.012689 0.000000 0.000000 0.000000
# 4 0.000000 0.000000 0.000000 0.034190 0.000000 0.000000
# 5 0.000000 0.000000 0.000000 0.000000 0.034190 0.000000
# 6 -0.002772 0.002772 0.000000 0.000000 0.000000 0.035357
#
#
# Mechanical properties :
#
#
# Convention : Reuss Voigt Hill
#
# Bulk Modulus (GPa) = 25.26264 25.92263 25.59264
# Shear Modulus (GPa) = 28.82155 29.36216 29.09185
#
# Velocity S-wave (km/s) = 3.60462 3.63827 3.62149
# Velocity P-wave (km/s) = 5.35848 5.41625 5.38744
#
# Compressibility (1/GPa) = 0.03958415
#
# Stress axis : x y z
#
# Youngs Moduli (GPa) = 56.53146 56.53145 78.81124
#
# Poissons Ratio (x) = 0.08489 0.10796
# Poissons Ratio (y) = 0.08489 0.10796
# Poissons Ratio (z) = 0.07744 0.07744
#
# Static dielectric constant tensor:
#      x y z
#    x 1.841730 0.000000 0.000000 
#    y 0.000000 1.841730 0.000000 
#    z 0.000000 0.000000 1.826800 
# 
# From -- ./inp_files/2626.got.cif
#   From: 2010.05.17/outbox.cif.g08.bks.cpg/sg82_2_cif.got.tgz:2626.got - 2010.06.03 18:52:26.
