data_PCOD9542263
_publ_section_title
;
Structure prediction by ZEFSAII (Michael W. Deem and Ramdas Pophale) SiO2 
 PCOD9542263
Probable space group: I 41
;
_chemical_formula_sum "Si O2"
_cell_formula_units_Z 60
_cell_length_a 18.424550
_cell_length_b 18.424550
_cell_length_c 8.726555
_cell_angle_alpha 90.000000
_cell_angle_beta 90.000000
_cell_angle_gamma 90.000000
_cell_volume 2962.351639
_symmetry_space_group_name_H-M "I 41"
_symmetry_group_IT_number 80
_symmetry_cell_setting 'tetragonal'
loop_
_space_group_symop_operation_xyz
x,y,z
-y,1/2+x,1/4+z
-x,-y,z
y,1/2-x,1/4+z
1/2+x,1/2+y,1/2+z
1/2-y,x,3/4+z
1/2-x,1/2-y,1/2+z
1/2+y,-x,3/4+z
loop_
_atom_site_type_symbol
_atom_site_label
_atom_site_fract_x
_atom_site_fract_y
_atom_site_fract_z
Si Si1 0.540290 0.728219 0.001170
Si Si2 0.000000 0.500000 0.488552
Si Si3 0.970900 0.599982 0.007555
Si Si4 0.987233 0.252585 0.172592
Si Si5 0.911064 0.624988 0.673418
Si Si6 0.119086 0.496868 0.249044
Si Si7 0.334291 0.771631 0.538397
Si Si8 0.927979 0.132992 0.702254
O O1 0.571413 0.796369 0.098416
O O2 0.483110 0.678283 0.097245
O O3 0.498502 0.757433 0.852717
O O4 0.600639 0.673224 0.931338
O O5 0.960217 0.563163 0.586516
O O6 0.937914 0.471347 0.371575
O O7 0.923130 0.557838 0.134940
O O8 0.992715 0.672626 0.094446
O O9 0.931177 0.621855 0.852435
O O10 0.045863 0.562560 0.949657
O O11 0.904408 0.240237 0.124733
O O12 0.032364 0.186119 0.097695
O O13 0.151247 0.553245 0.127710
O O14 0.282724 0.796353 0.674514
O O15 0.352822 0.842952 0.435061
#
# Coordination Sequence:
#
# PCOD9542263 Si02
#       8
#     8   4   8   8   8   8   8   8
#     4  12  27  47  72 104 143 180 238 296 351 425
#     4  12  24  42  74 110 136 180 234 296 350 412
#     4  11  24  43  74  99 140 182 235 294 357 417
#     4  11  26  45  68 101 137 189 237 292 355 420
#     4  12  27  46  72 107 141 184 235 293 357 421
#     4  12  21  42  72 103 137 174 233 293 348 416
#     4  11  26  44  63  95 141 189 233 280 352 425
#     4  11  23  44  68 101 135 184 231 295 351 417
#
# _framework density 20.254180000000002
#
# number of rings (size 3 to 8) (size 9 to 14) (size 15 to 20)
#    0.000    0.533    5.333    2.400    5.600    0.000 
#    0.000    1.333    0.000    0.000    0.000    0.000 
#    0.000    0.000    0.000    0.000    0.000    0.000 
#
# Total GULP energy -167373.943077 kJ/mol
# GULP energy per Si atom -5579.131436 kJ/mol
# Density = 2.020808 g / cm^3
# Si number density = 20.254180 Si / 1000 Ang^3
#
#
#
# Elastic Constant Matrix: (Units=GPa)
#
#
# Indices 1 2 3 4 5 6 
#
# 1 70.6638 64.7965 67.0618 0.0000 0.0000 2.8836
# 2 64.7965 70.6638 67.0618 0.0000 0.0000 -2.8836
# 3 67.0618 67.0618 104.2552 0.0000 0.0000 0.0000
# 4 0.0000 0.0000 0.0000 29.7083 0.0000 0.0000
# 5 0.0000 0.0000 0.0000 0.0000 29.7083 0.0000
# 6 2.8836 -2.8836 0.0000 0.0000 0.0000 23.1846
#
#
#
# Elastic Compliance Matrix: (Units=1/GPa)
#
#
# Indices 1 2 3 4 5 6 
#
# 1 0.107252 -0.086921 -0.013078 0.000000 0.000000 -0.024150
# 2 -0.086921 0.107252 -0.013078 0.000000 0.000000 0.024150
# 3 -0.013078 -0.013078 0.026416 0.000000 0.000000 0.000000
# 4 0.000000 0.000000 0.000000 0.033661 0.000000 0.000000
# 5 0.000000 0.000000 0.000000 0.000000 0.033661 0.000000
# 6 -0.024150 0.024150 0.000000 0.000000 0.000000 0.049140
#
#
# Mechanical properties :
#
#
# Convention : Reuss Voigt Hill
#
# Bulk Modulus (GPa) = 67.71833 71.49143 69.60488
# Shear Modulus (GPa) = 8.49680 19.63110 14.06395
#
# Velocity S-wave (km/s) = 2.05041 3.11663 2.63795
# Velocity P-wave (km/s) = 6.25399 6.95162 6.61201
#
# Compressibility (1/GPa) = 0.01476705
#
# Stress axis : x y z
#
# Youngs Moduli (GPa) = 9.32383 9.32383 37.85521
#
# Poissons Ratio (x) = 0.81044 0.49507
# Poissons Ratio (y) = 0.81044 0.49507
# Poissons Ratio (z) = 0.12194 0.12194
#
# Static dielectric constant tensor:
#      x y z
#    x 1.771270 0.000000 0.000000 
#    y 0.000000 1.771270 0.000000 
#    z 0.000000 0.000000 1.723630 
# 
# From -- ./inp_files/743.got.cif
#   From: 2010.05.17/outbox.cif.g08.bks.cpg/sg80_cif.got.tgz:743.got - 2010.06.03 18:49:13.
