data_PCOD9542120
_publ_section_title
;
Structure prediction by ZEFSAII (Michael W. Deem and Ramdas Pophale) SiO2 
 PCOD9542120
Probable space group: I 41
;
_chemical_formula_sum "Si O2"
_cell_formula_units_Z 60
_cell_length_a 19.150946
_cell_length_b 19.150946
_cell_length_c 7.676519
_cell_angle_alpha 90.000000
_cell_angle_beta 90.000000
_cell_angle_gamma 90.000000
_cell_volume 2815.430380
_symmetry_space_group_name_H-M "I 41"
_symmetry_group_IT_number 80
_symmetry_cell_setting 'tetragonal'
loop_
_space_group_symop_operation_xyz
x,y,z
-y,1/2+x,1/4+z
-x,-y,z
y,1/2-x,1/4+z
1/2+x,1/2+y,1/2+z
1/2-y,x,3/4+z
1/2-x,1/2-y,1/2+z
1/2+y,-x,3/4+z
loop_
_atom_site_type_symbol
_atom_site_label
_atom_site_fract_x
_atom_site_fract_y
_atom_site_fract_z
Si Si1 0.252096 0.059609 0.343190
Si Si2 0.500000 0.000000 0.315256
Si Si3 0.082223 0.834380 0.225905
Si Si4 0.092158 0.619398 0.991137
Si Si5 0.313081 0.186356 0.960381
Si Si6 0.440774 0.811628 0.867074
Si Si7 0.115075 0.440599 0.598008
Si Si8 0.233763 0.558971 0.101210
O O1 0.223519 0.137603 0.355769
O O2 0.325853 0.063669 0.246763
O O3 0.200173 0.014375 0.215866
O O4 0.260972 0.017769 0.519829
O O5 0.551975 0.049314 0.428604
O O6 0.458486 0.057426 0.197478
O O7 0.148490 0.882954 0.226142
O O8 0.085886 0.767163 0.345842
O O9 0.017572 0.882372 0.271713
O O10 0.064059 0.799648 0.041468
O O11 0.061666 0.646771 0.180574
O O12 0.174616 0.601632 0.997239
O O13 0.083943 0.686772 0.868221
O O14 0.235362 0.181779 0.040205
O O15 0.353152 0.112160 0.953663
#
# Coordination Sequence:
#
# PCOD9542120 Si02
#       8
#     8   4   8   8   8   8   8   8
#     4  10  20  39  62  87 126 166 207 265 320 382
#     4  12  22  40  68  96 122 178 224 266 328 402
#     4   9  20  38  58  85 125 163 205 257 318 371
#     4  10  22  40  62  92 131 169 220 264 327 388
#     4  10  23  42  62  92 123 158 213 268 326 393
#     4   9  20  38  58  87 128 164 205 264 310 384
#     4  10  22  38  61  90 122 162 216 264 321 393
#     4  10  20  39  61  89 129 166 209 269 314 393
#
# _framework density 21.311126999999999
#
# number of rings (size 3 to 8) (size 9 to 14) (size 15 to 20)
#    0.000    2.133    1.333    0.800    3.733    1.067 
#    4.800   17.333    0.000    0.000    0.000    0.000 
#    0.000    0.000    0.000    0.000    0.000    0.000 
#
# Total GULP energy -167121.392399 kJ/mol
# GULP energy per Si atom -5570.713080 kJ/mol
# Density = 2.126262 g / cm^3
# Si number density = 21.311127 Si / 1000 Ang^3
#
#
#
# Elastic Constant Matrix: (Units=GPa)
#
#
# Indices 1 2 3 4 5 6 
#
# 1 40.3630 54.9073 17.9207 0.0000 0.0000 6.1839
# 2 54.9073 40.3630 17.9207 0.0000 0.0000 -6.1839
# 3 17.9207 17.9207 41.3583 0.0000 0.0000 0.0000
# 4 0.0000 0.0000 0.0000 20.7825 0.0000 0.0000
# 5 0.0000 0.0000 0.0000 0.0000 20.7825 0.0000
# 6 6.1839 -6.1839 0.0000 0.0000 0.0000 24.1369
#
#
#
# Elastic Compliance Matrix: (Units=1/GPa)
#
#
# Indices 1 2 3 4 5 6 
#
# 1 -0.021958 0.034498 -0.005434 0.000000 0.000000 0.014464
# 2 0.034498 -0.021958 -0.005434 0.000000 0.000000 -0.014464
# 3 -0.005434 -0.005434 0.028888 0.000000 0.000000 0.000000
# 4 0.000000 0.000000 0.000000 0.048117 0.000000 0.000000
# 5 0.000000 0.000000 0.000000 0.000000 0.048117 0.000000
# 6 0.014464 -0.014464 0.000000 0.000000 0.000000 0.034019
#
#
# Mechanical properties :
#
#
# Convention : Reuss Voigt Hill
#
# Bulk Modulus (GPa) = 31.02339 33.73129 32.37734
# Shear Modulus (GPa) = 63.52465 15.22944 39.37705
#
# Velocity S-wave (km/s) = 5.46561 2.67615 4.30318
# Velocity P-wave (km/s) = 7.37696 5.04097 6.31787
#
# Compressibility (1/GPa) = 0.03223374
#
# Stress axis : x y z
#
# Youngs Moduli (GPa) = -45.54206 -45.54206 34.61646
#
# Poissons Ratio (x) = 1.57113 0.18810
# Poissons Ratio (y) = 1.57113 0.18810
# Poissons Ratio (z) = -0.24747 -0.24747
#
# Static dielectric constant tensor:
#      x y z
#    x 1.788270 0.000000 0.000000 
#    y 0.000000 1.788270 0.000000 
#    z 0.000000 0.000000 1.838730 
# 
# From -- ./inp_files/744.got.cif
#   From: 2010.05.17/outbox.cif.g08.bks.cpg/sg80_cif.got.tgz:744.got - 2010.06.03 18:49:13.
