data_PCOD9542003
_publ_section_title
;
Structure prediction by ZEFSAII (Michael W. Deem and Ramdas Pophale) SiO2 
 PCOD9542003
Probable space group: I 4
;
_chemical_formula_sum "Si O2"
_cell_formula_units_Z 38
_cell_length_a 8.423234
_cell_length_b 8.423234
_cell_length_c 24.507258
_cell_angle_alpha 90.000000
_cell_angle_beta 90.000000
_cell_angle_gamma 90.000000
_cell_volume 1738.811301
_symmetry_space_group_name_H-M "I 4"
_symmetry_group_IT_number 79
_symmetry_cell_setting 'tetragonal'
loop_
_space_group_symop_operation_xyz
x,y,z
-y,x,z
-x,-y,z
y,-x,z
1/2+x,1/2+y,1/2+z
1/2-y,1/2+x,1/2+z
1/2-x,1/2-y,1/2+z
1/2+y,1/2-x,1/2+z
loop_
_atom_site_type_symbol
_atom_site_label
_atom_site_fract_x
_atom_site_fract_y
_atom_site_fract_z
Si Si1 0.000000 0.500000 0.347491
Si Si2 0.756012 0.092984 0.269986
Si Si3 0.909875 0.335365 0.659444
Si Si4 0.370564 0.265586 0.551684
Si Si5 0.749723 0.098877 0.928952
Si Si6 0.500000 0.500000 0.181451
O O1 0.884798 0.603160 0.308360
O O2 0.893150 0.387900 0.386419
O O3 0.713139 0.124271 0.207388
O O4 0.910466 0.196975 0.280665
O O5 0.837871 0.300384 0.600072
O O6 0.000000 0.500000 0.652109
O O7 0.022643 0.193348 0.679068
O O8 0.559931 0.293658 0.556957
O O9 0.356867 0.197747 0.490513
O O10 0.913545 0.196875 0.922959
#
# Coordination Sequence:
#
# PCOD9542003 Si02
#       6
#     4   8   8   8   8   2
#     4  12  22  38  62  94 124 174 232 296 336 408
#     4  11  24  42  63  91 130 177 226 281 357 421
#     4  12  24  43  66 100 141 176 215 291 348 416
#     4   9  18  36  65  92 127 175 221 272 345 422
#     4   9  20  39  61  90 124 168 226 279 339 415
#     4  12  28  44  72 112 148 176 248 276 344 450
#
# _framework density 21.854012000000001
#
# number of rings (size 3 to 8) (size 9 to 14) (size 15 to 20)
#    0.000    1.474    1.053    6.316    1.474    1.684 
#    0.000    0.000    0.000    0.000    0.000    0.000 
#    0.000    0.000    0.000    0.000    0.000    0.000 
#
# Total GULP energy -105866.465531 kJ/mol
# GULP energy per Si atom -5571.919238 kJ/mol
# Density = 2.180427 g / cm^3
# Si number density = 21.854012 Si / 1000 Ang^3
#
#
#
# Elastic Constant Matrix: (Units=GPa)
#
#
# Indices 1 2 3 4 5 6 
#
# 1 44.1314 -1.4553 19.7893 0.0000 0.0000 -11.9274
# 2 -1.4553 44.1314 19.7893 0.0000 0.0000 11.9274
# 3 19.7893 19.7893 114.4702 0.0000 0.0000 0.0000
# 4 0.0000 0.0000 0.0000 19.5500 0.0000 0.0000
# 5 0.0000 0.0000 0.0000 0.0000 19.5500 0.0000
# 6 -11.9274 11.9274 0.0000 0.0000 0.0000 30.3280
#
#
#
# Elastic Compliance Matrix: (Units=1/GPa)
#
#
# Indices 1 2 3 4 5 6 
#
# 1 0.027764 0.000143 -0.004824 0.000000 0.000000 0.010863
# 2 0.000143 0.027764 -0.004824 0.000000 0.000000 -0.010863
# 3 -0.004824 -0.004824 0.010404 0.000000 0.000000 0.000000
# 4 0.000000 0.000000 0.000000 0.051151 0.000000 0.000000
# 5 0.000000 0.000000 0.000000 0.000000 0.051151 0.000000
# 6 0.010863 -0.010863 0.000000 0.000000 0.000000 0.041517
#
#
# Mechanical properties :
#
#
# Convention : Reuss Voigt Hill
#
# Bulk Modulus (GPa) = 21.31309 30.99770 26.15539
# Shear Modulus (GPa) = 20.45819 24.85960 22.65889
#
# Velocity S-wave (km/s) = 3.06294 3.37639 3.22348
# Velocity P-wave (km/s) = 4.72043 5.42354 5.08415
#
# Compressibility (1/GPa) = 0.04691952
#
# Stress axis : x y z
#
# Youngs Moduli (GPa) = 36.01846 36.01846 96.11722
#
# Poissons Ratio (x) = -0.00515 0.46371
# Poissons Ratio (y) = -0.00515 0.46371
# Poissons Ratio (z) = 0.17377 0.17377
#
# Static dielectric constant tensor:
#      x y z
#    x 1.819020 0.000000 0.000000 
#    y 0.000000 1.819020 0.000000 
#    z 0.000000 0.000000 1.805960 
# 
# From -- ./inp_files/1906.got.cif
#   From: 2010.05.17/outbox.cif.g08.bks.cpg/sg79_cif.got.tgz:1906.got - 2010.06.03 18:47:27.
