data_PCOD9542115
_publ_section_title
;
Structure prediction by ZEFSAII (Michael W. Deem and Ramdas Pophale) SiO2 
 PCOD9542115
Probable space group: I 41
;
_chemical_formula_sum "Si O2"
_cell_formula_units_Z 48
_cell_length_a 9.047991
_cell_length_b 9.047991
_cell_length_c 27.521787
_cell_angle_alpha 90.000000
_cell_angle_beta 90.000000
_cell_angle_gamma 90.000000
_cell_volume 2253.102499
_symmetry_space_group_name_H-M "I 41"
_symmetry_group_IT_number 80
_symmetry_cell_setting 'tetragonal'
loop_
_space_group_symop_operation_xyz
x,y,z
-y,1/2+x,1/4+z
-x,-y,z
y,1/2-x,1/4+z
1/2+x,1/2+y,1/2+z
1/2-y,x,3/4+z
1/2-x,1/2-y,1/2+z
1/2+y,-x,3/4+z
loop_
_atom_site_type_symbol
_atom_site_label
_atom_site_fract_x
_atom_site_fract_y
_atom_site_fract_z
Si Si1 0.791410 0.156240 0.661540
Si Si2 0.207398 0.373195 0.225669
Si Si3 0.476993 0.172429 0.207921
Si Si4 0.827763 0.020498 0.566734
Si Si5 0.477391 0.675131 0.680171
Si Si6 0.331111 0.429594 0.329620
O O1 0.956206 0.205882 0.672273
O O2 0.771838 0.142092 0.604063
O O3 0.695334 0.290399 0.681518
O O4 0.741441 0.003977 0.687081
O O5 0.311639 0.229754 0.216341
O O6 0.050302 0.294876 0.217084
O O7 0.246651 0.443579 0.278155
O O8 0.552736 0.198856 0.260512
O O9 0.500000 0.000000 0.194942
O O10 0.743858 0.871076 0.581034
O O11 0.000000 0.000000 0.573298
O O12 0.500000 0.500000 0.687138
O O13 0.529610 0.735529 0.626819
O O14 0.500000 0.500000 0.328014
#
# Coordination Sequence:
#
# PCOD9542115 Si02
#       6
#     8   8   8   8   8   8
#     4  12  22  39  65  92 126 172 225 263 324 400
#     4  11  22  40  68  93 124 173 222 270 323 393
#     4  10  22  39  63  95 133 165 211 274 333 388
#     4  10  20  37  64  94 124 161 214 271 313 377
#     4  12  26  42  62  93 139 170 210 281 342 389
#     4  11  21  43  67  98 126 167 224 272 317 396
#
# _framework density 21.303955999999999
#
# number of rings (size 3 to 8) (size 9 to 14) (size 15 to 20)
#    0.000    1.000    3.333    5.000    0.000    1.333 
#    0.000    0.000    0.000    0.000    0.000    0.000 
#    0.000    0.000    0.000    0.000    0.000    0.000 
#
# Total GULP energy -133775.267717 kJ/mol
# GULP energy per Si atom -5573.969488 kJ/mol
# Density = 2.125547 g / cm^3
# Si number density = 21.303956 Si / 1000 Ang^3
#
#
#
# Elastic Constant Matrix: (Units=GPa)
#
#
# Indices 1 2 3 4 5 6 
#
# 1 63.2251 -17.7012 5.9353 0.0000 0.0000 6.6675
# 2 -17.7012 63.2251 5.9353 0.0000 0.0000 -6.6675
# 3 5.9353 5.9353 67.1156 0.0000 0.0000 0.0000
# 4 0.0000 0.0000 0.0000 24.5814 0.0000 0.0000
# 5 0.0000 0.0000 0.0000 0.0000 24.5814 0.0000
# 6 6.6675 -6.6675 0.0000 0.0000 0.0000 32.9531
#
#
#
# Elastic Compliance Matrix: (Units=1/GPa)
#
#
# Indices 1 2 3 4 5 6 
#
# 1 0.017634 0.004851 -0.001988 0.000000 0.000000 -0.002586
# 2 0.004851 0.017634 -0.001988 0.000000 0.000000 0.002586
# 3 -0.001988 -0.001988 0.015251 0.000000 0.000000 0.000000
# 4 0.000000 0.000000 0.000000 0.040681 0.000000 0.000000
# 5 0.000000 0.000000 0.000000 0.000000 0.040681 0.000000
# 6 -0.002586 0.002586 0.000000 0.000000 0.000000 0.031393
#
#
# Mechanical properties :
#
#
# Convention : Reuss Voigt Hill
#
# Bulk Modulus (GPa) = 19.13232 20.21162 19.67197
# Shear Modulus (GPa) = 27.94091 29.71626 28.82858
#
# Velocity S-wave (km/s) = 3.62544 3.73885 3.68258
# Velocity P-wave (km/s) = 5.15027 5.30533 5.22837
#
# Compressibility (1/GPa) = 0.05226758
#
# Stress axis : x y z
#
# Youngs Moduli (GPa) = 56.70847 56.70847 65.56791
#
# Poissons Ratio (x) = -0.27509 0.13038
# Poissons Ratio (y) = -0.27509 0.13038
# Poissons Ratio (z) = 0.11276 0.11276
#
# Static dielectric constant tensor:
#      x y z
#    x 1.793500 0.000000 0.000000 
#    y 0.000000 1.793500 0.000000 
#    z 0.000000 0.000000 1.820200 
# 
# From -- ./inp_files/2598.got.cif
#   From: 2010.05.17/outbox.cif.g08.bks.cpg/sg80_cif.got.tgz:2598.got - 2010.06.03 18:49:13.
