data_PCOD9542975
_publ_section_title
;
Structure prediction by ZEFSAII (Michael W. Deem and Ramdas Pophale) SiO2 
 PCOD9542975
Probable space group: I -4 
;
_chemical_formula_sum "Si O2"
_cell_formula_units_Z 44
_cell_length_a 14.265907
_cell_length_b 14.265907
_cell_length_c 10.369034
_cell_angle_alpha 90.000000
_cell_angle_beta 90.000000
_cell_angle_gamma 90.000000
_cell_volume 2110.265387
_symmetry_space_group_name_H-M "I -4 "
_symmetry_group_IT_number 82
_symmetry_cell_setting 'tetragonal'
loop_
_space_group_symop_operation_xyz
x,y,z
y,-x,-z
-x,-y,z
-y,x,-z
1/2+x,1/2+y,1/2+z
1/2+y,1/2-x,1/2-z
1/2-x,1/2-y,1/2+z
1/2-y,1/2+x,1/2-z
loop_
_atom_site_type_symbol
_atom_site_label
_atom_site_fract_x
_atom_site_fract_y
_atom_site_fract_z
Si Si1 0.032414 0.328842 0.428150
Si Si2 0.175219 0.617161 0.356851
Si Si3 0.000000 0.000000 0.000000
Si Si4 0.655241 0.975774 0.078811
Si Si5 0.000000 0.500000 0.750000
Si Si6 0.938831 0.879768 0.450382
Si Si7 0.153984 0.111927 0.172633
O O1 0.078029 0.342999 0.286616
O O2 0.077903 0.404221 0.522287
O O3 0.064911 0.228767 0.480185
O O4 0.920147 0.333520 0.406624
O O5 0.189679 0.532166 0.455283
O O6 0.276527 0.666310 0.354984
O O7 0.925661 0.938969 0.084801
O O8 0.591227 0.036543 0.173928
O O9 0.745532 0.934042 0.147694
O O10 0.882628 0.897148 0.319219
O O11 0.049537 0.903352 0.439920
#
# Coordination Sequence:
#
# PCOD9542975 Si02
#       7
#     8   8   2   8   2   8   8
#     4  11  23  41  75  99 139 184 233 293 348 424
#     4  11  22  45  71 103 139 181 237 287 354 424
#     4  12  20  44  66  96 144 176 224 282 344 412
#     4  12  25  45  66 102 141 185 229 286 357 419
#     4  12  28  44  66 100 144 184 220 294 356 412
#     4  10  24  46  67  97 135 185 238 286 345 414
#     4  11  26  43  71 104 137 187 231 292 352 417
#
# _framework density 20.850459000000001
#
# number of rings (size 3 to 8) (size 9 to 14) (size 15 to 20)
#    0.000    0.909    5.455    1.091    5.091    0.000 
#    3.273    0.000    0.000    0.000    0.000    0.000 
#    0.000    0.000    0.000    0.000    0.000    0.000 
#
# Total GULP energy -122765.132899 kJ/mol
# GULP energy per Si atom -5580.233314 kJ/mol
# Density = 2.080300 g / cm^3
# Si number density = 20.850459 Si / 1000 Ang^3
#
#
#
# Elastic Constant Matrix: (Units=GPa)
#
#
# Indices 1 2 3 4 5 6 
#
# 1 83.4612 5.2378 24.9784 0.0000 0.0000 -7.7084
# 2 5.2378 83.4612 24.9784 0.0000 0.0000 7.7084
# 3 24.9784 24.9784 48.4870 0.0000 0.0000 0.0000
# 4 0.0000 0.0000 0.0000 33.7851 0.0000 0.0000
# 5 0.0000 0.0000 0.0000 0.0000 33.7851 0.0000
# 6 -7.7084 7.7084 0.0000 0.0000 0.0000 26.5715
#
#
#
# Elastic Compliance Matrix: (Units=1/GPa)
#
#
# Indices 1 2 3 4 5 6 
#
# 1 0.014721 0.001162 -0.008182 0.000000 0.000000 0.003933
# 2 0.001162 0.014721 -0.008182 0.000000 0.000000 -0.003933
# 3 -0.008182 -0.008182 0.029054 0.000000 0.000000 0.000000
# 4 0.000000 0.000000 0.000000 0.029599 0.000000 0.000000
# 5 0.000000 0.000000 0.000000 0.000000 0.029599 0.000000
# 6 0.003933 -0.003933 0.000000 0.000000 0.000000 0.039917
#
#
# Mechanical properties :
#
#
# Convention : Reuss Voigt Hill
#
# Bulk Modulus (GPa) = 35.59851 36.19984 35.89917
# Shear Modulus (GPa) = 25.33217 29.50932 27.42074
#
# Velocity S-wave (km/s) = 3.48939 3.76611 3.63039
# Velocity P-wave (km/s) = 5.77449 6.02584 5.90150
#
# Compressibility (1/GPa) = 0.02809106
#
# Stress axis : x y z
#
# Youngs Moduli (GPa) = 67.93165 67.93165 34.41877
#
# Poissons Ratio (x) = -0.07891 0.28161
# Poissons Ratio (y) = -0.07891 0.28161
# Poissons Ratio (z) = 0.55580 0.55580
#
# Static dielectric constant tensor:
#      x y z
#    x 1.767190 0.000000 0.000000 
#    y 0.000000 1.767190 0.000000 
#    z 0.000000 0.000000 1.747070 
# 
# From -- ./inp_files/1744.got.cif
#   From: 2010.05.17/outbox.cif.g08.bks.cpg/sg82_1_cif.got.tgz:1744.got - 2010.06.03 18:52:26.
