data_PCOD9542330
_publ_section_title
;
Structure prediction by ZEFSAII (Michael W. Deem and Ramdas Pophale) SiO2 
 PCOD9542330
Probable space group: P -4
;
_chemical_formula_sum "Si O2"
_cell_formula_units_Z 16
_cell_length_a 7.176063
_cell_length_b 7.176063
_cell_length_c 12.384081
_cell_angle_alpha 90.000000
_cell_angle_beta 90.000000
_cell_angle_gamma 90.000000
_cell_volume 637.729151
_symmetry_space_group_name_H-M "P -4"
_symmetry_group_IT_number 81
_symmetry_cell_setting 'tetragonal'
loop_
_space_group_symop_operation_xyz
x,y,z
y,-x,-z
-x,-y,z
-y,x,-z
loop_
_atom_site_type_symbol
_atom_site_label
_atom_site_fract_x
_atom_site_fract_y
_atom_site_fract_z
Si Si1 0.870679 0.720987 0.875095
Si Si2 0.000000 0.500000 0.287580
Si Si3 0.152074 0.276694 0.108435
Si Si4 0.210448 0.277346 0.632966
Si Si5 0.500000 0.500000 0.500000
Si Si6 0.000000 0.000000 0.500000
O O1 0.816925 0.657452 0.756233
O O2 0.094318 0.726961 0.874612
O O3 0.798530 0.936635 0.887310
O O4 0.812356 0.636800 0.990659
O O5 0.842612 0.583270 0.207594
O O6 0.903978 0.343292 0.356802
O O7 0.322089 0.432854 0.568441
O O8 0.032387 0.183234 0.575135
#
# Coordination Sequence:
#
# PCOD9542330 Si02
#       6
#     4   2   4   4   1   1
#     4   8  15  31  55  82 116 155 197 247 301 364
#     4  10  18  34  60  90 122 158 196 250 312 370
#     4   8  14  28  55  90 116 143 196 254 301 362
#     4  11  23  41  62  87 121 163 208 260 306 354
#     4  12  28  44  56  90 136 164 196 260 324 354
#     4  12  24  44  72  90 104 164 240 260 276 354
#
# _framework density 25.089019
#
# number of rings (size 3 to 8) (size 9 to 14) (size 15 to 20)
#    0.000    2.500    0.000    6.000    0.000    0.000 
#    0.000   10.000    0.000    0.000    0.000    0.000 
#    0.000    0.000    0.000    0.000    0.000    0.000 
#
# Total GULP energy -89433.597018 kJ/mol
# GULP energy per Si atom -5589.599814 kJ/mol
# Density = 2.503191 g / cm^3
# Si number density = 25.089019 Si / 1000 Ang^3
#
#
#
# Elastic Constant Matrix: (Units=GPa)
#
#
# Indices 1 2 3 4 5 6 
#
# 1 61.9252 7.5454 32.1687 0.0000 0.0000 3.2482
# 2 7.5454 61.9252 32.1687 0.0000 0.0000 -3.2482
# 3 32.1687 32.1687 160.3781 0.0000 0.0000 0.0000
# 4 0.0000 0.0000 0.0000 19.2328 0.0000 0.0000
# 5 0.0000 0.0000 0.0000 0.0000 19.2328 0.0000
# 6 3.2482 -3.2482 0.0000 0.0000 0.0000 30.4415
#
#
#
# Elastic Compliance Matrix: (Units=1/GPa)
#
#
# Indices 1 2 3 4 5 6 
#
# 1 0.018153 -0.000474 -0.003546 0.000000 0.000000 -0.001988
# 2 -0.000474 0.018153 -0.003546 0.000000 0.000000 0.001988
# 3 -0.003546 -0.003546 0.007658 0.000000 0.000000 0.000000
# 4 0.000000 0.000000 0.000000 0.051994 0.000000 0.000000
# 5 0.000000 0.000000 0.000000 0.000000 0.051994 0.000000
# 6 -0.001988 0.001988 0.000000 0.000000 0.000000 0.033274
#
#
# Mechanical properties :
#
#
# Convention : Reuss Voigt Hill
#
# Bulk Modulus (GPa) = 34.68492 47.55489 41.11991
# Shear Modulus (GPa) = 24.27560 27.93781 26.10670
#
# Velocity S-wave (km/s) = 3.11397 3.34061 3.22928
# Velocity P-wave (km/s) = 5.17531 5.82024 5.50722
#
# Compressibility (1/GPa) = 0.02883097
#
# Stress axis : x y z
#
# Youngs Moduli (GPa) = 55.08864 55.08864 130.58635
#
# Poissons Ratio (x) = 0.02611 0.46305
# Poissons Ratio (y) = 0.02611 0.46305
# Poissons Ratio (z) = 0.19534 0.19534
#
# Static dielectric constant tensor:
#      x y z
#    x 1.989730 0.000000 0.000000 
#    y 0.000000 1.989730 0.000000 
#    z 0.000000 0.000000 1.959840 
# 
# From -- ./inp_files/1073.got.cif
#   From: 2010.05.17/outbox.cif.g08.bks.cpg/sg81_cif.got.tgz:1073.got - 2010.06.03 18:51:07.
