data_PCOD9542971
_publ_section_title
;
Structure prediction by ZEFSAII (Michael W. Deem and Ramdas Pophale) SiO2 
 PCOD9542971
Probable space group: I -4 
;
_chemical_formula_sum "Si O2"
_cell_formula_units_Z 28
_cell_length_a 14.921242
_cell_length_b 14.921242
_cell_length_c 5.031952
_cell_angle_alpha 90.000000
_cell_angle_beta 90.000000
_cell_angle_gamma 90.000000
_cell_volume 1120.331218
_symmetry_space_group_name_H-M "I -4 "
_symmetry_group_IT_number 82
_symmetry_cell_setting 'tetragonal'
loop_
_space_group_symop_operation_xyz
x,y,z
y,-x,-z
-x,-y,z
-y,x,-z
1/2+x,1/2+y,1/2+z
1/2+y,1/2-x,1/2-z
1/2-x,1/2-y,1/2+z
1/2-y,1/2+x,1/2-z
loop_
_atom_site_type_symbol
_atom_site_label
_atom_site_fract_x
_atom_site_fract_y
_atom_site_fract_z
Si Si1 0.249905 0.197503 0.050214
Si Si2 0.813114 0.450479 0.845996
Si Si3 0.500000 0.500000 0.500000
Si Si4 0.500000 0.000000 0.250000
Si Si5 0.449570 0.314330 0.664986
O O1 0.251445 0.287915 0.233884
O O2 0.345379 0.158841 0.128496
O O3 0.155723 0.158385 0.142636
O O4 0.905559 0.502068 0.900953
O O5 0.758461 0.464568 0.571634
O O6 0.740067 0.467514 0.070257
O O7 0.502573 0.407157 0.659797
#
# Coordination Sequence:
#
# PCOD9542971 Si02
#       5
#     8   8   2   2   8
#     4   8  16  38  66  92 132 184 234 294 358 414
#     4  10  24  45  70 105 145 192 249 307 365 444
#     4  12  28  46  80 110 152 206 244 310 388 442
#     4  12  28  46  80 110 152 206 244 310 388 442
#     4  10  24  45  70 105 145 192 249 307 365 444
#
# _framework density 24.992608000000001
#
# number of rings (size 3 to 8) (size 9 to 14) (size 15 to 20)
#    0.000    2.286    0.000    0.000    4.000    6.857 
#   20.571    0.000    0.000    0.000    0.000    0.000 
#    0.000    0.000    0.000    0.000    0.000    0.000 
#
# Total GULP energy -78162.517927 kJ/mol
# GULP energy per Si atom -5583.036995 kJ/mol
# Density = 2.493572 g / cm^3
# Si number density = 24.992608 Si / 1000 Ang^3
#
#
#
# Elastic Constant Matrix: (Units=GPa)
#
#
# Indices 1 2 3 4 5 6 
#
# 1 102.7441 34.1700 9.1024 0.0000 0.0000 4.0707
# 2 34.1700 102.7441 9.1024 0.0000 0.0000 -4.0707
# 3 9.1024 9.1024 104.5552 0.0000 0.0000 0.0000
# 4 0.0000 0.0000 0.0000 11.3542 0.0000 0.0000
# 5 0.0000 0.0000 0.0000 0.0000 11.3542 0.0000
# 6 4.0707 -4.0707 0.0000 0.0000 0.0000 40.9675
#
#
#
# Elastic Compliance Matrix: (Units=1/GPa)
#
#
# Indices 1 2 3 4 5 6 
#
# 1 0.011073 -0.003684 -0.000643 0.000000 0.000000 -0.001466
# 2 -0.003684 0.011073 -0.000643 0.000000 0.000000 0.001466
# 3 -0.000643 -0.000643 0.009676 0.000000 0.000000 0.000000
# 4 0.000000 0.000000 0.000000 0.088073 0.000000 0.000000
# 5 0.000000 0.000000 0.000000 0.000000 0.088073 0.000000
# 6 -0.001466 0.001466 0.000000 0.000000 0.000000 0.024701
#
#
# Mechanical properties :
#
#
# Convention : Reuss Voigt Hill
#
# Bulk Modulus (GPa) = 45.69992 46.08812 45.89402
# Shear Modulus (GPa) = 20.00765 29.91307 24.96036
#
# Velocity S-wave (km/s) = 2.83246 3.46334 3.16367
# Velocity P-wave (km/s) = 5.38722 5.87143 5.63453
#
# Compressibility (1/GPa) = 0.02188188
#
# Stress axis : x y z
#
# Youngs Moduli (GPa) = 90.30879 90.30879 103.34485
#
# Poissons Ratio (x) = 0.33267 0.06648
# Poissons Ratio (y) = 0.33267 0.06648
# Poissons Ratio (z) = 0.05810 0.05810
#
# Static dielectric constant tensor:
#      x y z
#    x 2.005330 0.000000 0.000000 
#    y 0.000000 2.005330 0.000000 
#    z 0.000000 0.000000 1.916860 
# 
# From -- ./inp_files/135.got.cif
#   From: 2010.05.17/outbox.cif.g08.bks.cpg/sg82_1_cif.got.tgz:135.got - 2010.06.03 18:52:26.
