data_PCOD9542358
_publ_section_title
;
Structure prediction by ZEFSAII (Michael W. Deem and Ramdas Pophale) SiO2 
 PCOD9542358
Probable space group: P -4
;
_chemical_formula_sum "Si O2"
_cell_formula_units_Z 23
_cell_length_a 13.553259
_cell_length_b 13.553259
_cell_length_c 6.743780
_cell_angle_alpha 90.000000
_cell_angle_beta 90.000000
_cell_angle_gamma 90.000000
_cell_volume 1238.770542
_symmetry_space_group_name_H-M "P -4"
_symmetry_group_IT_number 81
_symmetry_cell_setting 'tetragonal'
loop_
_space_group_symop_operation_xyz
x,y,z
y,-x,-z
-x,-y,z
-y,x,-z
loop_
_atom_site_type_symbol
_atom_site_label
_atom_site_fract_x
_atom_site_fract_y
_atom_site_fract_z
Si Si1 0.300315 0.022053 0.129993
Si Si2 0.000000 0.000000 0.500000
Si Si3 0.178519 0.713059 0.210763
Si Si4 0.836506 0.861518 0.400504
Si Si5 0.887037 0.505424 0.291403
Si Si6 0.500000 0.000000 0.331800
Si Si7 0.692144 0.185357 0.926719
O O1 0.231900 0.051879 0.311906
O O2 0.411254 0.040997 0.203034
O O3 0.271492 0.089278 0.943976
O O4 0.293002 0.910616 0.062266
O O5 0.091488 0.945798 0.607056
O O6 0.169047 0.792174 0.387077
O O7 0.161611 0.602338 0.291235
O O8 0.275571 0.726643 0.073476
O O9 0.823666 0.769052 0.254292
O O10 0.914032 0.537093 0.517332
O O11 0.823994 0.583950 0.168714
O O12 0.000000 0.500000 0.206619
#
# Coordination Sequence:
#
# PCOD9542358 Si02
#       7
#     4   1   4   4   4   2   4
#     4  11  20  37  58  87 118 165 203 253 306 365
#     4  12  24  32  54  68 124 166 204 232 310 336
#     4  11  22  40  61  87 126 158 212 255 313 376
#     4  11  24  40  51  83 124 171 205 258 300 374
#     4  10  20  39  63  87 121 158 207 266 310 360
#     4  10  20  34  68  88 122 158 210 268 310 358
#     4  11  24  36  63  90 122 160 215 252 316 372
#
# _framework density 18.566796
#
# number of rings (size 3 to 8) (size 9 to 14) (size 15 to 20)
#    0.522    0.696    3.478    3.130    4.870    1.391 
#    0.000    3.478    0.000    0.522    0.000    0.000 
#    0.000    0.000    0.000    0.000    0.000    0.000 
#
# Total GULP energy -128222.225034 kJ/mol
# GULP energy per Si atom -5574.879349 kJ/mol
# Density = 1.852454 g / cm^3
# Si number density = 18.566796 Si / 1000 Ang^3
#
#
#
# Elastic Constant Matrix: (Units=GPa)
#
#
# Indices 1 2 3 4 5 6 
#
# 1 58.5651 9.6423 18.9815 0.0000 0.0000 -0.2020
# 2 9.6423 58.5651 18.9815 0.0000 0.0000 0.2020
# 3 18.9815 18.9815 96.8268 0.0000 0.0000 0.0000
# 4 0.0000 0.0000 0.0000 29.1722 0.0000 0.0000
# 5 0.0000 0.0000 0.0000 0.0000 29.1722 0.0000
# 6 -0.2020 0.2020 0.0000 0.0000 0.0000 24.1174
#
#
#
# Elastic Compliance Matrix: (Units=1/GPa)
#
#
# Indices 1 2 3 4 5 6 
#
# 1 0.018449 -0.001993 -0.003226 0.000000 0.000000 0.000171
# 2 -0.001993 0.018449 -0.003226 0.000000 0.000000 -0.000171
# 3 -0.003226 -0.003226 0.011593 0.000000 0.000000 0.000000
# 4 0.000000 0.000000 0.000000 0.034279 0.000000 0.000000
# 5 0.000000 0.000000 0.000000 0.000000 0.034279 0.000000
# 6 0.000171 -0.000171 0.000000 0.000000 0.000000 0.041467
#
#
# Mechanical properties :
#
#
# Convention : Reuss Voigt Hill
#
# Bulk Modulus (GPa) = 31.64391 34.35196 32.99793
# Shear Modulus (GPa) = 26.89044 27.58246 27.23645
#
# Velocity S-wave (km/s) = 3.80979 3.85850 3.83423
# Velocity P-wave (km/s) = 6.03597 6.19619 6.11660
#
# Compressibility (1/GPa) = 0.03160165
#
# Stress axis : x y z
#
# Youngs Moduli (GPa) = 54.20274 54.20274 86.26204
#
# Poissons Ratio (x) = 0.10800 0.27829
# Poissons Ratio (y) = 0.10800 0.27829
# Poissons Ratio (z) = 0.17486 0.17486
#
# Static dielectric constant tensor:
#      x y z
#    x 1.656000 0.000000 0.000000 
#    y 0.000000 1.656000 0.000000 
#    z 0.000000 0.000000 1.679260 
# 
# From -- ./inp_files/299.got.cif
#   From: 2010.05.17/outbox.cif.g08.bks.cpg/sg81_cif.got.tgz:299.got - 2010.06.03 18:51:07.
