data_PCOD9542398
_publ_section_title
;
Structure prediction by ZEFSAII (Michael W. Deem and Ramdas Pophale) SiO2 
 PCOD9542398
Probable space group: P -4
;
_chemical_formula_sum "Si O2"
_cell_formula_units_Z 17
_cell_length_a 10.635048
_cell_length_b 10.635048
_cell_length_c 7.106556
_cell_angle_alpha 90.000000
_cell_angle_beta 90.000000
_cell_angle_gamma 90.000000
_cell_volume 803.781658
_symmetry_space_group_name_H-M "P -4"
_symmetry_group_IT_number 81
_symmetry_cell_setting 'tetragonal'
loop_
_space_group_symop_operation_xyz
x,y,z
y,-x,-z
-x,-y,z
-y,x,-z
loop_
_atom_site_type_symbol
_atom_site_label
_atom_site_fract_x
_atom_site_fract_y
_atom_site_fract_z
Si Si1 0.000000 0.000000 0.500000
Si Si2 0.293198 0.222354 0.402164
Si Si3 0.444699 0.864063 0.447373
Si Si4 0.726071 0.013585 0.133783
Si Si5 0.205954 0.065667 0.751662
O O1 0.974436 0.874384 0.383094
O O2 0.444490 0.233145 0.397536
O O3 0.205968 0.345518 0.416205
O O4 0.274250 0.154744 0.604508
O O5 0.267643 0.122022 0.235561
O O6 0.374082 0.907710 0.255281
O O7 0.500000 0.000000 0.517428
O O8 0.853903 0.094077 0.151789
O O9 0.708697 0.991526 0.913018
#
# Coordination Sequence:
#
# PCOD9542398 Si02
#       5
#     1   4   4   4   4
#     4  12  20  34  56  96 134 164 212 270 332 424
#     4  10  21  42  60  90 132 174 224 274 323 382
#     4   9  21  40  65  92 133 173 223 277 321 388
#     4  10  21  37  58  94 129 170 219 261 329 400
#     4  11  21  33  58  89 130 171 204 266 333 393
#
# _framework density 21.150019
#
# number of rings (size 3 to 8) (size 9 to 14) (size 15 to 20)
#    0.000    1.882    2.353    1.412    0.000    0.471 
#    0.000   22.353    0.000    0.000    0.000   13.176 
#    0.000    0.000    0.000    0.000    0.000    0.000 
#
# Total GULP energy -94781.641190 kJ/mol
# GULP energy per Si atom -5575.390658 kJ/mol
# Density = 2.110188 g / cm^3
# Si number density = 21.150019 Si / 1000 Ang^3
#
#
#
# Elastic Constant Matrix: (Units=GPa)
#
#
# Indices 1 2 3 4 5 6 
#
# 1 97.0553 40.8463 31.9551 0.0000 0.0000 -2.7081
# 2 40.8463 97.0553 31.9551 0.0000 0.0000 2.7081
# 3 31.9551 31.9551 110.6778 0.0000 0.0000 0.0000
# 4 0.0000 0.0000 0.0000 20.5136 0.0000 0.0000
# 5 0.0000 0.0000 0.0000 0.0000 20.5136 0.0000
# 6 -2.7081 2.7081 0.0000 0.0000 0.0000 42.2200
#
#
#
# Elastic Compliance Matrix: (Units=1/GPa)
#
#
# Indices 1 2 3 4 5 6 
#
# 1 0.013137 -0.004765 -0.002417 0.000000 0.000000 0.001148
# 2 -0.004765 0.013137 -0.002417 0.000000 0.000000 -0.001148
# 3 -0.002417 -0.002417 0.010431 0.000000 0.000000 0.000000
# 4 0.000000 0.000000 0.000000 0.048748 0.000000 0.000000
# 5 0.000000 0.000000 0.000000 0.000000 0.048748 0.000000
# 6 0.001148 -0.001148 0.000000 0.000000 0.000000 0.023833
#
#
# Mechanical properties :
#
#
# Convention : Reuss Voigt Hill
#
# Bulk Modulus (GPa) = 57.12309 57.14459 57.13384
# Shear Modulus (GPa) = 27.31247 29.98490 28.64869
#
# Velocity S-wave (km/s) = 3.59746 3.76935 3.68441
# Velocity P-wave (km/s) = 6.65754 6.78391 6.72102
#
# Compressibility (1/GPa) = 0.01750605
#
# Stress axis : x y z
#
# Youngs Moduli (GPa) = 76.12341 76.12341 95.86824
#
# Poissons Ratio (x) = 0.36271 0.23172
# Poissons Ratio (y) = 0.36271 0.23172
# Poissons Ratio (z) = 0.18400 0.18400
#
# Static dielectric constant tensor:
#      x y z
#    x 1.849220 0.000000 0.000000 
#    y 0.000000 1.849220 0.000000 
#    z 0.000000 0.000000 1.823770 
# 
# From -- ./inp_files/181.got.cif
#   From: 2010.05.17/outbox.cif.g08.bks.cpg/sg81_cif.got.tgz:181.got - 2010.06.03 18:51:07.
