data_PCOD9542773
_publ_section_title
;
Structure prediction by ZEFSAII (Michael W. Deem and Ramdas Pophale) SiO2 
 PCOD9542773
Probable space group: I -4 
;
_chemical_formula_sum "Si O2"
_cell_formula_units_Z 36
_cell_length_a 14.808361
_cell_length_b 14.808361
_cell_length_c 7.072951
_cell_angle_alpha 90.000000
_cell_angle_beta 90.000000
_cell_angle_gamma 90.000000
_cell_volume 1551.010135
_symmetry_space_group_name_H-M "I -4 "
_symmetry_group_IT_number 82
_symmetry_cell_setting 'tetragonal'
loop_
_space_group_symop_operation_xyz
x,y,z
y,-x,-z
-x,-y,z
-y,x,-z
1/2+x,1/2+y,1/2+z
1/2+y,1/2-x,1/2-z
1/2-x,1/2-y,1/2+z
1/2-y,1/2+x,1/2-z
loop_
_atom_site_type_symbol
_atom_site_label
_atom_site_fract_x
_atom_site_fract_y
_atom_site_fract_z
Si Si1 0.870476 0.189502 0.567468
Si Si2 0.500000 0.000000 0.250000
Si Si3 0.000000 0.500000 0.250000
Si Si4 0.657666 0.014862 0.490606
Si Si5 0.848157 0.748717 0.773151
Si Si6 0.069926 0.123844 0.066243
O O1 0.956929 0.252074 0.523470
O O2 0.833654 0.160476 0.365736
O O3 0.795095 0.255062 0.660256
O O4 0.882645 0.109730 0.720892
O O5 0.423072 0.037932 0.383387
O O6 0.965179 0.599987 0.323684
O O7 0.679066 0.102563 0.367659
O O8 0.900700 0.784773 0.957889
O O9 0.962862 0.112236 0.042670
#
# Coordination Sequence:
#
# PCOD9542773 Si02
#       6
#     8   2   2   8   8   8
#     4  12  26  44  71 105 141 184 235 293 352 422
#     4  10  20  42  72  94 132 174 220 286 352 406
#     4  10  28  42  80 110 140 186 224 302 382 424
#     4  11  24  46  67 104 140 181 234 286 357 434
#     4  12  26  44  71 105 141 184 235 293 352 422
#     4  11  26  48  70  98 142 189 236 292 352 419
#
# _framework density 23.21068
#
# number of rings (size 3 to 8) (size 9 to 14) (size 15 to 20)
#    0.000    0.667    6.667    0.000    6.222    0.000 
#    0.000    2.222    0.000    0.000    0.000    0.000 
#    0.000    0.000    0.000    0.000    0.000    0.000 
#
# Total GULP energy -100319.280459 kJ/mol
# GULP energy per Si atom -5573.293359 kJ/mol
# Density = 2.315785 g / cm^3
# Si number density = 23.210680 Si / 1000 Ang^3
#
#
#
# Elastic Constant Matrix: (Units=GPa)
#
#
# Indices 1 2 3 4 5 6 
#
# 1 50.3790 -6.3232 13.2603 0.0000 0.0000 -3.0600
# 2 -6.3232 50.3790 13.2603 0.0000 0.0000 3.0600
# 3 13.2603 13.2603 48.2055 0.0000 0.0000 0.0000
# 4 0.0000 0.0000 0.0000 37.5794 0.0000 0.0000
# 5 0.0000 0.0000 0.0000 0.0000 37.5794 0.0000
# 6 -3.0600 3.0600 0.0000 0.0000 0.0000 28.7901
#
#
#
# Elastic Compliance Matrix: (Units=1/GPa)
#
#
# Indices 1 2 3 4 5 6 
#
# 1 0.022522 0.004681 -0.007483 0.000000 0.000000 0.001896
# 2 0.004681 0.022522 -0.007483 0.000000 0.000000 -0.001896
# 3 -0.007483 -0.007483 0.024861 0.000000 0.000000 0.000000
# 4 0.000000 0.000000 0.000000 0.026610 0.000000 0.000000
# 5 0.000000 0.000000 0.000000 0.000000 0.026610 0.000000
# 6 0.001896 -0.001896 0.000000 0.000000 0.000000 0.035137
#
#
# Mechanical properties :
#
#
# Convention : Reuss Voigt Hill
#
# Bulk Modulus (GPa) = 20.26935 21.03981 20.65458
# Shear Modulus (GPa) = 25.60455 29.37418 27.48937
#
# Velocity S-wave (km/s) = 3.32495 3.56131 3.44516
# Velocity P-wave (km/s) = 4.84687 5.09853 4.97429
#
# Compressibility (1/GPa) = 0.04933558
#
# Stress axis : x y z
#
# Youngs Moduli (GPa) = 44.40123 44.40123 40.22307
#
# Poissons Ratio (x) = -0.20785 0.30099
# Poissons Ratio (y) = -0.20785 0.30099
# Poissons Ratio (z) = 0.33225 0.33225
#
# Static dielectric constant tensor:
#      x y z
#    x 1.682960 0.000000 0.000000 
#    y 0.000000 1.682960 0.000000 
#    z 0.000000 0.000000 2.065330 
# 
# From -- ./inp_files/868.got.cif
#   From: 2010.05.17/outbox.cif.g08.bks.cpg/sg82_1_cif.got.tgz:868.got - 2010.06.03 18:52:26.
