data_PCOD9542860
_publ_section_title
;
Structure prediction by ZEFSAII (Michael W. Deem and Ramdas Pophale) SiO2 
 PCOD9542860
Probable space group: I -4 
;
_chemical_formula_sum "Si O2"
_cell_formula_units_Z 48
_cell_length_a 8.680473
_cell_length_b 8.680473
_cell_length_c 30.087244
_cell_angle_alpha 90.000000
_cell_angle_beta 90.000000
_cell_angle_gamma 90.000000
_cell_volume 2267.092234
_symmetry_space_group_name_H-M "I -4 "
_symmetry_group_IT_number 82
_symmetry_cell_setting 'tetragonal'
loop_
_space_group_symop_operation_xyz
x,y,z
y,-x,-z
-x,-y,z
-y,x,-z
1/2+x,1/2+y,1/2+z
1/2+y,1/2-x,1/2-z
1/2-x,1/2-y,1/2+z
1/2-y,1/2+x,1/2-z
loop_
_atom_site_type_symbol
_atom_site_label
_atom_site_fract_x
_atom_site_fract_y
_atom_site_fract_z
Si Si1 0.710887 0.279176 0.105187
Si Si2 0.667818 0.083277 0.436528
Si Si3 0.571315 0.770005 0.804729
Si Si4 0.591619 0.742947 0.709054
Si Si5 0.628326 0.282783 0.514526
Si Si6 0.665456 0.540952 0.625588
O O1 0.545394 0.279870 0.082167
O O2 0.719538 0.399374 0.145012
O O3 0.836080 0.268486 0.065104
O O4 0.738154 0.115263 0.129834
O O5 0.703949 0.151571 0.484277
O O6 0.650999 0.230851 0.404547
O O7 0.500000 0.000000 0.438515
O O8 0.610599 0.679748 0.759162
O O9 0.390402 0.800826 0.799319
O O10 0.675557 0.924936 0.798431
O O11 0.626023 0.618134 0.672053
O O12 0.449807 0.298533 0.498344
O O13 0.500000 0.500000 0.603774
#
# Coordination Sequence:
#
# PCOD9542860 Si02
#       6
#     8   8   8   8   8   8
#     4  11  22  40  62  89 124 160 198 256 317 363
#     4  10  22  40  57  89 130 150 198 264 308 356
#     4   9  19  39  61  89 127 162 200 253 312 358
#     4   9  19  37  62  93 122 157 211 256 291 371
#     4  11  21  37  64  88 112 156 212 254 294 366
#     4  11  19  37  65  91 114 159 205 253 295 360
#
# _framework density 21.172495999999999
#
# number of rings (size 3 to 8) (size 9 to 14) (size 15 to 20)
#    0.000    1.833    5.000    2.000    0.000    0.000 
#    9.000    0.833    0.000    0.000    0.000    0.000 
#    0.000    0.000    0.000    0.000    0.000    0.000 
#
# Total GULP energy -133817.602286 kJ/mol
# GULP energy per Si atom -5575.733429 kJ/mol
# Density = 2.112431 g / cm^3
# Si number density = 21.172496 Si / 1000 Ang^3
#
#
#
# Elastic Constant Matrix: (Units=GPa)
#
#
# Indices 1 2 3 4 5 6 
#
# 1 57.1764 0.4678 41.9042 0.0000 0.0000 5.5118
# 2 0.4678 57.1764 41.9042 0.0000 0.0000 -5.5118
# 3 41.9042 41.9042 166.2055 0.0000 0.0000 0.0000
# 4 0.0000 0.0000 0.0000 30.4234 0.0000 0.0000
# 5 0.0000 0.0000 0.0000 0.0000 30.4234 0.0000
# 6 5.5118 -5.5118 0.0000 0.0000 0.0000 11.4514
#
#
#
# Elastic Compliance Matrix: (Units=1/GPa)
#
#
# Indices 1 2 3 4 5 6 
#
# 1 0.023420 0.003966 -0.006905 0.000000 0.000000 -0.009364
# 2 0.003966 0.023420 -0.006905 0.000000 0.000000 0.009364
# 3 -0.006905 -0.006905 0.009498 0.000000 0.000000 0.000000
# 4 0.000000 0.000000 0.000000 0.032869 0.000000 0.000000
# 5 0.000000 0.000000 0.000000 0.000000 0.032869 0.000000
# 6 -0.009364 0.009364 0.000000 0.000000 0.000000 0.096340
#
#
# Mechanical properties :
#
#
# Convention : Reuss Voigt Hill
#
# Bulk Modulus (GPa) = 27.28331 49.90119 38.59225
# Shear Modulus (GPa) = 19.97423 27.54509 23.75966
#
# Velocity S-wave (km/s) = 3.07482 3.61083 3.35355
# Velocity P-wave (km/s) = 5.05175 6.40345 5.76734
#
# Compressibility (1/GPa) = 0.03665245
#
# Stress axis : x y z
#
# Youngs Moduli (GPa) = 42.69773 42.69772 105.28131
#
# Poissons Ratio (x) = -0.16935 0.72695
# Poissons Ratio (y) = -0.16935 0.72695
# Poissons Ratio (z) = 0.29482 0.29482
#
# Static dielectric constant tensor:
#      x y z
#    x 1.788720 0.000000 0.000000 
#    y 0.000000 1.788720 0.000000 
#    z 0.000000 0.000000 1.802710 
# 
# From -- ./inp_files/4061.got.cif
#   From: 2010.05.17/outbox.cif.g08.bks.cpg/sg82_3_cif.got.tgz:4061.got - 2010.06.03 18:52:26.
