data_PCOD9542291
_publ_section_title
;
Structure prediction by ZEFSAII (Michael W. Deem and Ramdas Pophale) SiO2 
 PCOD9542291
Probable space group: I 41
;
_chemical_formula_sum "Si O2"
_cell_formula_units_Z 56
_cell_length_a 15.420819
_cell_length_b 15.420819
_cell_length_c 12.387317
_cell_angle_alpha 90.000000
_cell_angle_beta 90.000000
_cell_angle_gamma 90.000000
_cell_volume 2945.724529
_symmetry_space_group_name_H-M "I 41"
_symmetry_group_IT_number 80
_symmetry_cell_setting 'tetragonal'
loop_
_space_group_symop_operation_xyz
x,y,z
-y,1/2+x,1/4+z
-x,-y,z
y,1/2-x,1/4+z
1/2+x,1/2+y,1/2+z
1/2-y,x,3/4+z
1/2-x,1/2-y,1/2+z
1/2+y,-x,3/4+z
loop_
_atom_site_type_symbol
_atom_site_label
_atom_site_fract_x
_atom_site_fract_y
_atom_site_fract_z
Si Si1 0.000000 0.000000 0.753011
Si Si2 0.614341 0.272913 0.948295
Si Si3 0.839348 0.954990 0.441077
Si Si4 0.727084 0.385648 0.087130
Si Si5 0.162492 0.918654 0.826950
Si Si6 0.500000 0.000000 0.032428
Si Si7 0.162488 0.581344 0.458474
Si Si8 0.160647 0.454985 0.844355
O O1 0.013856 0.086073 0.678537
O O2 0.913982 0.011385 0.824631
O O3 0.599359 0.317111 0.834066
O O4 0.698273 0.301718 0.017713
O O5 0.622095 0.172253 0.921131
O O6 0.536698 0.304625 0.025261
O O7 0.749999 0.918110 0.392713
O O8 0.887192 0.887202 0.517722
O O9 0.804613 0.036707 0.510158
O O10 0.913927 0.986148 0.356902
O O11 0.827741 0.377886 0.114304
O O12 0.682879 0.400637 0.201354
O O13 0.250006 0.938710 0.892704
O O14 0.413983 0.988621 0.960806
#
# Coordination Sequence:
#
# PCOD9542291 Si02
#       8
#     4   8   8   8   8   4   8   8
#     4  12  23  42  69  98 140 180 231 286 347 426
#     4  12  20  38  67  99 132 169 224 296 350 411
#     4  12  22  41  72 101 128 173 238 295 346 410
#     4  12  20  38  67  99 132 169 224 296 350 411
#     4  12  25  39  62 101 141 179 224 286 360 422
#     4  12  23  42  69  98 140 180 231 286 347 426
#     4  12  25  39  62 101 141 179 224 286 360 422
#     4  12  22  41  72 101 128 173 238 295 346 410
#
# _framework density 19.010604000000001
#
# number of rings (size 3 to 8) (size 9 to 14) (size 15 to 20)
#    0.000    0.000    8.571    3.857    0.000    0.000 
#    0.000    4.286    0.000    0.000    0.000    0.000 
#    0.000    0.000    0.000    0.000    0.000    0.000 
#
# Total GULP energy -156368.394803 kJ/mol
# GULP energy per Si atom -5584.585529 kJ/mol
# Density = 1.896733 g / cm^3
# Si number density = 19.010604 Si / 1000 Ang^3
#
#
#
# Elastic Constant Matrix: (Units=GPa)
#
#
# Indices 1 2 3 4 5 6 
#
# 1 115.2673 56.4451 31.1794 0.0000 0.0000 0.0006
# 2 56.4451 115.2673 31.1794 0.0000 0.0000 -0.0006
# 3 31.1794 31.1794 46.8038 0.0000 0.0000 0.0000
# 4 0.0000 0.0000 0.0000 35.9583 0.0000 0.0000
# 5 0.0000 0.0000 0.0000 0.0000 35.9583 0.0000
# 6 0.0006 -0.0006 0.0000 0.0000 0.0000 34.7405
#
#
#
# Elastic Compliance Matrix: (Units=1/GPa)
#
#
# Indices 1 2 3 4 5 6 
#
# 1 0.012341 -0.004659 -0.005118 0.000000 0.000000 0.000000
# 2 -0.004659 0.012341 -0.005118 0.000000 0.000000 0.000000
# 3 -0.005118 -0.005118 0.028184 0.000000 0.000000 0.000000
# 4 0.000000 0.000000 0.000000 0.027810 0.000000 0.000000
# 5 0.000000 0.000000 0.000000 0.000000 0.027810 0.000000
# 6 0.000000 0.000000 0.000000 0.000000 0.000000 0.028785
#
#
# Mechanical properties :
#
#
# Convention : Reuss Voigt Hill
#
# Bulk Modulus (GPa) = 43.33128 57.21625 50.27376
# Shear Modulus (GPa) = 28.61174 31.90037 30.25605
#
# Velocity S-wave (km/s) = 3.88369 4.10082 3.99373
# Velocity P-wave (km/s) = 6.55389 7.25153 6.91152
#
# Compressibility (1/GPa) = 0.02307802
#
# Stress axis : x y z
#
# Youngs Moduli (GPa) = 81.02868 81.02868 35.48071
#
# Poissons Ratio (x) = 0.37752 0.18158
# Poissons Ratio (y) = 0.37752 0.18158
# Poissons Ratio (z) = 0.41468 0.41468
#
# Static dielectric constant tensor:
#      x y z
#    x 1.713590 0.000000 0.000000 
#    y 0.000000 1.713590 0.000000 
#    z 0.000000 0.000000 1.689180 
# 
# From -- ./inp_files/1068.got.cif
#   From: 2010.05.17/outbox.cif.g08.bks.cpg/sg80_cif.got.tgz:1068.got - 2010.06.03 18:49:13.
