data_PCOD9542833
_publ_section_title
;
Structure prediction by ZEFSAII (Michael W. Deem and Ramdas Pophale) SiO2 
 PCOD9542833
Probable space group: I -4 
;
_chemical_formula_sum "Si O2"
_cell_formula_units_Z 52
_cell_length_a 16.558389
_cell_length_b 16.558389
_cell_length_c 9.391743
_cell_angle_alpha 90.000000
_cell_angle_beta 90.000000
_cell_angle_gamma 90.000000
_cell_volume 2575.030409
_symmetry_space_group_name_H-M "I -4 "
_symmetry_group_IT_number 82
_symmetry_cell_setting 'tetragonal'
loop_
_space_group_symop_operation_xyz
x,y,z
y,-x,-z
-x,-y,z
-y,x,-z
1/2+x,1/2+y,1/2+z
1/2+y,1/2-x,1/2-z
1/2-x,1/2-y,1/2+z
1/2-y,1/2+x,1/2-z
loop_
_atom_site_type_symbol
_atom_site_label
_atom_site_fract_x
_atom_site_fract_y
_atom_site_fract_z
Si Si1 0.236965 0.845972 0.837639
Si Si2 0.454853 0.853202 0.079853
Si Si3 0.000000 0.500000 0.750000
Si Si4 0.000000 0.000000 0.500000
Si Si5 0.107141 0.555096 0.305677
Si Si6 0.439451 0.292763 0.099839
Si Si7 0.399114 0.605652 0.147946
Si Si8 0.776523 0.317957 0.668278
O O1 0.303186 0.911966 0.790056
O O2 0.150167 0.879536 0.789732
O O3 0.249231 0.764574 0.745924
O O4 0.246160 0.827244 0.005375
O O5 0.506951 0.915346 0.170417
O O6 0.513036 0.782088 0.028464
O O7 0.374894 0.819574 0.159130
O O8 0.420968 0.907792 0.954206
O O9 0.985180 0.925995 0.393364
O O10 0.093334 0.459087 0.301957
O O11 0.515686 0.347771 0.148769
O O12 0.389648 0.258417 0.233295
O O13 0.380823 0.338856 0.987738
#
# Coordination Sequence:
#
# PCOD9542833 Si02
#       8
#     8   8   2   2   8   8   8   8
#     4  11  23  43  66  98 127 183 215 274 333 399
#     4  11  22  37  63  89 130 171 209 268 333 398
#     4  12  20  36  58  92 128 168 208 254 348 380
#     4   8  20  40  68  94 124 176 228 278 328 404
#     4  10  22  41  59  93 130 161 216 263 326 393
#     4  11  22  42  65  94 128 174 220 278 324 412
#     4  10  21  41  68  91 128 174 225 269 340 388
#     4  11  24  42  64  97 134 166 227 273 331 402
#
# _framework density 20.193936000000001
#
# number of rings (size 3 to 8) (size 9 to 14) (size 15 to 20)
#    0.000    1.385    3.077    2.769    2.154    0.000 
#   11.077    0.000    0.000    0.923    0.000    0.000 
#    0.000    0.000    0.000    0.000    0.000    0.000 
#
# Total GULP energy -144871.881733 kJ/mol
# GULP energy per Si atom -5571.995451 kJ/mol
# Density = 2.014797 g / cm^3
# Si number density = 20.193936 Si / 1000 Ang^3
#
#
#
# Elastic Constant Matrix: (Units=GPa)
#
#
# Indices 1 2 3 4 5 6 
#
# 1 59.4290 -6.9319 15.5590 0.0000 0.0000 4.2524
# 2 -6.9319 59.4290 15.5590 0.0000 0.0000 -4.2524
# 3 15.5590 15.5590 80.2401 0.0000 0.0000 0.0000
# 4 0.0000 0.0000 0.0000 32.7446 0.0000 0.0000
# 5 0.0000 0.0000 0.0000 0.0000 32.7446 0.0000
# 6 4.2524 -4.2524 0.0000 0.0000 0.0000 35.6510
#
#
#
# Elastic Compliance Matrix: (Units=1/GPa)
#
#
# Indices 1 2 3 4 5 6 
#
# 1 0.018413 0.003110 -0.004173 0.000000 0.000000 -0.001825
# 2 0.003110 0.018413 -0.004173 0.000000 0.000000 0.001825
# 3 -0.004173 -0.004173 0.014081 0.000000 0.000000 0.000000
# 4 0.000000 0.000000 0.000000 0.030539 0.000000 0.000000
# 5 0.000000 0.000000 0.000000 0.000000 0.030539 0.000000
# 6 -0.001825 0.001825 0.000000 0.000000 0.000000 0.028485
#
#
# Mechanical properties :
#
#
# Convention : Reuss Voigt Hill
#
# Bulk Modulus (GPa) = 24.73249 27.49671 26.11460
# Shear Modulus (GPa) = 30.40957 31.88885 31.14921
#
# Velocity S-wave (km/s) = 3.88477 3.97814 3.93173
# Velocity P-wave (km/s) = 5.69175 5.89463 5.79408
#
# Compressibility (1/GPa) = 0.04043265
#
# Stress axis : x y z
#
# Youngs Moduli (GPa) = 54.31018 54.31018 71.01732
#
# Poissons Ratio (x) = -0.16889 0.29638
# Poissons Ratio (y) = -0.16889 0.29638
# Poissons Ratio (z) = 0.22665 0.22665
#
# Static dielectric constant tensor:
#      x y z
#    x 1.803700 0.000000 0.000000 
#    y 0.000000 1.803700 0.000000 
#    z 0.000000 0.000000 1.740520 
# 
# From -- ./inp_files/1166.got.cif
#   From: 2010.05.17/outbox.cif.g08.bks.cpg/sg82_1_cif.got.tgz:1166.got - 2010.06.03 18:52:26.
