data_PCOD9542496
_publ_section_title
;
Structure prediction by ZEFSAII (Michael W. Deem and Ramdas Pophale) SiO2 
 PCOD9542496
Probable space group: P -4
;
_chemical_formula_sum "Si O2"
_cell_formula_units_Z 16
_cell_length_a 5.212559
_cell_length_b 5.212559
_cell_length_c 23.416231
_cell_angle_alpha 90.000000
_cell_angle_beta 90.000000
_cell_angle_gamma 90.000000
_cell_volume 636.237058
_symmetry_space_group_name_H-M "P -4"
_symmetry_group_IT_number 81
_symmetry_cell_setting 'tetragonal'
loop_
_space_group_symop_operation_xyz
x,y,z
y,-x,-z
-x,-y,z
-y,x,-z
loop_
_atom_site_type_symbol
_atom_site_label
_atom_site_fract_x
_atom_site_fract_y
_atom_site_fract_z
Si Si1 0.752274 0.180247 0.408851
Si Si2 0.158069 0.740530 0.161161
Si Si3 0.500000 0.000000 0.066399
Si Si4 0.500000 0.500000 0.000000
Si Si5 0.500000 0.500000 0.500000
Si Si6 0.178838 0.251387 0.715452
O O1 0.715261 0.382626 0.458903
O O2 0.752174 0.313873 0.346154
O O3 0.500000 0.000000 0.410317
O O4 0.000000 0.000000 0.415350
O O5 0.344458 0.824489 0.111339
O O6 0.254354 0.669157 0.224927
O O7 0.000000 0.500000 0.140236
O O8 0.000000 0.000000 0.170251
O O9 0.610816 0.765253 0.028665
O O10 0.000000 0.500000 0.717815
O O11 0.000000 0.000000 0.713487
#
# Coordination Sequence:
#
# PCOD9542496 Si02
#       6
#     4   4   2   1   1   4
#     4  10  25  47  74 104 155 201 264 328 399 477
#     4  11  24  46  80 114 156 203 258 328 396 471
#     4  12  28  52  76 118 154 218 264 326 388 472
#     4  12  32  48  82 108 168 212 268 326 384 468
#     4  12  28  44  74 112 144 220 264 326 396 480
#     4   9  19  45  71 109 149 198 250 325 399 469
#
# _framework density 25.147856000000001
#
# number of rings (size 3 to 8) (size 9 to 14) (size 15 to 20)
#    0.000    1.500    1.250    1.500    8.750    0.000 
#   22.500    0.000    0.000    0.000    0.000    0.000 
#    0.000    0.000    0.000    0.000    0.000    0.000 
#
# Total GULP energy -89417.107324 kJ/mol
# GULP energy per Si atom -5588.569208 kJ/mol
# Density = 2.509062 g / cm^3
# Si number density = 25.147856 Si / 1000 Ang^3
#
#
#
# Elastic Constant Matrix: (Units=GPa)
#
#
# Indices 1 2 3 4 5 6 
#
# 1 140.8025 46.9569 33.8469 0.0000 0.0000 -7.6745
# 2 46.9569 140.8025 33.8469 0.0000 0.0000 7.6745
# 3 33.8469 33.8469 102.7295 0.0000 0.0000 0.0000
# 4 0.0000 0.0000 0.0000 45.6991 0.0000 0.0000
# 5 0.0000 0.0000 0.0000 0.0000 45.6991 0.0000
# 6 -7.6745 7.6745 0.0000 0.0000 0.0000 62.0201
#
#
#
# Elastic Compliance Matrix: (Units=1/GPa)
#
#
# Indices 1 2 3 4 5 6 
#
# 1 0.008460 -0.002416 -0.001991 0.000000 0.000000 0.001346
# 2 -0.002416 0.008460 -0.001991 0.000000 0.000000 -0.001346
# 3 -0.001991 -0.001991 0.011046 0.000000 0.000000 0.000000
# 4 0.000000 0.000000 0.000000 0.021882 0.000000 0.000000
# 5 0.000000 0.000000 0.000000 0.000000 0.021882 0.000000
# 6 0.001346 -0.001346 0.000000 0.000000 0.000000 0.016457
#
#
# Mechanical properties :
#
#
# Convention : Reuss Voigt Hill
#
# Bulk Modulus (GPa) = 65.92389 68.18179 67.05284
# Shear Modulus (GPa) = 47.15138 48.66255 47.90697
#
# Velocity S-wave (km/s) = 4.33479 4.40370 4.36938
# Velocity P-wave (km/s) = 7.16416 7.28203 7.22334
#
# Compressibility (1/GPa) = 0.01516901
#
# Stress axis : x y z
#
# Youngs Moduli (GPa) = 118.20457 118.20457 90.52644
#
# Poissons Ratio (x) = 0.28558 0.18027
# Poissons Ratio (y) = 0.28558 0.18027
# Poissons Ratio (z) = 0.23538 0.23538
#
# Static dielectric constant tensor:
#      x y z
#    x 2.016380 0.000000 0.000000 
#    y 0.000000 2.016380 0.000000 
#    z 0.000000 0.000000 2.138290 
# 
# From -- ./inp_files/1826.got.cif
#   From: 2010.05.17/outbox.cif.g08.bks.cpg/sg81_cif.got.tgz:1826.got - 2010.06.03 18:51:07.
