data_PCOD9542277
_publ_section_title
;
Structure prediction by ZEFSAII (Michael W. Deem and Ramdas Pophale) SiO2 
 PCOD9542277
Probable space group: I 41
;
_chemical_formula_sum "Si O2"
_cell_formula_units_Z 60
_cell_length_a 18.093734
_cell_length_b 18.093734
_cell_length_c 8.086327
_cell_angle_alpha 90.000000
_cell_angle_beta 90.000000
_cell_angle_gamma 90.000000
_cell_volume 2647.327691
_symmetry_space_group_name_H-M "I 41"
_symmetry_group_IT_number 80
_symmetry_cell_setting 'tetragonal'
loop_
_space_group_symop_operation_xyz
x,y,z
-y,1/2+x,1/4+z
-x,-y,z
y,1/2-x,1/4+z
1/2+x,1/2+y,1/2+z
1/2-y,x,3/4+z
1/2-x,1/2-y,1/2+z
1/2+y,-x,3/4+z
loop_
_atom_site_type_symbol
_atom_site_label
_atom_site_fract_x
_atom_site_fract_y
_atom_site_fract_z
Si Si1 0.212373 0.160775 0.257640
Si Si2 0.934300 0.220589 0.237624
Si Si3 0.804960 0.110012 0.308672
Si Si4 0.063664 0.151283 0.061173
Si Si5 0.033726 0.266997 0.772393
Si Si6 0.000000 0.500000 0.202576
Si Si7 0.857378 0.047157 0.747719
Si Si8 0.199501 0.815326 0.733135
O O1 0.188578 0.220375 0.395846
O O2 0.146797 0.148634 0.125478
O O3 0.229731 0.090096 0.371674
O O4 0.883045 0.148124 0.259069
O O5 0.925178 0.270678 0.395662
O O6 0.921489 0.281503 0.089430
O O7 0.016487 0.194236 0.198956
O O8 0.757875 0.176869 0.377407
O O9 0.787207 0.045521 0.442350
O O10 0.048645 0.194721 0.886951
O O11 0.031830 0.069114 0.051192
O O12 0.028795 0.333219 0.909322
O O13 0.969653 0.430445 0.098085
O O14 0.864888 0.127350 0.663810
O O15 0.180045 0.784740 0.917950
#
# Coordination Sequence:
#
# PCOD9542277 Si02
#       8
#     8   8   8   8   8   4   8   8
#     4  12  28  51  85 111 141 188 261 330 388 443
#     4  11  25  41  72 105 152 195 242 300 364 456
#     4  12  22  40  68 107 154 194 238 294 362 450
#     4  11  28  49  75 108 152 197 246 309 383 455
#     4  11  26  48  75 110 152 192 248 317 378 448
#     4  12  28  48  78 102 150 208 246 300 380 452
#     4  11  26  45  68 102 149 202 247 302 364 441
#     4  12  23  40  64 106 147 201 244 294 362 453
#
# _framework density 22.664365
#
# number of rings (size 3 to 8) (size 9 to 14) (size 15 to 20)
#    0.000    0.533    2.667    4.000   13.067    0.000 
#    4.800    0.000    0.000    0.000    0.000    0.000 
#    0.000    0.000    0.000    0.000    0.000    0.000 
#
# Total GULP energy -167096.866896 kJ/mol
# GULP energy per Si atom -5569.895563 kJ/mol
# Density = 2.261278 g / cm^3
# Si number density = 22.664365 Si / 1000 Ang^3
#
#
#
# Elastic Constant Matrix: (Units=GPa)
#
#
# Indices 1 2 3 4 5 6 
#
# 1 64.5493 4.2613 12.6940 0.0000 0.0000 -6.1909
# 2 4.2613 64.5493 12.6940 0.0000 0.0000 6.1909
# 3 12.6940 12.6940 78.2285 0.0000 0.0000 0.0000
# 4 0.0000 0.0000 0.0000 42.3643 0.0000 0.0000
# 5 0.0000 0.0000 0.0000 0.0000 42.3643 0.0000
# 6 -6.1909 6.1909 0.0000 0.0000 0.0000 49.8679
#
#
#
# Elastic Compliance Matrix: (Units=1/GPa)
#
#
# Indices 1 2 3 4 5 6 
#
# 1 0.016240 -0.000781 -0.002508 0.000000 0.000000 0.002113
# 2 -0.000781 0.016240 -0.002508 0.000000 0.000000 -0.002113
# 3 -0.002508 -0.002508 0.013597 0.000000 0.000000 0.000000
# 4 0.000000 0.000000 0.000000 0.023605 0.000000 0.000000
# 5 0.000000 0.000000 0.000000 0.000000 0.023605 0.000000
# 6 0.002113 -0.002113 0.000000 0.000000 0.000000 0.020578
#
#
# Mechanical properties :
#
#
# Convention : Reuss Voigt Hill
#
# Bulk Modulus (GPa) = 29.00241 29.62508 29.31375
# Shear Modulus (GPa) = 36.50884 38.76449 37.63666
#
# Velocity S-wave (km/s) = 4.01789 4.14015 4.07948
# Velocity P-wave (km/s) = 5.86079 5.99617 5.92887
#
# Compressibility (1/GPa) = 0.03447990
#
# Stress axis : x y z
#
# Youngs Moduli (GPa) = 61.57798 61.57798 73.54501
#
# Poissons Ratio (x) = 0.04812 0.18448
# Poissons Ratio (y) = 0.04812 0.18448
# Poissons Ratio (z) = 0.15446 0.15446
#
# Static dielectric constant tensor:
#      x y z
#    x 2.300900 0.000000 0.000000 
#    y 0.000000 2.300900 0.000000 
#    z 0.000000 0.000000 2.306670 
# 
# From -- ./inp_files/733.got.cif
#   From: 2010.05.17/outbox.cif.g08.bks.cpg/sg80_cif.got.tgz:733.got - 2010.06.03 18:49:13.
