data_PCOD9542042
_publ_section_title
;
Structure prediction by ZEFSAII (Michael W. Deem and Ramdas Pophale) SiO2 
 PCOD9542042
Probable space group: I 4
;
_chemical_formula_sum "Si O2"
_cell_formula_units_Z 44
_cell_length_a 8.062245
_cell_length_b 8.062245
_cell_length_c 31.486629
_cell_angle_alpha 90.000000
_cell_angle_beta 90.000000
_cell_angle_gamma 90.000000
_cell_volume 2046.624413
_symmetry_space_group_name_H-M "I 4"
_symmetry_group_IT_number 79
_symmetry_cell_setting 'tetragonal'
loop_
_space_group_symop_operation_xyz
x,y,z
-y,x,z
-x,-y,z
y,-x,z
1/2+x,1/2+y,1/2+z
1/2-y,1/2+x,1/2+z
1/2-x,1/2-y,1/2+z
1/2+y,1/2-x,1/2+z
loop_
_atom_site_type_symbol
_atom_site_label
_atom_site_fract_x
_atom_site_fract_y
_atom_site_fract_z
Si Si1 0.500000 0.000000 0.722940
Si Si2 0.591871 0.235115 0.793031
Si Si3 0.411862 0.765131 0.886543
Si Si4 0.235395 0.596609 0.560471
Si Si5 0.235197 0.594217 0.652803
Si Si6 0.765634 0.411099 0.469024
O O1 0.388976 0.888762 0.754278
O O2 0.611154 0.888031 0.691782
O O3 0.701335 0.401002 0.790186
O O4 0.618515 0.158921 0.839888
O O5 0.299135 0.599806 0.888201
O O6 0.368706 0.870844 0.927464
O O7 0.297236 0.405683 0.560480
O O8 0.155044 0.626300 0.606346
O O9 0.150758 0.625273 0.514937
O O10 0.297901 0.402578 0.655364
O O11 0.701094 0.599405 0.467878
#
# Coordination Sequence:
#
# PCOD9542042 Si02
#       6
#     4   8   8   8   8   8
#     4  12  20  28  54  82  94 118 172 226 262 296
#     4   9  20  38  55  72  99 135 173 213 258 314
#     4   9  19  35  52  71  99 136 175 211 252 308
#     4   7  12  27  49  71  99 134 166 198 240 294
#     4   9  18  34  54  75 103 137 172 211 254 307
#     4   9  17  30  51  79 107 134 166 207 255 304
#
# _framework density 21.498812999999998
#
# number of rings (size 3 to 8) (size 9 to 14) (size 15 to 20)
#    0.000    3.091    0.000    4.364    0.000    5.091 
#    0.000    5.455    0.000    8.727    0.000    0.000 
#    0.000    0.000    0.000    0.000    0.000    0.000 
#
# Total GULP energy -122758.463781 kJ/mol
# GULP energy per Si atom -5579.930172 kJ/mol
# Density = 2.144988 g / cm^3
# Si number density = 21.498813 Si / 1000 Ang^3
#
#
#
# Elastic Constant Matrix: (Units=GPa)
#
#
# Indices 1 2 3 4 5 6 
#
# 1 43.2019 4.4255 50.4681 0.0000 0.0000 1.2807
# 2 4.4255 43.2019 50.4681 0.0000 0.0000 -1.2807
# 3 50.4681 50.4681 261.4442 0.0000 0.0000 0.0000
# 4 0.0000 0.0000 0.0000 70.7264 0.0000 0.0000
# 5 0.0000 0.0000 0.0000 0.0000 70.7264 0.0000
# 6 1.2807 -1.2807 0.0000 0.0000 0.0000 16.4435
#
#
#
# Elastic Compliance Matrix: (Units=1/GPa)
#
#
# Indices 1 2 3 4 5 6 
#
# 1 0.030727 0.004805 -0.006859 0.000000 0.000000 -0.002019
# 2 0.004805 0.030727 -0.006859 0.000000 0.000000 0.002019
# 3 -0.006859 -0.006859 0.006473 0.000000 0.000000 0.000000
# 4 0.000000 0.000000 0.000000 0.014139 0.000000 0.000000
# 5 0.000000 0.000000 0.000000 0.000000 0.014139 0.000000
# 6 -0.002019 0.002019 0.000000 0.000000 0.000000 0.061129
#
#
# Mechanical properties :
#
#
# Convention : Reuss Voigt Hill
#
# Bulk Modulus (GPa) = 19.95926 62.06350 41.01138
# Shear Modulus (GPa) = 26.06047 47.74500 36.90273
#
# Velocity S-wave (km/s) = 3.48542 4.71767 4.14756
# Velocity P-wave (km/s) = 5.04991 7.65547 6.48490
#
# Compressibility (1/GPa) = 0.05010206
#
# Stress axis : x y z
#
# Youngs Moduli (GPa) = 32.54417 32.54416 154.48766
#
# Poissons Ratio (x) = -0.15638 1.05964
# Poissons Ratio (y) = -0.15638 1.05964
# Poissons Ratio (z) = 0.22322 0.22322
#
# Static dielectric constant tensor:
#      x y z
#    x 1.769440 0.000000 0.000000 
#    y 0.000000 1.769440 0.000000 
#    z 0.000000 0.000000 1.840060 
# 
# From -- ./inp_files/2089.got.cif
#   From: 2010.05.17/outbox.cif.g08.bks.cpg/sg79_cif.got.tgz:2089.got - 2010.06.03 18:47:27.
