data_PCOD9542092
_publ_section_title
;
Structure prediction by ZEFSAII (Michael W. Deem and Ramdas Pophale) SiO2 
 PCOD9542092
Probable space group: I 41
;
_chemical_formula_sum "Si O2"
_cell_formula_units_Z 48
_cell_length_a 18.037984
_cell_length_b 18.037984
_cell_length_c 5.941882
_cell_angle_alpha 90.000000
_cell_angle_beta 90.000000
_cell_angle_gamma 90.000000
_cell_volume 1933.303413
_symmetry_space_group_name_H-M "I 41"
_symmetry_group_IT_number 80
_symmetry_cell_setting 'tetragonal'
loop_
_space_group_symop_operation_xyz
x,y,z
-y,1/2+x,1/4+z
-x,-y,z
y,1/2-x,1/4+z
1/2+x,1/2+y,1/2+z
1/2-y,x,3/4+z
1/2-x,1/2-y,1/2+z
1/2+y,-x,3/4+z
loop_
_atom_site_type_symbol
_atom_site_label
_atom_site_fract_x
_atom_site_fract_y
_atom_site_fract_z
Si Si1 0.841245 0.014132 0.521130
Si Si2 0.778802 0.150106 0.784619
Si Si3 0.046246 0.100900 0.586765
Si Si4 0.312509 0.171364 0.104200
Si Si5 0.048722 0.775074 0.387783
Si Si6 0.711260 0.930684 0.734134
O O1 0.826196 0.082614 0.687545
O O2 0.800758 0.034238 0.281870
O O3 0.925222 0.984754 0.565019
O O4 0.785240 0.949292 0.599097
O O5 0.829510 0.219014 0.846943
O O6 0.735420 0.126865 0.013702
O O7 0.106575 0.129880 0.403399
O O8 0.063973 0.137296 0.831712
O O9 0.972108 0.149007 0.521906
O O10 0.254212 0.164354 0.303839
O O11 0.280362 0.146016 0.862992
O O12 0.993672 0.783769 0.175935
#
# Coordination Sequence:
#
# PCOD9542092 Si02
#       6
#     8   8   8   8   8   8
#     4  10  21  39  68 101 143 185 236 294 366 439
#     4  11  27  47  77 110 132 177 242 326 376 434
#     4  10  19  36  61  91 138 191 226 280 352 439
#     4  11  22  26  42  78 126 185 250 294 338 402
#     4   9  21  40  66 103 140 186 235 291 359 435
#     4   9  18  34  54  85 135 188 238 286 339 417
#
# _framework density 24.827970000000001
#
# number of rings (size 3 to 8) (size 9 to 14) (size 15 to 20)
#    0.000    2.000    0.000    4.000    7.000    4.000 
#    0.000    0.000    0.000   24.000    0.000    0.000 
#    0.000    0.000    0.000    0.000    0.000    0.000 
#
# Total GULP energy -133756.200421 kJ/mol
# GULP energy per Si atom -5573.175018 kJ/mol
# Density = 2.477146 g / cm^3
# Si number density = 24.827970 Si / 1000 Ang^3
#
#
#
# Elastic Constant Matrix: (Units=GPa)
#
#
# Indices 1 2 3 4 5 6 
#
# 1 92.6617 40.7295 21.8220 0.0000 0.0000 12.7913
# 2 40.7295 92.6617 21.8220 0.0000 0.0000 -12.7913
# 3 21.8220 21.8220 97.8704 0.0000 0.0000 0.0000
# 4 0.0000 0.0000 0.0000 38.8306 0.0000 0.0000
# 5 0.0000 0.0000 0.0000 0.0000 38.8306 0.0000
# 6 12.7913 -12.7913 0.0000 0.0000 0.0000 17.6934
#
#
#
# Elastic Compliance Matrix: (Units=1/GPa)
#
#
# Indices 1 2 3 4 5 6 
#
# 1 0.018997 -0.010910 -0.001803 0.000000 0.000000 -0.021621
# 2 -0.010910 0.018997 -0.001803 0.000000 0.000000 0.021621
# 3 -0.001803 -0.001803 0.011022 0.000000 0.000000 0.000000
# 4 0.000000 0.000000 0.000000 0.025753 0.000000 0.000000
# 5 0.000000 0.000000 0.000000 0.000000 0.025753 0.000000
# 6 -0.021621 0.021621 0.000000 0.000000 0.000000 0.087779
#
#
# Mechanical properties :
#
#
# Convention : Reuss Voigt Hill
#
# Bulk Modulus (GPa) = 50.04322 50.21565 50.12943
# Shear Modulus (GPa) = 22.32213 32.32558 27.32386
#
# Velocity S-wave (km/s) = 3.00171 3.61221 3.32102
# Velocity P-wave (km/s) = 5.67568 6.13733 5.91101
#
# Compressibility (1/GPa) = 0.01998273
#
# Stress axis : x y z
#
# Youngs Moduli (GPa) = 52.64097 52.64097 90.73048
#
# Poissons Ratio (x) = 0.57431 0.16359
# Poissons Ratio (y) = 0.57431 0.16359
# Poissons Ratio (z) = 0.09492 0.09492
#
# Static dielectric constant tensor:
#      x y z
#    x 2.103100 0.000000 0.000000 
#    y 0.000000 2.103100 0.000000 
#    z 0.000000 0.000000 1.969820 
# 
# From -- ./inp_files/282.got.cif
#   From: 2010.05.17/outbox.cif.g08.bks.cpg/sg80_cif.got.tgz:282.got - 2010.06.03 18:49:13.
