data_PCOD9542736
_publ_section_title
;
Structure prediction by ZEFSAII (Michael W. Deem and Ramdas Pophale) SiO2 
 PCOD9542736
Probable space group: I -4 
;
_chemical_formula_sum "Si O2"
_cell_formula_units_Z 40
_cell_length_a 7.035243
_cell_length_b 7.035243
_cell_length_c 30.853730
_cell_angle_alpha 90.000000
_cell_angle_beta 90.000000
_cell_angle_gamma 90.000000
_cell_volume 1527.094385
_symmetry_space_group_name_H-M "I -4 "
_symmetry_group_IT_number 82
_symmetry_cell_setting 'tetragonal'
loop_
_space_group_symop_operation_xyz
x,y,z
y,-x,-z
-x,-y,z
-y,x,-z
1/2+x,1/2+y,1/2+z
1/2+y,1/2-x,1/2-z
1/2-x,1/2-y,1/2+z
1/2-y,1/2+x,1/2-z
loop_
_atom_site_type_symbol
_atom_site_label
_atom_site_fract_x
_atom_site_fract_y
_atom_site_fract_z
Si Si1 0.000000 0.500000 0.597268
Si Si2 0.710903 0.855612 0.652284
Si Si3 0.000000 0.000000 0.500000
Si Si4 0.249257 0.351968 0.834293
Si Si5 0.788921 0.276523 0.443915
Si Si6 0.240479 0.824270 0.757148
Si Si7 0.000000 0.000000 0.000000
O O1 0.161814 0.584142 0.630095
O O2 0.095894 0.346210 0.566540
O O3 0.643133 0.826972 0.603801
O O4 0.658459 0.711756 0.691314
O O5 0.939304 0.822333 0.652600
O O6 0.696235 0.083556 0.661489
O O7 0.183510 0.035646 0.530444
O O8 0.213183 0.361478 0.782256
O O9 0.675242 0.428473 0.471462
O O10 0.454629 0.741370 0.756173
#
# Coordination Sequence:
#
# PCOD9542736 Si02
#       7
#     4   8   2   8   8   8   2
#     4  10  20  38  63  92 124 162 214 264 327 404
#     4   9  19  36  56  81 118 165 208 246 312 394
#     4  12  24  48  76  88 122 180 224 264 340 420
#     4   9  18  33  55  85 120 159 208 253 296 376
#     4  11  24  43  66  93 125 165 213 272 337 400
#     4   9  18  33  53  82 119 159 201 246 300 367
#     4  12  28  44  64 104 138 152 212 296 348 384
#
# _framework density 26.193532999999999
#
# number of rings (size 3 to 8) (size 9 to 14) (size 15 to 20)
#    0.000    2.200    0.000    3.600    0.000    4.800 
#    0.000    9.000    0.000    0.000    0.000    0.000 
#    0.000    0.000    0.000    0.000    0.000    0.000 
#
# Total GULP energy -111650.526734 kJ/mol
# GULP energy per Si atom -5582.526337 kJ/mol
# Density = 2.613392 g / cm^3
# Si number density = 26.193533 Si / 1000 Ang^3
#
#
#
# Elastic Constant Matrix: (Units=GPa)
#
#
# Indices 1 2 3 4 5 6 
#
# 1 37.2522 1.3687 27.1335 0.0000 0.0000 -3.3334
# 2 1.3687 37.2522 27.1335 0.0000 0.0000 3.3334
# 3 27.1335 27.1335 196.7889 0.0000 0.0000 0.0000
# 4 0.0000 0.0000 0.0000 42.7409 0.0000 0.0000
# 5 0.0000 0.0000 0.0000 0.0000 42.7409 0.0000
# 6 -3.3334 3.3334 0.0000 0.0000 0.0000 46.0508
#
#
#
# Elastic Compliance Matrix: (Units=1/GPa)
#
#
# Indices 1 2 3 4 5 6 
#
# 1 0.030181 0.001933 -0.004428 0.000000 0.000000 0.002045
# 2 0.001933 0.030181 -0.004428 0.000000 0.000000 -0.002045
# 3 -0.004428 -0.004428 0.006303 0.000000 0.000000 0.000000
# 4 0.000000 0.000000 0.000000 0.023397 0.000000 0.000000
# 5 0.000000 0.000000 0.000000 0.000000 0.023397 0.000000
# 6 0.002045 -0.002045 0.000000 0.000000 0.000000 0.022011
#
#
# Mechanical properties :
#
#
# Convention : Reuss Voigt Hill
#
# Bulk Modulus (GPa) = 18.93231 42.50722 30.71977
# Shear Modulus (GPa) = 29.95418 40.68371 35.31895
#
# Velocity S-wave (km/s) = 3.38534 3.94534 3.67602
# Velocity P-wave (km/s) = 4.74597 6.08421 5.45628
#
# Compressibility (1/GPa) = 0.05281975
#
# Stress axis : x y z
#
# Youngs Moduli (GPa) = 33.13323 33.13323 158.66308
#
# Poissons Ratio (x) = -0.06406 0.70256
# Poissons Ratio (y) = -0.06406 0.70256
# Poissons Ratio (z) = 0.14671 0.14671
#
# Static dielectric constant tensor:
#      x y z
#    x 2.151140 0.000000 0.000000 
#    y 0.000000 2.151140 0.000000 
#    z 0.000000 0.000000 2.055570 
# 
# From -- ./inp_files/3740.got.cif
#   From: 2010.05.17/outbox.cif.g08.bks.cpg/sg82_2_cif.got.tgz:3740.got - 2010.06.03 18:52:26.
