data_PCOD9542770
_publ_section_title
;
Structure prediction by ZEFSAII (Michael W. Deem and Ramdas Pophale) SiO2 
 PCOD9542770
Probable space group: I -4 
;
_chemical_formula_sum "Si O2"
_cell_formula_units_Z 42
_cell_length_a 8.394984
_cell_length_b 8.394984
_cell_length_c 28.901917
_cell_angle_alpha 90.000000
_cell_angle_beta 90.000000
_cell_angle_gamma 90.000000
_cell_volume 2036.884461
_symmetry_space_group_name_H-M "I -4 "
_symmetry_group_IT_number 82
_symmetry_cell_setting 'tetragonal'
loop_
_space_group_symop_operation_xyz
x,y,z
y,-x,-z
-x,-y,z
-y,x,-z
1/2+x,1/2+y,1/2+z
1/2+y,1/2-x,1/2-z
1/2-x,1/2-y,1/2+z
1/2-y,1/2+x,1/2-z
loop_
_atom_site_type_symbol
_atom_site_label
_atom_site_fract_x
_atom_site_fract_y
_atom_site_fract_z
Si Si1 0.737845 0.279962 0.145771
Si Si2 0.500000 0.000000 0.891679
Si Si3 0.204228 0.282367 0.040255
Si Si4 0.500000 0.500000 0.796891
Si Si5 0.000000 0.000000 0.000000
Si Si6 0.085919 0.262434 0.765993
Si Si7 0.191865 0.044519 0.444942
O O1 0.608915 0.391617 0.171081
O O2 0.754773 0.132164 0.180535
O O3 0.663622 0.255309 0.095271
O O4 0.901215 0.374873 0.138538
O O5 0.594589 0.121461 0.924989
O O6 0.373290 0.224778 0.060119
O O7 0.085922 0.138177 0.029371
O O8 0.255556 0.373498 0.992938
O O9 0.603876 0.389642 0.763241
O O10 0.187197 0.403584 0.742444
O O11 0.000000 0.000000 0.442990
#
# Coordination Sequence:
#
# PCOD9542770 Si02
#       7
#     8   4   8   4   2   8   8
#     4  11  22  40  67 103 129 170 235 290 339 422
#     4  12  24  40  65 100 148 174 231 290 344 430
#     4  12  23  43  64  96 140 188 231 287 353 410
#     4  10  20  42  67  93 130 177 230 270 351 448
#     4  12  28  40  58  96 144 180 232 292 362 388
#     4   9  21  42  67  94 131 171 221 286 355 418
#     4  12  20  42  76  97 123 187 249 277 332 431
#
# _framework density 20.619724000000001
#
# number of rings (size 3 to 8) (size 9 to 14) (size 15 to 20)
#    0.000    0.952    4.762    2.286    0.000    3.048 
#    0.000   28.571    0.000    0.000    0.000    0.000 
#    0.000    0.000    0.000    0.000    0.000    0.000 
#
# Total GULP energy -117338.626777 kJ/mol
# GULP energy per Si atom -5587.553656 kJ/mol
# Density = 2.057279 g / cm^3
# Si number density = 20.619724 Si / 1000 Ang^3
#
#
#
# Elastic Constant Matrix: (Units=GPa)
#
#
# Indices 1 2 3 4 5 6 
#
# 1 66.6116 1.5648 23.2360 0.0000 0.0000 4.8142
# 2 1.5648 66.6116 23.2360 0.0000 0.0000 -4.8142
# 3 23.2360 23.2360 94.3362 0.0000 0.0000 0.0000
# 4 0.0000 0.0000 0.0000 21.3161 0.0000 0.0000
# 5 0.0000 0.0000 0.0000 0.0000 21.3161 0.0000
# 6 4.8142 -4.8142 0.0000 0.0000 0.0000 24.4957
#
#
#
# Elastic Compliance Matrix: (Units=1/GPa)
#
#
# Indices 1 2 3 4 5 6 
#
# 1 0.016731 0.000897 -0.004342 0.000000 0.000000 -0.003112
# 2 0.000897 0.016731 -0.004342 0.000000 0.000000 0.003112
# 3 -0.004342 -0.004342 0.012739 0.000000 0.000000 0.000000
# 4 0.000000 0.000000 0.000000 0.046913 0.000000 0.000000
# 5 0.000000 0.000000 0.000000 0.000000 0.046913 0.000000
# 6 -0.003112 0.003112 0.000000 0.000000 0.000000 0.042047
#
#
# Mechanical properties :
#
#
# Convention : Reuss Voigt Hill
#
# Bulk Modulus (GPa) = 32.65115 35.95924 34.30520
# Shear Modulus (GPa) = 24.05505 25.39372 24.72439
#
# Velocity S-wave (km/s) = 3.41926 3.51312 3.46651
# Velocity P-wave (km/s) = 5.60872 5.82521 5.71799
#
# Compressibility (1/GPa) = 0.03062679
#
# Stress axis : x y z
#
# Youngs Moduli (GPa) = 59.76997 59.76998 78.49746
#
# Poissons Ratio (x) = -0.05359 0.34082
# Poissons Ratio (y) = -0.05359 0.34082
# Poissons Ratio (z) = 0.25951 0.25951
#
# Static dielectric constant tensor:
#      x y z
#    x 1.765950 0.000000 0.000000 
#    y 0.000000 1.765950 0.000000 
#    z 0.000000 0.000000 1.739730 
# 
# From -- ./inp_files/3742.got.cif
#   From: 2010.05.17/outbox.cif.g08.bks.cpg/sg82_2_cif.got.tgz:3742.got - 2010.06.03 18:52:26.
