data_PCOD9542327
_publ_section_title
;
Structure prediction by ZEFSAII (Michael W. Deem and Ramdas Pophale) SiO2 
 PCOD9542327
Probable space group: P -4
;
_chemical_formula_sum "Si O2"
_cell_formula_units_Z 18
_cell_length_a 9.092937
_cell_length_b 9.092937
_cell_length_c 9.044553
_cell_angle_alpha 90.000000
_cell_angle_beta 90.000000
_cell_angle_gamma 90.000000
_cell_volume 747.817239
_symmetry_space_group_name_H-M "P -4"
_symmetry_group_IT_number 81
_symmetry_cell_setting 'tetragonal'
loop_
_space_group_symop_operation_xyz
x,y,z
y,-x,-z
-x,-y,z
-y,x,-z
loop_
_atom_site_type_symbol
_atom_site_label
_atom_site_fract_x
_atom_site_fract_y
_atom_site_fract_z
Si Si1 0.000000 0.000000 0.000000
Si Si2 0.256004 0.629139 0.150117
Si Si3 0.500000 0.500000 0.000000
Si Si4 0.748944 0.874750 0.152506
Si Si5 0.798365 0.507779 0.666014
Si Si6 0.613325 0.218457 0.647214
O O1 0.000838 0.139058 0.892048
O O2 0.375445 0.742376 0.213226
O O3 0.178673 0.546300 0.284073
O O4 0.354925 0.490877 0.094182
O O5 0.172349 0.683657 0.006661
O O6 0.613344 0.905681 0.260448
O O7 0.833635 0.742855 0.240580
O O8 0.661407 0.392887 0.629280
O O9 0.837761 0.597653 0.519748
#
# Coordination Sequence:
#
# PCOD9542327 Si02
#       6
#     1   4   1   4   4   4
#     4  12  28  56  56  70 128 212 288 254 256 344
#     4  12  15  27  56 101 138 153 202 268 375 429
#     4  12  12  20  50  88 144 136 182 264 368 448
#     4  10  23  36  65  83 120 196 221 280 306 375
#     4  10  18  28  59 109 141 160 177 264 382 436
#     4  10  18  28  59 109 141 160 177 264 382 436
#
# _framework density 24.070049999999998
#
# number of rings (size 3 to 8) (size 9 to 14) (size 15 to 20)
#    1.333    0.000    8.889    0.000    0.000    0.000 
#    0.000    4.444    0.000   18.667    0.000    0.000 
#    0.000    0.444    0.000    0.000    0.000    0.000 
#
# Total GULP energy -100242.456924 kJ/mol
# GULP energy per Si atom -5569.025385 kJ/mol
# Density = 2.401527 g / cm^3
# Si number density = 24.070050 Si / 1000 Ang^3
#
#
#
# Elastic Constant Matrix: (Units=GPa)
#
#
# Indices 1 2 3 4 5 6 
#
# 1 46.8796 21.1681 19.0696 0.0000 0.0000 0.0569
# 2 21.1681 46.8796 19.0696 0.0000 0.0000 -0.0569
# 3 19.0696 19.0696 143.3716 0.0000 0.0000 0.0000
# 4 0.0000 0.0000 0.0000 25.7381 0.0000 0.0000
# 5 0.0000 0.0000 0.0000 0.0000 25.7381 0.0000
# 6 0.0569 -0.0569 0.0000 0.0000 0.0000 35.6009
#
#
#
# Elastic Compliance Matrix: (Units=1/GPa)
#
#
# Indices 1 2 3 4 5 6 
#
# 1 0.027386 -0.011507 -0.002112 0.000000 0.000000 -0.000062
# 2 -0.011507 0.027386 -0.002112 0.000000 0.000000 0.000062
# 3 -0.002112 -0.002112 0.007537 0.000000 0.000000 0.000000
# 4 0.000000 0.000000 0.000000 0.038853 0.000000 0.000000
# 5 0.000000 0.000000 0.000000 0.000000 0.038853 0.000000
# 6 -0.000062 0.000062 0.000000 0.000000 0.000000 0.028089
#
#
# Mechanical properties :
#
#
# Convention : Reuss Voigt Hill
#
# Bulk Modulus (GPa) = 32.41796 39.52728 35.97262
# Shear Modulus (GPa) = 23.82659 29.27031 26.54845
#
# Velocity S-wave (km/s) = 3.14966 3.49097 3.32470
# Velocity P-wave (km/s) = 5.16958 5.71897 5.45120
#
# Compressibility (1/GPa) = 0.03084710
#
# Stress axis : x y z
#
# Youngs Moduli (GPa) = 36.51448 36.51448 132.68353
#
# Poissons Ratio (x) = 0.42017 0.28024
# Poissons Ratio (y) = 0.42017 0.28024
# Poissons Ratio (z) = 0.07712 0.07712
#
# Static dielectric constant tensor:
#      x y z
#    x 1.999390 0.000000 0.000000 
#    y 0.000000 1.999390 0.000000 
#    z 0.000000 0.000000 1.945870 
# 
# From -- ./inp_files/728.got.cif
#   From: 2010.05.17/outbox.cif.g08.bks.cpg/sg81_cif.got.tgz:728.got - 2010.06.03 18:51:07.
