data_PCOD9542839
_publ_section_title
;
Structure prediction by ZEFSAII (Michael W. Deem and Ramdas Pophale) SiO2 
 PCOD9542839
Probable space group: I -4 
;
_chemical_formula_sum "Si O2"
_cell_formula_units_Z 56
_cell_length_a 14.836272
_cell_length_b 14.836272
_cell_length_c 11.704109
_cell_angle_alpha 90.000000
_cell_angle_beta 90.000000
_cell_angle_gamma 90.000000
_cell_volume 2576.249565
_symmetry_space_group_name_H-M "I -4 "
_symmetry_group_IT_number 82
_symmetry_cell_setting 'tetragonal'
loop_
_space_group_symop_operation_xyz
x,y,z
y,-x,-z
-x,-y,z
-y,x,-z
1/2+x,1/2+y,1/2+z
1/2+y,1/2-x,1/2-z
1/2-x,1/2-y,1/2+z
1/2-y,1/2+x,1/2-z
loop_
_atom_site_type_symbol
_atom_site_label
_atom_site_fract_x
_atom_site_fract_y
_atom_site_fract_z
Si Si1 0.488006 0.282857 0.627872
Si Si2 0.178840 0.815617 0.015897
Si Si3 0.628645 0.194936 0.118991
Si Si4 0.196074 0.962539 0.418223
Si Si5 0.130210 0.650625 0.875288
Si Si6 0.031477 0.402627 0.042433
Si Si7 0.106159 0.018965 0.654352
O O1 0.589335 0.303306 0.589010
O O2 0.417071 0.310652 0.529740
O O3 0.474041 0.175424 0.637078
O O4 0.476615 0.339280 0.742048
O O5 0.163231 0.750690 0.907652
O O6 0.267869 0.786379 0.085483
O O7 0.562263 0.280354 0.129152
O O8 0.622284 0.143393 0.239431
O O9 0.595886 0.129456 0.016376
O O10 0.149025 0.980690 0.538930
O O11 0.291810 0.914043 0.421434
O O12 0.128279 0.897314 0.349163
O O13 0.038416 0.628474 0.942365
O O14 0.000000 0.500000 0.082266
O O15 0.000000 0.000000 0.660238
#
# Coordination Sequence:
#
# PCOD9542839 Si02
#       7
#     8   8   8   8   8   8   8
#     4  10  25  43  67  95 146 187 237 295 355 435
#     4  10  24  41  62 102 138 188 243 283 359 429
#     4  11  23  40  70 102 141 184 237 293 359 418
#     4  12  23  44  68 104 138 172 236 306 337 434
#     4  11  23  38  70  99 139 183 230 300 356 410
#     4  10  21  44  67 104 136 183 237 288 350 432
#     4  12  26  44  68 102 133 183 234 287 370 404
#
# _framework density 21.737024000000002
#
# number of rings (size 3 to 8) (size 9 to 14) (size 15 to 20)
#    0.000    1.143    2.857    2.571    4.000    1.143 
#    0.000    4.286    3.143    0.000    0.000    0.000 
#    0.000    0.000    0.000    0.000    0.000    0.000 
#
# Total GULP energy -156507.429710 kJ/mol
# GULP energy per Si atom -5589.551061 kJ/mol
# Density = 2.168755 g / cm^3
# Si number density = 21.737024 Si / 1000 Ang^3
#
#
#
# Elastic Constant Matrix: (Units=GPa)
#
#
# Indices 1 2 3 4 5 6 
#
# 1 77.3660 -5.9298 22.6150 0.0000 0.0000 -2.7365
# 2 -5.9298 77.3660 22.6150 0.0000 0.0000 2.7365
# 3 22.6150 22.6150 68.2885 0.0000 0.0000 0.0000
# 4 0.0000 0.0000 0.0000 17.6799 0.0000 0.0000
# 5 0.0000 0.0000 0.0000 0.0000 17.6799 0.0000
# 6 -2.7365 2.7365 0.0000 0.0000 0.0000 36.3155
#
#
#
# Elastic Compliance Matrix: (Units=1/GPa)
#
#
# Indices 1 2 3 4 5 6 
#
# 1 0.014889 0.002824 -0.005866 0.000000 0.000000 0.000909
# 2 0.002824 0.014889 -0.005866 0.000000 0.000000 -0.000909
# 3 -0.005866 -0.005866 0.018529 0.000000 0.000000 0.000000
# 4 0.000000 0.000000 0.000000 0.056561 0.000000 0.000000
# 5 0.000000 0.000000 0.000000 0.000000 0.056561 0.000000
# 6 0.000909 -0.000909 0.000000 0.000000 0.000000 0.027673
#
#
# Mechanical properties :
#
#
# Convention : Reuss Voigt Hill
#
# Bulk Modulus (GPa) = 32.79703 33.51344 33.15524
# Shear Modulus (GPa) = 23.03276 26.58309 24.80792
#
# Velocity S-wave (km/s) = 3.25870 3.50085 3.38194
# Velocity P-wave (km/s) = 5.41107 5.63848 5.52594
#
# Compressibility (1/GPa) = 0.03049057
#
# Stress axis : x y z
#
# Youngs Moduli (GPa) = 67.16460 67.16460 53.96979
#
# Poissons Ratio (x) = -0.18965 0.31658
# Poissons Ratio (y) = -0.18965 0.31658
# Poissons Ratio (z) = 0.39397 0.39397
#
# Static dielectric constant tensor:
#      x y z
#    x 1.826290 0.000000 0.000000 
#    y 0.000000 1.826290 0.000000 
#    z 0.000000 0.000000 1.759230 
# 
# From -- ./inp_files/1857.got.cif
#   From: 2010.05.17/outbox.cif.g08.bks.cpg/sg82_1_cif.got.tgz:1857.got - 2010.06.03 18:52:26.
