data_PCOD9542250
_publ_section_title
;
Structure prediction by ZEFSAII (Michael W. Deem and Ramdas Pophale) SiO2 
 PCOD9542250
Probable space group: I 41
;
_chemical_formula_sum "Si O2"
_cell_formula_units_Z 48
_cell_length_a 17.616896
_cell_length_b 17.616896
_cell_length_c 7.676253
_cell_angle_alpha 90.000000
_cell_angle_beta 90.000000
_cell_angle_gamma 90.000000
_cell_volume 2382.363689
_symmetry_space_group_name_H-M "I 41"
_symmetry_group_IT_number 80
_symmetry_cell_setting 'tetragonal'
loop_
_space_group_symop_operation_xyz
x,y,z
-y,1/2+x,1/4+z
-x,-y,z
y,1/2-x,1/4+z
1/2+x,1/2+y,1/2+z
1/2-y,x,3/4+z
1/2-x,1/2-y,1/2+z
1/2+y,-x,3/4+z
loop_
_atom_site_type_symbol
_atom_site_label
_atom_site_fract_x
_atom_site_fract_y
_atom_site_fract_z
Si Si1 0.126060 0.025600 0.987130
Si Si2 0.192599 0.665927 0.802427
Si Si3 0.617760 0.534211 0.895242
Si Si4 0.881627 0.484802 0.235018
Si Si5 0.217404 0.966163 0.679989
Si Si6 0.876258 0.476143 0.644465
O O1 0.195278 0.007699 0.860306
O O2 0.141673 0.039108 0.192166
O O3 0.068927 0.092670 0.929975
O O4 0.072285 0.951532 0.968067
O O5 0.181690 0.727710 0.647131
O O6 0.118431 0.682047 0.921896
O O7 0.184677 0.579791 0.731251
O O8 0.569546 0.455917 0.908863
O O9 0.561366 0.602275 0.952500
O O10 0.684263 0.519220 0.028828
O O11 0.806037 0.457431 0.145506
O O12 0.862814 0.484703 0.439739
#
# Coordination Sequence:
#
# PCOD9542250 Si02
#       6
#     8   8   8   8   8   8
#     4   9  19  38  56  80 118 150 187 243 286 352
#     4  11  25  37  51  79 124 170 203 239 288 353
#     4   8  17  35  56  81 109 141 194 243 290 333
#     4   9  19  34  58  85 111 150 193 237 295 344
#     4  11  21  34  58  88 108 148 199 242 291 349
#     4   8  17  35  55  74 110 156 190 237 284 340
#
# _framework density 20.148057999999999
#
# number of rings (size 3 to 8) (size 9 to 14) (size 15 to 20)
#    0.000    2.667    0.000    3.000    2.333   10.667 
#    0.000    3.333    0.000    0.000    8.667    0.000 
#    0.000    0.000    0.000    0.000    0.000    0.000 
#
# Total GULP energy -133821.252561 kJ/mol
# GULP energy per Si atom -5575.885523 kJ/mol
# Density = 2.010220 g / cm^3
# Si number density = 20.148058 Si / 1000 Ang^3
#
#
#
# Elastic Constant Matrix: (Units=GPa)
#
#
# Indices 1 2 3 4 5 6 
#
# 1 64.6328 35.3161 31.4049 0.0000 0.0000 -0.4073
# 2 35.3161 64.6328 31.4049 0.0000 0.0000 0.4073
# 3 31.4049 31.4049 55.9368 0.0000 0.0000 0.0000
# 4 0.0000 0.0000 0.0000 23.1068 0.0000 0.0000
# 5 0.0000 0.0000 0.0000 0.0000 23.1068 0.0000
# 6 -0.4073 0.4073 0.0000 0.0000 0.0000 17.3000
#
#
#
# Elastic Compliance Matrix: (Units=1/GPa)
#
#
# Indices 1 2 3 4 5 6 
#
# 1 0.024796 -0.009337 -0.008680 0.000000 0.000000 0.000804
# 2 -0.009337 0.024796 -0.008680 0.000000 0.000000 -0.000804
# 3 -0.008680 -0.008680 0.027623 0.000000 0.000000 0.000000
# 4 0.000000 0.000000 0.000000 0.043277 0.000000 0.000000
# 5 0.000000 0.000000 0.000000 0.000000 0.043277 0.000000
# 6 0.000804 -0.000804 0.000000 0.000000 0.000000 0.057841
#
#
# Mechanical properties :
#
#
# Convention : Reuss Voigt Hill
#
# Bulk Modulus (GPa) = 41.97409 42.38382 42.17895
# Shear Modulus (GPa) = 17.67135 18.50781 18.08958
#
# Velocity S-wave (km/s) = 2.96476 3.03411 2.99964
# Velocity P-wave (km/s) = 5.70945 5.77549 5.74256
#
# Compressibility (1/GPa) = 0.02382422
#
# Stress axis : x y z
#
# Youngs Moduli (GPa) = 40.32903 40.32903 36.20133
#
# Poissons Ratio (x) = 0.37653 0.31421
# Poissons Ratio (y) = 0.37653 0.31421
# Poissons Ratio (z) = 0.35004 0.35004
#
# Static dielectric constant tensor:
#      x y z
#    x 1.737010 0.000000 0.000000 
#    y 0.000000 1.737010 0.000000 
#    z 0.000000 0.000000 1.760000 
# 
# From -- ./inp_files/659.got.cif
#   From: 2010.05.17/outbox.cif.g08.bks.cpg/sg80_cif.got.tgz:659.got - 2010.06.03 18:49:13.
