data_PCOD9542279
_publ_section_title
;
Structure prediction by ZEFSAII (Michael W. Deem and Ramdas Pophale) SiO2 
 PCOD9542279
Probable space group: I 41
;
_chemical_formula_sum "Si O2"
_cell_formula_units_Z 40
_cell_length_a 19.245313
_cell_length_b 19.245313
_cell_length_c 5.201535
_cell_angle_alpha 90.000000
_cell_angle_beta 90.000000
_cell_angle_gamma 90.000000
_cell_volume 1926.555313
_symmetry_space_group_name_H-M "I 41"
_symmetry_group_IT_number 80
_symmetry_cell_setting 'tetragonal'
loop_
_space_group_symop_operation_xyz
x,y,z
-y,1/2+x,1/4+z
-x,-y,z
y,1/2-x,1/4+z
1/2+x,1/2+y,1/2+z
1/2-y,x,3/4+z
1/2-x,1/2-y,1/2+z
1/2+y,-x,3/4+z
loop_
_atom_site_type_symbol
_atom_site_label
_atom_site_fract_x
_atom_site_fract_y
_atom_site_fract_z
Si Si1 0.067322 0.379839 0.174160
Si Si2 0.381172 0.974042 0.502483
Si Si3 0.000984 0.280158 0.766060
Si Si4 0.650696 0.783588 0.999518
Si Si5 0.903168 0.055080 0.250187
O O1 0.132844 0.334317 0.261332
O O2 0.026539 0.410893 0.422643
O O3 0.090455 0.447256 0.020427
O O4 0.016642 0.327544 0.017994
O O5 0.408629 0.928450 0.740883
O O6 0.298372 0.976182 0.537994
O O7 0.411409 0.943776 0.237783
O O8 0.076980 0.275875 0.636806
O O9 0.946950 0.322990 0.590209
O O10 0.709577 0.820747 0.163974
#
# Coordination Sequence:
#
# PCOD9542279 Si02
#       5
#     8   8   8   8   8
#     4  11  25  44  70 103 143 186 241 289 346 426
#     4  12  27  43  75 102 144 183 232 294 360 407
#     4  11  26  47  68 104 140 187 241 289 360 426
#     4  11  26  41  63  99 153 199 238 278 340 424
#     4  11  27  44  70 106 137 180 235 297 348 420
#
# _framework density 20.762447000000002
#
# number of rings (size 3 to 8) (size 9 to 14) (size 15 to 20)
#    0.000    0.800    2.000    3.000   22.400    0.000 
#    0.000    0.000    0.000    2.400    0.000    0.000 
#    0.000    0.000    0.000    0.000    0.000    0.000 
#
# Total GULP energy -111755.013018 kJ/mol
# GULP energy per Si atom -5587.750651 kJ/mol
# Density = 2.071519 g / cm^3
# Si number density = 20.762447 Si / 1000 Ang^3
#
#
#
# Elastic Constant Matrix: (Units=GPa)
#
#
# Indices 1 2 3 4 5 6 
#
# 1 69.2060 59.7287 31.1969 0.0000 0.0000 -7.5762
# 2 59.7287 69.2060 31.1969 0.0000 0.0000 7.5762
# 3 31.1969 31.1969 112.9718 0.0000 0.0000 0.0000
# 4 0.0000 0.0000 0.0000 33.2492 0.0000 0.0000
# 5 0.0000 0.0000 0.0000 0.0000 33.2492 0.0000
# 6 -7.5762 7.5762 0.0000 0.0000 0.0000 23.3962
#
#
#
# Elastic Compliance Matrix: (Units=1/GPa)
#
#
# Indices 1 2 3 4 5 6 
#
# 1 0.113872 -0.104920 -0.002472 0.000000 0.000000 0.070850
# 2 -0.104920 0.113872 -0.002472 0.000000 0.000000 -0.070850
# 3 -0.002472 -0.002472 0.010217 0.000000 0.000000 0.000000
# 4 0.000000 0.000000 0.000000 0.030076 0.000000 0.000000
# 5 0.000000 0.000000 0.000000 0.000000 0.030076 0.000000
# 6 0.070850 -0.070850 0.000000 0.000000 0.000000 0.088627
#
#
# Mechanical properties :
#
#
# Convention : Reuss Voigt Hill
#
# Bulk Modulus (GPa) = 54.84573 55.06987 54.95780
# Shear Modulus (GPa) = 8.16265 26.59635 17.37950
#
# Velocity S-wave (km/s) = 1.98494 3.58297 2.89634
# Velocity P-wave (km/s) = 5.63263 6.61046 6.14104
#
# Compressibility (1/GPa) = 0.01823296
#
# Stress axis : x y z
#
# Youngs Moduli (GPa) = 8.78179 8.78179 97.87503
#
# Poissons Ratio (x) = 0.92138 0.24196
# Poissons Ratio (y) = 0.92138 0.24196
# Poissons Ratio (z) = 0.02171 0.02171
#
# Static dielectric constant tensor:
#      x y z
#    x 1.737570 0.000000 0.000000 
#    y 0.000000 1.737570 0.000000 
#    z 0.000000 0.000000 1.835040 
# 
# From -- ./inp_files/178.got.cif
#   From: 2010.05.17/outbox.cif.g08.bks.cpg/sg80_cif.got.tgz:178.got - 2010.06.03 18:49:13.
