data_PCOD9542274
_publ_section_title
;
Structure prediction by ZEFSAII (Michael W. Deem and Ramdas Pophale) SiO2 
 PCOD9542274
Probable space group: I 41
;
_chemical_formula_sum "Si O2"
_cell_formula_units_Z 60
_cell_length_a 17.860712
_cell_length_b 17.860712
_cell_length_c 9.163889
_cell_angle_alpha 90.000000
_cell_angle_beta 90.000000
_cell_angle_gamma 90.000000
_cell_volume 2923.326714
_symmetry_space_group_name_H-M "I 41"
_symmetry_group_IT_number 80
_symmetry_cell_setting 'tetragonal'
loop_
_space_group_symop_operation_xyz
x,y,z
-y,1/2+x,1/4+z
-x,-y,z
y,1/2-x,1/4+z
1/2+x,1/2+y,1/2+z
1/2-y,x,3/4+z
1/2-x,1/2-y,1/2+z
1/2+y,-x,3/4+z
loop_
_atom_site_type_symbol
_atom_site_label
_atom_site_fract_x
_atom_site_fract_y
_atom_site_fract_z
Si Si1 0.000000 0.500000 0.115391
Si Si2 0.562611 0.819987 0.919035
Si Si3 0.477277 0.772163 0.639598
Si Si4 0.820442 0.795661 0.568243
Si Si5 0.885793 0.061871 0.361333
Si Si6 0.505650 0.600156 0.626700
Si Si7 0.463067 0.123599 0.394735
Si Si8 0.666923 0.273064 0.805611
O O1 0.940219 0.471528 0.233725
O O2 0.957700 0.556483 0.010157
O O3 0.539108 0.796881 0.757193
O O4 0.591074 0.905688 0.904531
O O5 0.620215 0.759640 0.986340
O O6 0.488412 0.826308 0.020023
O O7 0.489041 0.685965 0.607671
O O8 0.491382 0.815729 0.490368
O O9 0.398540 0.774181 0.725045
O O10 0.802223 0.753617 0.719015
O O11 0.850952 0.880209 0.593982
O O12 0.861052 0.148204 0.375336
O O13 0.960032 0.069368 0.264027
O O14 0.897619 0.015405 0.508594
O O15 0.703905 0.224171 0.930091
#
# Coordination Sequence:
#
# PCOD9542274 Si02
#       8
#     4   8   8   8   8   8   8   8
#     4  12  26  44  78 102 140 184 246 304 358 418
#     4  12  22  48  72 104 138 193 236 295 352 438
#     4  11  26  45  74  99 145 191 238 291 365 429
#     4  12  30  47  71 108 151 197 244 293 365 439
#     4  11  24  48  71 101 141 189 245 300 360 430
#     4  11  24  45  77 101 137 192 244 295 358 435
#     4  12  29  47  69 111 147 188 245 307 355 429
#     4  11  26  48  73 106 141 188 240 299 372 432
#
# _framework density 20.524560999999999
#
# number of rings (size 3 to 8) (size 9 to 14) (size 15 to 20)
#    0.000    0.533    5.333    0.800   11.200    1.067 
#    2.400    0.000    0.000    0.000    0.000    0.000 
#    0.000    0.000    0.000    0.000    0.000    0.000 
#
# Total GULP energy -167604.034547 kJ/mol
# GULP energy per Si atom -5586.801152 kJ/mol
# Density = 2.047785 g / cm^3
# Si number density = 20.524561 Si / 1000 Ang^3
#
#
#
# Elastic Constant Matrix: (Units=GPa)
#
#
# Indices 1 2 3 4 5 6 
#
# 1 55.2767 10.6514 26.7411 0.0000 0.0000 -0.0463
# 2 10.6514 55.2767 26.7411 0.0000 0.0000 0.0463
# 3 26.7411 26.7411 122.6642 0.0000 0.0000 0.0000
# 4 0.0000 0.0000 0.0000 47.6049 0.0000 0.0000
# 5 0.0000 0.0000 0.0000 0.0000 47.6049 0.0000
# 6 -0.0463 0.0463 0.0000 0.0000 0.0000 25.7045
#
#
#
# Elastic Compliance Matrix: (Units=1/GPa)
#
#
# Indices 1 2 3 4 5 6 
#
# 1 0.020418 -0.001991 -0.004017 0.000000 0.000000 0.000040
# 2 -0.001991 0.020418 -0.004017 0.000000 0.000000 -0.000040
# 3 -0.004017 -0.004017 0.009904 0.000000 0.000000 0.000000
# 4 0.000000 0.000000 0.000000 0.021006 0.000000 0.000000
# 5 0.000000 0.000000 0.000000 0.000000 0.021006 0.000000
# 6 0.000040 -0.000040 0.000000 0.000000 0.000000 0.038904
#
#
# Mechanical properties :
#
#
# Convention : Reuss Voigt Hill
#
# Bulk Modulus (GPa) = 32.58496 40.16501 36.37498
# Shear Modulus (GPa) = 30.87640 35.45511 33.16575
#
# Velocity S-wave (km/s) = 3.88282 4.16077 4.02419
# Velocity P-wave (km/s) = 6.00102 6.53409 6.27322
#
# Compressibility (1/GPa) = 0.03068900
#
# Stress axis : x y z
#
# Youngs Moduli (GPa) = 48.97681 48.97681 100.97118
#
# Poissons Ratio (x) = 0.09752 0.40561
# Poissons Ratio (y) = 0.09752 0.40561
# Poissons Ratio (z) = 0.19674 0.19674
#
# Static dielectric constant tensor:
#      x y z
#    x 1.761300 0.000000 0.000000 
#    y 0.000000 1.761300 0.000000 
#    z 0.000000 0.000000 1.706090 
# 
# From -- ./inp_files/753.got.cif
#   From: 2010.05.17/outbox.cif.g08.bks.cpg/sg80_cif.got.tgz:753.got - 2010.06.03 18:49:13.
