data_PCOD9542753
_publ_section_title
;
Structure prediction by ZEFSAII (Michael W. Deem and Ramdas Pophale) SiO2 
 PCOD9542753
Probable space group: I -4 
;
_chemical_formula_sum "Si O2"
_cell_formula_units_Z 40
_cell_length_a 9.427505
_cell_length_b 9.427505
_cell_length_c 20.290589
_cell_angle_alpha 90.000000
_cell_angle_beta 90.000000
_cell_angle_gamma 90.000000
_cell_volume 1803.383936
_symmetry_space_group_name_H-M "I -4 "
_symmetry_group_IT_number 82
_symmetry_cell_setting 'tetragonal'
loop_
_space_group_symop_operation_xyz
x,y,z
y,-x,-z
-x,-y,z
-y,x,-z
1/2+x,1/2+y,1/2+z
1/2+y,1/2-x,1/2-z
1/2-x,1/2-y,1/2+z
1/2-y,1/2+x,1/2-z
loop_
_atom_site_type_symbol
_atom_site_label
_atom_site_fract_x
_atom_site_fract_y
_atom_site_fract_z
Si Si1 0.665637 0.490059 0.096139
Si Si2 0.058385 0.851191 0.848120
Si Si3 0.270602 0.969184 0.739924
Si Si4 0.680569 0.297557 0.589887
Si Si5 0.273024 0.866964 0.948721
O O1 0.500000 0.500000 0.081164
O O2 0.701513 0.524012 0.172630
O O3 0.709391 0.328512 0.089698
O O4 0.774728 0.584853 0.053842
O O5 0.904649 0.780319 0.849632
O O6 0.165365 0.783981 0.899906
O O7 0.147791 0.898227 0.784697
O O8 0.000000 0.000000 0.879213
O O9 0.395869 0.853382 0.728597
O O10 0.709466 0.378687 0.521212
O O11 0.524168 0.223567 0.583871
#
# Coordination Sequence:
#
# PCOD9542753 Si02
#       5
#     8   8   8   8   8
#     4  12  28  44  65 105 145 186 226 293 361 425
#     4  10  20  39  68 100 131 175 236 291 337 414
#     4  11  22  41  72 105 139 184 238 295 353 424
#     4  11  24  42  73 102 136 185 235 294 350 423
#     4  11  22  43  67 101 137 176 236 288 353 418
#
# _framework density 22.180523999999998
#
# number of rings (size 3 to 8) (size 9 to 14) (size 15 to 20)
#    0.000    1.000    4.000    3.600    5.600    0.000 
#    0.000    1.000    0.000    0.000    0.000    0.000 
#    0.000    0.000    0.000    0.000    0.000    0.000 
#
# Total GULP energy -111475.232794 kJ/mol
# GULP energy per Si atom -5573.761640 kJ/mol
# Density = 2.213004 g / cm^3
# Si number density = 22.180524 Si / 1000 Ang^3
#
#
#
# Elastic Constant Matrix: (Units=GPa)
#
#
# Indices 1 2 3 4 5 6 
#
# 1 123.8615 45.1700 21.1063 0.0000 0.0000 2.3506
# 2 45.1700 123.8615 21.1063 0.0000 0.0000 -2.3506
# 3 21.1063 21.1063 72.8673 0.0000 0.0000 0.0000
# 4 0.0000 0.0000 0.0000 30.0729 0.0000 0.0000
# 5 0.0000 0.0000 0.0000 0.0000 30.0729 0.0000
# 6 2.3506 -2.3506 0.0000 0.0000 0.0000 22.7868
#
#
#
# Elastic Compliance Matrix: (Units=1/GPa)
#
#
# Indices 1 2 3 4 5 6 
#
# 1 0.009582 -0.003205 -0.001847 0.000000 0.000000 -0.001319
# 2 -0.003205 0.009582 -0.001847 0.000000 0.000000 0.001319
# 3 -0.001847 -0.001847 0.014794 0.000000 0.000000 0.000000
# 4 0.000000 0.000000 0.000000 0.033252 0.000000 0.000000
# 5 0.000000 0.000000 0.000000 0.000000 0.033252 0.000000
# 6 -0.001319 0.001319 0.000000 0.000000 0.000000 0.044157
#
#
# Mechanical properties :
#
#
# Convention : Reuss Voigt Hill
#
# Bulk Modulus (GPa) = 49.60439 55.03951 52.32195
# Shear Modulus (GPa) = 30.27773 32.13372 31.20572
#
# Velocity S-wave (km/s) = 3.69868 3.81036 3.75493
# Velocity P-wave (km/s) = 6.37595 6.65031 6.51458
#
# Compressibility (1/GPa) = 0.02015951
#
# Stress axis : x y z
#
# Youngs Moduli (GPa) = 104.36228 104.36228 67.59642
#
# Poissons Ratio (x) = 0.33444 0.12487
# Poissons Ratio (y) = 0.33444 0.12487
# Poissons Ratio (z) = 0.19278 0.19278
#
# Static dielectric constant tensor:
#      x y z
#    x 1.963740 0.000000 0.000000 
#    y 0.000000 1.963740 0.000000 
#    z 0.000000 0.000000 1.914180 
# 
# From -- ./inp_files/3342.got.cif
#   From: 2010.05.17/outbox.cif.g08.bks.cpg/sg82_2_cif.got.tgz:3342.got - 2010.06.03 18:52:26.
