data_PCOD9542506
_publ_section_title
;
Structure prediction by ZEFSAII (Michael W. Deem and Ramdas Pophale) SiO2 
 PCOD9542506
Probable space group: P -4
;
_chemical_formula_sum "Si O2"
_cell_formula_units_Z 12
_cell_length_a 5.222633
_cell_length_b 5.222633
_cell_length_c 19.507470
_cell_angle_alpha 90.000000
_cell_angle_beta 90.000000
_cell_angle_gamma 90.000000
_cell_volume 532.083712
_symmetry_space_group_name_H-M "P -4"
_symmetry_group_IT_number 81
_symmetry_cell_setting 'tetragonal'
loop_
_space_group_symop_operation_xyz
x,y,z
y,-x,-z
-x,-y,z
-y,x,-z
loop_
_atom_site_type_symbol
_atom_site_label
_atom_site_fract_x
_atom_site_fract_y
_atom_site_fract_z
Si Si1 0.250029 0.150862 0.906445
Si Si2 0.500000 0.500000 0.316635
Si Si3 0.500000 0.000000 0.772241
Si Si4 0.000000 0.500000 0.592180
Si Si5 0.000000 0.000000 0.500000
Si Si6 0.500000 0.500000 0.000000
O O1 0.283780 0.417403 0.944799
O O2 0.500000 0.000000 0.931381
O O3 0.290116 0.125379 0.824426
O O4 0.000000 0.000000 0.924795
O O5 0.754100 0.573039 0.272866
O O6 0.442338 0.749516 0.362234
O O7 0.948979 0.250182 0.546048
#
# Coordination Sequence:
#
# PCOD9542506 Si02
#       6
#     4   2   2   2   1   1
#     4  10  27  43  72 100 140 191 238 318 377 455
#     4  12  25  43  74 107 137 192 240 292 346 442
#     4  10  26  47  70  99 148 180 248 296 376 424
#     4  12  26  43  76 105 148 188 236 284 350 412
#     4  12  24  48  68 108 152 188 228 290 344 416
#     4  12  26  48  72 108 142 192 264 318 396 468
#
# _framework density 22.552844
#
# number of rings (size 3 to 8) (size 9 to 14) (size 15 to 20)
#    1.000    0.000    0.000    5.000    9.333    0.000 
#    0.000    0.000    0.000    0.000    0.000    0.000 
#    0.000    0.000    0.000    0.000    0.000    0.000 
#
# Total GULP energy -66943.909262 kJ/mol
# GULP energy per Si atom -5578.659105 kJ/mol
# Density = 2.250151 g / cm^3
# Si number density = 22.552844 Si / 1000 Ang^3
#
#
#
# Elastic Constant Matrix: (Units=GPa)
#
#
# Indices 1 2 3 4 5 6 
#
# 1 122.1970 -0.9400 33.8818 0.0000 0.0000 5.3532
# 2 -0.9400 122.1970 33.8818 0.0000 0.0000 -5.3532
# 3 33.8818 33.8818 114.3519 0.0000 0.0000 0.0000
# 4 0.0000 0.0000 0.0000 41.8444 0.0000 0.0000
# 5 0.0000 0.0000 0.0000 0.0000 41.8444 0.0000
# 6 5.3532 -5.3532 0.0000 0.0000 0.0000 36.7017
#
#
#
# Elastic Compliance Matrix: (Units=1/GPa)
#
#
# Indices 1 2 3 4 5 6 
#
# 1 0.009054 0.000829 -0.002928 0.000000 0.000000 -0.001200
# 2 0.000829 0.009054 -0.002928 0.000000 0.000000 0.001200
# 3 -0.002928 -0.002928 0.010480 0.000000 0.000000 0.000000
# 4 0.000000 0.000000 0.000000 0.023898 0.000000 0.000000
# 5 0.000000 0.000000 0.000000 0.000000 0.023898 0.000000
# 6 -0.001200 0.001200 0.000000 0.000000 0.000000 0.027597
#
#
# Mechanical properties :
#
#
# Convention : Reuss Voigt Hill
#
# Bulk Modulus (GPa) = 53.95616 54.71033 54.33325
# Shear Modulus (GPa) = 41.59207 43.53960 42.56583
#
# Velocity S-wave (km/s) = 4.29908 4.39858 4.34911
# Velocity P-wave (km/s) = 6.97274 7.07870 7.02592
#
# Compressibility (1/GPa) = 0.01853356
#
# Stress axis : x y z
#
# Youngs Moduli (GPa) = 110.44343 110.44343 95.41730
#
# Poissons Ratio (x) = -0.09156 0.27942
# Poissons Ratio (y) = -0.09156 0.27942
# Poissons Ratio (z) = 0.32342 0.32342
#
# Static dielectric constant tensor:
#      x y z
#    x 1.769390 0.000000 0.000000 
#    y 0.000000 1.769390 0.000000 
#    z 0.000000 0.000000 1.863120 
# 
# From -- ./inp_files/1799.got.cif
#   From: 2010.05.17/outbox.cif.g08.bks.cpg/sg81_cif.got.tgz:1799.got - 2010.06.03 18:51:07.
