data_PCOD9542977
_publ_section_title
;
Structure prediction by ZEFSAII (Michael W. Deem and Ramdas Pophale) SiO2 
 PCOD9542977
Probable space group: I -4 
;
_chemical_formula_sum "Si O2"
_cell_formula_units_Z 34
_cell_length_a 8.680577
_cell_length_b 8.680577
_cell_length_c 19.163387
_cell_angle_alpha 90.000000
_cell_angle_beta 90.000000
_cell_angle_gamma 90.000000
_cell_volume 1444.007529
_symmetry_space_group_name_H-M "I -4 "
_symmetry_group_IT_number 82
_symmetry_cell_setting 'tetragonal'
loop_
_space_group_symop_operation_xyz
x,y,z
y,-x,-z
-x,-y,z
-y,x,-z
1/2+x,1/2+y,1/2+z
1/2+y,1/2-x,1/2-z
1/2-x,1/2-y,1/2+z
1/2-y,1/2+x,1/2-z
loop_
_atom_site_type_symbol
_atom_site_label
_atom_site_fract_x
_atom_site_fract_y
_atom_site_fract_z
Si Si1 0.652588 0.781879 0.862465
Si Si2 0.500000 0.500000 0.500000
Si Si3 0.334897 0.419793 0.248013
Si Si4 0.097169 0.658544 0.981374
Si Si5 0.958245 0.677192 0.656080
O O1 0.503367 0.761367 0.812966
O O2 0.752645 0.909747 0.821958
O O3 0.643289 0.824955 0.943157
O O4 0.732601 0.615751 0.857485
O O5 0.507135 0.321128 0.472448
O O6 0.500000 0.500000 0.255036
O O7 0.367593 0.247781 0.220936
O O8 0.000000 0.500000 0.976650
O O9 0.202350 0.645521 0.912945
O O10 0.000000 0.500000 0.666221
#
# Coordination Sequence:
#
# PCOD9542977 Si02
#       5
#     8   2   8   8   8
#     4  11  26  44  73 108 150 201 245 324 385 466
#     4  12  28  48  80 116 152 208 256 330 388 472
#     4  10  26  44  69 110 144 198 250 315 391 463
#     4  11  26  47  75 112 148 203 255 317 386 459
#     4  10  24  46  74 106 146 198 251 311 381 465
#
# _framework density 23.545584000000002
#
# number of rings (size 3 to 8) (size 9 to 14) (size 15 to 20)
#    0.000    1.412    0.000    2.824   18.118    0.000 
#    0.000    0.000    0.000    0.000    0.000    0.000 
#    0.000    0.000    0.000    0.000    0.000    0.000 
#
# Total GULP energy -94971.699000 kJ/mol
# GULP energy per Si atom -5586.570529 kJ/mol
# Density = 2.349199 g / cm^3
# Si number density = 23.545584 Si / 1000 Ang^3
#
#
#
# Elastic Constant Matrix: (Units=GPa)
#
#
# Indices 1 2 3 4 5 6 
#
# 1 95.1124 9.3151 26.9517 0.0000 0.0000 6.7810
# 2 9.3151 95.1124 26.9517 0.0000 0.0000 -6.7810
# 3 26.9517 26.9517 124.6350 0.0000 0.0000 0.0000
# 4 0.0000 0.0000 0.0000 29.9214 0.0000 0.0000
# 5 0.0000 0.0000 0.0000 0.0000 29.9214 0.0000
# 6 6.7810 -6.7810 0.0000 0.0000 0.0000 23.4773
#
#
#
# Elastic Compliance Matrix: (Units=1/GPa)
#
#
# Indices 1 2 3 4 5 6 
#
# 1 0.011496 -0.000717 -0.002331 0.000000 0.000000 -0.003528
# 2 -0.000717 0.011496 -0.002331 0.000000 0.000000 0.003528
# 3 -0.002331 -0.002331 0.009032 0.000000 0.000000 0.000000
# 4 0.000000 0.000000 0.000000 0.033421 0.000000 0.000000
# 5 0.000000 0.000000 0.000000 0.000000 0.033421 0.000000
# 6 -0.003528 0.003528 0.000000 0.000000 0.000000 0.044632
#
#
# Mechanical properties :
#
#
# Convention : Reuss Voigt Hill
#
# Bulk Modulus (GPa) = 47.02306 49.03298 48.02802
# Shear Modulus (GPa) = 30.98974 33.44013 32.21493
#
# Velocity S-wave (km/s) = 3.63183 3.77268 3.70292
# Velocity P-wave (km/s) = 6.13199 6.31248 6.22289
#
# Compressibility (1/GPa) = 0.02126616
#
# Stress axis : x y z
#
# Youngs Moduli (GPa) = 86.98605 86.98605 110.72308
#
# Poissons Ratio (x) = 0.06236 0.25809
# Poissons Ratio (y) = 0.06236 0.25809
# Poissons Ratio (z) = 0.20276 0.20276
#
# Static dielectric constant tensor:
#      x y z
#    x 1.915960 0.000000 0.000000 
#    y 0.000000 1.915960 0.000000 
#    z 0.000000 0.000000 1.906310 
# 
# From -- ./inp_files/2978.got.cif
#   From: 2010.05.17/outbox.cif.g08.bks.cpg/sg82_2_cif.got.tgz:2978.got - 2010.06.03 18:52:26.
