data_PCOD9542305
_publ_section_title
;
Structure prediction by ZEFSAII (Michael W. Deem and Ramdas Pophale) SiO2 
 PCOD9542305
Probable space group: I 41
;
_chemical_formula_sum "Si O2"
_cell_formula_units_Z 36
_cell_length_a 8.846722
_cell_length_b 8.846722
_cell_length_c 19.405869
_cell_angle_alpha 90.000000
_cell_angle_beta 90.000000
_cell_angle_gamma 90.000000
_cell_volume 1518.790443
_symmetry_space_group_name_H-M "I 41"
_symmetry_group_IT_number 80
_symmetry_cell_setting 'tetragonal'
loop_
_space_group_symop_operation_xyz
x,y,z
-y,1/2+x,1/4+z
-x,-y,z
y,1/2-x,1/4+z
1/2+x,1/2+y,1/2+z
1/2-y,x,3/4+z
1/2-x,1/2-y,1/2+z
1/2+y,-x,3/4+z
loop_
_atom_site_type_symbol
_atom_site_label
_atom_site_fract_x
_atom_site_fract_y
_atom_site_fract_z
Si Si1 0.275133 0.179291 0.204610
Si Si2 0.215788 0.821449 0.823466
Si Si3 0.827393 0.019327 0.683660
Si Si4 0.500000 0.500000 0.631728
Si Si5 0.015848 0.329688 0.578495
O O1 0.257782 0.358067 0.202254
O O2 0.273112 0.128960 0.283909
O O3 0.421327 0.155113 0.156166
O O4 0.138452 0.082493 0.171496
O O5 0.148148 0.883727 0.752943
O O6 0.099743 0.798239 0.886140
O O7 0.265896 0.648804 0.816666
O O8 0.362878 0.920879 0.840857
O O9 0.000000 0.000000 0.653832
O O10 0.000000 0.500000 0.552250
#
# Coordination Sequence:
#
# PCOD9542305 Si02
#       5
#     8   8   8   4   8
#     4  12  27  49  80 116 157 207 268 326 401 470
#     4  12  29  50  79 116 159 210 271 325 408 471
#     4  12  30  51  79 120 160 212 264 340 400 480
#     4  12  26  50  80 116 158 210 264 336 390 492
#     4  12  26  50  82 114 157 213 266 326 394 489
#
# _framework density 23.703071999999999
#
# number of rings (size 3 to 8) (size 9 to 14) (size 15 to 20)
#    0.000    0.000    5.556    2.667    6.222    0.000 
#    0.000    0.000    0.000    0.000    0.000    0.000 
#    0.000    0.000    0.000    0.000    0.000    0.000 
#
# Total GULP energy -100675.158595 kJ/mol
# GULP energy per Si atom -5593.064366 kJ/mol
# Density = 2.364912 g / cm^3
# Si number density = 23.703072 Si / 1000 Ang^3
#
#
#
# Elastic Constant Matrix: (Units=GPa)
#
#
# Indices 1 2 3 4 5 6 
#
# 1 114.8964 -0.0889 22.0425 0.0000 0.0000 -2.1706
# 2 -0.0889 114.8964 22.0425 0.0000 0.0000 2.1706
# 3 22.0425 22.0425 90.8111 0.0000 0.0000 0.0000
# 4 0.0000 0.0000 0.0000 33.7115 0.0000 0.0000
# 5 0.0000 0.0000 0.0000 0.0000 33.7115 0.0000
# 6 -2.1706 2.1706 0.0000 0.0000 0.0000 49.8892
#
#
#
# Elastic Compliance Matrix: (Units=1/GPa)
#
#
# Indices 1 2 3 4 5 6 
#
# 1 0.009158 0.000447 -0.002332 0.000000 0.000000 0.000379
# 2 0.000447 0.009158 -0.002332 0.000000 0.000000 -0.000379
# 3 -0.002332 -0.002332 0.012144 0.000000 0.000000 0.000000
# 4 0.000000 0.000000 0.000000 0.029663 0.000000 0.000000
# 5 0.000000 0.000000 0.000000 0.000000 0.029663 0.000000
# 6 0.000379 -0.000379 0.000000 0.000000 0.000000 0.020077
#
#
# Mechanical properties :
#
#
# Convention : Reuss Voigt Hill
#
# Bulk Modulus (GPa) = 45.39548 45.39955 45.39751
# Shear Modulus (GPa) = 39.79650 41.90297 40.84974
#
# Velocity S-wave (km/s) = 4.10196 4.20912 4.15588
# Velocity P-wave (km/s) = 6.45198 6.54349 6.49789
#
# Compressibility (1/GPa) = 0.02202863
#
# Stress axis : x y z
#
# Youngs Moduli (GPa) = 109.19062 109.19062 82.34700
#
# Poissons Ratio (x) = -0.04883 0.19200
# Poissons Ratio (y) = -0.04883 0.19200
# Poissons Ratio (z) = 0.25458 0.25458
#
# Static dielectric constant tensor:
#      x y z
#    x 1.833480 0.000000 0.000000 
#    y 0.000000 1.833480 0.000000 
#    z 0.000000 0.000000 2.031930 
# 
# From -- ./inp_files/1725.got.cif
#   From: 2010.05.17/outbox.cif.g08.bks.cpg/sg80_cif.got.tgz:1725.got - 2010.06.03 18:49:13.
