data_PCOD9542219
_publ_section_title
;
Structure prediction by ZEFSAII (Michael W. Deem and Ramdas Pophale) SiO2 
 PCOD9542219
Probable space group: I 41
;
_chemical_formula_sum "Si O2"
_cell_formula_units_Z 40
_cell_length_a 9.161914
_cell_length_b 9.161914
_cell_length_c 19.358023
_cell_angle_alpha 90.000000
_cell_angle_beta 90.000000
_cell_angle_gamma 90.000000
_cell_volume 1624.925385
_symmetry_space_group_name_H-M "I 41"
_symmetry_group_IT_number 80
_symmetry_cell_setting 'tetragonal'
loop_
_space_group_symop_operation_xyz
x,y,z
-y,1/2+x,1/4+z
-x,-y,z
y,1/2-x,1/4+z
1/2+x,1/2+y,1/2+z
1/2-y,x,3/4+z
1/2-x,1/2-y,1/2+z
1/2+y,-x,3/4+z
loop_
_atom_site_type_symbol
_atom_site_label
_atom_site_fract_x
_atom_site_fract_y
_atom_site_fract_z
Si Si1 0.574426 0.842584 0.194640
Si Si2 0.267351 0.896424 0.999319
Si Si3 0.707887 0.763563 0.809029
Si Si4 0.291431 0.755074 0.137108
Si Si5 0.561910 0.154728 0.544476
O O1 0.675872 0.827211 0.128010
O O2 0.666620 0.809032 0.262443
O O3 0.436557 0.735285 0.181385
O O4 0.500000 0.000000 0.200593
O O5 0.344879 0.847156 0.070105
O O6 0.125296 0.788365 0.997706
O O7 0.231549 0.063597 0.010398
O O8 0.344792 0.830176 0.931818
O O9 0.765934 0.923106 0.828680
O O10 0.194970 0.631986 0.098809
O O11 0.500000 0.000000 0.520572
#
# Coordination Sequence:
#
# PCOD9542219 Si02
#       5
#     8   8   8   8   8
#     4  12  27  46  74 116 156 207 267 342 416 487
#     4  10  23  45  74 102 150 200 263 325 398 489
#     4  12  26  47  77 114 152 207 271 330 411 499
#     4  10  24  45  71 102 149 199 255 322 405 470
#     4  10  23  45  75 108 150 200 260 322 405 475
#
# _framework density 24.616517000000002
#
# number of rings (size 3 to 8) (size 9 to 14) (size 15 to 20)
#    1.200    0.000    2.000    3.000    2.800    3.200 
#    0.000    3.000    0.000    0.000    0.000    0.000 
#    0.000    0.000    0.000    0.000    0.000    0.000 
#
# Total GULP energy -111516.146361 kJ/mol
# GULP energy per Si atom -5575.807318 kJ/mol
# Density = 2.456049 g / cm^3
# Si number density = 24.616517 Si / 1000 Ang^3
#
#
#
# Elastic Constant Matrix: (Units=GPa)
#
#
# Indices 1 2 3 4 5 6 
#
# 1 121.0286 38.4217 12.2191 0.0000 0.0000 -1.2504
# 2 38.4217 121.0286 12.2191 0.0000 0.0000 1.2504
# 3 12.2191 12.2191 86.1135 0.0000 0.0000 0.0000
# 4 0.0000 0.0000 0.0000 27.3649 0.0000 0.0000
# 5 0.0000 0.0000 0.0000 0.0000 27.3649 0.0000
# 6 -1.2504 1.2504 0.0000 0.0000 0.0000 38.4343
#
#
#
# Elastic Compliance Matrix: (Units=1/GPa)
#
#
# Indices 1 2 3 4 5 6 
#
# 1 0.009264 -0.002853 -0.000910 0.000000 0.000000 0.000394
# 2 -0.002853 0.009264 -0.000910 0.000000 0.000000 -0.000394
# 3 -0.000910 -0.000910 0.011871 0.000000 0.000000 0.000000
# 4 0.000000 0.000000 0.000000 0.036543 0.000000 0.000000
# 5 0.000000 0.000000 0.000000 0.000000 0.036543 0.000000
# 6 0.000394 -0.000394 0.000000 0.000000 0.000000 0.026044
#
#
# Mechanical properties :
#
#
# Convention : Reuss Voigt Hill
#
# Bulk Modulus (GPa) = 47.49704 50.43225 48.96464
# Shear Modulus (GPa) = 34.27172 36.32019 35.29595
#
# Velocity S-wave (km/s) = 3.73530 3.84531 3.79071
# Velocity P-wave (km/s) = 6.15954 6.34404 6.25247
#
# Compressibility (1/GPa) = 0.02105395
#
# Stress axis : x y z
#
# Youngs Moduli (GPa) = 107.94220 107.94220 84.24076
#
# Poissons Ratio (x) = 0.30799 0.07663
# Poissons Ratio (y) = 0.30799 0.07663
# Poissons Ratio (z) = 0.09819 0.09819
#
# Static dielectric constant tensor:
#      x y z
#    x 1.985720 0.000000 0.000000 
#    y 0.000000 1.985720 0.000000 
#    z 0.000000 0.000000 2.337290 
# 
# From -- ./inp_files/2010.got.cif
#   From: 2010.05.17/outbox.cif.g08.bks.cpg/sg80_cif.got.tgz:2010.got - 2010.06.03 18:49:13.
