data_PCOD9542587
_publ_section_title
;
Structure prediction by ZEFSAII (Michael W. Deem and Ramdas Pophale) SiO2 
 PCOD9542587
Probable space group: P -4
;
_chemical_formula_sum "Si O2"
_cell_formula_units_Z 10
_cell_length_a 6.800042
_cell_length_b 6.800042
_cell_length_c 9.252479
_cell_angle_alpha 90.000000
_cell_angle_beta 90.000000
_cell_angle_gamma 90.000000
_cell_volume 427.839914
_symmetry_space_group_name_H-M "P -4"
_symmetry_group_IT_number 81
_symmetry_cell_setting 'tetragonal'
loop_
_space_group_symop_operation_xyz
x,y,z
y,-x,-z
-x,-y,z
-y,x,-z
loop_
_atom_site_type_symbol
_atom_site_label
_atom_site_fract_x
_atom_site_fract_y
_atom_site_fract_z
Si Si1 0.645962 0.309339 0.312765
Si Si2 0.000000 0.500000 0.450040
Si Si3 0.939828 0.702288 0.974412
O O1 0.500000 0.500000 0.307408
O O2 0.870759 0.361098 0.349069
O O3 0.585503 0.164805 0.442548
O O4 0.643488 0.190926 0.162940
O O5 0.000000 0.500000 0.048193
O O6 0.141304 0.815238 0.933856
#
# Coordination Sequence:
#
# PCOD9542587 Si02
#       3
#     4   2   4
#     4  12  27  49  77 117 156 202 259 323 390 461
#     4  12  24  50  80 112 150 204 254 316 400 454
#     4  11  29  48  75 114 151 209 263 316 376 458
#
# _framework density 23.37323
#
# number of rings (size 3 to 8) (size 9 to 14) (size 15 to 20)
#    0.000    0.400    6.000    0.000    8.400   10.400 
#    0.000    0.000    0.000    0.000    0.000    0.000 
#    0.000    0.000    0.000    0.000    0.000    0.000 
#
# Total GULP energy -55926.125432 kJ/mol
# GULP energy per Si atom -5592.612543 kJ/mol
# Density = 2.332003 g / cm^3
# Si number density = 23.373230 Si / 1000 Ang^3
#
#
#
# Elastic Constant Matrix: (Units=GPa)
#
#
# Indices 1 2 3 4 5 6 
#
# 1 173.7500 78.6096 44.0324 0.0000 0.0000 18.4801
# 2 78.6096 173.7500 44.0324 0.0000 0.0000 -18.4801
# 3 44.0324 44.0324 108.5346 0.0000 0.0000 0.0000
# 4 0.0000 0.0000 0.0000 28.0766 0.0000 0.0000
# 5 0.0000 0.0000 0.0000 0.0000 28.0766 0.0000
# 6 18.4801 -18.4801 0.0000 0.0000 0.0000 43.1419
#
#
#
# Elastic Compliance Matrix: (Units=1/GPa)
#
#
# Indices 1 2 3 4 5 6 
#
# 1 0.008613 -0.003996 -0.001873 0.000000 0.000000 -0.005401
# 2 -0.003996 0.008613 -0.001873 0.000000 0.000000 0.005401
# 3 -0.001873 -0.001873 0.010733 0.000000 0.000000 0.000000
# 4 0.000000 0.000000 0.000000 0.035617 0.000000 0.000000
# 5 0.000000 0.000000 0.000000 0.000000 0.035617 0.000000
# 6 -0.005401 0.005401 0.000000 0.000000 0.000000 0.027807
#
#
# Mechanical properties :
#
#
# Convention : Reuss Voigt Hill
#
# Bulk Modulus (GPa) = 80.16404 87.70927 83.93666
# Shear Modulus (GPa) = 34.09694 39.14969 36.62332
#
# Velocity S-wave (km/s) = 3.82357 4.09709 3.96269
# Velocity P-wave (km/s) = 7.33926 7.74523 7.54498
#
# Compressibility (1/GPa) = 0.01247442
#
# Stress axis : x y z
#
# Youngs Moduli (GPa) = 116.10930 116.10930 93.16885
#
# Poissons Ratio (x) = 0.46402 0.17448
# Poissons Ratio (y) = 0.46402 0.17448
# Poissons Ratio (z) = 0.21744 0.21744
#
# Static dielectric constant tensor:
#      x y z
#    x 1.933260 0.000000 0.000000 
#    y 0.000000 1.933260 0.000000 
#    z 0.000000 0.000000 1.864970 
# 
# From -- ./inp_files/989.got.cif
#   From: 2010.05.17/outbox.cif.g08.bks.cpg/sg81_cif.got.tgz:989.got - 2010.06.03 18:51:07.
