data_PCOD9542296
_publ_section_title
;
Structure prediction by ZEFSAII (Michael W. Deem and Ramdas Pophale) SiO2 
 PCOD9542296
Probable space group: I 41
;
_chemical_formula_sum "Si O2"
_cell_formula_units_Z 24
_cell_length_a 13.497403
_cell_length_b 13.497403
_cell_length_c 4.809295
_cell_angle_alpha 90.000000
_cell_angle_beta 90.000000
_cell_angle_gamma 90.000000
_cell_volume 876.156823
_symmetry_space_group_name_H-M "I 41"
_symmetry_group_IT_number 80
_symmetry_cell_setting 'tetragonal'
loop_
_space_group_symop_operation_xyz
x,y,z
-y,1/2+x,1/4+z
-x,-y,z
y,1/2-x,1/4+z
1/2+x,1/2+y,1/2+z
1/2-y,x,3/4+z
1/2-x,1/2-y,1/2+z
1/2+y,-x,3/4+z
loop_
_atom_site_type_symbol
_atom_site_label
_atom_site_fract_x
_atom_site_fract_y
_atom_site_fract_z
Si Si1 0.811076 0.388135 0.462150
Si Si2 0.018518 0.655904 0.799107
Si Si3 0.673696 0.616277 0.519919
O O1 0.715009 0.360211 0.632183
O O2 0.756692 0.435584 0.193689
O O3 0.900137 0.421051 0.668362
O O4 0.944980 0.685743 0.551789
O O5 0.951736 0.613671 0.053286
O O6 0.633726 0.721877 0.615763
#
# Coordination Sequence:
#
# PCOD9542296 Si02
#       3
#     8   8   8
#     4  12  22  44  77 112 155 200 232 292 384 470
#     4  12  25  43  82 116 144 196 254 305 371 464
#     4  12  27  51  80 104 144 206 266 315 373 440
#
# _framework density 27.39236
#
# number of rings (size 3 to 8) (size 9 to 14) (size 15 to 20)
#    0.000    0.000    6.667    4.000    0.000    0.000 
#    0.000    1.667   14.667    0.000    0.000    0.000 
#    0.000    0.000    0.000    0.000    0.000    0.000 
#
# Total GULP energy -67031.208464 kJ/mol
# GULP energy per Si atom -5585.934039 kJ/mol
# Density = 2.733001 g / cm^3
# Si number density = 27.392360 Si / 1000 Ang^3
#
#
#
# Elastic Constant Matrix: (Units=GPa)
#
#
# Indices 1 2 3 4 5 6 
#
# 1 97.7538 4.3444 42.4361 0.0000 0.0000 3.0959
# 2 4.3444 97.7538 42.4361 0.0000 0.0000 -3.0959
# 3 42.4361 42.4361 202.1879 0.0000 0.0000 0.0000
# 4 0.0000 0.0000 0.0000 48.7898 0.0000 0.0000
# 5 0.0000 0.0000 0.0000 0.0000 48.7898 0.0000
# 6 3.0959 -3.0959 0.0000 0.0000 0.0000 7.3503
#
#
#
# Elastic Compliance Matrix: (Units=1/GPa)
#
#
# Indices 1 2 3 4 5 6 
#
# 1 0.011439 0.000426 -0.002490 0.000000 0.000000 -0.004639
# 2 0.000426 0.011439 -0.002490 0.000000 0.000000 0.004639
# 3 -0.002490 -0.002490 0.005991 0.000000 0.000000 0.000000
# 4 0.000000 0.000000 0.000000 0.020496 0.000000 0.000000
# 5 0.000000 0.000000 0.000000 0.000000 0.020496 0.000000
# 6 -0.004639 0.004639 0.000000 0.000000 0.000000 0.139957
#
#
# Mechanical properties :
#
#
# Convention : Reuss Voigt Hill
#
# Bulk Modulus (GPa) = 50.60851 64.01430 57.31140
# Shear Modulus (GPa) = 22.17163 41.55124 31.86143
#
# Velocity S-wave (km/s) = 2.84810 3.89895 3.41420
# Velocity P-wave (km/s) = 5.41582 6.60979 6.04236
#
# Compressibility (1/GPa) = 0.01975952
#
# Stress axis : x y z
#
# Youngs Moduli (GPa) = 87.42191 87.42191 166.91164
#
# Poissons Ratio (x) = -0.03722 0.41564
# Poissons Ratio (y) = -0.03722 0.41564
# Poissons Ratio (z) = 0.21770 0.21770
#
# Static dielectric constant tensor:
#      x y z
#    x 2.237750 0.000000 0.000000 
#    y 0.000000 2.237750 0.000000 
#    z 0.000000 0.000000 2.193630 
# 
# From -- ./inp_files/73.got.cif
#   From: 2010.05.17/outbox.cif.g08.bks.cpg/sg80_cif.got.tgz:73.got - 2010.06.03 18:49:13.
