data_PCOD9542915
_publ_section_title
;
Structure prediction by ZEFSAII (Michael W. Deem and Ramdas Pophale) SiO2 
 PCOD9542915
Probable space group: I -4 
;
_chemical_formula_sum "Si O2"
_cell_formula_units_Z 44
_cell_length_a 8.334261
_cell_length_b 8.334261
_cell_length_c 28.366845
_cell_angle_alpha 90.000000
_cell_angle_beta 90.000000
_cell_angle_gamma 90.000000
_cell_volume 1970.358399
_symmetry_space_group_name_H-M "I -4 "
_symmetry_group_IT_number 82
_symmetry_cell_setting 'tetragonal'
loop_
_space_group_symop_operation_xyz
x,y,z
y,-x,-z
-x,-y,z
-y,x,-z
1/2+x,1/2+y,1/2+z
1/2+y,1/2-x,1/2-z
1/2-x,1/2-y,1/2+z
1/2-y,1/2+x,1/2-z
loop_
_atom_site_type_symbol
_atom_site_label
_atom_site_fract_x
_atom_site_fract_y
_atom_site_fract_z
Si Si1 0.685933 0.451486 0.911918
Si Si2 0.000000 0.500000 0.750000
Si Si3 0.633093 0.613463 0.607079
Si Si4 0.315851 0.950935 0.812228
Si Si5 0.820463 0.341939 0.664138
Si Si6 0.000000 0.000000 0.500000
Si Si7 0.510679 0.686633 0.791329
O O1 0.500000 0.500000 0.895506
O O2 0.771242 0.274329 0.913749
O O3 0.797345 0.556970 0.877902
O O4 0.656453 0.501657 0.966431
O O5 0.895207 0.397855 0.713653
O O6 0.500000 0.500000 0.580134
O O7 0.524364 0.732507 0.638363
O O8 0.718565 0.489783 0.643573
O O9 0.347190 0.757337 0.812200
O O10 0.223372 0.984087 0.764250
O O11 0.500000 0.000000 0.805384
O O12 0.750337 0.169057 0.680936
O O13 0.500000 0.500000 0.795682
#
# Coordination Sequence:
#
# PCOD9542915 Si02
#       7
#     8   2   8   8   8   2   8
#     4  10  22  49  79 106 137 192 253 313 375 467
#     4  12  24  36  60 108 152 220 252 288 368 458
#     4  12  25  40  70 106 145 189 237 318 383 434
#     4  12  24  42  54  86 139 204 253 291 356 442
#     4  12  24  42  67  99 153 195 250 298 369 454
#     4   8  24  48  92 108 128 188 272 300 388 466
#     4  12  25  37  57  88 132 196 255 304 348 430
#
# _framework density 22.330964000000002
#
# number of rings (size 3 to 8) (size 9 to 14) (size 15 to 20)
#    0.545    0.000    3.636    5.455    5.091    0.000 
#    0.000    0.000    8.000    0.000    0.000    0.000 
#    0.000    0.000    0.000    0.000    0.000    0.000 
#
# Total GULP energy -122483.241416 kJ/mol
# GULP energy per Si atom -5567.420064 kJ/mol
# Density = 2.228014 g / cm^3
# Si number density = 22.330964 Si / 1000 Ang^3
#
#
#
# Elastic Constant Matrix: (Units=GPa)
#
#
# Indices 1 2 3 4 5 6 
#
# 1 45.3673 14.7929 21.4039 0.0000 0.0000 4.8529
# 2 14.7929 45.3673 21.4039 0.0000 0.0000 -4.8529
# 3 21.4039 21.4039 84.7278 0.0000 0.0000 0.0000
# 4 0.0000 0.0000 0.0000 9.4723 0.0000 0.0000
# 5 0.0000 0.0000 0.0000 0.0000 9.4723 0.0000
# 6 4.8529 -4.8529 0.0000 0.0000 0.0000 51.1421
#
#
#
# Elastic Compliance Matrix: (Units=1/GPa)
#
#
# Indices 1 2 3 4 5 6 
#
# 1 0.026994 -0.006729 -0.005119 0.000000 0.000000 -0.003200
# 2 -0.006729 0.026994 -0.005119 0.000000 0.000000 0.003200
# 3 -0.005119 -0.005119 0.014389 0.000000 0.000000 0.000000
# 4 0.000000 0.000000 0.000000 0.105571 0.000000 0.000000
# 5 0.000000 0.000000 0.000000 0.000000 0.105571 0.000000
# 6 -0.003200 0.003200 0.000000 0.000000 0.000000 0.020161
#
#
# Mechanical properties :
#
#
# Convention : Reuss Voigt Hill
#
# Bulk Modulus (GPa) = 29.03462 32.29601 30.66531
# Shear Modulus (GPa) = 14.48878 21.87480 18.18179
#
# Velocity S-wave (km/s) = 2.54996 3.13321 2.85651
# Velocity P-wave (km/s) = 4.65831 5.25197 4.96402
#
# Compressibility (1/GPa) = 0.03444165
#
# Stress axis : x y z
#
# Youngs Moduli (GPa) = 37.04534 37.04534 69.49758
#
# Poissons Ratio (x) = 0.24928 0.35578
# Poissons Ratio (y) = 0.24928 0.35578
# Poissons Ratio (z) = 0.18965 0.18965
#
# Static dielectric constant tensor:
#      x y z
#    x 3.653800 0.000000 0.000000 
#    y 0.000000 3.653800 0.000000 
#    z 0.000000 0.000000 1.803120 
# 
# From -- ./inp_files/3974.got.cif
#   From: 2010.05.17/outbox.cif.g08.bks.cpg/sg82_2_cif.got.tgz:3974.got - 2010.06.03 18:52:26.
