data_PCOD9542158
_publ_section_title
;
Structure prediction by ZEFSAII (Michael W. Deem and Ramdas Pophale) SiO2 
 PCOD9542158
Probable space group: I 41
;
_chemical_formula_sum "Si O2"
_cell_formula_units_Z 24
_cell_length_a 14.146226
_cell_length_b 14.146226
_cell_length_c 4.858854
_cell_angle_alpha 90.000000
_cell_angle_beta 90.000000
_cell_angle_gamma 90.000000
_cell_volume 972.333018
_symmetry_space_group_name_H-M "I 41"
_symmetry_group_IT_number 80
_symmetry_cell_setting 'tetragonal'
loop_
_space_group_symop_operation_xyz
x,y,z
-y,1/2+x,1/4+z
-x,-y,z
y,1/2-x,1/4+z
1/2+x,1/2+y,1/2+z
1/2-y,x,3/4+z
1/2-x,1/2-y,1/2+z
1/2+y,-x,3/4+z
loop_
_atom_site_type_symbol
_atom_site_label
_atom_site_fract_x
_atom_site_fract_y
_atom_site_fract_z
Si Si1 0.852242 0.852314 0.819120
Si Si2 0.030658 0.787262 0.581443
Si Si3 0.553184 0.160683 0.585262
O O1 0.741769 0.859608 0.749491
O O2 0.925365 0.830541 0.569966
O O3 0.882163 0.953745 0.942230
O O4 0.092671 0.861193 0.758555
O O5 0.072784 0.747107 0.297268
O O6 0.026836 0.698131 0.782885
#
# Coordination Sequence:
#
# PCOD9542158 Si02
#       3
#     8   8   8
#     4  10  21  40  68 100 137 178 228 294 370 440
#     4  11  24  42  66  97 135 182 231 286 350 423
#     4  11  24  42  66  97 135 182 231 286 350 423
#
# _framework density 24.682901000000001
#
# number of rings (size 3 to 8) (size 9 to 14) (size 15 to 20)
#    0.000    1.333    0.000    5.000    0.000   10.667 
#    0.000   13.333    0.000    0.000    0.000    0.000 
#    0.000    0.000    0.000    0.000    0.000    0.000 
#
# Total GULP energy -66897.922598 kJ/mol
# GULP energy per Si atom -5574.826883 kJ/mol
# Density = 2.462672 g / cm^3
# Si number density = 24.682901 Si / 1000 Ang^3
#
#
#
# Elastic Constant Matrix: (Units=GPa)
#
#
# Indices 1 2 3 4 5 6 
#
# 1 74.2377 55.2970 40.9108 0.0000 0.0000 -0.7451
# 2 55.2970 74.2377 40.9108 0.0000 0.0000 0.7451
# 3 40.9108 40.9108 128.6164 0.0000 0.0000 0.0000
# 4 0.0000 0.0000 0.0000 27.8400 0.0000 0.0000
# 5 0.0000 0.0000 0.0000 0.0000 27.8400 0.0000
# 6 -0.7451 0.7451 0.0000 0.0000 0.0000 40.7559
#
#
#
# Elastic Compliance Matrix: (Units=1/GPa)
#
#
# Indices 1 2 3 4 5 6 
#
# 1 0.031267 -0.021606 -0.003073 0.000000 0.000000 0.000967
# 2 -0.021606 0.031267 -0.003073 0.000000 0.000000 -0.000967
# 3 -0.003073 -0.003073 0.009730 0.000000 0.000000 0.000000
# 4 0.000000 0.000000 0.000000 0.035920 0.000000 0.000000
# 5 0.000000 0.000000 0.000000 0.000000 0.035920 0.000000
# 6 0.000967 -0.000967 0.000000 0.000000 0.000000 0.024572
#
#
# Mechanical properties :
#
#
# Convention : Reuss Voigt Hill
#
# Bulk Modulus (GPa) = 59.66584 61.25877 60.46231
# Shear Modulus (GPa) = 21.76145 28.61872 25.19008
#
# Velocity S-wave (km/s) = 2.97246 3.40877 3.19807
# Velocity P-wave (km/s) = 6.00051 6.35336 6.17945
#
# Compressibility (1/GPa) = 0.01676001
#
# Stress axis : x y z
#
# Youngs Moduli (GPa) = 31.98296 31.98296 102.77478
#
# Poissons Ratio (x) = 0.69101 0.31583
# Poissons Ratio (y) = 0.69101 0.31583
# Poissons Ratio (z) = 0.09828 0.09828
#
# Static dielectric constant tensor:
#      x y z
#    x 2.101160 0.000000 0.000000 
#    y 0.000000 2.101160 0.000000 
#    z 0.000000 0.000000 1.981540 
# 
# From -- ./inp_files/68.got.cif
#   From: 2010.05.17/outbox.cif.g08.bks.cpg/sg80_cif.got.tgz:68.got - 2010.06.03 18:49:13.
