data_PCOD9542940
_publ_section_title
;
Structure prediction by ZEFSAII (Michael W. Deem and Ramdas Pophale) SiO2 
 PCOD9542940
Probable space group: I -4 
;
_chemical_formula_sum "Si O2"
_cell_formula_units_Z 48
_cell_length_a 11.916415
_cell_length_b 11.916415
_cell_length_c 14.993627
_cell_angle_alpha 90.000000
_cell_angle_beta 90.000000
_cell_angle_gamma 90.000000
_cell_volume 2129.109225
_symmetry_space_group_name_H-M "I -4 "
_symmetry_group_IT_number 82
_symmetry_cell_setting 'tetragonal'
loop_
_space_group_symop_operation_xyz
x,y,z
y,-x,-z
-x,-y,z
-y,x,-z
1/2+x,1/2+y,1/2+z
1/2+y,1/2-x,1/2-z
1/2-x,1/2-y,1/2+z
1/2-y,1/2+x,1/2-z
loop_
_atom_site_type_symbol
_atom_site_label
_atom_site_fract_x
_atom_site_fract_y
_atom_site_fract_z
Si Si1 0.601559 0.144231 0.108500
Si Si2 0.075692 0.256692 0.743722
Si Si3 0.803273 0.761085 0.152508
Si Si4 0.116948 0.033661 0.844254
Si Si5 0.382130 0.027223 0.587269
Si Si6 0.192513 0.720172 0.045233
O O1 0.666483 0.053527 0.169479
O O2 0.499799 0.199711 0.162855
O O3 0.689097 0.240911 0.083955
O O4 0.573802 0.093713 0.012310
O O5 0.205019 0.281975 0.721522
O O6 0.076536 0.124943 0.769811
O O7 0.820993 0.627312 0.139086
O O8 0.918759 0.819985 0.181277
O O9 0.757101 0.807069 0.057969
O O10 0.204987 0.098582 0.906198
O O11 0.000000 0.000000 0.890392
O O12 0.500000 0.000000 0.632858
O O13 0.321518 0.909922 0.568593
#
# Coordination Sequence:
#
# PCOD9542940 Si02
#       6
#     8   8   8   8   8   8
#     4  10  24  41  66  97 129 170 219 272 328 389
#     4  11  24  43  65  95 135 171 217 271 325 394
#     4  11  24  41  68  97 130 175 220 264 326 392
#     4  11  25  41  64  98 132 174 212 274 334 386
#     4  11  22  42  70  96 129 172 217 273 322 384
#     4  10  23  44  67  96 132 167 224 270 324 392
#
# _framework density 22.544640999999999
#
# number of rings (size 3 to 8) (size 9 to 14) (size 15 to 20)
#    0.000    1.333    3.333    1.000    4.667    5.333 
#    0.000    0.000    0.000    0.000    0.000    0.000 
#    0.000    0.000    0.000    0.000    0.000    0.000 
#
# Total GULP energy -134170.347301 kJ/mol
# GULP energy per Si atom -5590.431138 kJ/mol
# Density = 2.249333 g / cm^3
# Si number density = 22.544641 Si / 1000 Ang^3
#
#
#
# Elastic Constant Matrix: (Units=GPa)
#
#
# Indices 1 2 3 4 5 6 
#
# 1 120.2348 11.7265 -3.4488 0.0000 0.0000 1.0027
# 2 11.7265 120.2348 -3.4488 0.0000 0.0000 -1.0027
# 3 -3.4488 -3.4488 40.0856 0.0000 0.0000 0.0000
# 4 0.0000 0.0000 0.0000 17.9561 0.0000 0.0000
# 5 0.0000 0.0000 0.0000 0.0000 17.9561 0.0000
# 6 1.0027 -1.0027 0.0000 0.0000 0.0000 21.0707
#
#
#
# Elastic Compliance Matrix: (Units=1/GPa)
#
#
# Indices 1 2 3 4 5 6 
#
# 1 0.008418 -0.000806 0.000655 0.000000 0.000000 -0.000439
# 2 -0.000806 0.008418 0.000655 0.000000 0.000000 0.000439
# 3 0.000655 0.000655 0.025059 0.000000 0.000000 0.000000
# 4 0.000000 0.000000 0.000000 0.055691 0.000000 0.000000
# 5 0.000000 0.000000 0.000000 0.000000 0.055691 0.000000
# 6 -0.000439 0.000439 0.000000 0.000000 0.000000 0.047501
#
#
# Mechanical properties :
#
#
# Convention : Reuss Voigt Hill
#
# Bulk Modulus (GPa) = 23.30816 32.24588 27.77702
# Shear Modulus (GPa) = 23.35658 29.77834 26.56746
#
# Velocity S-wave (km/s) = 3.22221 3.63831 3.43656
# Velocity P-wave (km/s) = 4.91982 5.65543 5.30040
#
# Compressibility (1/GPa) = 0.04290342
#
# Stress axis : x y z
#
# Youngs Moduli (GPa) = 118.79158 118.79156 39.90534
#
# Poissons Ratio (x) = 0.09573 -0.02613
# Poissons Ratio (y) = 0.09573 -0.02613
# Poissons Ratio (z) = -0.07780 -0.07780
#
# Static dielectric constant tensor:
#      x y z
#    x 1.935910 0.000000 0.000000 
#    y 0.000000 1.935910 0.000000 
#    z 0.000000 0.000000 1.854310 
# 
# From -- ./inp_files/2623.got.cif
#   From: 2010.05.17/outbox.cif.g08.bks.cpg/sg82_2_cif.got.tgz:2623.got - 2010.06.03 18:52:26.
