data_PCOD9542732
_publ_section_title
;
Structure prediction by ZEFSAII (Michael W. Deem and Ramdas Pophale) SiO2 
 PCOD9542732
Probable space group: I -4 
;
_chemical_formula_sum "Si O2"
_cell_formula_units_Z 44
_cell_length_a 15.480330
_cell_length_b 15.480330
_cell_length_c 7.042332
_cell_angle_alpha 90.000000
_cell_angle_beta 90.000000
_cell_angle_gamma 90.000000
_cell_volume 1687.628785
_symmetry_space_group_name_H-M "I -4 "
_symmetry_group_IT_number 82
_symmetry_cell_setting 'tetragonal'
loop_
_space_group_symop_operation_xyz
x,y,z
y,-x,-z
-x,-y,z
-y,x,-z
1/2+x,1/2+y,1/2+z
1/2+y,1/2-x,1/2-z
1/2-x,1/2-y,1/2+z
1/2-y,1/2+x,1/2-z
loop_
_atom_site_type_symbol
_atom_site_label
_atom_site_fract_x
_atom_site_fract_y
_atom_site_fract_z
Si Si1 0.500000 0.000000 0.750000
Si Si2 0.676380 0.211262 0.764436
Si Si3 0.638434 0.406739 0.778894
Si Si4 0.290875 0.430511 0.937434
Si Si5 0.435550 0.153222 0.486601
Si Si6 0.000000 0.000000 0.000000
Si Si7 0.818392 0.623818 0.635431
O O1 0.543382 0.928958 0.617043
O O2 0.688169 0.315620 0.739177
O O3 0.711240 0.134134 0.898584
O O4 0.680557 0.176599 0.551408
O O5 0.585795 0.225570 0.887884
O O6 0.706713 0.477640 0.842091
O O7 0.571407 0.446359 0.625412
O O8 0.586783 0.382531 0.970060
O O9 0.263749 0.362345 0.774243
O O10 0.529268 0.193675 0.455705
O O11 0.396779 0.124477 0.283161
#
# Coordination Sequence:
#
# PCOD9542732 Si02
#       7
#     2   8   8   8   8   2   8
#     4  12  20  38  64  96 114 156 212 270 320 356
#     4   9  22  37  58  88 131 156 198 261 306 365
#     4  10  20  38  60  96 123 160 203 261 305 366
#     4   9  21  37  61  88 125 161 203 254 306 368
#     4  11  22  36  63  89 124 156 209 261 310 370
#     4  12  20  30  72 100 118 168 204 258 320 360
#     4  11  21  40  60  92 120 170 199 256 317 366
#
# _framework density 26.072082999999999
#
# number of rings (size 3 to 8) (size 9 to 14) (size 15 to 20)
#    1.091    0.727    1.818    3.273    0.000    0.000 
#    0.000    0.000    8.000    0.000    0.000    0.000 
#    0.000    0.000    0.000    0.000    0.000    0.000 
#
# Total GULP energy -122621.734499 kJ/mol
# GULP energy per Si atom -5573.715205 kJ/mol
# Density = 2.601274 g / cm^3
# Si number density = 26.072083 Si / 1000 Ang^3
#
#
#
# Elastic Constant Matrix: (Units=GPa)
#
#
# Indices 1 2 3 4 5 6 
#
# 1 74.1380 11.0258 35.3472 0.0000 0.0000 2.0490
# 2 11.0258 74.1380 35.3472 0.0000 0.0000 -2.0490
# 3 35.3472 35.3472 166.3261 0.0000 0.0000 0.0000
# 4 0.0000 0.0000 0.0000 51.7988 0.0000 0.0000
# 5 0.0000 0.0000 0.0000 0.0000 51.7988 0.0000
# 6 2.0490 -2.0490 0.0000 0.0000 0.0000 26.8881
#
#
#
# Elastic Compliance Matrix: (Units=1/GPa)
#
#
# Indices 1 2 3 4 5 6 
#
# 1 0.015090 -0.000833 -0.003030 0.000000 0.000000 -0.001213
# 2 -0.000833 0.015090 -0.003030 0.000000 0.000000 0.001213
# 3 -0.003030 -0.003030 0.007300 0.000000 0.000000 0.000000
# 4 0.000000 0.000000 0.000000 0.019305 0.000000 0.000000
# 5 0.000000 0.000000 0.000000 0.000000 0.019305 0.000000
# 6 -0.001213 0.001213 0.000000 0.000000 0.000000 0.037376
#
#
# Mechanical properties :
#
#
# Convention : Reuss Voigt Hill
#
# Bulk Modulus (GPa) = 42.20323 53.11586 47.65954
# Shear Modulus (GPa) = 36.99530 41.62259 39.30895
#
# Velocity S-wave (km/s) = 3.77100 3.99989 3.88713
# Velocity P-wave (km/s) = 5.93151 6.46135 6.20209
#
# Compressibility (1/GPa) = 0.02369487
#
# Stress axis : x y z
#
# Youngs Moduli (GPa) = 66.26734 66.26734 136.98434
#
# Poissons Ratio (x) = 0.05521 0.41505
# Poissons Ratio (y) = 0.05521 0.41505
# Poissons Ratio (z) = 0.20078 0.20078
#
# Static dielectric constant tensor:
#      x y z
#    x 2.169760 0.000000 0.000000 
#    y 0.000000 2.169760 0.000000 
#    z 0.000000 0.000000 2.022900 
# 
# From -- ./inp_files/332.got.cif
#   From: 2010.05.17/outbox.cif.g08.bks.cpg/sg82_1_cif.got.tgz:332.got - 2010.06.03 18:52:26.
