data_PCOD9542009
_publ_section_title
;
Structure prediction by ZEFSAII (Michael W. Deem and Ramdas Pophale) SiO2 
 PCOD9542009
Probable space group: I 4
;
_chemical_formula_sum "Si O2"
_cell_formula_units_Z 50
_cell_length_a 8.417933
_cell_length_b 8.417933
_cell_length_c 30.504523
_cell_angle_alpha 90.000000
_cell_angle_beta 90.000000
_cell_angle_gamma 90.000000
_cell_volume 2161.599185
_symmetry_space_group_name_H-M "I 4"
_symmetry_group_IT_number 79
_symmetry_cell_setting 'tetragonal'
loop_
_space_group_symop_operation_xyz
x,y,z
-y,x,z
-x,-y,z
y,-x,z
1/2+x,1/2+y,1/2+z
1/2-y,1/2+x,1/2+z
1/2-x,1/2-y,1/2+z
1/2+y,1/2-x,1/2+z
loop_
_atom_site_type_symbol
_atom_site_label
_atom_site_fract_x
_atom_site_fract_y
_atom_site_fract_z
Si Si1 0.657780 0.718477 0.996900
Si Si2 0.244599 0.572794 0.158294
Si Si3 0.258027 0.396804 0.581324
Si Si4 0.744883 0.585761 0.731612
Si Si5 0.195247 0.183772 0.398740
Si Si6 0.000000 0.000000 0.796312
Si Si7 0.593512 0.837133 0.319672
O O1 0.465826 0.711815 0.002442
O O2 0.720283 0.750564 0.947650
O O3 0.715652 0.846137 0.031909
O O4 0.312374 0.397578 0.159026
O O5 0.154791 0.619751 0.114053
O O6 0.142615 0.613896 0.200773
O O7 0.420637 0.299913 0.589517
O O8 0.592601 0.693843 0.721518
O O9 0.785063 0.604550 0.782488
O O10 0.317197 0.238796 0.361838
O O11 0.007230 0.212739 0.394107
O O12 0.009461 0.803247 0.797807
O O13 0.500000 0.000000 0.331723
#
# Coordination Sequence:
#
# PCOD9542009 Si02
#       7
#     8   8   8   8   8   2   8
#     4   9  19  38  66  95 128 169 224 279 337 412
#     4  11  26  43  68  97 130 171 224 286 350 423
#     4  11  24  43  62  92 133 173 219 280 347 423
#     4  11  25  43  67 100 135 180 230 285 348 424
#     4   9  18  39  67  96 133 182 233 287 349 428
#     4  12  28  44  68 104 136 180 240 296 340 432
#     4  12  26  45  69 100 143 191 233 298 362 425
#
# _framework density 23.131021
#
# number of rings (size 3 to 8) (size 9 to 14) (size 15 to 20)
#    0.000    1.440    0.000    5.760    4.480    7.680 
#    8.640    0.000    0.000    0.000    0.000    0.000 
#    0.000    0.000    0.000    0.000    0.000    0.000 
#
# Total GULP energy -139554.733024 kJ/mol
# GULP energy per Si atom -5582.189321 kJ/mol
# Density = 2.307837 g / cm^3
# Si number density = 23.131021 Si / 1000 Ang^3
#
#
#
# Elastic Constant Matrix: (Units=GPa)
#
#
# Indices 1 2 3 4 5 6 
#
# 1 45.8345 31.1834 13.4071 0.0000 0.0000 -2.3305
# 2 31.1834 45.8345 13.4071 0.0000 0.0000 2.3305
# 3 13.4071 13.4071 93.1571 0.0000 0.0000 0.0000
# 4 0.0000 0.0000 0.0000 21.0900 0.0000 0.0000
# 5 0.0000 0.0000 0.0000 0.0000 21.0900 0.0000
# 6 -2.3305 2.3305 0.0000 0.0000 0.0000 28.1743
#
#
#
# Elastic Compliance Matrix: (Units=1/GPa)
#
#
# Indices 1 2 3 4 5 6 
#
# 1 0.041884 -0.028215 -0.001967 0.000000 0.000000 0.005798
# 2 -0.028215 0.041884 -0.001967 0.000000 0.000000 -0.005798
# 3 -0.001967 -0.001967 0.011301 0.000000 0.000000 0.000000
# 4 0.000000 0.000000 0.000000 0.047416 0.000000 0.000000
# 5 0.000000 0.000000 0.000000 0.000000 0.047416 0.000000
# 6 0.005798 -0.005798 0.000000 0.000000 0.000000 0.036453
#
#
# Mechanical properties :
#
#
# Convention : Reuss Voigt Hill
#
# Bulk Modulus (GPa) = 32.49946 33.42456 32.96201
# Shear Modulus (GPa) = 16.61635 22.52609 19.57122
#
# Velocity S-wave (km/s) = 2.68313 3.12404 2.91194
# Velocity P-wave (km/s) = 4.86616 5.24350 5.05835
#
# Compressibility (1/GPa) = 0.03076974
#
# Stress axis : x y z
#
# Youngs Moduli (GPa) = 23.87549 23.87549 88.48934
#
# Poissons Ratio (x) = 0.67365 0.17408
# Poissons Ratio (y) = 0.67365 0.17408
# Poissons Ratio (z) = 0.04697 0.04697
#
# Static dielectric constant tensor:
#      x y z
#    x 1.865030 0.000000 0.000000 
#    y 0.000000 1.865030 0.000000 
#    z 0.000000 0.000000 1.878220 
# 
# From -- ./inp_files/2139.got.cif
#   From: 2010.05.17/outbox.cif.g08.bks.cpg/sg79_cif.got.tgz:2139.got - 2010.06.03 18:47:27.
