data_PCOD9542207
_publ_section_title
;
Structure prediction by ZEFSAII (Michael W. Deem and Ramdas Pophale) SiO2 
 PCOD9542207
Probable space group: I 41
;
_chemical_formula_sum "Si O2"
_cell_formula_units_Z 40
_cell_length_a 12.497553
_cell_length_b 12.497553
_cell_length_c 9.169486
_cell_angle_alpha 90.000000
_cell_angle_beta 90.000000
_cell_angle_gamma 90.000000
_cell_volume 1432.171299
_symmetry_space_group_name_H-M "I 41"
_symmetry_group_IT_number 80
_symmetry_cell_setting 'tetragonal'
loop_
_space_group_symop_operation_xyz
x,y,z
-y,1/2+x,1/4+z
-x,-y,z
y,1/2-x,1/4+z
1/2+x,1/2+y,1/2+z
1/2-y,x,3/4+z
1/2-x,1/2-y,1/2+z
1/2+y,-x,3/4+z
loop_
_atom_site_type_symbol
_atom_site_label
_atom_site_fract_x
_atom_site_fract_y
_atom_site_fract_z
Si Si1 0.367349 0.415928 0.108800
Si Si2 0.393339 0.646604 0.102646
Si Si3 0.143651 0.932072 0.167768
Si Si4 0.836936 0.701247 0.433580
Si Si5 0.050197 0.718226 0.106196
O O1 0.369772 0.531281 0.026507
O O2 0.485672 0.377893 0.158336
O O3 0.297949 0.449544 0.248891
O O4 0.331967 0.319964 0.007987
O O5 0.315782 0.646134 0.243220
O O6 0.393327 0.745140 0.993576
O O7 0.063734 0.833019 0.181607
O O8 0.137637 0.054473 0.219376
O O9 0.140507 0.942353 0.992131
O O10 0.734980 0.652631 0.514875
#
# Coordination Sequence:
#
# PCOD9542207 Si02
#       5
#     8   8   8   8   8
#     4   8  19  45  72  99 140 215 263 311 392 504
#     4   8  19  42  68 100 155 202 257 310 408 472
#     4  11  25  40  69 117 153 198 262 328 400 485
#     4  11  27  48  77 101 148 210 274 339 405 493
#     4  10  23  39  70 107 160 197 253 324 399 483
#
# _framework density 27.929621999999998
#
# number of rings (size 3 to 8) (size 9 to 14) (size 15 to 20)
#    1.200    1.200    0.000    0.000    8.400    3.200 
#    0.000    4.000    0.000    0.000    0.000    0.000 
#    0.000    0.000    0.000    0.000    0.000    0.000 
#
# Total GULP energy -111683.596409 kJ/mol
# GULP energy per Si atom -5584.179820 kJ/mol
# Density = 2.786605 g / cm^3
# Si number density = 27.929622 Si / 1000 Ang^3
#
#
#
# Elastic Constant Matrix: (Units=GPa)
#
#
# Indices 1 2 3 4 5 6 
#
# 1 87.8762 47.9248 31.9314 0.0000 0.0000 -21.1386
# 2 47.9248 87.8762 31.9314 0.0000 0.0000 21.1386
# 3 31.9314 31.9314 144.5211 0.0000 0.0000 0.0000
# 4 0.0000 0.0000 0.0000 42.4132 0.0000 0.0000
# 5 0.0000 0.0000 0.0000 0.0000 42.4132 0.0000
# 6 -21.1386 21.1386 0.0000 0.0000 0.0000 43.2471
#
#
#
# Elastic Compliance Matrix: (Units=1/GPa)
#
#
# Indices 1 2 3 4 5 6 
#
# 1 0.030033 -0.021816 -0.001816 0.000000 0.000000 0.025343
# 2 -0.021816 0.030033 -0.001816 0.000000 0.000000 -0.025343
# 3 -0.001816 -0.001816 0.007722 0.000000 0.000000 0.000000
# 4 0.000000 0.000000 0.000000 0.023578 0.000000 0.000000
# 5 0.000000 0.000000 0.000000 0.000000 0.023578 0.000000
# 6 0.025343 -0.025343 0.000000 0.000000 0.000000 0.047898
#
#
# Mechanical properties :
#
#
# Convention : Reuss Voigt Hill
#
# Bulk Modulus (GPa) = 59.19164 60.42761 59.80962
# Shear Modulus (GPa) = 22.79289 39.51376 31.15333
#
# Velocity S-wave (km/s) = 2.85982 3.76541 3.34342
# Velocity P-wave (km/s) = 5.66956 6.37080 6.03038
#
# Compressibility (1/GPa) = 0.01689428
#
# Stress axis : x y z
#
# Youngs Moduli (GPa) = 33.29639 33.29639 129.50481
#
# Poissons Ratio (x) = 0.72639 0.23513
# Poissons Ratio (y) = 0.72639 0.23513
# Poissons Ratio (z) = 0.06045 0.06045
#
# Static dielectric constant tensor:
#      x y z
#    x 2.282680 0.000000 0.000000 
#    y 0.000000 2.282680 0.000000 
#    z 0.000000 0.000000 2.176790 
# 
# From -- ./inp_files/609.got.cif
#   From: 2010.05.17/outbox.cif.g08.bks.cpg/sg80_cif.got.tgz:609.got - 2010.06.03 18:49:13.
