data_PCOD9542234
_publ_section_title
;
Structure prediction by ZEFSAII (Michael W. Deem and Ramdas Pophale) SiO2 
 PCOD9542234
Probable space group: I 41
;
_chemical_formula_sum "Si O2"
_cell_formula_units_Z 40
_cell_length_a 8.975659
_cell_length_b 8.975659
_cell_length_c 25.631755
_cell_angle_alpha 90.000000
_cell_angle_beta 90.000000
_cell_angle_gamma 90.000000
_cell_volume 2064.957096
_symmetry_space_group_name_H-M "I 41"
_symmetry_group_IT_number 80
_symmetry_cell_setting 'tetragonal'
loop_
_space_group_symop_operation_xyz
x,y,z
-y,1/2+x,1/4+z
-x,-y,z
y,1/2-x,1/4+z
1/2+x,1/2+y,1/2+z
1/2-y,x,3/4+z
1/2-x,1/2-y,1/2+z
1/2+y,-x,3/4+z
loop_
_atom_site_type_symbol
_atom_site_label
_atom_site_fract_x
_atom_site_fract_y
_atom_site_fract_z
Si Si1 0.660572 0.678697 0.571130
Si Si2 0.000000 0.000000 0.153919
Si Si3 0.500000 0.500000 0.214152
Si Si4 0.160572 0.678697 0.046941
Si Si5 0.663730 0.541226 0.112843
Si Si6 0.663730 0.041226 0.005229
O O1 0.630534 0.559008 0.616923
O O2 0.500000 0.750000 0.559036
O O3 0.771218 0.806383 0.590671
O O4 0.725879 0.590303 0.522050
O O5 0.047796 0.868326 0.193356
O O6 0.440992 0.630534 0.251149
O O7 0.631674 0.547796 0.174715
O O8 0.225879 0.590303 0.096022
O O9 0.271218 0.806383 0.027401
O O10 0.500000 0.500000 0.090407
O O11 0.500000 0.000000 0.027665
#
# Coordination Sequence:
#
# PCOD9542234 Si02
#       6
#     8   4   4   8   8   8
#     4  12  22  46  66  97 139 176 231 290 339 415
#     4  10  26  38  68 103 131 180 228 278 358 400
#     4  10  26  38  68 103 131 180 228 278 358 400
#     4  12  22  46  66  97 139 176 231 290 339 415
#     4  10  25  42  68  96 133 179 230 275 352 410
#     4  10  25  42  68  96 133 179 230 275 352 410
#
# _framework density 19.370861000000001
#
# number of rings (size 3 to 8) (size 9 to 14) (size 15 to 20)
#    1.200    0.000    4.000    1.200    5.600    0.000 
#    0.000    0.000    0.000    0.000    0.000    0.000 
#    0.000    0.000    0.000    0.000    0.000    0.000 
#
# Total GULP energy -111542.405108 kJ/mol
# GULP energy per Si atom -5577.120255 kJ/mol
# Density = 1.932677 g / cm^3
# Si number density = 19.370861 Si / 1000 Ang^3
#
#
#
# Elastic Constant Matrix: (Units=GPa)
#
#
# Indices 1 2 3 4 5 6 
#
# 1 107.1125 49.3804 39.9482 0.0000 0.0000 -6.9895
# 2 49.3804 107.1125 39.9482 0.0000 0.0000 6.9895
# 3 39.9482 39.9482 91.6880 0.0000 0.0000 0.0000
# 4 0.0000 0.0000 0.0000 40.4224 0.0000 0.0000
# 5 0.0000 0.0000 0.0000 0.0000 40.4224 0.0000
# 6 -6.9895 6.9895 0.0000 0.0000 0.0000 55.2259
#
#
#
# Elastic Compliance Matrix: (Units=1/GPa)
#
#
# Indices 1 2 3 4 5 6 
#
# 1 0.013044 -0.004825 -0.003581 0.000000 0.000000 0.002262
# 2 -0.004825 0.013044 -0.003581 0.000000 0.000000 -0.002262
# 3 -0.003581 -0.003581 0.014027 0.000000 0.000000 0.000000
# 4 0.000000 0.000000 0.000000 0.024739 0.000000 0.000000
# 5 0.000000 0.000000 0.000000 0.000000 0.024739 0.000000
# 6 0.002262 -0.002262 0.000000 0.000000 0.000000 0.018680
#
#
# Mechanical properties :
#
#
# Convention : Reuss Voigt Hill
#
# Bulk Modulus (GPa) = 61.95604 62.71851 62.33727
# Shear Modulus (GPa) = 36.33070 38.98989 37.66030
#
# Velocity S-wave (km/s) = 4.33544 4.49130 4.41406
# Velocity P-wave (km/s) = 7.55745 7.70349 7.63082
#
# Compressibility (1/GPa) = 0.01614048
#
# Stress axis : x y z
#
# Youngs Moduli (GPa) = 76.66627 76.66627 71.29273
#
# Poissons Ratio (x) = 0.36995 0.25527
# Poissons Ratio (y) = 0.36995 0.25527
# Poissons Ratio (z) = 0.27451 0.27451
#
# Static dielectric constant tensor:
#      x y z
#    x 1.676270 0.000000 0.000000 
#    y 0.000000 1.676270 0.000000 
#    z 0.000000 0.000000 1.678860 
# 
# From -- ./inp_files/2321.got.cif
#   From: 2010.05.17/outbox.cif.g08.bks.cpg/sg80_cif.got.tgz:2321.got - 2010.06.03 18:49:13.
