data_PCOD9542685
_publ_section_title
;
Structure prediction by ZEFSAII (Michael W. Deem and Ramdas Pophale) SiO2 
 PCOD9542685
Probable space group: I -4 
;
_chemical_formula_sum "Si O2"
_cell_formula_units_Z 38
_cell_length_a 8.982939
_cell_length_b 8.982939
_cell_length_c 23.730376
_cell_angle_alpha 90.000000
_cell_angle_beta 90.000000
_cell_angle_gamma 90.000000
_cell_volume 1914.879812
_symmetry_space_group_name_H-M "I -4 "
_symmetry_group_IT_number 82
_symmetry_cell_setting 'tetragonal'
loop_
_space_group_symop_operation_xyz
x,y,z
y,-x,-z
-x,-y,z
-y,x,-z
1/2+x,1/2+y,1/2+z
1/2+y,1/2-x,1/2-z
1/2-x,1/2-y,1/2+z
1/2-y,1/2+x,1/2-z
loop_
_atom_site_type_symbol
_atom_site_label
_atom_site_fract_x
_atom_site_fract_y
_atom_site_fract_z
Si Si1 0.172228 0.484828 0.124904
Si Si2 0.000000 0.000000 0.832621
Si Si3 0.652966 0.298517 0.418514
Si Si4 0.418083 0.262715 0.994790
Si Si5 0.256172 0.996802 0.742109
Si Si6 0.000000 0.000000 0.000000
O O1 0.199652 0.313389 0.109963
O O2 0.280738 0.529358 0.176184
O O3 0.000000 0.500000 0.142984
O O4 0.193721 0.577590 0.067625
O O5 0.966531 0.145378 0.871774
O O6 0.864272 0.979510 0.789938
O O7 0.654984 0.149412 0.456891
O O8 0.632124 0.431138 0.463533
O O9 0.317622 0.413110 0.993203
O O10 0.356760 0.857488 0.759024
#
# Coordination Sequence:
#
# PCOD9542685 Si02
#       6
#     8   4   8   8   8   2
#     4  11  19  35  61  86 119 158 207 259 298 376
#     4  11  22  37  62  92 123 168 211 262 306 367
#     4  10  20  35  56  87 121 157 200 256 312 370
#     4   9  20  36  58  90 127 158 199 249 321 379
#     4  11  21  39  61  91 117 160 217 253 302 368
#     4  10  20  32  52  84 116 148 202 244 310 374
#
# _framework density 19.844586
#
# number of rings (size 3 to 8) (size 9 to 14) (size 15 to 20)
#    0.000    1.684    4.211    1.263    0.000    5.053 
#    0.000    0.000    0.000    5.684    0.000    0.000 
#    0.000    0.000    0.000    0.000    0.000    0.000 
#
# Total GULP energy -105828.524758 kJ/mol
# GULP energy per Si atom -5569.922356 kJ/mol
# Density = 1.979942 g / cm^3
# Si number density = 19.844586 Si / 1000 Ang^3
#
#
#
# Elastic Constant Matrix: (Units=GPa)
#
#
# Indices 1 2 3 4 5 6 
#
# 1 54.8053 27.3317 45.0983 0.0000 0.0000 -2.8392
# 2 27.3317 54.8053 45.0983 0.0000 0.0000 2.8392
# 3 45.0983 45.0983 163.5343 0.0000 0.0000 0.0000
# 4 0.0000 0.0000 0.0000 32.8443 0.0000 0.0000
# 5 0.0000 0.0000 0.0000 0.0000 32.8443 0.0000
# 6 -2.8392 2.8392 0.0000 0.0000 0.0000 17.0099
#
#
#
# Elastic Compliance Matrix: (Units=1/GPa)
#
#
# Indices 1 2 3 4 5 6 
#
# 1 0.027581 -0.010118 -0.004816 0.000000 0.000000 0.006292
# 2 -0.010118 0.027581 -0.004816 0.000000 0.000000 -0.006292
# 3 -0.004816 -0.004816 0.008771 0.000000 0.000000 0.000000
# 4 0.000000 0.000000 0.000000 0.030447 0.000000 0.000000
# 5 0.000000 0.000000 0.000000 0.000000 0.030447 0.000000
# 6 0.006292 -0.006292 0.000000 0.000000 0.000000 0.060890
#
#
# Mechanical properties :
#
#
# Convention : Reuss Voigt Hill
#
# Bulk Modulus (GPa) = 40.92654 56.46684 48.69669
# Shear Modulus (GPa) = 21.42606 26.91413 24.17009
#
# Velocity S-wave (km/s) = 3.28943 3.68672 3.49373
# Velocity P-wave (km/s) = 5.92414 6.82926 6.39274
#
# Compressibility (1/GPa) = 0.02443402
#
# Stress axis : x y z
#
# Youngs Moduli (GPa) = 36.25667 36.25667 114.01070
#
# Poissons Ratio (x) = 0.36684 0.54906
# Poissons Ratio (y) = 0.36684 0.54906
# Poissons Ratio (z) = 0.17461 0.17461
#
# Static dielectric constant tensor:
#      x y z
#    x 1.712460 0.000000 0.000000 
#    y 0.000000 1.712460 0.000000 
#    z 0.000000 0.000000 1.784260 
# 
# From -- ./inp_files/3376.got.cif
#   From: 2010.05.17/outbox.cif.g08.bks.cpg/sg82_2_cif.got.tgz:3376.got - 2010.06.03 18:52:26.
