data_PCOD9542208
_publ_section_title
;
Structure prediction by ZEFSAII (Michael W. Deem and Ramdas Pophale) SiO2 
 PCOD9542208
Probable space group: I 41
;
_chemical_formula_sum "Si O2"
_cell_formula_units_Z 48
_cell_length_a 15.264158
_cell_length_b 15.264158
_cell_length_c 9.505925
_cell_angle_alpha 90.000000
_cell_angle_beta 90.000000
_cell_angle_gamma 90.000000
_cell_volume 2214.828427
_symmetry_space_group_name_H-M "I 41"
_symmetry_group_IT_number 80
_symmetry_cell_setting 'tetragonal'
loop_
_space_group_symop_operation_xyz
x,y,z
-y,1/2+x,1/4+z
-x,-y,z
y,1/2-x,1/4+z
1/2+x,1/2+y,1/2+z
1/2-y,x,3/4+z
1/2-x,1/2-y,1/2+z
1/2+y,-x,3/4+z
loop_
_atom_site_type_symbol
_atom_site_label
_atom_site_fract_x
_atom_site_fract_y
_atom_site_fract_z
Si Si1 0.308781 0.980074 0.003890
Si Si2 0.000025 0.357847 0.816880
Si Si3 0.674003 0.305931 0.953467
Si Si4 0.500000 0.000000 0.096014
Si Si5 0.332380 0.237201 0.834632
Si Si6 0.500000 0.500000 0.310285
Si Si7 0.316784 0.040997 0.706936
O O1 0.272817 0.907070 0.109036
O O2 0.414962 0.972630 0.008698
O O3 0.273887 0.071037 0.065327
O O4 0.286306 0.980742 0.838826
O O5 0.902304 0.344472 0.760809
O O6 0.036919 0.422415 0.696420
O O7 0.040679 0.262656 0.845309
O O8 0.999876 0.415059 0.958882
O O9 0.750586 0.307996 0.840830
O O10 0.299058 0.229907 0.992460
O O11 0.328711 0.139166 0.768101
O O12 0.492671 0.409483 0.397100
#
# Coordination Sequence:
#
# PCOD9542208 Si02
#       7
#     8   8   8   4   8   4   8
#     4  10  23  42  64  96 136 174 229 283 346 425
#     4  10  23  42  64  96 133 174 232 280 341 421
#     4  11  26  45  68  99 131 183 236 293 357 415
#     4   9  21  42  64  92 129 183 222 272 341 409
#     4  10  23  41  62  99 132 176 225 278 354 417
#     4  11  21  40  68  96 135 183 226 288 355 423
#     4  11  23  40  66  97 136 176 229 288 356 418
#
# _framework density 21.672105999999999
#
# number of rings (size 3 to 8) (size 9 to 14) (size 15 to 20)
#    0.000    1.667    0.000    3.500    4.667    8.000 
#    3.000    0.000    0.000    0.000    0.000    0.000 
#    0.000    0.000    0.000    0.000    0.000    0.000 
#
# Total GULP energy -134094.873999 kJ/mol
# GULP energy per Si atom -5587.286417 kJ/mol
# Density = 2.162278 g / cm^3
# Si number density = 21.672106 Si / 1000 Ang^3
#
#
#
# Elastic Constant Matrix: (Units=GPa)
#
#
# Indices 1 2 3 4 5 6 
#
# 1 68.0188 -3.4907 5.0669 0.0000 0.0000 4.9919
# 2 -3.4907 68.0188 5.0669 0.0000 0.0000 -4.9919
# 3 5.0669 5.0669 46.3575 0.0000 0.0000 0.0000
# 4 0.0000 0.0000 0.0000 288.6640 0.0000 0.0000
# 5 0.0000 0.0000 0.0000 0.0000 288.6640 0.0000
# 6 4.9919 -4.9919 0.0000 0.0000 0.0000 27.7038
#
#
#
# Elastic Compliance Matrix: (Units=1/GPa)
#
#
# Indices 1 2 3 4 5 6 
#
# 1 0.015056 0.000711 -0.001723 0.000000 0.000000 -0.002585
# 2 0.000711 0.015056 -0.001723 0.000000 0.000000 0.002585
# 3 -0.001723 -0.001723 0.021948 0.000000 0.000000 0.000000
# 4 0.000000 0.000000 0.000000 0.003464 0.000000 0.000000
# 5 0.000000 0.000000 0.000000 0.000000 0.003464 0.000000
# 6 -0.002585 0.002585 0.000000 0.000000 0.000000 0.037028
#
#
# Mechanical properties :
#
#
# Convention : Reuss Voigt Hill
#
# Bulk Modulus (GPa) = 21.46379 21.74236 21.60307
# Shear Modulus (GPa) = 42.72844 132.72316 87.72580
#
# Velocity S-wave (km/s) = 4.44507 7.83418 6.36919
# Velocity P-wave (km/s) = 6.02248 9.58576 8.00491
#
# Compressibility (1/GPa) = 0.04659011
#
# Stress axis : x y z
#
# Youngs Moduli (GPa) = 66.41691 66.41691 45.56177
#
# Poissons Ratio (x) = -0.04725 0.07852
# Poissons Ratio (y) = -0.04725 0.07852
# Poissons Ratio (z) = 0.11446 0.11446
#
# Static dielectric constant tensor:
#      x y z
#    x 1.553660 0.000000 0.000000 
#    y 0.000000 1.553660 0.000000 
#    z 0.000000 0.000000 1.777090 
# 
# From -- ./inp_files/1038.got.cif
#   From: 2010.05.17/outbox.cif.g08.bks.cpg/sg80_cif.got.tgz:1038.got - 2010.06.03 18:49:13.
