data_PCOD9542446
_publ_section_title
;
Structure prediction by ZEFSAII (Michael W. Deem and Ramdas Pophale) SiO2 
 PCOD9542446
Probable space group: P -4
;
_chemical_formula_sum "Si O2"
_cell_formula_units_Z 18
_cell_length_a 11.838638
_cell_length_b 11.838638
_cell_length_c 5.981265
_cell_angle_alpha 90.000000
_cell_angle_beta 90.000000
_cell_angle_gamma 90.000000
_cell_volume 838.294325
_symmetry_space_group_name_H-M "P -4"
_symmetry_group_IT_number 81
_symmetry_cell_setting 'tetragonal'
loop_
_space_group_symop_operation_xyz
x,y,z
y,-x,-z
-x,-y,z
-y,x,-z
loop_
_atom_site_type_symbol
_atom_site_label
_atom_site_fract_x
_atom_site_fract_y
_atom_site_fract_z
Si Si1 0.187509 0.607866 0.573700
Si Si2 0.304718 0.017728 0.060023
Si Si3 0.000000 0.500000 0.284549
Si Si4 0.390213 0.366498 0.073219
Si Si5 0.785417 0.212626 0.193961
O O1 0.102860 0.631077 0.777397
O O2 0.114957 0.521806 0.423283
O O3 0.305590 0.578582 0.693286
O O4 0.203825 0.720572 0.425977
O O5 0.259684 0.913366 0.200569
O O6 0.213476 0.093856 0.930864
O O7 0.392229 0.979114 0.871253
O O8 0.359637 0.498328 0.083142
O O9 0.288449 0.299083 0.957174
#
# Coordination Sequence:
#
# PCOD9542446 Si02
#       5
#     4   4   2   4   4
#     4  10  23  41  67 103 124 186 224 272 342 402
#     4  10  23  44  63 100 130 175 224 282 334 395
#     4  10  22  40  72  98 130 174 236 278 328 408
#     4  10  24  44  64  96 139 173 218 278 338 396
#     4  10  24  42  69  93 136 174 221 280 336 402
#
# _framework density 21.472170999999999
#
# number of rings (size 3 to 8) (size 9 to 14) (size 15 to 20)
#    0.000    2.000    0.000    0.667   12.444    9.333 
#    0.000    2.222    0.000    0.000    0.000    0.000 
#    0.000    0.000    0.000    0.000    0.000    0.000 
#
# Total GULP energy -100562.511368 kJ/mol
# GULP energy per Si atom -5586.806187 kJ/mol
# Density = 2.142330 g / cm^3
# Si number density = 21.472171 Si / 1000 Ang^3
#
#
#
# Elastic Constant Matrix: (Units=GPa)
#
#
# Indices 1 2 3 4 5 6 
#
# 1 62.7556 -4.6028 -17.4511 0.0000 0.0000 -10.9536
# 2 -4.6028 62.7556 -17.4511 0.0000 0.0000 10.9536
# 3 -17.4511 -17.4511 36.0249 0.0000 0.0000 0.0000
# 4 0.0000 0.0000 0.0000 24.4448 0.0000 0.0000
# 5 0.0000 0.0000 0.0000 0.0000 24.4448 0.0000
# 6 -10.9536 10.9536 0.0000 0.0000 0.0000 23.1160
#
#
#
# Elastic Compliance Matrix: (Units=1/GPa)
#
#
# Indices 1 2 3 4 5 6 
#
# 1 0.020898 0.003347 0.011745 0.000000 0.000000 0.008316
# 2 0.003347 0.020898 0.011745 0.000000 0.000000 -0.008316
# 3 0.011745 0.011745 0.039137 0.000000 0.000000 0.000000
# 4 0.000000 0.000000 0.000000 0.040908 0.000000 0.000000
# 5 0.000000 0.000000 0.000000 0.000000 0.040908 0.000000
# 6 0.008316 -0.008316 0.000000 0.000000 0.000000 0.051142
#
#
# Mechanical properties :
#
#
# Convention : Reuss Voigt Hill
#
# Bulk Modulus (GPa) = 7.42907 9.16956 8.29931
# Shear Modulus (GPa) = 24.37988 27.80387 26.09187
#
# Velocity S-wave (km/s) = 3.37325 3.60235 3.48968
# Velocity P-wave (km/s) = 4.31731 4.64567 4.48449
#
# Compressibility (1/GPa) = 0.13460636
#
# Stress axis : x y z
#
# Youngs Moduli (GPa) = 47.85166 47.85166 25.55109
#
# Poissons Ratio (x) = -0.16017 -0.30009
# Poissons Ratio (y) = -0.16017 -0.30009
# Poissons Ratio (z) = -0.56201 -0.56201
#
# Static dielectric constant tensor:
#      x y z
#    x 1.786320 0.000000 0.000000 
#    y 0.000000 1.786320 0.000000 
#    z 0.000000 0.000000 1.785990 
# 
# From -- ./inp_files/186.got.cif
#   From: 2010.05.17/outbox.cif.g08.bks.cpg/sg81_cif.got.tgz:186.got - 2010.06.03 18:51:07.
