data_PCOD9542808
_publ_section_title
;
Structure prediction by ZEFSAII (Michael W. Deem and Ramdas Pophale) SiO2 
 PCOD9542808
Probable space group: I -4 
;
_chemical_formula_sum "Si O2"
_cell_formula_units_Z 48
_cell_length_a 14.622040
_cell_length_b 14.622040
_cell_length_c 10.849688
_cell_angle_alpha 90.000000
_cell_angle_beta 90.000000
_cell_angle_gamma 90.000000
_cell_volume 2319.707276
_symmetry_space_group_name_H-M "I -4 "
_symmetry_group_IT_number 82
_symmetry_cell_setting 'tetragonal'
loop_
_space_group_symop_operation_xyz
x,y,z
y,-x,-z
-x,-y,z
-y,x,-z
1/2+x,1/2+y,1/2+z
1/2+y,1/2-x,1/2-z
1/2-x,1/2-y,1/2+z
1/2-y,1/2+x,1/2-z
loop_
_atom_site_type_symbol
_atom_site_label
_atom_site_fract_x
_atom_site_fract_y
_atom_site_fract_z
Si Si1 0.779300 0.940718 0.549474
Si Si2 0.291767 0.869975 0.979807
Si Si3 0.860828 0.446490 0.720002
Si Si4 0.145575 0.536479 0.237781
Si Si5 0.333021 0.561766 0.823174
Si Si6 0.390532 0.572970 0.556755
O O1 0.718247 0.854927 0.507593
O O2 0.710413 0.007940 0.624159
O O3 0.855417 0.897863 0.637821
O O4 0.826496 0.989745 0.433771
O O5 0.299700 0.910291 0.843510
O O6 0.333997 0.942086 0.076863
O O7 0.188432 0.855979 0.023555
O O8 0.885985 0.549343 0.758212
O O9 0.772653 0.411900 0.795067
O O10 0.057996 0.601117 0.209754
O O11 0.371451 0.530598 0.690816
O O12 0.490343 0.614348 0.541105
#
# Coordination Sequence:
#
# PCOD9542808 Si02
#       6
#     8   8   8   8   8   8
#     4  11  24  43  60  96 135 172 218 270 335 403
#     4  10  21  40  63  96 126 172 219 272 333 383
#     4  10  21  38  67  94 129 166 217 279 335 392
#     4   9  20  37  63  93 126 169 220 269 333 396
#     4  11  25  42  64  98 130 173 221 271 338 392
#     4  10  23  44  69  94 127 173 227 267 327 408
#
# _framework density 20.692266
#
# number of rings (size 3 to 8) (size 9 to 14) (size 15 to 20)
#    0.000    1.833    1.667    1.000    2.333    8.333 
#   12.000    0.000    0.000    0.000    0.000    0.000 
#    0.000    0.000    0.000    0.000    0.000    0.000 
#
# Total GULP energy -133946.923325 kJ/mol
# GULP energy per Si atom -5581.121805 kJ/mol
# Density = 2.064517 g / cm^3
# Si number density = 20.692266 Si / 1000 Ang^3
#
#
#
# Elastic Constant Matrix: (Units=GPa)
#
#
# Indices 1 2 3 4 5 6 
#
# 1 52.3579 0.1367 15.6182 0.0000 0.0000 -1.7035
# 2 0.1367 52.3579 15.6182 0.0000 0.0000 1.7035
# 3 15.6182 15.6182 65.5928 0.0000 0.0000 0.0000
# 4 0.0000 0.0000 0.0000 27.3071 0.0000 0.0000
# 5 0.0000 0.0000 0.0000 0.0000 27.3071 0.0000
# 6 -1.7035 1.7035 0.0000 0.0000 0.0000 16.3755
#
#
#
# Elastic Compliance Matrix: (Units=1/GPa)
#
#
# Indices 1 2 3 4 5 6 
#
# 1 0.020737 0.001457 -0.005285 0.000000 0.000000 0.002006
# 2 0.001457 0.020737 -0.005285 0.000000 0.000000 -0.002006
# 3 -0.005285 -0.005285 0.017762 0.000000 0.000000 0.000000
# 4 0.000000 0.000000 0.000000 0.036621 0.000000 0.000000
# 5 0.000000 0.000000 0.000000 0.000000 0.036621 0.000000
# 6 0.002006 -0.002006 0.000000 0.000000 0.000000 0.061484
#
#
# Mechanical properties :
#
#
# Convention : Reuss Voigt Hill
#
# Bulk Modulus (GPa) = 24.38309 25.89498 25.13903
# Shear Modulus (GPa) = 22.13793 23.46031 22.79912
#
# Velocity S-wave (km/s) = 3.27443 3.37081 3.32297
# Velocity P-wave (km/s) = 5.10931 5.26225 5.18635
#
# Compressibility (1/GPa) = 0.04101203
#
# Stress axis : x y z
#
# Youngs Moduli (GPa) = 48.22263 48.22263 56.29934
#
# Poissons Ratio (x) = -0.07026 0.29752
# Poissons Ratio (y) = -0.07026 0.29752
# Poissons Ratio (z) = 0.25484 0.25484
#
# Static dielectric constant tensor:
#      x y z
#    x 1.735120 0.000000 0.000000 
#    y 0.000000 1.735120 0.000000 
#    z 0.000000 0.000000 1.743790 
# 
# From -- ./inp_files/1761.got.cif
#   From: 2010.05.17/outbox.cif.g08.bks.cpg/sg82_1_cif.got.tgz:1761.got - 2010.06.03 18:52:26.
