data_PCOD9542352
_publ_section_title
;
Structure prediction by ZEFSAII (Michael W. Deem and Ramdas Pophale) SiO2 
 PCOD9542352
Probable space group: P -4
;
_chemical_formula_sum "Si O2"
_cell_formula_units_Z 32
_cell_length_a 12.033849
_cell_length_b 12.033849
_cell_length_c 12.221258
_cell_angle_alpha 90.000000
_cell_angle_beta 90.000000
_cell_angle_gamma 90.000000
_cell_volume 1769.803411
_symmetry_space_group_name_H-M "P -4"
_symmetry_group_IT_number 81
_symmetry_cell_setting 'tetragonal'
loop_
_space_group_symop_operation_xyz
x,y,z
y,-x,-z
-x,-y,z
-y,x,-z
loop_
_atom_site_type_symbol
_atom_site_label
_atom_site_fract_x
_atom_site_fract_y
_atom_site_fract_z
Si Si1 0.773498 0.852955 0.121566
Si Si2 0.205812 0.883003 0.103878
Si Si3 0.408510 0.220672 0.276419
Si Si4 0.826810 0.953334 0.533032
Si Si5 0.003926 0.123196 0.243976
Si Si6 0.339834 0.772160 0.301406
Si Si7 0.992575 0.385729 0.590948
Si Si8 0.384336 0.352038 0.497875
O O1 0.670697 0.784851 0.171402
O O2 0.872084 0.849100 0.211344
O O3 0.754240 0.987119 0.103623
O O4 0.823760 0.796757 0.013112
O O5 0.267764 0.808755 0.195930
O O6 0.076481 0.885939 0.140887
O O7 0.535621 0.258289 0.260071
O O8 0.413450 0.090867 0.310867
O O9 0.364124 0.288485 0.382633
O O10 0.803193 0.951678 0.661783
O O11 0.870145 0.077062 0.503509
O O12 0.714554 0.936080 0.470131
O O13 0.000000 0.000000 0.295811
O O14 0.307935 0.680476 0.393732
O O15 0.349929 0.886919 0.369316
O O16 0.000000 0.500000 0.523917
O O17 0.349580 0.481898 0.485535
#
# Coordination Sequence:
#
# PCOD9542352 Si02
#       8
#     4   4   4   4   4   4   4   4
#     4  11  21  36  55  77 111 148 194 235 275 330
#     4  11  21  36  55  77 111 148 194 235 275 330
#     4  10  21  37  59  83 111 150 187 226 283 343
#     4  11  20  30  48  79 111 138 179 235 283 329
#     4  10  20  31  48  77 104 144 185 230 277 320
#     4  10  21  37  59  83 111 150 187 226 283 343
#     4  10  21  34  51  77 113 153 181 214 277 351
#     4   9  20  40  64  88 113 144 188 238 283 336
#
# _framework density 18.081105999999998
#
# number of rings (size 3 to 8) (size 9 to 14) (size 15 to 20)
#    0.000    1.750    3.750    1.500    5.250    0.000 
#    0.000    1.250    0.000    1.500    0.000    0.000 
#    0.000    0.000    0.000    0.000    0.000    0.000 
#
# Total GULP energy -178277.123121 kJ/mol
# GULP energy per Si atom -5571.160098 kJ/mol
# Density = 1.803995 g / cm^3
# Si number density = 18.081106 Si / 1000 Ang^3
#
#
#
# Elastic Constant Matrix: (Units=GPa)
#
#
# Indices 1 2 3 4 5 6 
#
# 1 68.5247 8.1436 34.2309 0.0000 0.0000 -0.8006
# 2 8.1436 68.5247 34.2309 0.0000 0.0000 0.8006
# 3 34.2309 34.2309 94.8735 0.0000 0.0000 0.0000
# 4 0.0000 0.0000 0.0000 21.4299 0.0000 0.0000
# 5 0.0000 0.0000 0.0000 0.0000 21.4299 0.0000
# 6 -0.8006 0.8006 0.0000 0.0000 0.0000 16.3854
#
#
#
# Elastic Compliance Matrix: (Units=1/GPa)
#
#
# Indices 1 2 3 4 5 6 
#
# 1 0.017913 0.001330 -0.006943 0.000000 0.000000 0.000810
# 2 0.001330 0.017913 -0.006943 0.000000 0.000000 -0.000810
# 3 -0.006943 -0.006943 0.015551 0.000000 0.000000 0.000000
# 4 0.000000 0.000000 0.000000 0.046664 0.000000 0.000000
# 5 0.000000 0.000000 0.000000 0.000000 0.046664 0.000000
# 6 0.000810 -0.000810 0.000000 0.000000 0.000000 0.061109
#
#
# Mechanical properties :
#
#
# Convention : Reuss Voigt Hill
#
# Bulk Modulus (GPa) = 38.07412 42.79265 40.43339
# Shear Modulus (GPa) = 20.86114 22.20353 21.53234
#
# Velocity S-wave (km/s) = 3.40038 3.50808 3.45465
# Velocity P-wave (km/s) = 6.04317 6.33461 6.19060
#
# Compressibility (1/GPa) = 0.02626456
#
# Stress axis : x y z
#
# Youngs Moduli (GPa) = 55.82538 55.82538 64.30656
#
# Poissons Ratio (x) = -0.07425 0.44648
# Poissons Ratio (y) = -0.07425 0.44648
# Poissons Ratio (z) = 0.38760 0.38760
#
# Static dielectric constant tensor:
#      x y z
#    x 1.664630 0.000000 0.000000 
#    y 0.000000 1.664630 0.000000 
#    z 0.000000 0.000000 1.646040 
# 
# From -- ./inp_files/1455.got.cif
#   From: 2010.05.17/outbox.cif.g08.bks.cpg/sg81_cif.got.tgz:1455.got - 2010.06.03 18:51:07.
