data_PCOD9542329
_publ_section_title
;
Structure prediction by ZEFSAII (Michael W. Deem and Ramdas Pophale) SiO2 
 PCOD9542329
Probable space group: P -4
;
_chemical_formula_sum "Si O2"
_cell_formula_units_Z 21
_cell_length_a 8.304399
_cell_length_b 8.304399
_cell_length_c 14.163513
_cell_angle_alpha 90.000000
_cell_angle_beta 90.000000
_cell_angle_gamma 90.000000
_cell_volume 976.758953
_symmetry_space_group_name_H-M "P -4"
_symmetry_group_IT_number 81
_symmetry_cell_setting 'tetragonal'
loop_
_space_group_symop_operation_xyz
x,y,z
y,-x,-z
-x,-y,z
-y,x,-z
loop_
_atom_site_type_symbol
_atom_site_label
_atom_site_fract_x
_atom_site_fract_y
_atom_site_fract_z
Si Si1 0.915008 0.744792 0.383571
Si Si2 0.257654 0.911760 0.402296
Si Si3 0.000000 0.000000 0.000000
Si Si4 0.209764 0.720549 0.087369
Si Si5 0.448369 0.166052 0.095945
Si Si6 0.000000 0.500000 0.226999
Si Si7 0.500000 0.000000 0.264845
O O1 0.891894 0.681845 0.490569
O O2 0.804159 0.904849 0.383330
O O3 0.902002 0.619065 0.298130
O O4 0.100662 0.805455 0.382990
O O5 0.400812 0.882367 0.330631
O O6 0.105124 0.880364 0.065432
O O7 0.387986 0.749403 0.125603
O O8 0.113799 0.605281 0.158090
O O9 0.249949 0.658752 0.980532
O O10 0.500000 0.000000 0.042997
O O11 0.380998 0.095515 0.193328
#
# Coordination Sequence:
#
# PCOD9542329 Si02
#       7
#     4   4   1   4   4   2   2
#     4   9  20  34  56  87 115 152 198 251 303 342
#     4   9  18  37  58  81 116 154 200 250 296 355
#     4  12  20  40  68  80 112 166 204 256 300 364
#     4  12  23  41  60  88 125 159 206 255 305 369
#     4  10  23  40  56  88 117 157 205 245 306 359
#     4  12  22  34  58  96 126 152 202 254 304 366
#     4  10  18  34  56  84 106 146 192 232 294 362
#
# _framework density 21.499673999999999
#
# number of rings (size 3 to 8) (size 9 to 14) (size 15 to 20)
#    0.571    1.143    2.857    2.857    0.000    6.476 
#    0.000    0.000    0.000    3.429    0.000   10.667 
#    0.000    0.000    0.000    0.000    0.000    0.000 
#
# Total GULP energy -116988.339614 kJ/mol
# GULP energy per Si atom -5570.873315 kJ/mol
# Density = 2.145074 g / cm^3
# Si number density = 21.499674 Si / 1000 Ang^3
#
#
#
# Elastic Constant Matrix: (Units=GPa)
#
#
# Indices 1 2 3 4 5 6 
#
# 1 50.9653 -1.4053 26.0797 0.0000 0.0000 6.1309
# 2 -1.4053 50.9653 26.0797 0.0000 0.0000 -6.1309
# 3 26.0797 26.0797 145.2664 0.0000 0.0000 0.0000
# 4 0.0000 0.0000 0.0000 22.0038 0.0000 0.0000
# 5 0.0000 0.0000 0.0000 0.0000 22.0038 0.0000
# 6 6.1309 -6.1309 0.0000 0.0000 0.0000 20.9295
#
#
#
# Elastic Compliance Matrix: (Units=1/GPa)
#
#
# Indices 1 2 3 4 5 6 
#
# 1 0.022689 0.002189 -0.004466 0.000000 0.000000 -0.006005
# 2 0.002189 0.022689 -0.004466 0.000000 0.000000 0.006005
# 3 -0.004466 -0.004466 0.008488 0.000000 0.000000 0.000000
# 4 0.000000 0.000000 0.000000 0.045447 0.000000 0.000000
# 5 0.000000 0.000000 0.000000 0.000000 0.045447 0.000000
# 6 -0.006005 0.006005 0.000000 0.000000 0.000000 0.051298
#
#
# Mechanical properties :
#
#
# Convention : Reuss Voigt Hill
#
# Bulk Modulus (GPa) = 24.76568 38.74503 31.75535
# Shear Modulus (GPa) = 22.42099 26.08361 24.25230
#
# Velocity S-wave (km/s) = 3.23283 3.48689 3.36226
# Velocity P-wave (km/s) = 5.04767 5.85419 5.46583
#
# Compressibility (1/GPa) = 0.04037846
#
# Stress axis : x y z
#
# Youngs Moduli (GPa) = 44.07332 44.07332 117.81885
#
# Poissons Ratio (x) = -0.09647 0.52622
# Poissons Ratio (y) = -0.09647 0.52622
# Poissons Ratio (z) = 0.19685 0.19685
#
# Static dielectric constant tensor:
#      x y z
#    x 1.860430 0.000000 0.000000 
#    y 0.000000 1.860430 0.000000 
#    z 0.000000 0.000000 1.772390 
# 
# From -- ./inp_files/1556.got.cif
#   From: 2010.05.17/outbox.cif.g08.bks.cpg/sg81_cif.got.tgz:1556.got - 2010.06.03 18:51:07.
