data_PCOD9542408
_publ_section_title
;
Structure prediction by ZEFSAII (Michael W. Deem and Ramdas Pophale) SiO2 
 PCOD9542408
Probable space group: P -4
;
_chemical_formula_sum "Si O2"
_cell_formula_units_Z 26
_cell_length_a 7.534315
_cell_length_b 7.534315
_cell_length_c 18.143498
_cell_angle_alpha 90.000000
_cell_angle_beta 90.000000
_cell_angle_gamma 90.000000
_cell_volume 1029.932039
_symmetry_space_group_name_H-M "P -4"
_symmetry_group_IT_number 81
_symmetry_cell_setting 'tetragonal'
loop_
_space_group_symop_operation_xyz
x,y,z
y,-x,-z
-x,-y,z
-y,x,-z
loop_
_atom_site_type_symbol
_atom_site_label
_atom_site_fract_x
_atom_site_fract_y
_atom_site_fract_z
Si Si1 0.276803 0.125207 0.176058
Si Si2 0.357739 0.231633 0.652664
Si Si3 0.700457 0.642004 0.039115
Si Si4 0.133759 0.767746 0.191311
Si Si5 0.000000 0.500000 0.092118
Si Si6 0.764382 0.354865 0.504575
Si Si7 0.645746 0.747393 0.337385
O O1 0.356809 0.249335 0.111829
O O2 0.343857 0.158130 0.258911
O O3 0.068291 0.173760 0.178593
O O4 0.271739 0.914213 0.162026
O O5 0.257032 0.155171 0.722038
O O6 0.306715 0.149439 0.573579
O O7 0.570257 0.232480 0.666129
O O8 0.311838 0.441538 0.651975
O O9 0.913697 0.653716 0.041798
O O10 0.693801 0.427570 0.026925
O O11 0.142056 0.579689 0.150423
O O12 0.566883 0.269581 0.504041
O O13 0.845754 0.314019 0.584748
#
# Coordination Sequence:
#
# PCOD9542408 Si02
#       7
#     4   4   4   4   2   4   4
#     4  10  22  39  58  84 119 158 197 245 300 365
#     4   9  16  29  54  84 114 155 205 252 297 351
#     4  10  23  42  63  88 118 148 189 243 305 372
#     4  10  21  38  60  86 119 158 200 240 294 358
#     4  10  22  42  66  90 116 152 198 248 302 366
#     4   7  12  25  46  76 113 152 198 251 298 342
#     4   9  17  31  54  83 115 153 202 254 301 354
#
# _framework density 25.244387
#
# number of rings (size 3 to 8) (size 9 to 14) (size 15 to 20)
#    0.000    2.769    0.000    3.692    0.000    6.769 
#    0.000    1.538    0.000    7.385    0.000    0.000 
#    0.000    0.000    0.000    0.000    0.000    0.000 
#
# Total GULP energy -144859.155218 kJ/mol
# GULP energy per Si atom -5571.505970 kJ/mol
# Density = 2.518693 g / cm^3
# Si number density = 25.244387 Si / 1000 Ang^3
#
#
#
# Elastic Constant Matrix: (Units=GPa)
#
#
# Indices 1 2 3 4 5 6 
#
# 1 63.8745 11.8658 54.2613 0.0000 0.0000 -14.3007
# 2 11.8658 63.8745 54.2613 0.0000 0.0000 14.3007
# 3 54.2613 54.2613 219.7883 0.0000 0.0000 0.0000
# 4 0.0000 0.0000 0.0000 12.1096 0.0000 0.0000
# 5 0.0000 0.0000 0.0000 0.0000 12.1096 0.0000
# 6 -14.3007 14.3007 0.0000 0.0000 0.0000 28.4025
#
#
#
# Elastic Compliance Matrix: (Units=1/GPa)
#
#
# Indices 1 2 3 4 5 6 
#
# 1 0.023510 -0.003080 -0.005044 0.000000 0.000000 0.013388
# 2 -0.003080 0.023510 -0.005044 0.000000 0.000000 -0.013388
# 3 -0.005044 -0.005044 0.007040 0.000000 0.000000 0.000000
# 4 0.000000 0.000000 0.000000 0.082579 0.000000 0.000000
# 5 0.000000 0.000000 0.000000 0.000000 0.082579 0.000000
# 6 0.013388 -0.013388 0.000000 0.000000 0.000000 0.048690
#
#
# Mechanical properties :
#
#
# Convention : Reuss Voigt Hill
#
# Bulk Modulus (GPa) = 36.06863 65.36823 50.71843
# Shear Modulus (GPa) = 16.47527 25.66761 21.07144
#
# Velocity S-wave (km/s) = 2.55744 3.19213 2.89225
# Velocity P-wave (km/s) = 4.79994 6.28782 5.59357
#
# Compressibility (1/GPa) = 0.02772492
#
# Stress axis : x y z
#
# Youngs Moduli (GPa) = 42.53520 42.53520 142.04128
#
# Poissons Ratio (x) = 0.13102 0.71641
# Poissons Ratio (y) = 0.13102 0.71641
# Poissons Ratio (z) = 0.21453 0.21453
#
# Static dielectric constant tensor:
#      x y z
#    x 2.423160 0.000000 0.000000 
#    y 0.000000 2.423160 0.000000 
#    z 0.000000 0.000000 2.037730 
# 
# From -- ./inp_files/1773.got.cif
#   From: 2010.05.17/outbox.cif.g08.bks.cpg/sg81_cif.got.tgz:1773.got - 2010.06.03 18:51:07.
