data_PCOD9542959
_publ_section_title
;
Structure prediction by ZEFSAII (Michael W. Deem and Ramdas Pophale) SiO2 
 PCOD9542959
Probable space group: I -4 
;
_chemical_formula_sum "Si O2"
_cell_formula_units_Z 40
_cell_length_a 7.822279
_cell_length_b 7.822279
_cell_length_c 27.909285
_cell_angle_alpha 90.000000
_cell_angle_beta 90.000000
_cell_angle_gamma 90.000000
_cell_volume 1707.714691
_symmetry_space_group_name_H-M "I -4 "
_symmetry_group_IT_number 82
_symmetry_cell_setting 'tetragonal'
loop_
_space_group_symop_operation_xyz
x,y,z
y,-x,-z
-x,-y,z
-y,x,-z
1/2+x,1/2+y,1/2+z
1/2+y,1/2-x,1/2-z
1/2-x,1/2-y,1/2+z
1/2-y,1/2+x,1/2-z
loop_
_atom_site_type_symbol
_atom_site_label
_atom_site_fract_x
_atom_site_fract_y
_atom_site_fract_z
Si Si1 0.190223 0.568602 0.137806
Si Si2 0.216214 0.297321 0.944665
Si Si3 0.310181 0.278000 0.197135
Si Si4 0.000000 0.500000 0.635164
Si Si5 0.068048 0.836228 0.205644
Si Si6 0.500000 0.500000 0.000000
Si Si7 0.500000 0.500000 0.500000
O O1 0.208856 0.630441 0.084304
O O2 0.314436 0.422873 0.156377
O O3 0.000000 0.500000 0.142140
O O4 0.196674 0.723819 0.175296
O O5 0.108085 0.386677 0.902376
O O6 0.321386 0.440349 0.974519
O O7 0.099629 0.153578 0.971115
O O8 0.386580 0.114720 0.171069
O O9 0.110853 0.262602 0.214005
O O10 0.397676 0.341565 0.245779
O O11 0.000000 0.000000 0.176731
#
# Coordination Sequence:
#
# PCOD9542959 Si02
#       7
#     8   8   8   4   8   2   2
#     4  10  24  42  75 102 147 197 258 305 375 460
#     4  12  28  51  78 116 148 202 255 333 404 490
#     4  11  24  44  69 109 152 207 254 317 365 466
#     4  12  28  46  79 112 154 194 270 316 397 462
#     4  11  23  40  69 104 155 200 257 297 381 436
#     4  12  28  52  88 104 166 200 260 332 432 484
#     4  12  32  48  84 112 166 188 264 336 424 484
#
# _framework density 23.423119
#
# number of rings (size 3 to 8) (size 9 to 14) (size 15 to 20)
#    0.000    0.800    2.000    3.600   12.600    1.600 
#    0.000    1.000    0.000    0.000    0.000    0.000 
#    0.000    0.000    0.000    0.000    0.000    0.000 
#
# Total GULP energy -111675.495734 kJ/mol
# GULP energy per Si atom -5583.774787 kJ/mol
# Density = 2.336981 g / cm^3
# Si number density = 23.423119 Si / 1000 Ang^3
#
#
#
# Elastic Constant Matrix: (Units=GPa)
#
#
# Indices 1 2 3 4 5 6 
#
# 1 102.9472 35.8809 51.4534 0.0000 0.0000 11.0855
# 2 35.8809 102.9472 51.4534 0.0000 0.0000 -11.0855
# 3 51.4534 51.4534 114.2873 0.0000 0.0000 0.0000
# 4 0.0000 0.0000 0.0000 43.4952 0.0000 0.0000
# 5 0.0000 0.0000 0.0000 0.0000 43.4952 0.0000
# 6 11.0855 -11.0855 0.0000 0.0000 0.0000 53.5576
#
#
#
# Elastic Compliance Matrix: (Units=1/GPa)
#
#
# Indices 1 2 3 4 5 6 
#
# 1 0.013408 -0.002597 -0.004867 0.000000 0.000000 -0.003313
# 2 -0.002597 0.013408 -0.004867 0.000000 0.000000 0.003313
# 3 -0.004867 -0.004867 0.013132 0.000000 0.000000 0.000000
# 4 0.000000 0.000000 0.000000 0.022991 0.000000 0.000000
# 5 0.000000 0.000000 0.000000 0.000000 0.022991 0.000000
# 6 -0.003313 0.003313 0.000000 0.000000 0.000000 0.020043
#
#
# Mechanical properties :
#
#
# Convention : Reuss Voigt Hill
#
# Bulk Modulus (GPa) = 65.42139 66.41744 65.91941
# Shear Modulus (GPa) = 36.83697 40.20252 38.51975
#
# Velocity S-wave (km/s) = 3.97000 4.14739 4.05967
# Velocity P-wave (km/s) = 7.00039 7.16600 7.08368
#
# Compressibility (1/GPa) = 0.01528552
#
# Stress axis : x y z
#
# Youngs Moduli (GPa) = 74.58012 74.58011 76.14729
#
# Poissons Ratio (x) = 0.19371 0.37063
# Poissons Ratio (y) = 0.19371 0.37063
# Poissons Ratio (z) = 0.36300 0.36300
#
# Static dielectric constant tensor:
#      x y z
#    x 2.051890 0.000000 0.000000 
#    y 0.000000 2.051890 0.000000 
#    z 0.000000 0.000000 1.862950 
# 
# From -- ./inp_files/3442.got.cif
#   From: 2010.05.17/outbox.cif.g08.bks.cpg/sg82_2_cif.got.tgz:3442.got - 2010.06.03 18:52:26.
