data_PCOD9542584
_publ_section_title
;
Structure prediction by ZEFSAII (Michael W. Deem and Ramdas Pophale) SiO2 
 PCOD9542584
Probable space group: P -4
;
_chemical_formula_sum "Si O2"
_cell_formula_units_Z 16
_cell_length_a 8.523717
_cell_length_b 8.523717
_cell_length_c 8.334516
_cell_angle_alpha 90.000000
_cell_angle_beta 90.000000
_cell_angle_gamma 90.000000
_cell_volume 605.533854
_symmetry_space_group_name_H-M "P -4"
_symmetry_group_IT_number 81
_symmetry_cell_setting 'tetragonal'
loop_
_space_group_symop_operation_xyz
x,y,z
y,-x,-z
-x,-y,z
-y,x,-z
loop_
_atom_site_type_symbol
_atom_site_label
_atom_site_fract_x
_atom_site_fract_y
_atom_site_fract_z
Si Si1 0.244290 0.569674 0.013439
Si Si2 0.000000 0.000000 0.000000
Si Si3 0.724588 0.992585 0.744872
Si Si4 0.790327 0.708415 0.534595
Si Si5 0.500000 0.500000 0.500000
Si Si6 0.500000 0.000000 0.245312
O O1 0.128715 0.606944 0.162850
O O2 0.393059 0.685212 0.997022
O O3 0.128403 0.582578 0.863976
O O4 0.146711 0.977414 0.881619
O O5 0.783117 0.885078 0.596531
O O6 0.686713 0.152752 0.648628
O O7 0.626377 0.620107 0.574083
O O8 0.915109 0.623243 0.644835
#
# Coordination Sequence:
#
# PCOD9542584 Si02
#       6
#     4   1   4   4   1   2
#     4  11  27  54  86 124 171 226 288 355 436 527
#     4  12  28  54  88 124 172 230 284 352 452 526
#     4  12  27  54  86 126 173 224 289 358 434 523
#     4  12  28  54  84 126 173 225 289 361 435 512
#     4  12  32  52  84 118 168 220 280 358 436 504
#     4  12  26  52  80 130 168 228 286 350 442 516
#
# _framework density 26.422968000000001
#
# number of rings (size 3 to 8) (size 9 to 14) (size 15 to 20)
#    0.000    0.250    2.500    4.500    3.500    5.000 
#    4.500    0.000    0.000    0.000    0.000    0.000 
#    0.000    0.000    0.000    0.000    0.000    0.000 
#
# Total GULP energy -89653.028953 kJ/mol
# GULP energy per Si atom -5603.314310 kJ/mol
# Density = 2.636283 g / cm^3
# Si number density = 26.422968 Si / 1000 Ang^3
#
#
#
# Elastic Constant Matrix: (Units=GPa)
#
#
# Indices 1 2 3 4 5 6 
#
# 1 121.9202 49.3943 64.8023 0.0000 0.0000 4.5810
# 2 49.3943 121.9202 64.8023 0.0000 0.0000 -4.5810
# 3 64.8023 64.8023 176.7079 0.0000 0.0000 0.0000
# 4 0.0000 0.0000 0.0000 95.3131 0.0000 0.0000
# 5 0.0000 0.0000 0.0000 0.0000 95.3131 0.0000
# 6 4.5810 -4.5810 0.0000 0.0000 0.0000 44.4948
#
#
#
# Elastic Compliance Matrix: (Units=1/GPa)
#
#
# Indices 1 2 3 4 5 6 
#
# 1 0.011024 -0.002946 -0.002963 0.000000 0.000000 -0.001438
# 2 -0.002946 0.011024 -0.002963 0.000000 0.000000 0.001438
# 3 -0.002963 -0.002963 0.007832 0.000000 0.000000 0.000000
# 4 0.000000 0.000000 0.000000 0.010492 0.000000 0.000000
# 5 0.000000 0.000000 0.000000 0.000000 0.010492 0.000000
# 6 -0.001438 0.001438 0.000000 0.000000 0.000000 0.022771
#
#
# Mechanical properties :
#
#
# Convention : Reuss Voigt Hill
#
# Bulk Modulus (GPa) = 82.38123 86.50513 84.44318
# Shear Modulus (GPa) = 52.39872 63.12748 57.76310
#
# Velocity S-wave (km/s) = 4.45800 4.89316 4.68064
# Velocity P-wave (km/s) = 7.59895 8.04573 7.82552
#
# Compressibility (1/GPa) = 0.01213869
#
# Stress axis : x y z
#
# Youngs Moduli (GPa) = 90.70984 90.70984 127.68305
#
# Poissons Ratio (x) = 0.26720 0.37826
# Poissons Ratio (y) = 0.26720 0.37826
# Poissons Ratio (z) = 0.26873 0.26873
#
# Static dielectric constant tensor:
#      x y z
#    x 1.884720 0.000000 0.000000 
#    y 0.000000 1.884720 0.000000 
#    z 0.000000 0.000000 2.007860 
# 
# From -- ./inp_files/662.got.cif
#   From: 2010.05.17/outbox.cif.g08.bks.cpg/sg81_cif.got.tgz:662.got - 2010.06.03 18:51:07.
