data_PCOD9542636
_publ_section_title
;
Structure prediction by ZEFSAII (Michael W. Deem and Ramdas Pophale) SiO2 
 PCOD9542636
Probable space group: I -4 
;
_chemical_formula_sum "Si O2"
_cell_formula_units_Z 48
_cell_length_a 17.563889
_cell_length_b 17.563889
_cell_length_c 9.115749
_cell_angle_alpha 90.000000
_cell_angle_beta 90.000000
_cell_angle_gamma 90.000000
_cell_volume 2812.119203
_symmetry_space_group_name_H-M "I -4 "
_symmetry_group_IT_number 82
_symmetry_cell_setting 'tetragonal'
loop_
_space_group_symop_operation_xyz
x,y,z
y,-x,-z
-x,-y,z
-y,x,-z
1/2+x,1/2+y,1/2+z
1/2+y,1/2-x,1/2-z
1/2-x,1/2-y,1/2+z
1/2-y,1/2+x,1/2-z
loop_
_atom_site_type_symbol
_atom_site_label
_atom_site_fract_x
_atom_site_fract_y
_atom_site_fract_z
Si Si1 0.083595 0.263023 0.000008
Si Si2 0.249777 0.459847 0.250000
Si Si3 0.083595 0.263023 0.499992
Si Si4 0.704350 0.198985 0.750000
Si Si5 0.132681 0.165068 0.750000
Si Si6 0.941976 0.614436 0.750000
O O1 0.087810 0.189939 0.894156
O O2 0.079458 0.335558 0.892364
O O3 0.156832 0.265266 0.106246
O O4 0.011610 0.261318 0.107778
O O5 0.192972 0.387831 0.250000
O O6 0.332499 0.419050 0.250000
O O7 0.238682 0.511610 0.107778
O O8 0.156832 0.265266 0.393754
O O9 0.087810 0.189939 0.605844
O O10 0.079458 0.335558 0.607636
O O11 0.716942 0.289531 0.750000
O O12 0.901152 0.532701 0.750000
#
# Coordination Sequence:
#
# PCOD9542636 Si02
#       6
#     8   8   8   8   8   8
#     4  10  18  34  52  73 105 129 166 209 241 291
#     4   9  20  32  51  76  98 129 162 207 252 295
#     4  10  18  34  52  73 105 129 166 209 241 291
#     4   9  18  32  52  78  98 127 164 204 249 290
#     4   9  20  33  52  77  99 126 169 207 249 289
#     4  10  20  31  47  74 109 144 165 190 238 299
#
# _framework density 17.068978000000001
#
# number of rings (size 3 to 8) (size 9 to 14) (size 15 to 20)
#    1.000    1.500    0.000    3.000    0.000    0.000 
#    0.000    5.000    0.000   11.000    0.000    0.000 
#    0.000    0.000    0.000    0.000    0.000    0.000 
#
# Total GULP energy -133624.678203 kJ/mol
# GULP energy per Si atom -5567.694925 kJ/mol
# Density = 1.703013 g / cm^3
# Si number density = 17.068978 Si / 1000 Ang^3
#
#
#
# Elastic Constant Matrix: (Units=GPa)
#
#
# Indices 1 2 3 4 5 6 
#
# 1 28.9505 -15.0662 12.9732 0.0000 0.0000 2.7777
# 2 -15.0662 28.9505 12.9732 0.0000 0.0000 -2.7777
# 3 12.9732 12.9732 120.4705 0.0000 0.0000 0.0000
# 4 0.0000 0.0000 0.0000 8.6783 0.0000 0.0000
# 5 0.0000 0.0000 0.0000 0.0000 8.6783 0.0000
# 6 2.7777 -2.7777 0.0000 0.0000 0.0000 26.4658
#
#
#
# Elastic Compliance Matrix: (Units=1/GPa)
#
#
# Indices 1 2 3 4 5 6 
#
# 1 0.056597 0.033573 -0.009710 0.000000 0.000000 -0.002416
# 2 0.033573 0.056597 -0.009710 0.000000 0.000000 0.002416
# 3 -0.009710 -0.009710 0.010392 0.000000 0.000000 0.000000
# 4 0.000000 0.000000 0.000000 0.115230 0.000000 0.000000
# 5 0.000000 0.000000 0.000000 0.000000 0.115230 0.000000
# 6 -0.002416 0.002416 0.000000 0.000000 0.000000 0.038292
#
#
# Mechanical properties :
#
#
# Convention : Reuss Voigt Hill
#
# Bulk Modulus (GPa) = 6.58369 22.23691 14.41030
# Shear Modulus (GPa) = 12.05799 19.93056 15.99427
#
# Velocity S-wave (km/s) = 2.66075 3.42079 3.06443
# Velocity P-wave (km/s) = 3.64760 5.35335 4.58058
#
# Compressibility (1/GPa) = 0.15189050
#
# Stress axis : x y z
#
# Youngs Moduli (GPa) = 17.66891 17.66891 96.22670
#
# Poissons Ratio (x) = -0.59320 0.93438
# Poissons Ratio (y) = -0.59320 0.93438
# Poissons Ratio (z) = 0.17157 0.17157
#
# Static dielectric constant tensor:
#      x y z
#    x 1.561830 0.000000 0.000000 
#    y 0.000000 1.561830 0.000000 
#    z 0.000000 0.000000 1.556490 
# 
# From -- ./inp_files/1036.got.cif
#   From: 2010.05.17/outbox.cif.g08.bks.cpg/sg82_1_cif.got.tgz:1036.got - 2010.06.03 18:52:26.
