data_PCOD9542441
_publ_section_title
;
Structure prediction by ZEFSAII (Michael W. Deem and Ramdas Pophale) SiO2 
 PCOD9542441
Probable space group: P -4
;
_chemical_formula_sum "Si O2"
_cell_formula_units_Z 24
_cell_length_a 13.277751
_cell_length_b 13.277751
_cell_length_c 5.345836
_cell_angle_alpha 90.000000
_cell_angle_beta 90.000000
_cell_angle_gamma 90.000000
_cell_volume 942.463785
_symmetry_space_group_name_H-M "P -4"
_symmetry_group_IT_number 81
_symmetry_cell_setting 'tetragonal'
loop_
_space_group_symop_operation_xyz
x,y,z
y,-x,-z
-x,-y,z
-y,x,-z
loop_
_atom_site_type_symbol
_atom_site_label
_atom_site_fract_x
_atom_site_fract_y
_atom_site_fract_z
Si Si1 0.000000 0.000000 0.000000
Si Si2 0.156543 0.636380 0.207004
Si Si3 0.500000 0.500000 0.500000
Si Si4 0.524940 0.161406 0.432298
Si Si5 0.000000 0.500000 0.921273
Si Si6 0.826274 0.131221 0.219298
Si Si7 0.174321 0.288791 0.278210
Si Si8 0.680276 0.408107 0.812446
O O1 0.949472 0.913080 0.830515
O O2 0.071165 0.578580 0.055865
O O3 0.267936 0.607396 0.091331
O O4 0.144478 0.588380 0.478492
O O5 0.135207 0.753589 0.205658
O O6 0.569344 0.432674 0.694289
O O7 0.593798 0.156462 0.673675
O O8 0.510661 0.263731 0.280521
O O9 0.561243 0.074805 0.255297
O O10 0.771857 0.127950 0.487723
O O11 0.752941 0.131383 0.978366
O O12 0.296823 0.288816 0.288490
#
# Coordination Sequence:
#
# PCOD9542441 Si02
#       8
#     1   4   1   4   2   4   4   4
#     4  12  32  54  84 114 140 206 264 326 408 478
#     4  10  23  45  67 104 146 188 240 317 378 453
#     4  12  20  40  66 100 156 198 260 302 336 458
#     4  11  22  41  71 101 144 187 247 291 377 450
#     4  10  24  38  70 102 128 180 244 302 372 450
#     4  11  28  50  75 105 151 190 251 318 389 455
#     4  11  25  46  75 105 150 199 238 314 376 447
#     4  10  22  40  64 103 151 198 246 294 369 436
#
# _framework density 25.465171999999999
#
# number of rings (size 3 to 8) (size 9 to 14) (size 15 to 20)
#    0.000    1.333    3.333    0.500    7.000    3.333 
#    0.000    0.833    0.000    0.000    0.000    0.000 
#    0.000    0.000    0.000    0.000    0.000    0.000 
#
# Total GULP energy -133967.626128 kJ/mol
# GULP energy per Si atom -5581.984422 kJ/mol
# Density = 2.540721 g / cm^3
# Si number density = 25.465172 Si / 1000 Ang^3
#
#
#
# Elastic Constant Matrix: (Units=GPa)
#
#
# Indices 1 2 3 4 5 6 
#
# 1 89.4294 27.2353 22.1819 0.0000 0.0000 7.5052
# 2 27.2353 89.4294 22.1819 0.0000 0.0000 -7.5052
# 3 22.1819 22.1819 79.3510 0.0000 0.0000 0.0000
# 4 0.0000 0.0000 0.0000 30.2463 0.0000 0.0000
# 5 0.0000 0.0000 0.0000 0.0000 30.2463 0.0000
# 6 7.5052 -7.5052 0.0000 0.0000 0.0000 35.1450
#
#
#
# Elastic Compliance Matrix: (Units=1/GPa)
#
#
# Indices 1 2 3 4 5 6 
#
# 1 0.013272 -0.003681 -0.002681 0.000000 0.000000 -0.003620
# 2 -0.003681 0.013272 -0.002681 0.000000 0.000000 0.003620
# 3 -0.002681 -0.002681 0.014101 0.000000 0.000000 0.000000
# 4 0.000000 0.000000 0.000000 0.033062 0.000000 0.000000
# 5 0.000000 0.000000 0.000000 0.000000 0.033062 0.000000
# 6 -0.003620 0.003620 0.000000 0.000000 0.000000 0.030000
#
#
# Mechanical properties :
#
#
# Convention : Reuss Voigt Hill
#
# Bulk Modulus (GPa) = 44.32827 44.60089 44.46458
# Shear Modulus (GPa) = 30.79319 31.56824 31.18071
#
# Velocity S-wave (km/s) = 3.48117 3.52471 3.50300
# Velocity P-wave (km/s) = 5.79683 5.84099 5.81895
#
# Compressibility (1/GPa) = 0.02255897
#
# Stress axis : x y z
#
# Youngs Moduli (GPa) = 75.34802 75.34802 70.91598
#
# Poissons Ratio (x) = 0.27733 0.19013
# Poissons Ratio (y) = 0.27733 0.19013
# Poissons Ratio (z) = 0.20202 0.20202
#
# Static dielectric constant tensor:
#      x y z
#    x 2.173030 0.000000 0.000000 
#    y 0.000000 2.173030 0.000000 
#    z 0.000000 0.000000 2.068340 
# 
# From -- ./inp_files/322.got.cif
#   From: 2010.05.17/outbox.cif.g08.bks.cpg/sg81_cif.got.tgz:322.got - 2010.06.03 18:51:07.
