data_PCOD9542800
_publ_section_title
;
Structure prediction by ZEFSAII (Michael W. Deem and Ramdas Pophale) SiO2 
 PCOD9542800
Probable space group: I -4 
;
_chemical_formula_sum "Si O2"
_cell_formula_units_Z 36
_cell_length_a 12.985516
_cell_length_b 12.985516
_cell_length_c 9.363243
_cell_angle_alpha 90.000000
_cell_angle_beta 90.000000
_cell_angle_gamma 90.000000
_cell_volume 1578.863984
_symmetry_space_group_name_H-M "I -4 "
_symmetry_group_IT_number 82
_symmetry_cell_setting 'tetragonal'
loop_
_space_group_symop_operation_xyz
x,y,z
y,-x,-z
-x,-y,z
-y,x,-z
1/2+x,1/2+y,1/2+z
1/2+y,1/2-x,1/2-z
1/2-x,1/2-y,1/2+z
1/2-y,1/2+x,1/2-z
loop_
_atom_site_type_symbol
_atom_site_label
_atom_site_fract_x
_atom_site_fract_y
_atom_site_fract_z
Si Si1 0.292069 0.475491 0.127264
Si Si2 0.500000 0.500000 0.000000
Si Si3 0.242421 0.816365 0.446359
Si Si4 0.500000 0.000000 0.750000
Si Si5 0.427693 0.144668 0.294893
Si Si6 0.198402 0.453333 0.423816
O O1 0.252781 0.364178 0.067539
O O2 0.266403 0.489107 0.291842
O O3 0.412617 0.458987 0.102951
O O4 0.268831 0.579221 0.040646
O O5 0.278858 0.853208 0.289632
O O6 0.343040 0.764999 0.516364
O O7 0.552323 0.084893 0.649308
O O8 0.531801 0.124689 0.200417
O O9 0.469959 0.186267 0.443758
#
# Coordination Sequence:
#
# PCOD9542800 Si02
#       6
#     8   2   8   2   8   8
#     4  10  21  39  61  84 114 163 203 243 294 360
#     4   8  20  44  64  78 124 164 208 250 300 344
#     4  10  21  38  57  85 121 154 197 248 299 351
#     4  12  20  36  62  92 120 144 190 256 296 352
#     4   9  19  35  57  85 118 153 186 245 308 353
#     4  11  21  36  62  91 118 154 201 245 304 357
#
# _framework density 22.801203999999998
#
# number of rings (size 3 to 8) (size 9 to 14) (size 15 to 20)
#    0.000    2.000    2.222    2.667    0.000    3.556 
#    0.000    6.667    0.000    1.333    0.000    0.000 
#    0.000    0.000    0.000    0.000    0.000    0.000 
#
# Total GULP energy -100507.196256 kJ/mol
# GULP energy per Si atom -5583.733125 kJ/mol
# Density = 2.274931 g / cm^3
# Si number density = 22.801204 Si / 1000 Ang^3
#
#
#
# Elastic Constant Matrix: (Units=GPa)
#
#
# Indices 1 2 3 4 5 6 
#
# 1 32.2530 -1.8068 23.4552 0.0000 0.0000 -0.8994
# 2 -1.8068 32.2530 23.4552 0.0000 0.0000 0.8994
# 3 23.4552 23.4552 139.4877 0.0000 0.0000 0.0000
# 4 0.0000 0.0000 0.0000 26.8162 0.0000 0.0000
# 5 0.0000 0.0000 0.0000 0.0000 26.8162 0.0000
# 6 -0.8994 0.8994 0.0000 0.0000 0.0000 15.7347
#
#
#
# Elastic Compliance Matrix: (Units=1/GPa)
#
#
# Indices 1 2 3 4 5 6 
#
# 1 0.036890 0.007440 -0.007454 0.000000 0.000000 0.001683
# 2 0.007440 0.036890 -0.007454 0.000000 0.000000 -0.001683
# 3 -0.007454 -0.007454 0.009676 0.000000 0.000000 0.000000
# 4 0.000000 0.000000 0.000000 0.037291 0.000000 0.000000
# 5 0.000000 0.000000 0.000000 0.000000 0.037291 0.000000
# 6 0.001683 -0.001683 0.000000 0.000000 0.000000 0.063746
#
#
# Mechanical properties :
#
#
# Convention : Reuss Voigt Hill
#
# Bulk Modulus (GPa) = 14.59445 32.68896 23.64170
# Shear Modulus (GPa) = 19.26349 24.46611 21.86480
#
# Velocity S-wave (km/s) = 2.90978 3.27925 3.10002
# Velocity P-wave (km/s) = 4.20758 5.35776 4.81712
#
# Compressibility (1/GPa) = 0.06851922
#
# Stress axis : x y z
#
# Youngs Moduli (GPa) = 27.10797 27.10797 103.34885
#
# Poissons Ratio (x) = -0.20170 0.77038
# Poissons Ratio (y) = -0.20170 0.77038
# Poissons Ratio (z) = 0.20207 0.20207
#
# Static dielectric constant tensor:
#      x y z
#    x 1.923730 0.000000 0.000000 
#    y 0.000000 1.923730 0.000000 
#    z 0.000000 0.000000 1.803370 
# 
# From -- ./inp_files/862.got.cif
#   From: 2010.05.17/outbox.cif.g08.bks.cpg/sg82_1_cif.got.tgz:862.got - 2010.06.03 18:52:26.
