data_PCOD9542017
_publ_section_title
;
Structure prediction by ZEFSAII (Michael W. Deem and Ramdas Pophale) SiO2 
 PCOD9542017
Probable space group: I 4
;
_chemical_formula_sum "Si O2"
_cell_formula_units_Z 56
_cell_length_a 14.129593
_cell_length_b 14.129593
_cell_length_c 12.574470
_cell_angle_alpha 90.000000
_cell_angle_beta 90.000000
_cell_angle_gamma 90.000000
_cell_volume 2510.435072
_symmetry_space_group_name_H-M "I 4"
_symmetry_group_IT_number 79
_symmetry_cell_setting 'tetragonal'
loop_
_space_group_symop_operation_xyz
x,y,z
-y,x,z
-x,-y,z
y,-x,z
1/2+x,1/2+y,1/2+z
1/2-y,1/2+x,1/2+z
1/2-x,1/2-y,1/2+z
1/2+y,1/2-x,1/2+z
loop_
_atom_site_type_symbol
_atom_site_label
_atom_site_fract_x
_atom_site_fract_y
_atom_site_fract_z
Si Si1 0.353811 0.461228 0.496540
Si Si2 0.964991 0.654561 0.539256
Si Si3 0.142677 0.389843 0.746937
Si Si4 0.889841 0.642677 0.178362
Si Si5 0.354838 0.354839 0.712649
Si Si6 0.345442 0.035008 0.886046
Si Si7 0.353811 0.538774 0.928758
O O1 0.435604 0.389431 0.461125
O O2 0.355760 0.436195 0.622620
O O3 0.249935 0.452275 0.452344
O O4 0.897905 0.662338 0.642795
O O5 0.926690 0.573310 0.462652
O O6 0.952271 0.749935 0.472955
O O7 0.069813 0.633515 0.583946
O O8 0.136017 0.500000 0.712647
O O9 0.251331 0.363080 0.767447
O O10 0.069812 0.366490 0.841355
O O11 0.863077 0.751331 0.157853
O O12 0.837665 0.602096 0.282507
O O13 0.436194 0.355761 0.802678
O O14 0.389430 0.435606 0.964173
#
# Coordination Sequence:
#
# PCOD9542017 Si02
#       7
#     8   8   8   8   8   8   8
#     4  11  25  45  71 103 145 197 252 310 379 454
#     4  11  24  46  72 108 148 194 251 308 386 460
#     4  11  26  47  72 109 156 195 246 321 384 453
#     4  11  26  47  72 109 156 195 246 321 384 453
#     4  12  24  47  72 108 147 196 250 316 378 450
#     4  11  24  46  72 108 148 194 251 308 386 460
#     4  11  25  45  71 103 145 197 252 310 379 454
#
# _framework density 22.306891
#
# number of rings (size 3 to 8) (size 9 to 14) (size 15 to 20)
#    0.000    0.857    2.857    4.286    4.000    3.429 
#    0.000    0.000    0.000    6.857    0.000    0.000 
#    0.000    0.000    0.000    0.000    0.000    0.000 
#
# Total GULP energy -156646.843641 kJ/mol
# GULP energy per Si atom -5594.530130 kJ/mol
# Density = 2.225612 g / cm^3
# Si number density = 22.306891 Si / 1000 Ang^3
#
#
#
# Elastic Constant Matrix: (Units=GPa)
#
#
# Indices 1 2 3 4 5 6 
#
# 1 138.4870 71.6996 51.1698 0.0000 0.0000 -0.0012
# 2 71.6996 138.4870 51.1698 0.0000 0.0000 0.0012
# 3 51.1698 51.1698 109.0287 0.0000 0.0000 0.0000
# 4 0.0000 0.0000 0.0000 25.5718 0.0000 0.0000
# 5 0.0000 0.0000 0.0000 0.0000 25.5718 0.0000
# 6 -0.0012 0.0012 0.0000 0.0000 0.0000 11.4259
#
#
#
# Elastic Compliance Matrix: (Units=1/GPa)
#
#
# Indices 1 2 3 4 5 6 
#
# 1 0.010570 -0.004403 -0.002894 0.000000 0.000000 0.000002
# 2 -0.004403 0.010570 -0.002894 0.000000 0.000000 -0.000002
# 3 -0.002894 -0.002894 0.011889 0.000000 0.000000 0.000000
# 4 0.000000 0.000000 0.000000 0.039106 0.000000 0.000000
# 5 0.000000 0.000000 0.000000 0.000000 0.039106 0.000000
# 6 0.000002 -0.000002 0.000000 0.000000 0.000000 0.087520
#
#
# Mechanical properties :
#
#
# Convention : Reuss Voigt Hill
#
# Bulk Modulus (GPa) = 79.08075 81.56456 80.32265
# Shear Modulus (GPa) = 22.38558 26.64480 24.51519
#
# Velocity S-wave (km/s) = 3.17129 3.45985 3.31871
# Velocity P-wave (km/s) = 6.99554 7.25292 7.12540
#
# Compressibility (1/GPa) = 0.01264530
#
# Stress axis : x y z
#
# Youngs Moduli (GPa) = 94.60840 94.60840 84.11419
#
# Poissons Ratio (x) = 0.41656 0.24345
# Poissons Ratio (y) = 0.41656 0.24345
# Poissons Ratio (z) = 0.27382 0.27382
#
# Static dielectric constant tensor:
#      x y z
#    x 1.823020 0.000000 0.000000 
#    y 0.000000 1.823020 0.000000 
#    z 0.000000 0.000000 1.857530 
# 
# From -- ./inp_files/1149.got.cif
#   From: 2010.05.17/outbox.cif.g08.bks.cpg/sg79_cif.got.tgz:1149.got - 2010.06.03 18:47:27.
