data_PCOD9542789
_publ_section_title
;
Structure prediction by ZEFSAII (Michael W. Deem and Ramdas Pophale) SiO2 
 PCOD9542789
Probable space group: I -4 
;
_chemical_formula_sum "Si O2"
_cell_formula_units_Z 42
_cell_length_a 11.718684
_cell_length_b 11.718684
_cell_length_c 16.174278
_cell_angle_alpha 90.000000
_cell_angle_beta 90.000000
_cell_angle_gamma 90.000000
_cell_volume 2221.174047
_symmetry_space_group_name_H-M "I -4 "
_symmetry_group_IT_number 82
_symmetry_cell_setting 'tetragonal'
loop_
_space_group_symop_operation_xyz
x,y,z
y,-x,-z
-x,-y,z
-y,x,-z
1/2+x,1/2+y,1/2+z
1/2+y,1/2-x,1/2-z
1/2-x,1/2-y,1/2+z
1/2-y,1/2+x,1/2-z
loop_
_atom_site_type_symbol
_atom_site_label
_atom_site_fract_x
_atom_site_fract_y
_atom_site_fract_z
Si Si1 0.672352 0.217787 0.216954
Si Si2 0.369541 0.956058 0.357429
Si Si3 0.500000 0.500000 0.500000
Si Si4 0.595332 0.859852 0.790292
Si Si5 0.099016 0.658235 0.022127
Si Si6 0.390953 0.281245 0.440010
O O1 0.651905 0.157279 0.304321
O O2 0.549166 0.220452 0.173726
O O3 0.744743 0.332785 0.223198
O O4 0.739038 0.135227 0.152145
O O5 0.359776 0.930230 0.453687
O O6 0.500000 0.000000 0.341943
O O7 0.461868 0.397474 0.441981
O O8 0.463794 0.852300 0.763541
O O9 0.609757 0.896282 0.885771
O O10 0.182386 0.769069 0.021624
O O11 0.971801 0.696640 0.992568
#
# Coordination Sequence:
#
# PCOD9542789 Si02
#       6
#     8   8   2   8   8   8
#     4  11  21  39  59  95 120 162 204 253 310 369
#     4  12  21  37  62  90 124 155 205 256 310 358
#     4   8  16  32  52  88 124 156 198 272 296 360
#     4  10  25  44  63  89 124 164 209 247 314 375
#     4  10  21  36  62  91 117 166 200 262 300 371
#     4   9  18  34  57  89 122 153 211 247 317 355
#
# _framework density 18.908919999999998
#
# number of rings (size 3 to 8) (size 9 to 14) (size 15 to 20)
#    0.000    1.714    3.810    0.000    5.333    0.000 
#   10.286    0.000    0.000    0.000    0.000    0.000 
#    0.000    0.000    0.000    0.000    0.000    0.000 
#
# Total GULP energy -117145.750703 kJ/mol
# GULP energy per Si atom -5578.369081 kJ/mol
# Density = 1.886588 g / cm^3
# Si number density = 18.908920 Si / 1000 Ang^3
#
#
#
# Elastic Constant Matrix: (Units=GPa)
#
#
# Indices 1 2 3 4 5 6 
#
# 1 61.3224 23.0470 17.4918 0.0000 0.0000 4.6207
# 2 23.0470 61.3224 17.4918 0.0000 0.0000 -4.6207
# 3 17.4918 17.4918 90.6604 0.0000 0.0000 0.0000
# 4 0.0000 0.0000 0.0000 22.9967 0.0000 0.0000
# 5 0.0000 0.0000 0.0000 0.0000 22.9967 0.0000
# 6 4.6207 -4.6207 0.0000 0.0000 0.0000 26.7483
#
#
#
# Elastic Compliance Matrix: (Units=1/GPa)
#
#
# Indices 1 2 3 4 5 6 
#
# 1 0.020073 -0.007190 -0.002486 0.000000 0.000000 -0.004710
# 2 -0.007190 0.020073 -0.002486 0.000000 0.000000 0.004710
# 3 -0.002486 -0.002486 0.011989 0.000000 0.000000 0.000000
# 4 0.000000 0.000000 0.000000 0.043485 0.000000 0.000000
# 5 0.000000 0.000000 0.000000 0.000000 0.043485 0.000000
# 6 -0.004710 0.004710 0.000000 0.000000 0.000000 0.039013
#
#
# Mechanical properties :
#
#
# Convention : Reuss Voigt Hill
#
# Bulk Modulus (GPa) = 35.95404 36.59624 36.27514
# Shear Modulus (GPa) = 23.61698 24.89997 24.25847
#
# Velocity S-wave (km/s) = 3.53793 3.63276 3.58566
# Velocity P-wave (km/s) = 5.97870 6.08210 6.03062
#
# Compressibility (1/GPa) = 0.02781329
#
# Stress axis : x y z
#
# Youngs Moduli (GPa) = 49.81703 49.81703 83.40745
#
# Poissons Ratio (x) = 0.35819 0.20732
# Poissons Ratio (y) = 0.35819 0.20732
# Poissons Ratio (z) = 0.12383 0.12383
#
# Static dielectric constant tensor:
#      x y z
#    x 1.684650 0.000000 0.000000 
#    y 0.000000 1.684650 0.000000 
#    z 0.000000 0.000000 1.641630 
# 
# From -- ./inp_files/2597.got.cif
#   From: 2010.05.17/outbox.cif.g08.bks.cpg/sg82_2_cif.got.tgz:2597.got - 2010.06.03 18:52:26.
