data_PCOD9542870
_publ_section_title
;
Structure prediction by ZEFSAII (Michael W. Deem and Ramdas Pophale) SiO2 
 PCOD9542870
Probable space group: I -4 
;
_chemical_formula_sum "Si O2"
_cell_formula_units_Z 48
_cell_length_a 14.413308
_cell_length_b 14.413308
_cell_length_c 9.348132
_cell_angle_alpha 90.000000
_cell_angle_beta 90.000000
_cell_angle_gamma 90.000000
_cell_volume 1942.013169
_symmetry_space_group_name_H-M "I -4 "
_symmetry_group_IT_number 82
_symmetry_cell_setting 'tetragonal'
loop_
_space_group_symop_operation_xyz
x,y,z
y,-x,-z
-x,-y,z
-y,x,-z
1/2+x,1/2+y,1/2+z
1/2+y,1/2-x,1/2-z
1/2-x,1/2-y,1/2+z
1/2-y,1/2+x,1/2-z
loop_
_atom_site_type_symbol
_atom_site_label
_atom_site_fract_x
_atom_site_fract_y
_atom_site_fract_z
Si Si1 0.218159 0.496947 0.274484
Si Si2 0.302284 0.299979 0.747770
Si Si3 0.060719 0.701286 0.536085
Si Si4 0.208332 0.609096 0.806764
Si Si5 0.129963 0.066973 0.993776
Si Si6 0.998870 0.623076 0.934776
O O1 0.328422 0.366222 0.614055
O O2 0.199674 0.439748 0.132909
O O3 0.303841 0.454139 0.361889
O O4 0.139923 0.491934 0.396920
O O5 0.209014 0.246335 0.701435
O O6 0.396006 0.241653 0.768842
O O7 0.258138 0.358864 0.881188
O O8 0.965611 0.749016 0.586392
O O9 0.052021 0.589419 0.576601
O O10 0.202761 0.556345 0.654593
O O11 0.100875 0.624776 0.863035
O O12 0.032757 0.106412 0.939573
#
# Coordination Sequence:
#
# PCOD9542870 Si02
#       6
#     8   8   8   8   8   8
#     4  11  24  40  59  99 133 163 224 280 329 382
#     4  10  22  41  64  90 130 176 215 265 337 396
#     4  11  25  38  62  94 130 169 213 263 331 389
#     4  11  20  40  66  89 122 169 218 255 324 399
#     4   9  18  37  64  87 117 169 224 269 319 391
#     4  11  22  40  63  91 124 172 212 265 320 398
#
# _framework density 24.716621
#
# number of rings (size 3 to 8) (size 9 to 14) (size 15 to 20)
#    0.000    1.500    5.000    0.500    2.333    4.000 
#    0.000    3.333    0.000    0.000    0.000    0.000 
#    0.000    0.000    0.000    0.000    0.000    0.000 
#
# Total GULP energy -133864.484112 kJ/mol
# GULP energy per Si atom -5577.686838 kJ/mol
# Density = 2.466036 g / cm^3
# Si number density = 24.716621 Si / 1000 Ang^3
#
#
#
# Elastic Constant Matrix: (Units=GPa)
#
#
# Indices 1 2 3 4 5 6 
#
# 1 87.1333 -6.1507 -4.7493 0.0000 0.0000 -7.6215
# 2 -6.1507 87.1333 -4.7493 0.0000 0.0000 7.6215
# 3 -4.7493 -4.7493 104.4622 0.0000 0.0000 0.0000
# 4 0.0000 0.0000 0.0000 27.1261 0.0000 0.0000
# 5 0.0000 0.0000 0.0000 0.0000 27.1261 0.0000
# 6 -7.6215 7.6215 0.0000 0.0000 0.0000 20.4872
#
#
#
# Elastic Compliance Matrix: (Units=1/GPa)
#
#
# Indices 1 2 3 4 5 6 
#
# 1 0.011914 0.000500 0.000564 0.000000 0.000000 0.004246
# 2 0.000500 0.011914 0.000564 0.000000 0.000000 -0.004246
# 3 0.000564 0.000564 0.009624 0.000000 0.000000 0.000000
# 4 0.000000 0.000000 0.000000 0.036865 0.000000 0.000000
# 5 0.000000 0.000000 0.000000 0.000000 0.036865 0.000000
# 6 0.004246 -0.004246 0.000000 0.000000 0.000000 0.051970
#
#
# Mechanical properties :
#
#
# Convention : Reuss Voigt Hill
#
# Bulk Modulus (GPa) = 27.23987 27.49225 27.36606
# Shear Modulus (GPa) = 29.73877 34.57312 32.15595
#
# Velocity S-wave (km/s) = 3.47247 3.74408 3.61083
# Velocity P-wave (km/s) = 5.20789 5.46242 5.33667
#
# Compressibility (1/GPa) = 0.03671089
#
# Stress axis : x y z
#
# Youngs Moduli (GPa) = 83.93380 83.93380 103.90516
#
# Poissons Ratio (x) = -0.04200 -0.05865
# Poissons Ratio (y) = -0.04200 -0.05865
# Poissons Ratio (z) = -0.04737 -0.04737
#
# Static dielectric constant tensor:
#      x y z
#    x 2.038430 0.000000 0.000000 
#    y 0.000000 2.038430 0.000000 
#    z 0.000000 0.000000 1.986010 
# 
# From -- ./inp_files/1056.got.cif
#   From: 2010.05.17/outbox.cif.g08.bks.cpg/sg82_1_cif.got.tgz:1056.got - 2010.06.03 18:52:26.
