data_PCOD9542144
_publ_section_title
;
Structure prediction by ZEFSAII (Michael W. Deem and Ramdas Pophale) SiO2 
 PCOD9542144
Probable space group: I 41
;
_chemical_formula_sum "Si O2"
_cell_formula_units_Z 64
_cell_length_a 14.375108
_cell_length_b 14.375108
_cell_length_c 17.460967
_cell_angle_alpha 90.000000
_cell_angle_beta 90.000000
_cell_angle_gamma 90.000000
_cell_volume 3608.199350
_symmetry_space_group_name_H-M "I 41"
_symmetry_group_IT_number 80
_symmetry_cell_setting 'tetragonal'
loop_
_space_group_symop_operation_xyz
x,y,z
-y,1/2+x,1/4+z
-x,-y,z
y,1/2-x,1/4+z
1/2+x,1/2+y,1/2+z
1/2-y,x,3/4+z
1/2-x,1/2-y,1/2+z
1/2+y,-x,3/4+z
loop_
_atom_site_type_symbol
_atom_site_label
_atom_site_fract_x
_atom_site_fract_y
_atom_site_fract_z
Si Si1 0.302080 0.306307 0.679410
Si Si2 0.404636 0.464738 0.768876
Si Si3 0.866061 0.560786 0.676734
Si Si4 0.194654 0.032109 0.538621
Si Si5 0.606949 0.266409 0.008079
Si Si6 0.482562 0.888602 0.450925
Si Si7 0.159619 0.307528 0.035418
Si Si8 0.362885 0.725922 0.190839
O O1 0.367478 0.370354 0.730945
O O2 0.224231 0.379969 0.651897
O O3 0.248819 0.225434 0.726183
O O4 0.351844 0.257089 0.609016
O O5 0.500000 0.500000 0.732569
O O6 0.427795 0.436436 0.856448
O O7 0.328675 0.546532 0.759615
O O8 0.907601 0.614947 0.748786
O O9 0.836582 0.460416 0.709726
O O10 0.280627 0.100498 0.555422
O O11 0.151299 0.992935 0.615536
O O12 0.226661 0.953187 0.479515
O O13 0.623762 0.283603 0.098983
O O14 0.706552 0.277879 0.965761
O O15 0.563064 0.839916 0.499779
O O16 0.378054 0.862022 0.474937
O O17 0.500000 0.000000 0.451657
#
# Coordination Sequence:
#
# PCOD9542144 Si02
#       8
#     8   8   8   8   8   8   8   8
#     4  10  21  38  62  91 124 160 204 260 321 378
#     4  11  22  40  64  94 124 166 211 260 322 394
#     4  10  21  34  64  98 126 158 198 262 336 388
#     4  11  22  34  59  92 128 156 198 263 329 381
#     4  11  24  40  62  93 135 167 211 266 331 398
#     4  12  24  38  62  91 127 171 215 262 323 390
#     4  11  21  39  62  88 124 164 210 265 313 377
#     4  12  23  40  58  89 132 174 209 259 328 391
#
# _framework density 17.737379000000001
#
# number of rings (size 3 to 8) (size 9 to 14) (size 15 to 20)
#    0.000    1.000    6.250    1.500    0.000    0.000 
#    2.250    0.000    0.000    2.250    0.000    0.000 
#    0.000    0.000    0.000    0.000    0.000    0.000 
#
# Total GULP energy -178465.699682 kJ/mol
# GULP energy per Si atom -5577.053115 kJ/mol
# Density = 1.769701 g / cm^3
# Si number density = 17.737379 Si / 1000 Ang^3
#
#
#
# Elastic Constant Matrix: (Units=GPa)
#
#
# Indices 1 2 3 4 5 6 
#
# 1 112.7962 67.5731 44.7317 0.0000 0.0000 11.4666
# 2 67.5731 112.7962 44.7317 0.0000 0.0000 -11.4666
# 3 44.7317 44.7317 71.2940 0.0000 0.0000 0.0000
# 4 0.0000 0.0000 0.0000 18.8754 0.0000 0.0000
# 5 0.0000 0.0000 0.0000 0.0000 18.8754 0.0000
# 6 11.4666 -11.4666 0.0000 0.0000 0.0000 9.9716
#
#
#
# Elastic Compliance Matrix: (Units=1/GPa)
#
#
# Indices 1 2 3 4 5 6 
#
# 1 0.030548 -0.022499 -0.005050 0.000000 0.000000 -0.061000
# 2 -0.022499 0.030548 -0.005050 0.000000 0.000000 0.061000
# 3 -0.005050 -0.005050 0.020364 0.000000 0.000000 0.000000
# 4 0.000000 0.000000 0.000000 0.052979 0.000000 0.000000
# 5 0.000000 0.000000 0.000000 0.000000 0.052979 0.000000
# 6 -0.061000 0.061000 0.000000 0.000000 0.000000 0.240578
#
#
# Mechanical properties :
#
#
# Convention : Reuss Voigt Hill
#
# Bulk Modulus (GPa) = 61.49671 67.88440 64.69056
# Shear Modulus (GPa) = 10.02778 18.86779 14.44779
#
# Velocity S-wave (km/s) = 2.38028 3.26503 2.85711
# Velocity P-wave (km/s) = 6.50387 7.25044 6.88728
#
# Compressibility (1/GPa) = 0.01626103
#
# Stress axis : x y z
#
# Youngs Moduli (GPa) = 32.73544 32.73543 49.10701
#
# Poissons Ratio (x) = 0.73651 0.24800
# Poissons Ratio (y) = 0.73651 0.24800
# Poissons Ratio (z) = 0.16532 0.16532
#
# Static dielectric constant tensor:
#      x y z
#    x 1.624420 0.000000 0.000000 
#    y 0.000000 1.624420 0.000000 
#    z 0.000000 0.000000 1.604350 
# 
# From -- ./inp_files/1588.got.cif
#   From: 2010.05.17/outbox.cif.g08.bks.cpg/sg80_cif.got.tgz:1588.got - 2010.06.03 18:49:13.
