data_PCOD9542727
_publ_section_title
;
Structure prediction by ZEFSAII (Michael W. Deem and Ramdas Pophale) SiO2 
 PCOD9542727
Probable space group: I -4 
;
_chemical_formula_sum "Si O2"
_cell_formula_units_Z 40
_cell_length_a 7.869147
_cell_length_b 7.869147
_cell_length_c 29.482298
_cell_angle_alpha 90.000000
_cell_angle_beta 90.000000
_cell_angle_gamma 90.000000
_cell_volume 1825.646329
_symmetry_space_group_name_H-M "I -4 "
_symmetry_group_IT_number 82
_symmetry_cell_setting 'tetragonal'
loop_
_space_group_symop_operation_xyz
x,y,z
y,-x,-z
-x,-y,z
-y,x,-z
1/2+x,1/2+y,1/2+z
1/2+y,1/2-x,1/2-z
1/2-x,1/2-y,1/2+z
1/2-y,1/2+x,1/2-z
loop_
_atom_site_type_symbol
_atom_site_label
_atom_site_fract_x
_atom_site_fract_y
_atom_site_fract_z
Si Si1 0.000000 0.000000 0.754879
Si Si2 0.886415 0.747430 0.990083
Si Si3 0.500000 0.000000 0.856695
Si Si4 0.753384 0.237745 0.694668
Si Si5 0.892422 0.244893 0.421880
Si Si6 0.768715 0.600242 0.900456
O O1 0.112959 0.864898 0.725946
O O2 0.873024 0.874435 0.782476
O O3 0.886393 0.674530 0.939733
O O4 0.793516 0.625355 0.025783
O O5 0.074525 0.786770 0.007714
O O6 0.590461 0.865196 0.825408
O O7 0.367239 0.908375 0.890180
O O8 0.849783 0.315087 0.650686
O O9 0.082421 0.180653 0.411427
O O10 0.763346 0.098640 0.407325
#
# Coordination Sequence:
#
# PCOD9542727 Si02
#       6
#     4   8   4   8   8   8
#     4  12  26  46  72 100 136 174 226 288 350 410
#     4  11  23  37  55  86 129 173 214 260 318 386
#     4  10  20  41  70  94 126 174 222 261 324 410
#     4  11  24  44  69  98 132 173 222 280 345 405
#     4  10  20  37  63  92 126 166 213 262 314 386
#     4  10  22  39  62  92 125 164 215 269 324 390
#
# _framework density 21.910049000000001
#
# number of rings (size 3 to 8) (size 9 to 14) (size 15 to 20)
#    0.000    1.400    0.000    7.200    0.000    7.600 
#    0.000    2.000    0.000    0.000    0.000    0.000 
#    0.000    0.000    0.000    0.000    0.000    0.000 
#
# Total GULP energy -111828.802961 kJ/mol
# GULP energy per Si atom -5591.440148 kJ/mol
# Density = 2.186018 g / cm^3
# Si number density = 21.910049 Si / 1000 Ang^3
#
#
#
# Elastic Constant Matrix: (Units=GPa)
#
#
# Indices 1 2 3 4 5 6 
#
# 1 98.6758 35.4914 65.0481 0.0000 0.0000 -2.6239
# 2 35.4914 98.6758 65.0481 0.0000 0.0000 2.6239
# 3 65.0481 65.0481 163.9229 0.0000 0.0000 0.0000
# 4 0.0000 0.0000 0.0000 32.8685 0.0000 0.0000
# 5 0.0000 0.0000 0.0000 0.0000 32.8685 0.0000
# 6 -2.6239 2.6239 0.0000 0.0000 0.0000 29.0569
#
#
#
# Elastic Compliance Matrix: (Units=1/GPa)
#
#
# Indices 1 2 3 4 5 6 
#
# 1 0.014031 -0.001916 -0.004807 0.000000 0.000000 0.001440
# 2 -0.001916 0.014031 -0.004807 0.000000 0.000000 -0.001440
# 3 -0.004807 -0.004807 0.009916 0.000000 0.000000 0.000000
# 4 0.000000 0.000000 0.000000 0.030424 0.000000 0.000000
# 5 0.000000 0.000000 0.000000 0.000000 0.030424 0.000000
# 6 0.001440 -0.001440 0.000000 0.000000 0.000000 0.034675
#
#
# Mechanical properties :
#
#
# Convention : Reuss Voigt Hill
#
# Bulk Modulus (GPa) = 67.04255 76.93888 71.99071
# Shear Modulus (GPa) = 30.95320 32.00458 31.47889
#
# Velocity S-wave (km/s) = 3.76272 3.82609 3.79454
# Velocity P-wave (km/s) = 7.03867 7.39667 7.21989
#
# Compressibility (1/GPa) = 0.01491590
#
# Stress axis : x y z
#
# Youngs Moduli (GPa) = 71.27252 71.27253 100.84852
#
# Poissons Ratio (x) = 0.13653 0.48483
# Poissons Ratio (y) = 0.13653 0.48483
# Poissons Ratio (z) = 0.34264 0.34264
#
# Static dielectric constant tensor:
#      x y z
#    x 1.824410 0.000000 0.000000 
#    y 0.000000 1.824410 0.000000 
#    z 0.000000 0.000000 1.795280 
# 
# From -- ./inp_files/3717.got.cif
#   From: 2010.05.17/outbox.cif.g08.bks.cpg/sg82_2_cif.got.tgz:3717.got - 2010.06.03 18:52:26.
