data_PCOD9542706
_publ_section_title
;
Structure prediction by ZEFSAII (Michael W. Deem and Ramdas Pophale) SiO2 
 PCOD9542706
Probable space group: I -4 
;
_chemical_formula_sum "Si O2"
_cell_formula_units_Z 40
_cell_length_a 21.310487
_cell_length_b 21.310487
_cell_length_c 5.178646
_cell_angle_alpha 90.000000
_cell_angle_beta 90.000000
_cell_angle_gamma 90.000000
_cell_volume 2351.814014
_symmetry_space_group_name_H-M "I -4 "
_symmetry_group_IT_number 82
_symmetry_cell_setting 'tetragonal'
loop_
_space_group_symop_operation_xyz
x,y,z
y,-x,-z
-x,-y,z
-y,x,-z
1/2+x,1/2+y,1/2+z
1/2+y,1/2-x,1/2-z
1/2-x,1/2-y,1/2+z
1/2-y,1/2+x,1/2-z
loop_
_atom_site_type_symbol
_atom_site_label
_atom_site_fract_x
_atom_site_fract_y
_atom_site_fract_z
Si Si1 0.999422 0.104688 0.969553
Si Si2 0.672683 0.770043 0.660862
Si Si3 0.249629 0.605779 0.846483
Si Si4 0.340377 0.703203 0.020888
Si Si5 0.013980 0.813208 0.474041
O O1 0.997344 0.132501 0.683878
O O2 0.938936 0.060252 0.001530
O O3 0.998257 0.158842 0.188646
O O4 0.621286 0.774626 0.436505
O O5 0.692174 0.696738 0.708434
O O6 0.734628 0.808165 0.592446
O O7 0.643664 0.789007 0.936012
O O8 0.260058 0.535713 0.943130
O O9 0.317144 0.641515 0.866269
O O10 0.414388 0.707602 0.013123
#
# Coordination Sequence:
#
# PCOD9542706 Si02
#       5
#     8   8   8   8   8
#     4  11  23  37  47  68 106 152 186 215 251 302
#     4  10  20  36  55  74 102 140 177 215 277 319
#     4  10  20  35  50  78 106 133 173 231 263 304
#     4  10  21  35  58  75 102 142 179 215 272 324
#     4  12  24  32  56  77 105 136 188 227 268 304
#
# _framework density 17.008147000000001
#
# number of rings (size 3 to 8) (size 9 to 14) (size 15 to 20)
#    1.200    0.200    2.000    4.800    5.600    1.600 
#    0.000    0.000    0.000    0.000    0.000    0.000 
#    0.000    4.800    0.000    0.000    0.000    0.000 
#
# Total GULP energy -111443.698975 kJ/mol
# GULP energy per Si atom -5572.184949 kJ/mol
# Density = 1.696944 g / cm^3
# Si number density = 17.008147 Si / 1000 Ang^3
#
#
#
# Elastic Constant Matrix: (Units=GPa)
#
#
# Indices 1 2 3 4 5 6 
#
# 1 30.7602 -8.2848 -5.4995 0.0000 0.0000 4.4667
# 2 -8.2848 30.7602 -5.4995 0.0000 0.0000 -4.4667
# 3 -5.4995 -5.4995 55.6666 0.0000 0.0000 0.0000
# 4 0.0000 0.0000 0.0000 19.6303 0.0000 0.0000
# 5 0.0000 0.0000 0.0000 0.0000 19.6303 0.0000
# 6 4.4667 -4.4667 0.0000 0.0000 0.0000 19.7629
#
#
#
# Elastic Compliance Matrix: (Units=1/GPa)
#
#
# Indices 1 2 3 4 5 6 
#
# 1 0.036881 0.009873 0.004619 0.000000 0.000000 -0.006104
# 2 0.009873 0.036881 0.004619 0.000000 0.000000 0.006104
# 3 0.004619 0.004619 0.018877 0.000000 0.000000 0.000000
# 4 0.000000 0.000000 0.000000 0.050942 0.000000 0.000000
# 5 0.000000 0.000000 0.000000 0.000000 0.050942 0.000000
# 6 -0.006104 0.006104 0.000000 0.000000 0.000000 0.053359
#
#
# Mechanical properties :
#
#
# Convention : Reuss Voigt Hill
#
# Bulk Modulus (GPa) = 7.64179 8.73549 8.18864
# Shear Modulus (GPa) = 19.74106 20.90277 20.32192
#
# Velocity S-wave (km/s) = 3.41057 3.50949 3.46039
# Velocity P-wave (km/s) = 4.47349 4.64427 4.55968
#
# Compressibility (1/GPa) = 0.13085946
#
# Stress axis : x y z
#
# Youngs Moduli (GPa) = 27.11439 27.11439 52.97523
#
# Poissons Ratio (x) = -0.26769 -0.24469
# Poissons Ratio (y) = -0.26769 -0.24469
# Poissons Ratio (z) = -0.12524 -0.12524
#
# Static dielectric constant tensor:
#      x y z
#    x 1.570830 0.000000 0.000000 
#    y 0.000000 1.570830 0.000000 
#    z 0.000000 0.000000 1.617830 
# 
# From -- ./inp_files/294.got.cif
#   From: 2010.05.17/outbox.cif.g08.bks.cpg/sg82_1_cif.got.tgz:294.got - 2010.06.03 18:52:26.
