data_PCOD9542815
_publ_section_title
;
Structure prediction by ZEFSAII (Michael W. Deem and Ramdas Pophale) SiO2 
 PCOD9542815
Probable space group: I -4 
;
_chemical_formula_sum "Si O2"
_cell_formula_units_Z 48
_cell_length_a 11.811200
_cell_length_b 11.811200
_cell_length_c 16.268932
_cell_angle_alpha 90.000000
_cell_angle_beta 90.000000
_cell_angle_gamma 90.000000
_cell_volume 2269.588337
_symmetry_space_group_name_H-M "I -4 "
_symmetry_group_IT_number 82
_symmetry_cell_setting 'tetragonal'
loop_
_space_group_symop_operation_xyz
x,y,z
y,-x,-z
-x,-y,z
-y,x,-z
1/2+x,1/2+y,1/2+z
1/2+y,1/2-x,1/2-z
1/2-x,1/2-y,1/2+z
1/2-y,1/2+x,1/2-z
loop_
_atom_site_type_symbol
_atom_site_label
_atom_site_fract_x
_atom_site_fract_y
_atom_site_fract_z
Si Si1 0.586549 0.315677 0.792874
Si Si2 0.133182 0.910709 0.961385
Si Si3 0.678691 0.161602 0.073955
Si Si4 0.172683 0.052947 0.517644
Si Si5 0.209773 0.013747 0.189391
Si Si6 0.680438 0.725176 0.786583
O O1 0.601483 0.320871 0.890664
O O2 0.637515 0.424257 0.743804
O O3 0.452166 0.301520 0.780944
O O4 0.660894 0.211308 0.760888
O O5 0.081166 0.864439 0.878240
O O6 0.252999 0.867571 0.990956
O O7 0.045887 0.871194 0.033216
O O8 0.696899 0.054954 0.135446
O O9 0.737307 0.263976 0.123961
O O10 0.563256 0.215418 0.038689
O O11 0.072944 0.125016 0.475787
O O12 0.246583 0.115777 0.248786
#
# Coordination Sequence:
#
# PCOD9542815 Si02
#       6
#     8   8   8   8   8   8
#     4  11  24  39  68  93 133 172 212 287 323 408
#     4   9  19  33  59  91 120 158 211 267 315 373
#     4  10  21  39  62  94 132 165 213 279 324 394
#     4  11  22  40  65  94 127 171 228 270 332 407
#     4  10  22  38  65  95 125 167 224 276 325 393
#     4  11  23  39  63  97 130 170 220 262 345 387
#
# _framework density 21.149211000000001
#
# number of rings (size 3 to 8) (size 9 to 14) (size 15 to 20)
#    0.000    1.667    1.667    2.500   14.000    0.333 
#    0.000    0.000    0.000   37.000    0.000    0.000 
#    0.000    0.000    0.000    0.000    0.000    0.000 
#
# Total GULP energy -133769.132314 kJ/mol
# GULP energy per Si atom -5573.713846 kJ/mol
# Density = 2.110107 g / cm^3
# Si number density = 21.149211 Si / 1000 Ang^3
#
#
#
# Elastic Constant Matrix: (Units=GPa)
#
#
# Indices 1 2 3 4 5 6 
#
# 1 42.8936 19.7831 -3.5546 0.0000 0.0000 -2.7639
# 2 19.7831 42.8936 -3.5546 0.0000 0.0000 2.7639
# 3 -3.5546 -3.5546 43.9355 0.0000 0.0000 0.0000
# 4 0.0000 0.0000 0.0000 18.3663 0.0000 0.0000
# 5 0.0000 0.0000 0.0000 0.0000 18.3663 0.0000
# 6 -2.7639 2.7639 0.0000 0.0000 0.0000 31.3707
#
#
#
# Elastic Compliance Matrix: (Units=1/GPa)
#
#
# Indices 1 2 3 4 5 6 
#
# 1 0.030152 -0.014050 0.001303 0.000000 0.000000 0.003894
# 2 -0.014050 0.030152 0.001303 0.000000 0.000000 -0.003894
# 3 0.001303 0.001303 0.022971 0.000000 0.000000 0.000000
# 4 0.000000 0.000000 0.000000 0.054448 0.000000 0.000000
# 5 0.000000 0.000000 0.000000 0.000000 0.054448 0.000000
# 6 0.003894 -0.003894 0.000000 0.000000 0.000000 0.032563
#
#
# Mechanical properties :
#
#
# Convention : Reuss Voigt Hill
#
# Bulk Modulus (GPa) = 16.55959 17.23005 16.89482
# Shear Modulus (GPa) = 18.67403 21.42391 20.04897
#
# Velocity S-wave (km/s) = 2.97470 3.18620 3.08226
# Velocity P-wave (km/s) = 4.43230 4.65837 4.54674
#
# Compressibility (1/GPa) = 0.06038796
#
# Stress axis : x y z
#
# Youngs Moduli (GPa) = 33.16506 33.16506 43.53226
#
# Poissons Ratio (x) = 0.46595 -0.05671
# Poissons Ratio (y) = 0.46595 -0.05671
# Poissons Ratio (z) = -0.04321 -0.04321
#
# Static dielectric constant tensor:
#      x y z
#    x 1.775100 0.000000 0.000000 
#    y 0.000000 1.775100 0.000000 
#    z 0.000000 0.000000 1.858570 
# 
# From -- ./inp_files/2635.got.cif
#   From: 2010.05.17/outbox.cif.g08.bks.cpg/sg82_2_cif.got.tgz:2635.got - 2010.06.03 18:52:26.
