data_PCOD9542382
_publ_section_title
;
Structure prediction by ZEFSAII (Michael W. Deem and Ramdas Pophale) SiO2 
 PCOD9542382
Probable space group: P -4
;
_chemical_formula_sum "Si O2"
_cell_formula_units_Z 18
_cell_length_a 11.949241
_cell_length_b 11.949241
_cell_length_c 5.931598
_cell_angle_alpha 90.000000
_cell_angle_beta 90.000000
_cell_angle_gamma 90.000000
_cell_volume 846.939427
_symmetry_space_group_name_H-M "P -4"
_symmetry_group_IT_number 81
_symmetry_cell_setting 'tetragonal'
loop_
_space_group_symop_operation_xyz
x,y,z
y,-x,-z
-x,-y,z
-y,x,-z
loop_
_atom_site_type_symbol
_atom_site_label
_atom_site_fract_x
_atom_site_fract_y
_atom_site_fract_z
Si Si1 0.417228 0.185337 0.366540
Si Si2 0.731113 0.067027 0.735742
Si Si3 0.238176 0.327622 0.620445
Si Si4 0.000000 0.500000 0.287769
Si Si5 0.252039 0.153234 0.988110
O O1 0.331791 0.281572 0.448134
O O2 0.540818 0.233999 0.342809
O O3 0.434073 0.088806 0.554636
O O4 0.360599 0.133613 0.143629
O O5 0.713485 0.118801 0.485781
O O6 0.601504 0.067403 0.829093
O O7 0.769609 0.943542 0.806024
O O8 0.820849 0.147778 0.851965
O O9 0.266606 0.266518 0.850266
#
# Coordination Sequence:
#
# PCOD9542382 Si02
#       5
#     4   4   4   2   4
#     4  10  23  40  66  96 129 173 217 264 327 390
#     4  10  24  39  64  94 130 168 216 268 324 386
#     4  10  23  43  63  97 134 170 209 275 328 379
#     4  10  20  42  66  92 132 170 214 280 314 384
#     4  11  24  40  66  99 126 172 223 264 322 395
#
# _framework density 21.252994999999999
#
# number of rings (size 3 to 8) (size 9 to 14) (size 15 to 20)
#    0.000    1.778    2.222    0.000    9.333    2.667 
#    0.000    0.000    0.000    0.000    0.000    0.000 
#    0.000    0.000    0.000    0.000    0.000    0.000 
#
# Total GULP energy -100320.371408 kJ/mol
# GULP energy per Si atom -5573.353967 kJ/mol
# Density = 2.120462 g / cm^3
# Si number density = 21.252995 Si / 1000 Ang^3
#
#
#
# Elastic Constant Matrix: (Units=GPa)
#
#
# Indices 1 2 3 4 5 6 
#
# 1 109.6428 28.1042 17.0849 0.0000 0.0000 9.0527
# 2 28.1042 109.6428 17.0849 0.0000 0.0000 -9.0527
# 3 17.0849 17.0849 31.9127 0.0000 0.0000 0.0000
# 4 0.0000 0.0000 0.0000 29.5039 0.0000 0.0000
# 5 0.0000 0.0000 0.0000 0.0000 29.5039 0.0000
# 6 9.0527 -9.0527 0.0000 0.0000 0.0000 31.3615
#
#
#
# Elastic Compliance Matrix: (Units=1/GPa)
#
#
# Indices 1 2 3 4 5 6 
#
# 1 0.010738 -0.002366 -0.004482 0.000000 0.000000 -0.003783
# 2 -0.002366 0.010738 -0.004482 0.000000 0.000000 0.003783
# 3 -0.004482 -0.004482 0.036134 0.000000 0.000000 0.000000
# 4 0.000000 0.000000 0.000000 0.033894 0.000000 0.000000
# 5 0.000000 0.000000 0.000000 0.000000 0.033894 0.000000
# 6 -0.003783 0.003783 0.000000 0.000000 0.000000 0.034070
#
#
# Mechanical properties :
#
#
# Convention : Reuss Voigt Hill
#
# Bulk Modulus (GPa) = 28.61224 41.74958 35.18091
# Shear Modulus (GPa) = 25.80286 30.66882 28.23584
#
# Velocity S-wave (km/s) = 3.48815 3.80285 3.64889
# Velocity P-wave (km/s) = 5.45113 6.24251 5.86020
#
# Compressibility (1/GPa) = 0.03495008
#
# Stress axis : x y z
#
# Youngs Moduli (GPa) = 93.12952 93.12952 27.67457
#
# Poissons Ratio (x) = 0.22037 0.12403
# Poissons Ratio (y) = 0.22037 0.12403
# Poissons Ratio (z) = 0.41738 0.41738
#
# Static dielectric constant tensor:
#      x y z
#    x 1.786060 0.000000 0.000000 
#    y 0.000000 1.786060 0.000000 
#    z 0.000000 0.000000 1.848900 
# 
# From -- ./inp_files/177.got.cif
#   From: 2010.05.17/outbox.cif.g08.bks.cpg/sg81_cif.got.tgz:177.got - 2010.06.03 18:51:07.
