data_PCOD9542878
_publ_section_title
;
Structure prediction by ZEFSAII (Michael W. Deem and Ramdas Pophale) SiO2 
 PCOD9542878
Probable space group: I -4 
;
_chemical_formula_sum "Si O2"
_cell_formula_units_Z 36
_cell_length_a 12.676732
_cell_length_b 12.676732
_cell_length_c 9.710881
_cell_angle_alpha 90.000000
_cell_angle_beta 90.000000
_cell_angle_gamma 90.000000
_cell_volume 1560.534053
_symmetry_space_group_name_H-M "I -4 "
_symmetry_group_IT_number 82
_symmetry_cell_setting 'tetragonal'
loop_
_space_group_symop_operation_xyz
x,y,z
y,-x,-z
-x,-y,z
-y,x,-z
1/2+x,1/2+y,1/2+z
1/2+y,1/2-x,1/2-z
1/2-x,1/2-y,1/2+z
1/2-y,1/2+x,1/2-z
loop_
_atom_site_type_symbol
_atom_site_label
_atom_site_fract_x
_atom_site_fract_y
_atom_site_fract_z
Si Si1 0.500000 0.500000 0.000000
Si Si2 0.657140 0.445792 0.471563
Si Si3 0.527832 0.809812 0.097922
Si Si4 0.000000 0.500000 0.750000
Si Si5 0.215440 0.690218 0.685654
Si Si6 0.932662 0.795461 0.327567
O O1 0.447835 0.409364 0.903760
O O2 0.550151 0.378291 0.446541
O O3 0.734985 0.372584 0.557509
O O4 0.698826 0.481916 0.323346
O O5 0.560445 0.927315 0.141659
O O6 0.620103 0.749044 0.181601
O O7 0.410550 0.801255 0.158108
O O8 0.521787 0.783952 0.939569
O O9 0.242532 0.812469 0.695280
#
# Coordination Sequence:
#
# PCOD9542878 Si02
#       6
#     2   8   8   2   8   8
#     4  12  24  40  70 104 136 172 246 304 356 428
#     4  11  26  45  68 103 144 187 235 310 374 434
#     4  10  22  41  69  97 133 183 234 289 358 433
#     4   8  20  44  68  94 144 184 228 298 368 440
#     4  11  23  43  67  99 140 184 235 297 369 432
#     4  12  24  41  70 102 133 184 238 298 363 448
#
# _framework density 23.069023999999999
#
# number of rings (size 3 to 8) (size 9 to 14) (size 15 to 20)
#    0.000    1.111    2.222    4.000    3.111    5.333 
#    0.000    0.000    0.000    1.333    0.000    0.000 
#    0.000    0.000    0.000    0.000    0.000    0.000 
#
# Total GULP energy -100414.023025 kJ/mol
# GULP energy per Si atom -5578.556835 kJ/mol
# Density = 2.301652 g / cm^3
# Si number density = 23.069024 Si / 1000 Ang^3
#
#
#
# Elastic Constant Matrix: (Units=GPa)
#
#
# Indices 1 2 3 4 5 6 
#
# 1 1.8134 -30.2639 -7.9440 0.0000 0.0000 -1.4128
# 2 -30.2639 1.8134 -7.9440 0.0000 0.0000 1.4128
# 3 -7.9440 -7.9440 112.5835 0.0000 0.0000 0.0000
# 4 0.0000 0.0000 0.0000 31.7828 0.0000 0.0000
# 5 0.0000 0.0000 0.0000 0.0000 31.7828 0.0000
# 6 -1.4128 1.4128 0.0000 0.0000 0.0000 18.6466
#
#
#
# Elastic Compliance Matrix: (Units=1/GPa)
#
#
# Indices 1 2 3 4 5 6 
#
# 1 -0.001216 -0.032600 -0.002386 0.000000 0.000000 0.002378
# 2 -0.032600 -0.001216 -0.002386 0.000000 0.000000 -0.002378
# 3 -0.002386 -0.002386 0.008546 0.000000 0.000000 0.000000
# 4 0.000000 0.000000 0.000000 0.031464 0.000000 0.000000
# 5 0.000000 0.000000 0.000000 0.000000 0.031464 0.000000
# 6 0.002378 -0.002378 0.000000 0.000000 0.000000 0.053989
#
#
# Mechanical properties :
#
#
# Convention : Reuss Voigt Hill
#
# Bulk Modulus (GPa) = -14.57059 2.65627 -5.95716
# Shear Modulus (GPa) = 28.58816 27.26658 27.92737
#
# Velocity S-wave (km/s) = 3.52411 3.44169 3.48314
# Velocity P-wave (km/s) = 3.19833 4.11674 3.68625
#
# Compressibility (1/GPa) = -0.06863140
#
# Stress axis : x y z
#
# Youngs Moduli (GPa) = -822.31790 -822.31790 117.01976
#
# Poissons Ratio (x) = -26.80771 0.27922
# Poissons Ratio (y) = -26.80771 0.27922
# Poissons Ratio (z) = -1.96214 -1.96214
#
# Static dielectric constant tensor:
#      x y z
#    x 2.006770 0.000000 0.000000 
#    y 0.000000 2.006770 0.000000 
#    z 0.000000 0.000000 1.822320 
# 
# From -- ./inp_files/886.got.cif
#   From: 2010.05.17/outbox.cif.g08.bks.cpg/sg82_1_cif.got.tgz:886.got - 2010.06.03 18:52:26.
