data_PCOD9542748
_publ_section_title
;
Structure prediction by ZEFSAII (Michael W. Deem and Ramdas Pophale) SiO2 
 PCOD9542748
Probable space group: I -4 
;
_chemical_formula_sum "Si O2"
_cell_formula_units_Z 38
_cell_length_a 10.212591
_cell_length_b 10.212591
_cell_length_c 19.313850
_cell_angle_alpha 90.000000
_cell_angle_beta 90.000000
_cell_angle_gamma 90.000000
_cell_volume 2014.376902
_symmetry_space_group_name_H-M "I -4 "
_symmetry_group_IT_number 82
_symmetry_cell_setting 'tetragonal'
loop_
_space_group_symop_operation_xyz
x,y,z
y,-x,-z
-x,-y,z
-y,x,-z
1/2+x,1/2+y,1/2+z
1/2+y,1/2-x,1/2-z
1/2-x,1/2-y,1/2+z
1/2-y,1/2+x,1/2-z
loop_
_atom_site_type_symbol
_atom_site_label
_atom_site_fract_x
_atom_site_fract_y
_atom_site_fract_z
Si Si1 0.843179 0.989681 0.290494
Si Si2 0.157750 0.149261 0.013993
Si Si3 0.500000 0.000000 0.410752
Si Si4 0.721815 0.845345 0.162809
Si Si5 0.000000 0.000000 0.500000
Si Si6 0.743409 0.626883 0.927290
O O1 0.771449 0.130733 0.305231
O O2 0.812461 0.921294 0.217265
O O3 0.773525 0.891905 0.345600
O O4 0.000000 0.000000 0.299978
O O5 0.200562 0.190004 0.091907
O O6 0.242252 0.230329 0.958803
O O7 0.005495 0.176930 0.997624
O O8 0.452690 0.882331 0.362974
O O9 0.627058 0.951896 0.451194
O O10 0.117520 0.054840 0.455602
#
# Coordination Sequence:
#
# PCOD9542748 Si02
#       6
#     8   8   4   8   2   8
#     4  11  24  41  69  98 133 180 224 290 342 407
#     4  11  25  42  67  99 136 181 225 286 351 411
#     4  10  20  39  64  94 124 181 220 284 326 407
#     4  11  23  41  66  99 134 173 235 273 347 409
#     4  12  24  36  64  92 136 164 234 276 340 396
#     4  11  22  41  62  97 131 175 227 279 338 405
#
# _framework density 18.864394000000001
#
# number of rings (size 3 to 8) (size 9 to 14) (size 15 to 20)
#    0.000    1.053    3.158    5.053    2.947    0.842 
#    0.000    0.000    0.000    3.158    0.000    0.000 
#    0.000    0.000    0.000    0.000    0.000    0.000 
#
# Total GULP energy -105965.999508 kJ/mol
# GULP energy per Si atom -5577.157869 kJ/mol
# Density = 1.882146 g / cm^3
# Si number density = 18.864394 Si / 1000 Ang^3
#
#
#
# Elastic Constant Matrix: (Units=GPa)
#
#
# Indices 1 2 3 4 5 6 
#
# 1 101.2211 48.0791 23.7654 0.0000 0.0000 -2.5244
# 2 48.0791 101.2211 23.7654 0.0000 0.0000 2.5244
# 3 23.7654 23.7654 72.1755 0.0000 0.0000 0.0000
# 4 0.0000 0.0000 0.0000 47.5081 0.0000 0.0000
# 5 0.0000 0.0000 0.0000 0.0000 47.5081 0.0000
# 6 -2.5244 2.5244 0.0000 0.0000 0.0000 26.5637
#
#
#
# Elastic Compliance Matrix: (Units=1/GPa)
#
#
# Indices 1 2 3 4 5 6 
#
# 1 0.013236 -0.005753 -0.002464 0.000000 0.000000 0.001805
# 2 -0.005753 0.013236 -0.002464 0.000000 0.000000 -0.001805
# 3 -0.002464 -0.002464 0.015478 0.000000 0.000000 0.000000
# 4 0.000000 0.000000 0.000000 0.021049 0.000000 0.000000
# 5 0.000000 0.000000 0.000000 0.000000 0.021049 0.000000
# 6 0.001805 -0.001805 0.000000 0.000000 0.000000 0.037988
#
#
# Mechanical properties :
#
#
# Convention : Reuss Voigt Hill
#
# Bulk Modulus (GPa) = 48.57368 51.75972 50.16670
# Shear Modulus (GPa) = 33.27585 36.24984 34.76284
#
# Velocity S-wave (km/s) = 4.20450 4.38836 4.29741
# Velocity P-wave (km/s) = 7.02675 7.29207 7.16064
#
# Compressibility (1/GPa) = 0.02058728
#
# Stress axis : x y z
#
# Youngs Moduli (GPa) = 75.55379 75.55379 64.60961
#
# Poissons Ratio (x) = 0.43469 0.15918
# Poissons Ratio (y) = 0.43469 0.15918
# Poissons Ratio (z) = 0.18614 0.18614
#
# Static dielectric constant tensor:
#      x y z
#    x 1.626450 0.000000 0.000000 
#    y 0.000000 1.626450 0.000000 
#    z 0.000000 0.000000 1.705510 
# 
# From -- ./inp_files/3398.got.cif
#   From: 2010.05.17/outbox.cif.g08.bks.cpg/sg82_2_cif.got.tgz:3398.got - 2010.06.03 18:52:26.
