data_PCOD9542269
_publ_section_title
;
Structure prediction by ZEFSAII (Michael W. Deem and Ramdas Pophale) SiO2 
 PCOD9542269
Probable space group: I 41
;
_chemical_formula_sum "Si O2"
_cell_formula_units_Z 36
_cell_length_a 8.421901
_cell_length_b 8.421901
_cell_length_c 20.456987
_cell_angle_alpha 90.000000
_cell_angle_beta 90.000000
_cell_angle_gamma 90.000000
_cell_volume 1450.981693
_symmetry_space_group_name_H-M "I 41"
_symmetry_group_IT_number 80
_symmetry_cell_setting 'tetragonal'
loop_
_space_group_symop_operation_xyz
x,y,z
-y,1/2+x,1/4+z
-x,-y,z
y,1/2-x,1/4+z
1/2+x,1/2+y,1/2+z
1/2-y,x,3/4+z
1/2-x,1/2-y,1/2+z
1/2+y,-x,3/4+z
loop_
_atom_site_type_symbol
_atom_site_label
_atom_site_fract_x
_atom_site_fract_y
_atom_site_fract_z
Si Si1 0.272387 0.659898 0.441120
Si Si2 0.394689 0.838238 0.080921
Si Si3 0.328786 0.079205 0.495740
Si Si4 0.500000 0.500000 0.041495
Si Si5 0.662092 0.850436 0.646653
O O1 0.183983 0.782344 0.393820
O O2 0.220679 0.661930 0.516743
O O3 0.463277 0.666783 0.422589
O O4 0.241191 0.482268 0.418424
O O5 0.496053 0.672074 0.077421
O O6 0.500000 0.000000 0.081507
O O7 0.165356 0.986145 0.504176
O O8 0.347301 0.148208 0.568774
O O9 0.285462 0.194277 0.437756
O O10 0.500000 0.000000 0.481926
#
# Coordination Sequence:
#
# PCOD9542269 Si02
#       5
#     8   8   8   4   8
#     4  11  24  52  77 120 164 223 282 340 435 504
#     4  12  28  53  79 125 175 217 287 363 423 522
#     4  12  25  48  81 122 164 216 282 351 425 511
#     4  12  26  50  80 122 154 226 278 332 448 482
#     4  11  23  47  83 117 165 225 277 351 423 511
#
# _framework density 24.810789
#
# number of rings (size 3 to 8) (size 9 to 14) (size 15 to 20)
#    0.000    0.444    4.444    4.000    3.111    1.778 
#   16.000    0.000    0.000    0.000    0.000    0.000 
#    0.000    0.000    0.000    0.000    0.000    0.000 
#
# Total GULP energy -100448.495655 kJ/mol
# GULP energy per Si atom -5580.471981 kJ/mol
# Density = 2.475432 g / cm^3
# Si number density = 24.810789 Si / 1000 Ang^3
#
#
#
# Elastic Constant Matrix: (Units=GPa)
#
#
# Indices 1 2 3 4 5 6 
#
# 1 117.2968 58.6001 35.7751 0.0000 0.0000 4.6001
# 2 58.6001 117.2968 35.7751 0.0000 0.0000 -4.6001
# 3 35.7751 35.7751 163.9834 0.0000 0.0000 0.0000
# 4 0.0000 0.0000 0.0000 14.7320 0.0000 0.0000
# 5 0.0000 0.0000 0.0000 0.0000 14.7320 0.0000
# 6 4.6001 -4.6001 0.0000 0.0000 0.0000 40.3720
#
#
#
# Elastic Compliance Matrix: (Units=1/GPa)
#
#
# Indices 1 2 3 4 5 6 
#
# 1 0.011793 -0.005554 -0.001361 0.000000 0.000000 -0.001976
# 2 -0.005554 0.011793 -0.001361 0.000000 0.000000 0.001976
# 3 -0.001361 -0.001361 0.006692 0.000000 0.000000 0.000000
# 4 0.000000 0.000000 0.000000 0.067879 0.000000 0.000000
# 5 0.000000 0.000000 0.000000 0.000000 0.067879 0.000000
# 6 -0.001976 0.001976 0.000000 0.000000 0.000000 0.025220
#
#
# Mechanical properties :
#
#
# Convention : Reuss Voigt Hill
#
# Bulk Modulus (GPa) = 72.85789 73.20862 73.03325
# Shear Modulus (GPa) = 23.54236 31.86234 27.70235
#
# Velocity S-wave (km/s) = 3.08372 3.58748 3.34510
# Velocity P-wave (km/s) = 6.48909 6.83600 6.66480
#
# Compressibility (1/GPa) = 0.01372535
#
# Stress axis : x y z
#
# Youngs Moduli (GPa) = 84.79849 84.79849 149.43109
#
# Poissons Ratio (x) = 0.47096 0.20339
# Poissons Ratio (y) = 0.47096 0.20339
# Poissons Ratio (z) = 0.11542 0.11542
#
# Static dielectric constant tensor:
#      x y z
#    x 2.145080 0.000000 0.000000 
#    y 0.000000 2.145080 0.000000 
#    z 0.000000 0.000000 1.962650 
# 
# From -- ./inp_files/1742.got.cif
#   From: 2010.05.17/outbox.cif.g08.bks.cpg/sg80_cif.got.tgz:1742.got - 2010.06.03 18:49:13.
