data_PCOD9542168
_publ_section_title
;
Structure prediction by ZEFSAII (Michael W. Deem and Ramdas Pophale) SiO2 
 PCOD9542168
Probable space group: I 41
;
_chemical_formula_sum "Si O2"
_cell_formula_units_Z 40
_cell_length_a 7.794902
_cell_length_b 7.794902
_cell_length_c 27.530982
_cell_angle_alpha 90.000000
_cell_angle_beta 90.000000
_cell_angle_gamma 90.000000
_cell_volume 1672.796154
_symmetry_space_group_name_H-M "I 41"
_symmetry_group_IT_number 80
_symmetry_cell_setting 'tetragonal'
loop_
_space_group_symop_operation_xyz
x,y,z
-y,1/2+x,1/4+z
-x,-y,z
y,1/2-x,1/4+z
1/2+x,1/2+y,1/2+z
1/2-y,x,3/4+z
1/2-x,1/2-y,1/2+z
1/2+y,-x,3/4+z
loop_
_atom_site_type_symbol
_atom_site_label
_atom_site_fract_x
_atom_site_fract_y
_atom_site_fract_z
Si Si1 0.811011 0.424598 0.067040
Si Si2 0.540511 0.193393 0.807905
Si Si3 0.204364 0.749102 0.475773
Si Si4 0.964388 0.697360 0.917754
Si Si5 0.809470 0.912205 0.157772
O O1 0.712562 0.517248 0.109672
O O2 0.823288 0.226523 0.083391
O O3 0.000000 0.500000 0.063085
O O4 0.731480 0.405024 0.013794
O O5 0.584255 0.311849 0.761974
O O6 0.415511 0.248143 0.851026
O O7 0.500000 0.000000 0.791159
O O8 0.278368 0.221637 0.678146
O O9 0.377136 0.713436 0.445151
O O10 0.048122 0.788110 0.441014
O O11 0.000000 0.500000 0.930831
O O12 0.000000 0.000000 0.157724
#
# Coordination Sequence:
#
# PCOD9542168 Si02
#       5
#     8   8   8   8   8
#     4  10  21  43  71  99 146 194 253 308 394 463
#     4   9  20  39  69 105 141 188 249 321 384 458
#     4  10  23  45  70 110 146 197 259 325 378 488
#     4  12  27  47  72 106 156 206 245 327 404 467
#     4  11  24  46  76 111 146 199 261 322 395 477
#
# _framework density 23.912057000000001
#
# number of rings (size 3 to 8) (size 9 to 14) (size 15 to 20)
#    1.200    0.400    2.000    3.000    2.800    0.800 
#   10.800    0.000    0.000    0.000    0.000    0.000 
#    0.000    0.000    0.000    0.000    0.000    0.000 
#
# Total GULP energy -111554.151108 kJ/mol
# GULP energy per Si atom -5577.707555 kJ/mol
# Density = 2.385763 g / cm^3
# Si number density = 23.912057 Si / 1000 Ang^3
#
#
#
# Elastic Constant Matrix: (Units=GPa)
#
#
# Indices 1 2 3 4 5 6 
#
# 1 108.4572 32.4210 32.7342 0.0000 0.0000 8.1655
# 2 32.4210 108.4572 32.7342 0.0000 0.0000 -8.1655
# 3 32.7342 32.7342 131.3799 0.0000 0.0000 0.0000
# 4 0.0000 0.0000 0.0000 18.2124 0.0000 0.0000
# 5 0.0000 0.0000 0.0000 0.0000 18.2124 0.0000
# 6 8.1655 -8.1655 0.0000 0.0000 0.0000 11.0201
#
#
#
# Elastic Compliance Matrix: (Units=1/GPa)
#
#
# Indices 1 2 3 4 5 6 
#
# 1 0.011834 -0.003806 -0.002000 0.000000 0.000000 -0.011589
# 2 -0.003806 0.011834 -0.002000 0.000000 0.000000 0.011589
# 3 -0.002000 -0.002000 0.008608 0.000000 0.000000 0.000000
# 4 0.000000 0.000000 0.000000 0.054908 0.000000 0.000000
# 5 0.000000 0.000000 0.000000 0.000000 0.054908 0.000000
# 6 -0.011589 0.011589 0.000000 0.000000 0.000000 0.107918
#
#
# Mechanical properties :
#
#
# Convention : Reuss Voigt Hill
#
# Bulk Modulus (GPa) = 60.01259 60.45255 60.23257
# Shear Modulus (GPa) = 18.43803 26.18262 22.31033
#
# Velocity S-wave (km/s) = 2.77984 3.31260 3.05784
# Velocity P-wave (km/s) = 5.95441 6.32196 6.14094
#
# Compressibility (1/GPa) = 0.01666317
#
# Stress axis : x y z
#
# Youngs Moduli (GPa) = 84.49991 84.49992 116.16777
#
# Poissons Ratio (x) = 0.32165 0.23236
# Poissons Ratio (y) = 0.32165 0.23236
# Poissons Ratio (z) = 0.16902 0.16902
#
# Static dielectric constant tensor:
#      x y z
#    x 1.971870 0.000000 0.000000 
#    y 0.000000 1.971870 0.000000 
#    z 0.000000 0.000000 1.917360 
# 
# From -- ./inp_files/1998.got.cif
#   From: 2010.05.17/outbox.cif.g08.bks.cpg/sg80_cif.got.tgz:1998.got - 2010.06.03 18:49:13.
