data_PCOD9542276
_publ_section_title
;
Structure prediction by ZEFSAII (Michael W. Deem and Ramdas Pophale) SiO2 
 PCOD9542276
Probable space group: I 41
;
_chemical_formula_sum "Si O2"
_cell_formula_units_Z 52
_cell_length_a 19.330269
_cell_length_b 19.330269
_cell_length_c 6.794100
_cell_angle_alpha 90.000000
_cell_angle_beta 90.000000
_cell_angle_gamma 90.000000
_cell_volume 2538.678647
_symmetry_space_group_name_H-M "I 41"
_symmetry_group_IT_number 80
_symmetry_cell_setting 'tetragonal'
loop_
_space_group_symop_operation_xyz
x,y,z
-y,1/2+x,1/4+z
-x,-y,z
y,1/2-x,1/4+z
1/2+x,1/2+y,1/2+z
1/2-y,x,3/4+z
1/2-x,1/2-y,1/2+z
1/2+y,-x,3/4+z
loop_
_atom_site_type_symbol
_atom_site_label
_atom_site_fract_x
_atom_site_fract_y
_atom_site_fract_z
Si Si1 0.826927 0.191131 0.795150
Si Si2 0.144685 0.955375 0.985065
Si Si3 0.826925 0.691127 0.727576
Si Si4 0.000000 0.500000 0.386350
Si Si5 0.045202 0.256648 0.958863
Si Si6 0.044622 0.144686 0.287640
Si Si7 0.045201 0.756646 0.563842
O O1 0.751618 0.177302 0.705571
O O2 0.879232 0.217219 0.626543
O O3 0.854137 0.120502 0.889957
O O4 0.067522 0.982059 0.010735
O O5 0.184936 0.951817 0.193774
O O6 0.188428 0.007348 0.849225
O O7 0.822698 0.751615 0.567157
O O8 0.879231 0.717212 0.896182
O O9 0.854131 0.620497 0.632765
O O10 0.932478 0.517941 0.511965
O O11 0.000004 0.249999 0.761346
O O12 0.048185 0.184938 0.078932
O O13 0.992644 0.188427 0.423469
#
# Coordination Sequence:
#
# PCOD9542276 Si02
#       7
#     8   8   8   4   8   8   8
#     4  12  25  43  74 110 144 191 242 294 363 436
#     4  11  27  46  70 105 144 188 244 295 359 432
#     4  12  25  43  74 110 144 191 242 294 363 436
#     4  12  28  44  78 104 140 194 240 300 354 428
#     4  11  24  48  71  98 149 190 232 300 361 419
#     4  11  27  46  70 105 144 188 244 295 359 432
#     4  11  24  48  71  98 149 190 232 300 361 419
#
# _framework density 20.483097000000001
#
# number of rings (size 3 to 8) (size 9 to 14) (size 15 to 20)
#    0.000    0.615    3.077    3.692    8.615    2.462 
#    0.000    1.538    0.000    0.000    0.000    0.000 
#    0.000    0.000    0.000    0.000    0.000    0.000 
#
# Total GULP energy -145616.605829 kJ/mol
# GULP energy per Si atom -5600.638686 kJ/mol
# Density = 2.043648 g / cm^3
# Si number density = 20.483097 Si / 1000 Ang^3
#
#
#
# Elastic Constant Matrix: (Units=GPa)
#
#
# Indices 1 2 3 4 5 6 
#
# 1 129.2474 38.3906 31.5896 0.0000 0.0000 -8.4245
# 2 38.3906 129.2474 31.5896 0.0000 0.0000 8.4245
# 3 31.5896 31.5896 83.5394 0.0000 0.0000 0.0000
# 4 0.0000 0.0000 0.0000 24.1486 0.0000 0.0000
# 5 0.0000 0.0000 0.0000 0.0000 24.1486 0.0000
# 6 -8.4245 8.4245 0.0000 0.0000 0.0000 22.5368
#
#
#
# Elastic Compliance Matrix: (Units=1/GPa)
#
#
# Indices 1 2 3 4 5 6 
#
# 1 0.009391 -0.002435 -0.002631 0.000000 0.000000 0.004421
# 2 -0.002435 0.009391 -0.002631 0.000000 0.000000 -0.004421
# 3 -0.002631 -0.002631 0.013960 0.000000 0.000000 0.000000
# 4 0.000000 0.000000 0.000000 0.041410 0.000000 0.000000
# 5 0.000000 0.000000 0.000000 0.000000 0.041410 0.000000
# 6 0.004421 -0.004421 0.000000 0.000000 0.000000 0.047677
#
#
# Mechanical properties :
#
#
# Convention : Reuss Voigt Hill
#
# Bulk Modulus (GPa) = 57.63422 60.57487 59.10454
# Shear Modulus (GPa) = 27.11269 30.19777 28.65523
#
# Velocity S-wave (km/s) = 3.64216 3.84380 3.74434
# Velocity P-wave (km/s) = 6.77390 7.02403 6.90010
#
# Compressibility (1/GPa) = 0.01735080
#
# Stress axis : x y z
#
# Youngs Moduli (GPa) = 106.48044 106.48044 71.63389
#
# Poissons Ratio (x) = 0.25925 0.18844
# Poissons Ratio (y) = 0.25925 0.18844
# Poissons Ratio (z) = 0.28011 0.28011
#
# Static dielectric constant tensor:
#      x y z
#    x 1.650330 0.000000 0.000000 
#    y 0.000000 1.650330 0.000000 
#    z 0.000000 0.000000 1.708830 
# 
# From -- ./inp_files/330.got.cif
#   From: 2010.05.17/outbox.cif.g08.bks.cpg/sg80_cif.got.tgz:330.got - 2010.06.03 18:49:13.
