data_PCOD9542344
_publ_section_title
;
Structure prediction by ZEFSAII (Michael W. Deem and Ramdas Pophale) SiO2 
 PCOD9542344
Probable space group: P -4
;
_chemical_formula_sum "Si O2"
_cell_formula_units_Z 20
_cell_length_a 10.088023
_cell_length_b 10.088023
_cell_length_c 9.691738
_cell_angle_alpha 90.000000
_cell_angle_beta 90.000000
_cell_angle_gamma 90.000000
_cell_volume 986.310809
_symmetry_space_group_name_H-M "P -4"
_symmetry_group_IT_number 81
_symmetry_cell_setting 'tetragonal'
loop_
_space_group_symop_operation_xyz
x,y,z
y,-x,-z
-x,-y,z
-y,x,-z
loop_
_atom_site_type_symbol
_atom_site_label
_atom_site_fract_x
_atom_site_fract_y
_atom_site_fract_z
Si Si1 0.398017 0.206895 0.246116
Si Si2 0.500000 0.000000 0.031640
Si Si3 0.500000 0.500000 0.000000
Si Si4 0.571767 0.708878 0.527206
Si Si5 0.157937 0.256993 0.071458
Si Si6 0.652112 0.675825 0.824549
Si Si7 0.000000 0.000000 0.000000
O O1 0.404029 0.182231 0.409253
O O2 0.258586 0.264917 0.198439
O O3 0.528666 0.295858 0.218053
O O4 0.417539 0.089060 0.138518
O O5 0.391051 0.926078 0.941358
O O6 0.524983 0.633448 0.914221
O O7 0.657152 0.579868 0.477418
O O8 0.615868 0.744670 0.681562
O O9 0.243955 0.255714 0.927253
O O10 0.069766 0.123748 0.078578
#
# Coordination Sequence:
#
# PCOD9542344 Si02
#       7
#     4   2   1   4   4   4   1
#     4  10  19  36  58  85 125 163 203 258 316 372
#     4  10  22  36  62  94 122 164 224 262 310 378
#     4  12  16  28  58 100 136 156 194 256 328 384
#     4   9  18  32  54  87 127 160 189 243 327 391
#     4  11  22  39  64  88 121 164 214 265 316 372
#     4  10  20  31  57  92 125 158 196 251 317 385
#     4  12  24  44  64  86 120 172 212 266 320 372
#
# _framework density 20.277581999999999
#
# number of rings (size 3 to 8) (size 9 to 14) (size 15 to 20)
#    0.000    1.800    4.000    2.400    0.000    0.000 
#    0.000    0.000   13.200    2.400    0.000    0.000 
#    0.000    0.000    0.000    0.000    0.000    0.000 
#
# Total GULP energy -111542.301766 kJ/mol
# GULP energy per Si atom -5577.115088 kJ/mol
# Density = 2.023143 g / cm^3
# Si number density = 20.277582 Si / 1000 Ang^3
#
#
#
# Elastic Constant Matrix: (Units=GPa)
#
#
# Indices 1 2 3 4 5 6 
#
# 1 59.8659 24.4503 23.4825 0.0000 0.0000 -4.2429
# 2 24.4503 59.8659 23.4825 0.0000 0.0000 4.2429
# 3 23.4825 23.4825 97.6617 0.0000 0.0000 0.0000
# 4 0.0000 0.0000 0.0000 14.9348 0.0000 0.0000
# 5 0.0000 0.0000 0.0000 0.0000 14.9348 0.0000
# 6 -4.2429 4.2429 0.0000 0.0000 0.0000 35.3502
#
#
#
# Elastic Compliance Matrix: (Units=1/GPa)
#
#
# Indices 1 2 3 4 5 6 
#
# 1 0.021383 -0.007689 -0.003293 0.000000 0.000000 0.003489
# 2 -0.007689 0.021383 -0.003293 0.000000 0.000000 -0.003489
# 3 -0.003293 -0.003293 0.011823 0.000000 0.000000 0.000000
# 4 0.000000 0.000000 0.000000 0.066958 0.000000 0.000000
# 5 0.000000 0.000000 0.000000 0.000000 0.066958 0.000000
# 6 0.003489 -0.003489 0.000000 0.000000 0.000000 0.029126
#
#
# Mechanical properties :
#
#
# Convention : Reuss Voigt Hill
#
# Bulk Modulus (GPa) = 38.40195 40.02492 39.21343
# Shear Modulus (GPa) = 19.61864 22.77585 21.19725
#
# Velocity S-wave (km/s) = 3.11385 3.35506 3.23670
# Velocity P-wave (km/s) = 5.64865 5.89830 5.77483
#
# Compressibility (1/GPa) = 0.02604035
#
# Stress axis : x y z
#
# Youngs Moduli (GPa) = 46.76568 46.76568 84.58166
#
# Poissons Ratio (x) = 0.35958 0.27851
# Poissons Ratio (y) = 0.35958 0.27851
# Poissons Ratio (z) = 0.15399 0.15399
#
# Static dielectric constant tensor:
#      x y z
#    x 1.793500 0.000000 0.000000 
#    y 0.000000 1.793500 0.000000 
#    z 0.000000 0.000000 1.750870 
# 
# From -- ./inp_files/800.got.cif
#   From: 2010.05.17/outbox.cif.g08.bks.cpg/sg81_cif.got.tgz:800.got - 2010.06.03 18:51:07.
