data_PCOD9542495
_publ_section_title
;
Structure prediction by ZEFSAII (Michael W. Deem and Ramdas Pophale) SiO2 
 PCOD9542495
Probable space group: P -4
;
_chemical_formula_sum "Si O2"
_cell_formula_units_Z 16
_cell_length_a 8.570019
_cell_length_b 8.570019
_cell_length_c 9.452402
_cell_angle_alpha 90.000000
_cell_angle_beta 90.000000
_cell_angle_gamma 90.000000
_cell_volume 694.233798
_symmetry_space_group_name_H-M "P -4"
_symmetry_group_IT_number 81
_symmetry_cell_setting 'tetragonal'
loop_
_space_group_symop_operation_xyz
x,y,z
y,-x,-z
-x,-y,z
-y,x,-z
loop_
_atom_site_type_symbol
_atom_site_label
_atom_site_fract_x
_atom_site_fract_y
_atom_site_fract_z
Si Si1 0.302916 0.398120 0.778072
Si Si2 0.666762 0.064120 0.424506
Si Si3 0.559675 0.173804 0.912937
Si Si4 0.258793 0.259558 0.325713
O O1 0.201602 0.284075 0.680642
O O2 0.451360 0.303813 0.835831
O O3 0.313562 0.558530 0.684667
O O4 0.212101 0.439157 0.921899
O O5 0.638873 0.144755 0.575483
O O6 0.500000 0.000000 0.371515
O O7 0.764747 0.908440 0.399950
O O8 0.725007 0.198219 0.834504
O O9 0.500000 0.000000 0.890674
#
# Coordination Sequence:
#
# PCOD9542495 Si02
#       4
#     4   4   4   4
#     4  11  25  46  71 104 143 188 247 302 370 440
#     4  10  25  46  67 103 144 188 240 304 367 441
#     4  12  25  45  74 107 143 189 248 309 369 444
#     4  11  24  45  72 100 142 188 242 302 366 437
#
# _framework density 23.046990000000001
#
# number of rings (size 3 to 8) (size 9 to 14) (size 15 to 20)
#    0.000    1.000    2.500    3.750   10.500    0.500 
#    0.000    0.000    0.000    0.000    0.000    0.000 
#    0.000    0.000    0.000    0.000    0.000    0.000 
#
# Total GULP energy -89168.018058 kJ/mol
# GULP energy per Si atom -5573.001129 kJ/mol
# Density = 2.299453 g / cm^3
# Si number density = 23.046990 Si / 1000 Ang^3
#
#
#
# Elastic Constant Matrix: (Units=GPa)
#
#
# Indices 1 2 3 4 5 6 
#
# 1 82.6509 7.4814 28.9965 0.0000 0.0000 1.9603
# 2 7.4814 82.6509 28.9965 0.0000 0.0000 -1.9603
# 3 28.9965 28.9965 115.0825 0.0000 0.0000 0.0000
# 4 0.0000 0.0000 0.0000 34.0909 0.0000 0.0000
# 5 0.0000 0.0000 0.0000 0.0000 34.0909 0.0000
# 6 1.9603 -1.9603 0.0000 0.0000 0.0000 21.7654
#
#
#
# Elastic Compliance Matrix: (Units=1/GPa)
#
#
# Indices 1 2 3 4 5 6 
#
# 1 0.013304 -0.000062 -0.003336 0.000000 0.000000 -0.001204
# 2 -0.000062 0.013304 -0.003336 0.000000 0.000000 0.001204
# 3 -0.003336 -0.003336 0.010371 0.000000 0.000000 0.000000
# 4 0.000000 0.000000 0.000000 0.029333 0.000000 0.000000
# 5 0.000000 0.000000 0.000000 0.000000 0.029333 0.000000
# 6 -0.001204 0.001204 0.000000 0.000000 0.000000 0.046161
#
#
# Mechanical properties :
#
#
# Convention : Reuss Voigt Hill
#
# Bulk Modulus (GPa) = 42.53833 45.70370 44.12101
# Shear Modulus (GPa) = 30.65373 32.31677 31.48525
#
# Velocity S-wave (km/s) = 3.65095 3.74867 3.70013
# Velocity P-wave (km/s) = 6.02244 6.21373 6.11884
#
# Compressibility (1/GPa) = 0.02350821
#
# Stress axis : x y z
#
# Youngs Moduli (GPa) = 75.16668 75.16668 96.42552
#
# Poissons Ratio (x) = 0.00468 0.32171
# Poissons Ratio (y) = 0.00468 0.32171
# Poissons Ratio (z) = 0.25078 0.25078
#
# Static dielectric constant tensor:
#      x y z
#    x 2.037090 0.000000 0.000000 
#    y 0.000000 2.037090 0.000000 
#    z 0.000000 0.000000 1.850620 
# 
# From -- ./inp_files/597.got.cif
#   From: 2010.05.17/outbox.cif.g08.bks.cpg/sg81_cif.got.tgz:597.got - 2010.06.03 18:51:07.
