data_PCOD9542063
_publ_section_title
;
Structure prediction by ZEFSAII (Michael W. Deem and Ramdas Pophale) SiO2 
 PCOD9542063
Probable space group: I 41
;
_chemical_formula_sum "Si O2"
_cell_formula_units_Z 64
_cell_length_a 11.700794
_cell_length_b 11.700794
_cell_length_c 26.734245
_cell_angle_alpha 90.000000
_cell_angle_beta 90.000000
_cell_angle_gamma 90.000000
_cell_volume 3660.147526
_symmetry_space_group_name_H-M "I 41"
_symmetry_group_IT_number 80
_symmetry_cell_setting 'tetragonal'
loop_
_space_group_symop_operation_xyz
x,y,z
-y,1/2+x,1/4+z
-x,-y,z
y,1/2-x,1/4+z
1/2+x,1/2+y,1/2+z
1/2-y,x,3/4+z
1/2-x,1/2-y,1/2+z
1/2+y,-x,3/4+z
loop_
_atom_site_type_symbol
_atom_site_label
_atom_site_fract_x
_atom_site_fract_y
_atom_site_fract_z
Si Si1 0.630227 0.038252 0.275230
Si Si2 0.846261 0.683729 0.520075
Si Si3 0.250172 0.799956 0.345638
Si Si4 0.324476 0.791216 0.948383
Si Si5 0.497046 0.380717 0.854234
Si Si6 0.137842 0.639109 0.275768
Si Si7 0.936111 0.651669 0.411804
Si Si8 0.375610 0.108218 0.804741
O O1 0.653046 0.117431 0.324240
O O2 0.693329 0.113010 0.231819
O O3 0.500000 0.000000 0.267706
O O4 0.706156 0.924155 0.279128
O O5 0.891890 0.583494 0.556151
O O6 0.862328 0.650173 0.462080
O O7 0.715616 0.698438 0.537272
O O8 0.243574 0.767893 0.403281
O O9 0.125704 0.857110 0.336737
O O10 0.234382 0.684428 0.313887
O O11 0.430699 0.869225 0.928186
O O12 0.228189 0.854440 0.980505
O O13 0.500000 0.500000 0.882984
O O14 0.449089 0.280182 0.888947
O O15 0.153660 0.503099 0.272419
O O16 0.007885 0.644570 0.295682
O O17 0.879804 0.586051 0.364677
#
# Coordination Sequence:
#
# PCOD9542063 Si02
#       8
#     8   8   8   8   8   8   8   8
#     4  10  21  36  55  83 111 143 181 231 272 326
#     4  10  19  33  52  82 114 145 176 224 284 330
#     4  10  18  35  56  82 105 146 179 224 272 332
#     4   9  19  34  56  81 109 147 183 218 282 322
#     4  10  17  32  53  82 115 135 170 235 291 320
#     4  10  19  34  52  77 114 144 175 222 266 328
#     4   9  19  31  51  85 105 146 181 215 285 335
#     4  10  20  36  50  81 118 143 176 231 278 317
#
# _framework density 17.485634000000001
#
# number of rings (size 3 to 8) (size 9 to 14) (size 15 to 20)
#    0.000    2.250    5.000    0.000    0.000    5.500 
#    2.250    2.500    0.000    2.250    0.000    0.000 
#    0.000    0.000    0.000    0.000    0.000    0.000 
#
# Total GULP energy -178152.154904 kJ/mol
# GULP energy per Si atom -5567.254841 kJ/mol
# Density = 1.744584 g / cm^3
# Si number density = 17.485634 Si / 1000 Ang^3
#
#
#
# Elastic Constant Matrix: (Units=GPa)
#
#
# Indices 1 2 3 4 5 6 
#
# 1 71.6749 15.9367 24.4387 0.0000 0.0000 -1.5645
# 2 15.9367 71.6749 24.4387 0.0000 0.0000 1.5645
# 3 24.4387 24.4387 102.7732 0.0000 0.0000 0.0000
# 4 0.0000 0.0000 0.0000 21.6070 0.0000 0.0000
# 5 0.0000 0.0000 0.0000 0.0000 21.6070 0.0000
# 6 -1.5645 1.5645 0.0000 0.0000 0.0000 22.7556
#
#
#
# Elastic Compliance Matrix: (Units=1/GPa)
#
#
# Indices 1 2 3 4 5 6 
#
# 1 0.015585 -0.002425 -0.003129 0.000000 0.000000 0.001238
# 2 -0.002425 0.015585 -0.003129 0.000000 0.000000 -0.001238
# 3 -0.003129 -0.003129 0.011218 0.000000 0.000000 0.000000
# 4 0.000000 0.000000 0.000000 0.046281 0.000000 0.000000
# 5 0.000000 0.000000 0.000000 0.000000 0.046281 0.000000
# 6 0.001238 -0.001238 0.000000 0.000000 0.000000 0.044115
#
#
# Mechanical properties :
#
#
# Convention : Reuss Voigt Hill
#
# Bulk Modulus (GPa) = 39.96674 41.75015 40.85844
# Shear Modulus (GPa) = 24.41702 25.28117 24.84910
#
# Velocity S-wave (km/s) = 3.74090 3.80653 3.77386
# Velocity P-wave (km/s) = 6.44714 6.57634 6.51206
#
# Compressibility (1/GPa) = 0.02502081
#
# Stress axis : x y z
#
# Youngs Moduli (GPa) = 64.16357 64.16357 89.13921
#
# Poissons Ratio (x) = 0.15562 0.27894
# Poissons Ratio (y) = 0.15562 0.27894
# Poissons Ratio (z) = 0.20079 0.20079
#
# Static dielectric constant tensor:
#      x y z
#    x 1.627180 0.000000 0.000000 
#    y 0.000000 1.627180 0.000000 
#    z 0.000000 0.000000 1.660270 
# 
# From -- ./inp_files/2380.got.cif
#   From: 2010.05.17/outbox.cif.g08.bks.cpg/sg80_cif.got.tgz:2380.got - 2010.06.03 18:49:13.
