data_PCOD9542653
_publ_section_title
;
Structure prediction by ZEFSAII (Michael W. Deem and Ramdas Pophale) SiO2 
 PCOD9542653
Probable space group: I -4 
;
_chemical_formula_sum "Si O2"
_cell_formula_units_Z 36
_cell_length_a 7.554358
_cell_length_b 7.554358
_cell_length_c 27.085524
_cell_angle_alpha 90.000000
_cell_angle_beta 90.000000
_cell_angle_gamma 90.000000
_cell_volume 1545.725481
_symmetry_space_group_name_H-M "I -4 "
_symmetry_group_IT_number 82
_symmetry_cell_setting 'tetragonal'
loop_
_space_group_symop_operation_xyz
x,y,z
y,-x,-z
-x,-y,z
-y,x,-z
1/2+x,1/2+y,1/2+z
1/2+y,1/2-x,1/2-z
1/2-x,1/2-y,1/2+z
1/2-y,1/2+x,1/2-z
loop_
_atom_site_type_symbol
_atom_site_label
_atom_site_fract_x
_atom_site_fract_y
_atom_site_fract_z
Si Si1 0.135059 0.162623 0.274974
Si Si2 0.000000 0.500000 0.750000
Si Si3 0.311817 0.769599 0.437868
Si Si4 0.695523 0.194469 0.046710
Si Si5 0.000000 0.500000 0.250000
Si Si6 0.215306 0.990321 0.621009
O O1 0.090212 0.262133 0.326472
O O2 0.104059 0.315716 0.234765
O O3 0.332710 0.084963 0.278254
O O4 0.000000 0.000000 0.267600
O O5 0.245438 0.689007 0.489376
O O6 0.516038 0.732568 0.429105
O O7 0.184343 0.720297 0.393185
O O8 0.298965 0.982567 0.447314
O O9 0.766200 0.364031 0.075644
O O10 0.000000 0.000000 0.622472
#
# Coordination Sequence:
#
# PCOD9542653 Si02
#       6
#     8   2   8   8   2   8
#     4  11  24  44  73 104 137 178 230 293 361 432
#     4  12  24  44  80 104 138 184 232 292 368 428
#     4  10  19  34  59  86 122 171 217 260 326 380
#     4  10  19  34  59  86 121 170 216 263 317 390
#     4  12  24  48  72 104 138 180 232 288 372 432
#     4   9  20  37  61  92 128 169 214 272 336 399
#
# _framework density 23.290037000000002
#
# number of rings (size 3 to 8) (size 9 to 14) (size 15 to 20)
#    0.000    1.778    4.444    0.000    0.000    5.778 
#    4.000    0.000    0.000    0.000    0.000    0.000 
#    0.000    0.000    0.000    0.000    0.000    0.000 
#
# Total GULP energy -100396.206679 kJ/mol
# GULP energy per Si atom -5577.567038 kJ/mol
# Density = 2.323703 g / cm^3
# Si number density = 23.290037 Si / 1000 Ang^3
#
#
#
# Elastic Constant Matrix: (Units=GPa)
#
#
# Indices 1 2 3 4 5 6 
#
# 1 111.1095 22.7113 21.7112 0.0000 0.0000 -7.2044
# 2 22.7113 111.1095 21.7112 0.0000 0.0000 7.2044
# 3 21.7112 21.7112 81.4748 0.0000 0.0000 0.0000
# 4 0.0000 0.0000 0.0000 14.4499 0.0000 0.0000
# 5 0.0000 0.0000 0.0000 0.0000 14.4499 0.0000
# 6 -7.2044 7.2044 0.0000 0.0000 0.0000 21.4114
#
#
#
# Elastic Compliance Matrix: (Units=1/GPa)
#
#
# Indices 1 2 3 4 5 6 
#
# 1 0.010074 -0.001894 -0.002180 0.000000 0.000000 0.004027
# 2 -0.001894 0.010074 -0.002180 0.000000 0.000000 -0.004027
# 3 -0.002180 -0.002180 0.013435 0.000000 0.000000 0.000000
# 4 0.000000 0.000000 0.000000 0.069205 0.000000 0.000000
# 5 0.000000 0.000000 0.000000 0.000000 0.069205 0.000000
# 6 0.004027 -0.004027 0.000000 0.000000 0.000000 0.049414
#
#
# Mechanical properties :
#
#
# Convention : Reuss Voigt Hill
#
# Bulk Modulus (GPa) = 47.44666 48.44012 47.94339
# Shear Modulus (GPa) = 20.75195 25.89958 23.32576
#
# Velocity S-wave (km/s) = 2.98824 3.33835 3.16814
# Velocity P-wave (km/s) = 5.68528 5.97522 5.83205
#
# Compressibility (1/GPa) = 0.02107630
#
# Stress axis : x y z
#
# Youngs Moduli (GPa) = 99.26113 99.26113 74.42993
#
# Poissons Ratio (x) = 0.18805 0.16224
# Poissons Ratio (y) = 0.18805 0.16224
# Poissons Ratio (z) = 0.21637 0.21637
#
# Static dielectric constant tensor:
#      x y z
#    x 1.901240 0.000000 0.000000 
#    y 0.000000 1.901240 0.000000 
#    z 0.000000 0.000000 2.012460 
# 
# From -- ./inp_files/3661.got.cif
#   From: 2010.05.17/outbox.cif.g08.bks.cpg/sg82_2_cif.got.tgz:3661.got - 2010.06.03 18:52:26.
