data_PCOD9542647
_publ_section_title
;
Structure prediction by ZEFSAII (Michael W. Deem and Ramdas Pophale) SiO2 
 PCOD9542647
Probable space group: I -4 
;
_chemical_formula_sum "Si O2"
_cell_formula_units_Z 34
_cell_length_a 10.029597
_cell_length_b 10.029597
_cell_length_c 18.639271
_cell_angle_alpha 90.000000
_cell_angle_beta 90.000000
_cell_angle_gamma 90.000000
_cell_volume 1874.976758
_symmetry_space_group_name_H-M "I -4 "
_symmetry_group_IT_number 82
_symmetry_cell_setting 'tetragonal'
loop_
_space_group_symop_operation_xyz
x,y,z
y,-x,-z
-x,-y,z
-y,x,-z
1/2+x,1/2+y,1/2+z
1/2+y,1/2-x,1/2-z
1/2-x,1/2-y,1/2+z
1/2-y,1/2+x,1/2-z
loop_
_atom_site_type_symbol
_atom_site_label
_atom_site_fract_x
_atom_site_fract_y
_atom_site_fract_z
Si Si1 0.500000 0.000000 0.250000
Si Si2 0.355184 0.551981 0.249982
Si Si3 0.715262 0.946077 0.351776
Si Si4 0.289927 0.419294 0.005323
Si Si5 0.311419 0.749019 0.840831
O O1 0.409043 0.088489 0.301818
O O2 0.500000 0.500000 0.273831
O O3 0.383606 0.653362 0.183915
O O4 0.273610 0.428950 0.217101
O O5 0.281221 0.634061 0.311502
O O6 0.701868 0.904744 0.434052
O O7 0.735420 0.106455 0.346974
O O8 0.228302 0.373209 0.080313
O O9 0.336778 0.573351 0.007770
#
# Coordination Sequence:
#
# PCOD9542647 Si02
#       5
#     2   8   8   8   8
#     4  12  20  32  56  84 112 146 188 220 284 332
#     4  10  20  35  54  86 115 146 186 227 281 339
#     4  10  19  33  54  86 111 140 189 235 274 328
#     4   9  16  31  57  85 109 138 186 235 277 318
#     4  10  19  34  58  82 112 148 185 234 281 325
#
# _framework density 18.133558000000001
#
# number of rings (size 3 to 8) (size 9 to 14) (size 15 to 20)
#    0.000    2.118    4.706    0.000    0.000    0.471 
#    0.000    2.353    0.000    0.000    6.118    0.000 
#    0.000    0.000    0.000    0.000    0.000    0.000 
#
# Total GULP energy -94819.653908 kJ/mol
# GULP energy per Si atom -5577.626700 kJ/mol
# Density = 1.809229 g / cm^3
# Si number density = 18.133558 Si / 1000 Ang^3
#
#
#
# Elastic Constant Matrix: (Units=GPa)
#
#
# Indices 1 2 3 4 5 6 
#
# 1 53.3164 31.8643 51.5634 0.0000 0.0000 3.1612
# 2 31.8643 53.3164 51.5634 0.0000 0.0000 -3.1612
# 3 51.5634 51.5634 162.7569 0.0000 0.0000 0.0000
# 4 0.0000 0.0000 0.0000 26.1036 0.0000 0.0000
# 5 0.0000 0.0000 0.0000 0.0000 26.1036 0.0000
# 6 3.1612 -3.1612 0.0000 0.0000 0.0000 23.9834
#
#
#
# Elastic Compliance Matrix: (Units=1/GPa)
#
#
# Indices 1 2 3 4 5 6 
#
# 1 0.033772 -0.014727 -0.006034 0.000000 0.000000 -0.006393
# 2 -0.014727 0.033772 -0.006034 0.000000 0.000000 0.006393
# 3 -0.006034 -0.006034 0.009967 0.000000 0.000000 0.000000
# 4 0.000000 0.000000 0.000000 0.038309 0.000000 0.000000
# 5 0.000000 0.000000 0.000000 0.000000 0.038309 0.000000
# 6 -0.006393 0.006393 0.000000 0.000000 0.000000 0.043381
#
#
# Mechanical properties :
#
#
# Convention : Reuss Voigt Hill
#
# Bulk Modulus (GPa) = 41.80269 59.93022 50.86646
# Shear Modulus (GPa) = 19.29962 24.19801 21.74881
#
# Velocity S-wave (km/s) = 3.26591 3.65695 3.46695
# Velocity P-wave (km/s) = 6.10936 7.13808 6.64366
#
# Compressibility (1/GPa) = 0.02392190
#
# Stress axis : x y z
#
# Youngs Moduli (GPa) = 29.61041 29.61041 100.32991
#
# Poissons Ratio (x) = 0.43609 0.60534
# Poissons Ratio (y) = 0.43609 0.60534
# Poissons Ratio (z) = 0.17865 0.17865
#
# Static dielectric constant tensor:
#      x y z
#    x 1.630570 0.000000 0.000000 
#    y 0.000000 1.630570 0.000000 
#    z 0.000000 0.000000 1.621140 
# 
# From -- ./inp_files/2122.got.cif
#   From: 2010.05.17/outbox.cif.g08.bks.cpg/sg82_2_cif.got.tgz:2122.got - 2010.06.03 18:52:26.
