data_PCOD9542831
_publ_section_title
;
Structure prediction by ZEFSAII (Michael W. Deem and Ramdas Pophale) SiO2 
 PCOD9542831
Probable space group: I -4 
;
_chemical_formula_sum "Si O2"
_cell_formula_units_Z 40
_cell_length_a 8.806498
_cell_length_b 8.806498
_cell_length_c 24.072227
_cell_angle_alpha 90.000000
_cell_angle_beta 90.000000
_cell_angle_gamma 90.000000
_cell_volume 1866.907291
_symmetry_space_group_name_H-M "I -4 "
_symmetry_group_IT_number 82
_symmetry_cell_setting 'tetragonal'
loop_
_space_group_symop_operation_xyz
x,y,z
y,-x,-z
-x,-y,z
-y,x,-z
1/2+x,1/2+y,1/2+z
1/2+y,1/2-x,1/2-z
1/2-x,1/2-y,1/2+z
1/2-y,1/2+x,1/2-z
loop_
_atom_site_type_symbol
_atom_site_label
_atom_site_fract_x
_atom_site_fract_y
_atom_site_fract_z
Si Si1 0.663655 0.319155 0.077442
Si Si2 0.397419 0.149831 0.335956
Si Si3 0.331554 0.320783 0.518252
Si Si4 0.810717 0.843653 0.613639
Si Si5 0.958581 0.830126 0.727283
O O1 0.726589 0.169008 0.109578
O O2 0.482397 0.320624 0.089098
O O3 0.726701 0.481038 0.098488
O O4 0.708656 0.281897 0.014901
O O5 0.462041 0.247086 0.286125
O O6 0.500000 0.000000 0.346712
O O7 0.243785 0.093031 0.307249
O O8 0.294484 0.493146 0.499407
O O9 0.297279 0.276592 0.582413
O O10 0.823598 0.822526 0.680754
O O11 0.000000 0.000000 0.737814
#
# Coordination Sequence:
#
# PCOD9542831 Si02
#       5
#     8   8   8   8   8
#     4  10  22  41  64  94 122 166 213 259 315 385
#     4  11  21  38  65  97 125 168 217 255 310 380
#     4  11  26  43  60  92 128 163 212 270 327 377
#     4  10  21  41  67  88 124 166 214 260 312 383
#     4  11  20  39  64  95 128 164 210 264 311 376
#
# _framework density 21.425808
#
# number of rings (size 3 to 8) (size 9 to 14) (size 15 to 20)
#    0.000    1.400    6.000    1.200    5.600    4.000 
#    7.200    0.000    0.000    0.600    0.000    0.000 
#    0.000    0.000    0.000    0.000    0.000    0.000 
#
# Total GULP energy -111398.339830 kJ/mol
# GULP energy per Si atom -5569.916992 kJ/mol
# Density = 2.137704 g / cm^3
# Si number density = 21.425808 Si / 1000 Ang^3
#
#
#
# Elastic Constant Matrix: (Units=GPa)
#
#
# Indices 1 2 3 4 5 6 
#
# 1 54.3279 24.4920 12.1182 0.0000 0.0000 5.3825
# 2 24.4920 54.3279 12.1182 0.0002 0.0005 -5.3825
# 3 12.1182 12.1182 92.8629 0.0002 0.0003 0.0000
# 4 0.0000 0.0002 0.0002 2897.4626 0.0091 0.0000
# 5 0.0000 0.0005 0.0003 0.0091 2897.4220 0.0001
# 6 5.3825 -5.3825 0.0000 0.0000 0.0001 16.5773
#
#
#
# Elastic Compliance Matrix: (Units=1/GPa)
#
#
# Indices 1 2 3 4 5 6 
#
# 1 0.025591 -0.012373 -0.001725 0.000000 0.000000 -0.012327
# 2 -0.012373 0.025591 -0.001725 0.000000 0.000000 0.012327
# 3 -0.001725 -0.001725 0.011219 0.000000 0.000000 0.000000
# 4 0.000000 0.000000 0.000000 0.000345 0.000000 0.000000
# 5 0.000000 0.000000 0.000000 0.000000 0.000345 0.000000
# 6 -0.012327 0.012327 0.000000 0.000000 0.000000 0.068328
#
#
# Mechanical properties :
#
#
# Convention : Reuss Voigt Hill
#
# Bulk Modulus (GPa) = 32.51562 33.21951 32.86757
# Shear Modulus (GPa) = 28.84898 1172.47841 600.66370
#
# Velocity S-wave (km/s) = 3.67339 23.41826 16.76170
# Velocity P-wave (km/s) = 5.76200 27.32688 19.74790
#
# Compressibility (1/GPa) = 0.03075445
#
# Stress axis : x y z
#
# Youngs Moduli (GPa) = 39.07649 39.07648 89.13667
#
# Poissons Ratio (x) = 0.48351 0.15375
# Poissons Ratio (y) = 0.48351 0.15375
# Poissons Ratio (z) = 0.06740 0.06740
#
# Static dielectric constant tensor:
#      x y z
#    x 1.454450 0.000000 0.000000 
#    y 0.000000 1.454450 0.000000 
#    z 0.000000 0.000000 1.990930 
# 
# From -- ./inp_files/3356.got.cif
#   From: 2010.05.17/outbox.cif.g08.bks.cpg/sg82_2_cif.got.tgz:3356.got - 2010.06.03 18:52:26.
