data_PCOD9542524
_publ_section_title
;
Structure prediction by ZEFSAII (Michael W. Deem and Ramdas Pophale) SiO2 
 PCOD9542524
Probable space group: P -4
;
_chemical_formula_sum "Si O2"
_cell_formula_units_Z 16
_cell_length_a 11.518997
_cell_length_b 11.518997
_cell_length_c 4.900923
_cell_angle_alpha 90.000000
_cell_angle_beta 90.000000
_cell_angle_gamma 90.000000
_cell_volume 650.290201
_symmetry_space_group_name_H-M "P -4"
_symmetry_group_IT_number 81
_symmetry_cell_setting 'tetragonal'
loop_
_space_group_symop_operation_xyz
x,y,z
y,-x,-z
-x,-y,z
-y,x,-z
loop_
_atom_site_type_symbol
_atom_site_label
_atom_site_fract_x
_atom_site_fract_y
_atom_site_fract_z
Si Si1 0.017944 0.678145 0.591377
Si Si2 0.180904 0.042777 0.919259
Si Si3 0.554473 0.777327 0.709733
Si Si4 0.602171 0.238515 0.241862
O O1 0.068039 0.708688 0.888751
O O2 0.899527 0.410888 0.431839
O O3 0.884321 0.645719 0.635345
O O4 0.029550 0.789339 0.395523
O O5 0.134219 0.919107 0.024094
O O6 0.487575 0.712464 0.464478
O O7 0.670374 0.706597 0.788059
O O8 0.466005 0.785702 0.961672
#
# Coordination Sequence:
#
# PCOD9542524 Si02
#       4
#     4   4   4   4
#     4  12  25  45  70 104 144 189 244 302 365 432
#     4  11  22  38  65 102 146 194 239 291 360 438
#     4  12  27  48  75 107 145 192 245 303 366 433
#     4  12  27  48  75 107 145 192 245 303 366 433
#
# _framework density 24.604399999999998
#
# number of rings (size 3 to 8) (size 9 to 14) (size 15 to 20)
#    0.000    0.250    0.000    9.750    0.000    7.000 
#    0.000    0.000    0.000    0.000    0.000    0.000 
#    0.000    0.000    0.000    0.000    0.000    0.000 
#
# Total GULP energy -89665.405030 kJ/mol
# GULP energy per Si atom -5604.087814 kJ/mol
# Density = 2.454840 g / cm^3
# Si number density = 24.604400 Si / 1000 Ang^3
#
#
#
# Elastic Constant Matrix: (Units=GPa)
#
#
# Indices 1 2 3 4 5 6 
#
# 1 106.0835 43.6256 17.4786 0.0000 0.0000 1.3936
# 2 43.6256 106.0835 17.4786 0.0000 0.0000 -1.3936
# 3 17.4786 17.4786 121.1843 0.0000 0.0000 0.0000
# 4 0.0000 0.0000 0.0000 37.9304 0.0000 0.0000
# 5 0.0000 0.0000 0.0000 0.0000 37.9304 0.0000
# 6 1.3936 -1.3936 0.0000 0.0000 0.0000 43.6374
#
#
#
# Elastic Compliance Matrix: (Units=1/GPa)
#
#
# Indices 1 2 3 4 5 6 
#
# 1 0.011473 -0.004561 -0.000997 0.000000 0.000000 -0.000512
# 2 -0.004561 0.011473 -0.000997 0.000000 0.000000 0.000512
# 3 -0.000997 -0.000997 0.008539 0.000000 0.000000 0.000000
# 4 0.000000 0.000000 0.000000 0.026364 0.000000 0.000000
# 5 0.000000 0.000000 0.000000 0.000000 0.026364 0.000000
# 6 -0.000512 0.000512 0.000000 0.000000 0.000000 0.022949
#
#
# Mechanical properties :
#
#
# Convention : Reuss Voigt Hill
#
# Bulk Modulus (GPa) = 54.41769 54.50186 54.45978
# Shear Modulus (GPa) = 39.55784 40.88420 40.22102
#
# Velocity S-wave (km/s) = 4.01403 4.08077 4.04754
# Velocity P-wave (km/s) = 6.60669 6.66355 6.63518
#
# Compressibility (1/GPa) = 0.01837638
#
# Stress axis : x y z
#
# Youngs Moduli (GPa) = 87.16096 87.16096 117.10302
#
# Poissons Ratio (x) = 0.39751 0.11675
# Poissons Ratio (y) = 0.39751 0.11675
# Poissons Ratio (z) = 0.08690 0.08690
#
# Static dielectric constant tensor:
#      x y z
#    x 1.989730 0.000000 0.000000 
#    y 0.000000 1.989730 0.000000 
#    z 0.000000 0.000000 1.895840 
# 
# From -- ./inp_files/165.got.cif
#   From: 2010.05.17/outbox.cif.g08.bks.cpg/sg81_cif.got.tgz:165.got - 2010.06.03 18:51:07.
