data_PCOD9542457
_publ_section_title
;
Structure prediction by ZEFSAII (Michael W. Deem and Ramdas Pophale) SiO2 
 PCOD9542457
Probable space group: P -4
;
_chemical_formula_sum "Si O2"
_cell_formula_units_Z 25
_cell_length_a 7.693291
_cell_length_b 7.693291
_cell_length_c 19.426830
_cell_angle_alpha 90.000000
_cell_angle_beta 90.000000
_cell_angle_gamma 90.000000
_cell_volume 1149.810472
_symmetry_space_group_name_H-M "P -4"
_symmetry_group_IT_number 81
_symmetry_cell_setting 'tetragonal'
loop_
_space_group_symop_operation_xyz
x,y,z
y,-x,-z
-x,-y,z
-y,x,-z
loop_
_atom_site_type_symbol
_atom_site_label
_atom_site_fract_x
_atom_site_fract_y
_atom_site_fract_z
Si Si1 0.791772 0.323020 0.860295
Si Si2 0.000000 0.000000 0.500000
Si Si3 0.181841 0.263428 0.845107
Si Si4 0.271901 0.681899 0.301452
Si Si5 0.179447 0.772310 0.007345
Si Si6 0.306269 0.311515 0.286245
Si Si7 0.709668 0.995864 0.389697
O O1 0.814784 0.527207 0.846446
O O2 0.682339 0.261435 0.794920
O O3 0.976405 0.222977 0.852612
O O4 0.734456 0.310584 0.939721
O O5 0.046235 0.832775 0.546660
O O6 0.256279 0.200825 0.772671
O O7 0.283080 0.209502 0.914177
O O8 0.227387 0.484712 0.318290
O O9 0.483119 0.685005 0.292699
O O10 0.232432 0.817695 0.360485
O O11 0.973113 0.762350 0.995968
O O12 0.257127 0.139038 0.327106
O O13 0.500000 0.000000 0.403334
#
# Coordination Sequence:
#
# PCOD9542457 Si02
#       7
#     4   1   4   4   4   4   4
#     4   9  16  29  48  69 102 148 193 243 300 346
#     4  12  28  44  68 104 120 162 196 224 288 368
#     4   9  16  29  48  69 102 148 193 243 300 346
#     4   9  17  33  60  88 114 154 201 243 296 351
#     4   9  18  30  42  65 102 148 192 241 300 349
#     4   9  17  33  60  88 114 154 201 243 296 351
#     4  10  22  44  66  90 129 159 188 241 291 346
#
# _framework density 21.742713999999999
#
# number of rings (size 3 to 8) (size 9 to 14) (size 15 to 20)
#    0.000    2.720    1.600    0.000    0.000    2.560 
#    2.880    0.000    0.000    0.000    0.000    0.000 
#    0.000    0.000    0.000    0.000    0.000    0.000 
#
# Total GULP energy -139384.849000 kJ/mol
# GULP energy per Si atom -5575.393960 kJ/mol
# Density = 2.169323 g / cm^3
# Si number density = 21.742714 Si / 1000 Ang^3
#
#
#
# Elastic Constant Matrix: (Units=GPa)
#
#
# Indices 1 2 3 4 5 6 
#
# 1 40.4169 -25.6844 -5.1804 0.0000 0.0000 2.0025
# 2 -25.6844 40.4169 -5.1804 0.0000 0.0000 -2.0025
# 3 -5.1804 -5.1804 62.3481 0.0000 0.0000 0.0000
# 4 0.0000 0.0000 0.0000 14.6405 0.0000 0.0000
# 5 0.0000 0.0000 0.0000 0.0000 14.6405 0.0000
# 6 2.0025 -2.0025 0.0000 0.0000 0.0000 4.5060
#
#
#
# Elastic Compliance Matrix: (Units=1/GPa)
#
#
# Indices 1 2 3 4 5 6 
#
# 1 0.043818 0.028271 0.005990 0.000000 0.000000 -0.006909
# 2 0.028271 0.043818 0.005990 0.000000 0.000000 0.006909
# 3 0.005990 0.005990 0.017034 0.000000 0.000000 0.000000
# 4 0.000000 0.000000 0.000000 0.068304 0.000000 0.000000
# 5 0.000000 0.000000 0.000000 0.000000 0.068304 0.000000
# 6 -0.006909 0.006909 0.000000 0.000000 0.000000 0.228070
#
#
# Mechanical properties :
#
#
# Convention : Reuss Voigt Hill
#
# Bulk Modulus (GPa) = 5.40038 7.89907 6.64972
# Shear Modulus (GPa) = 11.09705 18.70586 14.90145
#
# Velocity S-wave (km/s) = 2.26161 2.93632 2.62077
# Velocity P-wave (km/s) = 3.05107 3.89060 3.49613
#
# Compressibility (1/GPa) = 0.18517226
#
# Stress axis : x y z
#
# Youngs Moduli (GPa) = 22.82157 22.82157 58.70497
#
# Poissons Ratio (x) = -0.64519 -0.35163
# Poissons Ratio (y) = -0.64519 -0.35163
# Poissons Ratio (z) = -0.13670 -0.13670
#
# Static dielectric constant tensor:
#      x y z
#    x 1.847730 0.000000 0.000000 
#    y 0.000000 1.847730 0.000000 
#    z 0.000000 0.000000 1.789910 
# 
# From -- ./inp_files/1746.got.cif
#   From: 2010.05.17/outbox.cif.g08.bks.cpg/sg81_cif.got.tgz:1746.got - 2010.06.03 18:51:07.
