data_PCOD9542415
_publ_section_title
;
Structure prediction by ZEFSAII (Michael W. Deem and Ramdas Pophale) SiO2 
 PCOD9542415
Probable space group: P -4
;
_chemical_formula_sum "Si O2"
_cell_formula_units_Z 17
_cell_length_a 10.259970
_cell_length_b 10.259970
_cell_length_c 6.266198
_cell_angle_alpha 90.000000
_cell_angle_beta 90.000000
_cell_angle_gamma 90.000000
_cell_volume 659.623767
_symmetry_space_group_name_H-M "P -4"
_symmetry_group_IT_number 81
_symmetry_cell_setting 'tetragonal'
loop_
_space_group_symop_operation_xyz
x,y,z
y,-x,-z
-x,-y,z
-y,x,-z
loop_
_atom_site_type_symbol
_atom_site_label
_atom_site_fract_x
_atom_site_fract_y
_atom_site_fract_z
Si Si1 0.247886 0.225688 0.073311
Si Si2 0.536612 0.233238 0.194920
Si Si3 0.500000 0.500000 0.000000
Si Si4 0.420041 0.887749 0.614235
Si Si5 0.987938 0.183067 0.608887
O O1 0.403321 0.196511 0.065919
O O2 0.213094 0.334212 0.253388
O O3 0.182947 0.095072 0.172202
O O4 0.193360 0.315172 0.878337
O O5 0.506700 0.195258 0.435912
O O6 0.545299 0.385465 0.151572
O O7 0.500000 0.000000 0.736723
O O8 0.325107 0.977838 0.472232
O O9 0.118168 0.097925 0.583664
#
# Coordination Sequence:
#
# PCOD9542415 Si02
#       5
#     4   4   1   4   4
#     4  10  22  40  64  97 139 181 230 299 354 431
#     4  10  21  40  62  99 139 178 233 292 363 427
#     4   8  20  40  58  92 144 170 232 292 346 444
#     4  11  22  40  68 100 135 184 243 296 357 430
#     4   9  19  41  66  91 135 180 235 296 346 422
#
# _framework density 25.772269999999999
#
# number of rings (size 3 to 8) (size 9 to 14) (size 15 to 20)
#    0.000    2.118    2.353    0.000    0.000    6.588 
#    0.000    8.235    0.000    2.824    0.000    0.000 
#    0.000    0.000    0.000    0.000    0.000    0.000 
#
# Total GULP energy -94658.966203 kJ/mol
# GULP energy per Si atom -5568.174483 kJ/mol
# Density = 2.571361 g / cm^3
# Si number density = 25.772270 Si / 1000 Ang^3
#
#
#
# Elastic Constant Matrix: (Units=GPa)
#
#
# Indices 1 2 3 4 5 6 
#
# 1 45.3071 36.0013 24.7889 0.0000 0.0000 -9.0822
# 2 36.0013 45.3071 24.7889 0.0000 0.0000 9.0822
# 3 24.7889 24.7889 56.0592 0.0000 0.0000 0.0000
# 4 0.0000 0.0000 0.0000 37.5578 0.0000 0.0000
# 5 0.0000 0.0000 0.0000 0.0000 37.5578 0.0000
# 6 -9.0822 9.0822 0.0000 0.0000 0.0000 35.7417
#
#
#
# Elastic Compliance Matrix: (Units=1/GPa)
#
#
# Indices 1 2 3 4 5 6 
#
# 1 0.115025 -0.098186 -0.007446 0.000000 0.000000 0.054179
# 2 -0.098186 0.115025 -0.007446 0.000000 0.000000 -0.054179
# 3 -0.007446 -0.007446 0.024424 0.000000 0.000000 0.000000
# 4 0.000000 0.000000 0.000000 0.026626 0.000000 0.000000
# 5 0.000000 0.000000 0.000000 0.000000 0.026626 0.000000
# 6 0.054179 -0.054179 0.000000 0.000000 0.000000 0.055513
#
#
# Mechanical properties :
#
#
# Convention : Reuss Voigt Hill
#
# Bulk Modulus (GPa) = 35.31412 35.31462 35.31437
# Shear Modulus (GPa) = 8.34955 26.24442 17.29699
#
# Velocity S-wave (km/s) = 1.80188 3.19457 2.59346
# Velocity P-wave (km/s) = 4.24984 5.22871 4.76448
#
# Compressibility (1/GPa) = 0.02831729
#
# Stress axis : x y z
#
# Youngs Moduli (GPa) = 8.69373 8.69373 40.94416
#
# Poissons Ratio (x) = 0.85361 0.30487
# Poissons Ratio (y) = 0.85361 0.30487
# Poissons Ratio (z) = 0.06473 0.06473
#
# Static dielectric constant tensor:
#      x y z
#    x 2.079380 0.000000 0.000000 
#    y 0.000000 2.079380 0.000000 
#    z 0.000000 0.000000 2.056230 
# 
# From -- ./inp_files/212.got.cif
#   From: 2010.05.17/outbox.cif.g08.bks.cpg/sg81_cif.got.tgz:212.got - 2010.06.03 18:51:07.
