data_PCOD9542439
_publ_section_title
;
Structure prediction by ZEFSAII (Michael W. Deem and Ramdas Pophale) SiO2 
 PCOD9542439
Probable space group: P -4
;
_chemical_formula_sum "Si O2"
_cell_formula_units_Z 24
_cell_length_a 13.363700
_cell_length_b 13.363700
_cell_length_c 6.271287
_cell_angle_alpha 90.000000
_cell_angle_beta 90.000000
_cell_angle_gamma 90.000000
_cell_volume 1119.979598
_symmetry_space_group_name_H-M "P -4"
_symmetry_group_IT_number 81
_symmetry_cell_setting 'tetragonal'
loop_
_space_group_symop_operation_xyz
x,y,z
y,-x,-z
-x,-y,z
-y,x,-z
loop_
_atom_site_type_symbol
_atom_site_label
_atom_site_fract_x
_atom_site_fract_y
_atom_site_fract_z
Si Si1 0.500000 0.000000 0.154267
Si Si2 0.287949 0.214772 0.528798
Si Si3 0.592305 0.167455 0.461629
Si Si4 0.458820 0.163876 0.852445
Si Si5 0.451276 0.304389 0.231448
Si Si6 0.500000 0.500000 0.000000
Si Si7 0.000000 0.000000 0.000000
Si Si8 0.864782 0.945209 0.611348
O O1 0.558947 0.078486 0.303191
O O2 0.432821 0.067389 0.996233
O O3 0.198967 0.293707 0.557866
O O4 0.368949 0.210297 0.717048
O O5 0.349495 0.253192 0.321092
O O6 0.239401 0.105270 0.549669
O O7 0.549526 0.138850 0.692945
O O8 0.533831 0.271169 0.403681
O O9 0.488053 0.246972 0.021623
O O10 0.450258 0.418274 0.157941
O O11 0.036845 0.907633 0.149602
O O12 0.948551 0.876107 0.501155
#
# Coordination Sequence:
#
# PCOD9542439 Si02
#       8
#     2   4   4   4   4   1   1   4
#     4  10  22  40  64  88 124 162 204 254 310 368
#     4  11  23  38  62  91 122 158 203 253 306 363
#     4  10  22  40  60  89 124 161 206 258 307 361
#     4  10  22  41  61  90 124 161 207 254 305 367
#     4  10  23  39  59  90 121 157 209 254 301 364
#     4  12  20  40  66  80 120 174 204 252 310 360
#     4   8  18  40  60  82 120 164 202 240 304 370
#     4   9  21  39  59  88 121 155 199 251 301 360
#
# _framework density 21.42896
#
# number of rings (size 3 to 8) (size 9 to 14) (size 15 to 20)
#    0.000    2.167    0.000    2.500    0.000   12.000 
#    0.000    3.333    0.000    0.000    0.000    0.000 
#    0.000    0.000    0.000    0.000    0.000    0.000 
#
# Total GULP energy -133724.364227 kJ/mol
# GULP energy per Si atom -5571.848509 kJ/mol
# Density = 2.138019 g / cm^3
# Si number density = 21.428960 Si / 1000 Ang^3
#
#
#
# Elastic Constant Matrix: (Units=GPa)
#
#
# Indices 1 2 3 4 5 6 
#
# 1 71.2219 5.4722 29.8859 0.0000 0.0000 -1.4945
# 2 5.4722 71.2219 29.8859 0.0000 0.0000 1.4945
# 3 29.8859 29.8859 116.2813 0.0000 0.0000 0.0000
# 4 0.0000 0.0000 0.0000 14.0988 0.0000 0.0000
# 5 0.0000 0.0000 0.0000 0.0000 14.0988 0.0000
# 6 -1.4945 1.4945 0.0000 0.0000 0.0000 24.1519
#
#
#
# Elastic Compliance Matrix: (Units=1/GPa)
#
#
# Indices 1 2 3 4 5 6 
#
# 1 0.015778 0.000526 -0.004191 0.000000 0.000000 0.000944
# 2 0.000526 0.015778 -0.004191 0.000000 0.000000 -0.000944
# 3 -0.004191 -0.004191 0.010754 0.000000 0.000000 0.000000
# 4 0.000000 0.000000 0.000000 0.070928 0.000000 0.000000
# 5 0.000000 0.000000 0.000000 0.000000 0.070928 0.000000
# 6 0.000944 -0.000944 0.000000 0.000000 0.000000 0.041521
#
#
# Mechanical properties :
#
#
# Convention : Reuss Voigt Hill
#
# Bulk Modulus (GPa) = 37.59233 43.24592 40.41913
# Shear Modulus (GPa) = 19.97884 23.36863 21.67374
#
# Velocity S-wave (km/s) = 3.05672 3.30588 3.18374
# Velocity P-wave (km/s) = 5.48077 5.89887 5.69366
#
# Compressibility (1/GPa) = 0.02660117
#
# Stress axis : x y z
#
# Youngs Moduli (GPa) = 63.37773 63.37773 92.98961
#
# Poissons Ratio (x) = -0.03336 0.38968
# Poissons Ratio (y) = -0.03336 0.38968
# Poissons Ratio (z) = 0.26559 0.26559
#
# Static dielectric constant tensor:
#      x y z
#    x 1.829360 0.000000 0.000000 
#    y 0.000000 1.829360 0.000000 
#    z 0.000000 0.000000 1.797850 
# 
# From -- ./inp_files/369.got.cif
#   From: 2010.05.17/outbox.cif.g08.bks.cpg/sg81_cif.got.tgz:369.got - 2010.06.03 18:51:07.
