data_PCOD9542588
_publ_section_title
;
Structure prediction by ZEFSAII (Michael W. Deem and Ramdas Pophale) SiO2 
 PCOD9542588
Probable space group: P -4
;
_chemical_formula_sum "Si O2"
_cell_formula_units_Z 17
_cell_length_a 8.489332
_cell_length_b 8.489332
_cell_length_c 10.887378
_cell_angle_alpha 90.000000
_cell_angle_beta 90.000000
_cell_angle_gamma 90.000000
_cell_volume 784.639808
_symmetry_space_group_name_H-M "P -4"
_symmetry_group_IT_number 81
_symmetry_cell_setting 'tetragonal'
loop_
_space_group_symop_operation_xyz
x,y,z
y,-x,-z
-x,-y,z
-y,x,-z
loop_
_atom_site_type_symbol
_atom_site_label
_atom_site_fract_x
_atom_site_fract_y
_atom_site_fract_z
Si Si1 0.000000 0.000000 0.000000
Si Si2 0.115307 0.758519 0.366977
Si Si3 0.882219 0.232180 0.634390
Si Si4 0.793748 0.273819 0.887049
Si Si5 0.552892 0.822901 0.855417
O O1 0.880499 0.105705 0.918275
O O2 0.149841 0.689772 0.502567
O O3 0.204609 0.671952 0.256608
O O4 0.924675 0.771789 0.350511
O O5 0.170483 0.939279 0.372229
O O6 0.866125 0.330536 0.758725
O O7 0.607800 0.272376 0.862725
O O8 0.818234 0.368985 0.011193
O O9 0.500000 0.000000 0.832795
#
# Coordination Sequence:
#
# PCOD9542588 Si02
#       5
#     1   4   4   4   4
#     4  12  20  36  68  98 120 152 212 274 316 360
#     4   9  18  34  59  95 125 156 198 261 319 360
#     4   9  17  34  62  91 124 158 204 256 308 370
#     4  12  23  39  63  93 125 164 208 262 310 374
#     4  12  24  38  61  92 128 165 208 256 316 368
#
# _framework density 21.665993
#
# number of rings (size 3 to 8) (size 9 to 14) (size 15 to 20)
#    0.000    1.412    4.706    4.235    0.000    0.471 
#    0.000    3.529    0.000    0.000    0.000    0.000 
#    0.000    0.000    0.000    0.000    0.000    0.000 
#
# Total GULP energy -94856.055769 kJ/mol
# GULP energy per Si atom -5579.767986 kJ/mol
# Density = 2.161668 g / cm^3
# Si number density = 21.665993 Si / 1000 Ang^3
#
#
#
# Elastic Constant Matrix: (Units=GPa)
#
#
# Indices 1 2 3 4 5 6 
#
# 1 31.2214 5.9019 24.2774 0.0000 0.0000 -1.9342
# 2 5.9019 31.2214 24.2774 0.0000 0.0000 1.9342
# 3 24.2774 24.2774 211.0085 0.0000 0.0000 0.0000
# 4 0.0000 0.0000 0.0000 -13.0873 0.0000 0.0000
# 5 0.0000 0.0000 0.0000 0.0000 -13.0873 0.0000
# 6 -1.9342 1.9342 0.0000 0.0000 0.0000 2.3637
#
#
#
# Elastic Compliance Matrix: (Units=1/GPa)
#
#
# Indices 1 2 3 4 5 6 
#
# 1 0.038424 -0.006715 -0.003648 0.000000 0.000000 0.036935
# 2 -0.006715 0.038424 -0.003648 0.000000 0.000000 -0.036935
# 3 -0.003648 -0.003648 0.005579 0.000000 0.000000 0.000000
# 4 0.000000 0.000000 0.000000 -0.076410 0.000000 0.000000
# 5 0.000000 0.000000 0.000000 0.000000 -0.076410 0.000000
# 6 0.036935 -0.036935 0.000000 0.000000 0.000000 0.483507
#
#
# Mechanical properties :
#
#
# Convention : Reuss Voigt Hill
#
# Bulk Modulus (GPa) = 18.38118 42.48498 30.43308
# Shear Modulus (GPa) = 10.88684 9.83746 10.36215
#
# Velocity S-wave (km/s) = 2.24405 2.13316 2.18931
# Velocity P-wave (km/s) = 3.90085 5.07137 4.52413
#
# Compressibility (1/GPa) = 0.05440348
#
# Stress axis : x y z
#
# Youngs Moduli (GPa) = 26.02572 26.02572 179.25523
#
# Poissons Ratio (x) = 0.17475 0.65397
# Poissons Ratio (y) = 0.17475 0.65397
# Poissons Ratio (z) = 0.09495 0.09495
#
# Static dielectric constant tensor:
#      x y z
#    x 1.810040 0.000000 0.000000 
#    y 0.000000 1.810040 0.000000 
#    z 0.000000 0.000000 1.885880 
# 
# From -- ./inp_files/1147.got.cif
#   From: 2010.05.17/outbox.cif.g08.bks.cpg/sg81_cif.got.tgz:1147.got - 2010.06.03 18:51:07.
