data_PCOD9542758
_publ_section_title
;
Structure prediction by ZEFSAII (Michael W. Deem and Ramdas Pophale) SiO2 
 PCOD9542758
Probable space group: I -4 
;
_chemical_formula_sum "Si O2"
_cell_formula_units_Z 52
_cell_length_a 20.721223
_cell_length_b 20.721223
_cell_length_c 4.908661
_cell_angle_alpha 90.000000
_cell_angle_beta 90.000000
_cell_angle_gamma 90.000000
_cell_volume 2107.627270
_symmetry_space_group_name_H-M "I -4 "
_symmetry_group_IT_number 82
_symmetry_cell_setting 'tetragonal'
loop_
_space_group_symop_operation_xyz
x,y,z
y,-x,-z
-x,-y,z
-y,x,-z
1/2+x,1/2+y,1/2+z
1/2+y,1/2-x,1/2-z
1/2-x,1/2-y,1/2+z
1/2-y,1/2+x,1/2-z
loop_
_atom_site_type_symbol
_atom_site_label
_atom_site_fract_x
_atom_site_fract_y
_atom_site_fract_z
Si Si1 0.856362 0.822437 0.255304
Si Si2 0.535347 0.282077 0.850447
Si Si3 0.901876 0.089898 0.250538
Si Si4 0.383900 0.912258 0.421565
Si Si5 0.762695 0.602299 0.649784
Si Si6 0.797819 0.420645 0.419770
Si Si7 0.500000 0.000000 0.250000
Si Si8 0.000000 0.000000 0.000000
O O1 0.895529 0.845394 0.526242
O O2 0.780741 0.840061 0.268813
O O3 0.861771 0.749818 0.145393
O O4 0.887953 0.868617 0.028579
O O5 0.541933 0.358461 0.821800
O O6 0.594343 0.254692 0.667005
O O7 0.477135 0.246496 0.703778
O O8 0.544066 0.264088 0.163401
O O9 0.939710 0.023773 0.186057
O O10 0.397010 0.839083 0.329819
O O11 0.359875 0.914103 0.729195
O O12 0.445855 0.957761 0.402069
O O13 0.325210 0.931726 0.219929
#
# Coordination Sequence:
#
# PCOD9542758 Si02
#       8
#     8   8   8   8   8   8   2   2
#     4  10  23  43  65  93 131 169 220 270 328 396
#     4  10  20  40  62  85 127 172 213 250 316 391
#     4  10  23  38  62  92 129 178 213 269 317 373
#     4  12  27  42  69  97 127 168 212 274 340 393
#     4  10  22  43  66  93 126 169 214 269 330 390
#     4  12  24  41  66  98 129 171 218 269 332 402
#     4  12  28  50  68 102 140 170 228 282 332 418
#     4  12  24  38  60  98 136 166 228 266 312 374
#
# _framework density 24.672294000000001
#
# number of rings (size 3 to 8) (size 9 to 14) (size 15 to 20)
#    0.000    1.231    0.000    5.538    0.000    8.615 
#    0.000    0.000    0.000    0.000    0.000    0.000 
#    0.000    0.000    0.000    0.000    0.000    0.000 
#
# Total GULP energy -145348.206941 kJ/mol
# GULP energy per Si atom -5590.315652 kJ/mol
# Density = 2.461614 g / cm^3
# Si number density = 24.672294 Si / 1000 Ang^3
#
#
#
# Elastic Constant Matrix: (Units=GPa)
#
#
# Indices 1 2 3 4 5 6 
#
# 1 95.2916 21.6498 8.9317 0.0000 0.0000 13.8381
# 2 21.6498 95.2916 8.9317 0.0000 0.0000 -13.8381
# 3 8.9317 8.9317 99.9324 0.0000 0.0000 0.0000
# 4 0.0000 0.0000 0.0000 14.6915 0.0000 0.0000
# 5 0.0000 0.0000 0.0000 0.0000 14.6915 0.0000
# 6 13.8381 -13.8381 0.0000 0.0000 0.0000 29.4515
#
#
#
# Elastic Compliance Matrix: (Units=1/GPa)
#
#
# Indices 1 2 3 4 5 6 
#
# 1 0.012581 -0.003911 -0.000775 0.000000 0.000000 -0.007749
# 2 -0.003911 0.012581 -0.000775 0.000000 0.000000 0.007749
# 3 -0.000775 -0.000775 0.010145 0.000000 0.000000 0.000000
# 4 0.000000 0.000000 0.000000 0.068066 0.000000 0.000000
# 5 0.000000 0.000000 0.000000 0.000000 0.068066 0.000000
# 6 -0.007749 0.007749 0.000000 0.000000 0.000000 0.041236
#
#
# Mechanical properties :
#
#
# Convention : Reuss Voigt Hill
#
# Bulk Modulus (GPa) = 41.00862 41.06020 41.03441
# Shear Modulus (GPa) = 21.57736 28.50041 25.03888
#
# Velocity S-wave (km/s) = 2.96050 3.40245 3.18914
# Velocity P-wave (km/s) = 5.32386 5.66691 5.49806
#
# Compressibility (1/GPa) = 0.02438512
#
# Stress axis : x y z
#
# Youngs Moduli (GPa) = 79.48804 79.48804 98.56803
#
# Poissons Ratio (x) = 0.31087 0.07638
# Poissons Ratio (y) = 0.31087 0.07638
# Poissons Ratio (z) = 0.06159 0.06159
#
# Static dielectric constant tensor:
#      x y z
#    x 2.011240 0.000000 0.000000 
#    y 0.000000 2.011240 0.000000 
#    z 0.000000 0.000000 1.904630 
# 
# From -- ./inp_files/391.got.cif
#   From: 2010.05.17/outbox.cif.g08.bks.cpg/sg82_1_cif.got.tgz:391.got - 2010.06.03 18:52:26.
