data_PCOD9542778
_publ_section_title
;
Structure prediction by ZEFSAII (Michael W. Deem and Ramdas Pophale) SiO2 
 PCOD9542778
Probable space group: I -4 
;
_chemical_formula_sum "Si O2"
_cell_formula_units_Z 48
_cell_length_a 11.164546
_cell_length_b 11.164546
_cell_length_c 19.641498
_cell_angle_alpha 90.000000
_cell_angle_beta 90.000000
_cell_angle_gamma 90.000000
_cell_volume 2448.255518
_symmetry_space_group_name_H-M "I -4 "
_symmetry_group_IT_number 82
_symmetry_cell_setting 'tetragonal'
loop_
_space_group_symop_operation_xyz
x,y,z
y,-x,-z
-x,-y,z
-y,x,-z
1/2+x,1/2+y,1/2+z
1/2+y,1/2-x,1/2-z
1/2-x,1/2-y,1/2+z
1/2-y,1/2+x,1/2-z
loop_
_atom_site_type_symbol
_atom_site_label
_atom_site_fract_x
_atom_site_fract_y
_atom_site_fract_z
Si Si1 0.771826 0.876457 0.804644
Si Si2 0.035998 0.243257 0.317053
Si Si3 0.061405 0.388207 0.109622
Si Si4 0.532590 0.640038 0.405179
Si Si5 0.303576 0.709300 0.471216
Si Si6 0.918840 0.838355 0.469218
O O1 0.667353 0.780187 0.790376
O O2 0.885083 0.821433 0.842560
O O3 0.815183 0.955242 0.740989
O O4 0.704139 0.968009 0.856964
O O5 0.049984 0.177532 0.389628
O O6 0.960263 0.364213 0.333232
O O7 0.152282 0.311856 0.064956
O O8 0.000000 0.500000 0.070832
O O9 0.500000 0.500000 0.396733
O O10 0.411968 0.713738 0.417899
O O11 0.615858 0.654623 0.471409
O O12 0.268419 0.833286 0.506368
O O13 0.038349 0.849131 0.514477
#
# Coordination Sequence:
#
# PCOD9542778 Si02
#       6
#     8   8   8   8   8   8
#     4  11  21  37  60  94 130 166 216 266 322 373
#     4  11  21  39  63  91 127 168 217 267 312 381
#     4  10  21  33  59  94 128 167 209 262 319 372
#     4  12  22  35  57  94 130 163 201 264 328 373
#     4  12  21  39  61  90 133 164 211 266 325 392
#     4  11  25  44  63  90 129 173 218 263 327 395
#
# _framework density 19.605796999999999
#
# number of rings (size 3 to 8) (size 9 to 14) (size 15 to 20)
#    0.000    0.833    8.333    0.000    2.333    0.000 
#    3.000    0.000    0.000    0.000    0.000    0.000 
#    0.000    0.000    0.000    0.000    0.000    0.000 
#
# Total GULP energy -134009.748728 kJ/mol
# GULP energy per Si atom -5583.739530 kJ/mol
# Density = 1.956117 g / cm^3
# Si number density = 19.605797 Si / 1000 Ang^3
#
#
#
# Elastic Constant Matrix: (Units=GPa)
#
#
# Indices 1 2 3 4 5 6 
#
# 1 70.4427 25.2842 31.6945 0.0000 0.0000 6.4305
# 2 25.2842 70.4427 31.6945 0.0000 0.0000 -6.4305
# 3 31.6945 31.6945 91.2548 0.0000 0.0000 0.0000
# 4 0.0000 0.0000 0.0000 25.2985 0.0000 0.0000
# 5 0.0000 0.0000 0.0000 0.0000 25.2985 0.0000
# 6 6.4305 -6.4305 0.0000 0.0000 0.0000 36.7462
#
#
#
# Elastic Compliance Matrix: (Units=1/GPa)
#
#
# Indices 1 2 3 4 5 6 
#
# 1 0.018436 -0.004870 -0.004712 0.000000 0.000000 -0.004078
# 2 -0.004870 0.018436 -0.004712 0.000000 0.000000 0.004078
# 3 -0.004712 -0.004712 0.014231 0.000000 0.000000 0.000000
# 4 0.000000 0.000000 0.000000 0.039528 0.000000 0.000000
# 5 0.000000 0.000000 0.000000 0.000000 0.039528 0.000000
# 6 -0.004078 0.004078 0.000000 0.000000 0.000000 0.028641
#
#
# Mechanical properties :
#
#
# Convention : Reuss Voigt Hill
#
# Bulk Modulus (GPa) = 44.41124 45.49854 44.95489
# Shear Modulus (GPa) = 25.65505 27.03310 26.34407
#
# Velocity S-wave (km/s) = 3.62130 3.71729 3.66961
# Velocity P-wave (km/s) = 6.33927 6.45611 6.39796
#
# Compressibility (1/GPa) = 0.02251682
#
# Stress axis : x y z
#
# Youngs Moduli (GPa) = 54.24126 54.24126 70.26713
#
# Poissons Ratio (x) = 0.26413 0.33109
# Poissons Ratio (y) = 0.26413 0.33109
# Poissons Ratio (z) = 0.25558 0.25558
#
# Static dielectric constant tensor:
#      x y z
#    x 1.719510 0.000000 0.000000 
#    y 0.000000 1.719510 0.000000 
#    z 0.000000 0.000000 1.705040 
# 
# From -- ./inp_files/3059.got.cif
#   From: 2010.05.17/outbox.cif.g08.bks.cpg/sg82_2_cif.got.tgz:3059.got - 2010.06.03 18:52:26.
