data_PCOD9542926
_publ_section_title
;
Structure prediction by ZEFSAII (Michael W. Deem and Ramdas Pophale) SiO2 
 PCOD9542926
Probable space group: I -4 
;
_chemical_formula_sum "Si O2"
_cell_formula_units_Z 40
_cell_length_a 13.691985
_cell_length_b 13.691985
_cell_length_c 9.592581
_cell_angle_alpha 90.000000
_cell_angle_beta 90.000000
_cell_angle_gamma 90.000000
_cell_volume 1798.325508
_symmetry_space_group_name_H-M "I -4 "
_symmetry_group_IT_number 82
_symmetry_cell_setting 'tetragonal'
loop_
_space_group_symop_operation_xyz
x,y,z
y,-x,-z
-x,-y,z
-y,x,-z
1/2+x,1/2+y,1/2+z
1/2+y,1/2-x,1/2-z
1/2-x,1/2-y,1/2+z
1/2-y,1/2+x,1/2-z
loop_
_atom_site_type_symbol
_atom_site_label
_atom_site_fract_x
_atom_site_fract_y
_atom_site_fract_z
Si Si1 0.351039 0.724551 0.991429
Si Si2 0.800898 0.163774 0.800518
Si Si3 0.024477 0.347167 0.195749
Si Si4 0.231224 0.556396 0.889242
Si Si5 0.949848 0.294145 0.901916
O O1 0.284966 0.793160 0.896026
O O2 0.329213 0.619071 0.920102
O O3 0.311970 0.717254 0.151540
O O4 0.460820 0.762119 0.013627
O O5 0.762383 0.056571 0.761837
O O6 0.896954 0.187736 0.891368
O O7 0.105197 0.424205 0.249722
O O8 0.011850 0.331405 0.031089
O O9 0.141508 0.630897 0.909267
O O10 0.209805 0.515793 0.735092
#
# Coordination Sequence:
#
# PCOD9542926 Si02
#       5
#     8   8   8   8   8
#     4  10  23  41  66  94 133 188 220 284 340 431
#     4  10  23  42  63  94 139 181 224 272 369 413
#     4  11  25  38  66 105 135 169 235 297 335 404
#     4  10  23  43  66  95 136 173 234 276 348 417
#     4  10  24  43  64 100 133 184 219 286 355 412
#
# _framework density 22.242913999999999
#
# number of rings (size 3 to 8) (size 9 to 14) (size 15 to 20)
#    0.000    1.800    0.000    2.400   16.800    0.800 
#    0.000    0.000    0.000    0.600    0.000    0.000 
#    0.000    0.000    0.000    0.000    0.000    0.000 
#
# Total GULP energy -111363.991188 kJ/mol
# GULP energy per Si atom -5568.199559 kJ/mol
# Density = 2.219229 g / cm^3
# Si number density = 22.242914 Si / 1000 Ang^3
#
#
#
# Elastic Constant Matrix: (Units=GPa)
#
#
# Indices 1 2 3 4 5 6 
#
# 1 22.1111 75.6955 31.3541 0.0000 0.0000 -65.1532
# 2 75.6955 22.1111 31.3541 0.0000 0.0000 65.1532
# 3 31.3541 31.3541 132.4995 0.0000 0.0000 0.0000
# 4 0.0000 0.0000 0.0000 35.6510 0.0000 0.0000
# 5 0.0000 0.0000 0.0000 0.0000 35.6510 0.0000
# 6 -65.1532 65.1532 0.0000 0.0000 0.0000 -35.0720
#
#
#
# Elastic Compliance Matrix: (Units=1/GPa)
#
#
# Indices 1 2 3 4 5 6 
#
# 1 0.008679 0.003374 -0.002852 0.000000 0.000000 -0.009856
# 2 0.003374 0.008679 -0.002852 0.000000 0.000000 0.009856
# 3 -0.002852 -0.002852 0.008897 0.000000 0.000000 0.000000
# 4 0.000000 0.000000 0.000000 0.028050 0.000000 0.000000
# 5 0.000000 0.000000 0.000000 0.000000 0.028050 0.000000
# 6 -0.009856 0.009856 0.000000 0.000000 0.000000 0.008106
#
#
# Mechanical properties :
#
#
# Convention : Reuss Voigt Hill
#
# Bulk Modulus (GPa) = 46.30864 50.39213 48.35038
# Shear Modulus (GPa) = 48.86638 9.80055 29.33346
#
# Velocity S-wave (km/s) = 4.69224 2.10136 3.63544
# Velocity P-wave (km/s) = 7.08667 5.34716 6.27746
#
# Compressibility (1/GPa) = 0.02159424
#
# Stress axis : x y z
#
# Youngs Moduli (GPa) = 115.21847 115.21847 112.39703
#
# Poissons Ratio (x) = -0.38871 0.32057
# Poissons Ratio (y) = -0.38871 0.32057
# Poissons Ratio (z) = 0.32862 0.32862
#
# Static dielectric constant tensor:
#      x y z
#    x 1.919090 0.000000 0.000000 
#    y 0.000000 1.919090 0.000000 
#    z 0.000000 0.000000 2.007190 
# 
# From -- ./inp_files/936.got.cif
#   From: 2010.05.17/outbox.cif.g08.bks.cpg/sg82_1_cif.got.tgz:936.got - 2010.06.03 18:52:26.
