data_PCOD9542953
_publ_section_title
;
Structure prediction by ZEFSAII (Michael W. Deem and Ramdas Pophale) SiO2 
 PCOD9542953
Probable space group: I -4 
;
_chemical_formula_sum "Si O2"
_cell_formula_units_Z 40
_cell_length_a 8.675223
_cell_length_b 8.675223
_cell_length_c 22.010174
_cell_angle_alpha 90.000000
_cell_angle_beta 90.000000
_cell_angle_gamma 90.000000
_cell_volume 1656.474560
_symmetry_space_group_name_H-M "I -4 "
_symmetry_group_IT_number 82
_symmetry_cell_setting 'tetragonal'
loop_
_space_group_symop_operation_xyz
x,y,z
y,-x,-z
-x,-y,z
-y,x,-z
1/2+x,1/2+y,1/2+z
1/2+y,1/2-x,1/2-z
1/2-x,1/2-y,1/2+z
1/2-y,1/2+x,1/2-z
loop_
_atom_site_type_symbol
_atom_site_label
_atom_site_fract_x
_atom_site_fract_y
_atom_site_fract_z
Si Si1 0.741381 0.505942 0.668129
Si Si2 0.500000 0.500000 0.500000
Si Si3 0.761481 0.985053 0.509044
Si Si4 0.763074 0.439308 0.407804
Si Si5 0.500000 0.000000 0.078844
Si Si6 0.917405 0.296652 0.213376
Si Si7 0.500000 0.000000 0.250000
O O1 0.648701 0.635941 0.633258
O O2 0.647666 0.375822 0.704003
O O3 0.866624 0.580603 0.712338
O O4 0.858771 0.435382 0.618249
O O5 0.652944 0.516545 0.458650
O O6 0.671808 0.885187 0.559285
O O7 0.635509 0.055707 0.464291
O O8 0.874361 0.870195 0.471871
O O9 0.838575 0.549807 0.357361
O O10 0.810105 0.424178 0.246852
#
# Coordination Sequence:
#
# PCOD9542953 Si02
#       7
#     8   2   8   8   4   8   2
#     4  11  22  46  71 107 146 206 275 343 422 496
#     4  12  24  44  80 124 160 220 280 334 416 536
#     4  11  26  46  71 114 163 209 268 346 425 504
#     4  12  24  45  78 112 160 218 276 347 420 509
#     4  11  24  43  76 110 153 212 275 342 424 506
#     4  11  26  46  72 111 160 214 279 351 417 497
#     4  10  24  40  76  96 140 196 274 352 410 496
#
# _framework density 24.147670000000002
#
# number of rings (size 3 to 8) (size 9 to 14) (size 15 to 20)
#    0.000    0.800    4.000    2.400    0.000    4.800 
#    0.000    0.000    4.400    0.000    0.000    0.000 
#    0.000    0.000    0.000    0.000    0.000    0.000 
#
# Total GULP energy -111707.033633 kJ/mol
# GULP energy per Si atom -5585.351682 kJ/mol
# Density = 2.409271 g / cm^3
# Si number density = 24.147670 Si / 1000 Ang^3
#
#
#
# Elastic Constant Matrix: (Units=GPa)
#
#
# Indices 1 2 3 4 5 6 
#
# 1 92.7914 33.6697 56.2504 0.0000 0.0000 -4.7798
# 2 33.6697 92.7914 56.2504 0.0000 0.0000 4.7798
# 3 56.2504 56.2504 131.4483 0.0000 0.0000 0.0000
# 4 0.0000 0.0000 0.0000 49.9186 0.0000 0.0000
# 5 0.0000 0.0000 0.0000 0.0000 49.9186 0.0000
# 6 -4.7798 4.7798 0.0000 0.0000 0.0000 57.5472
#
#
#
# Elastic Compliance Matrix: (Units=1/GPa)
#
#
# Indices 1 2 3 4 5 6 
#
# 1 0.014956 -0.002188 -0.005464 0.000000 0.000000 0.001424
# 2 -0.002188 0.014956 -0.005464 0.000000 0.000000 -0.001424
# 3 -0.005464 -0.005464 0.012284 0.000000 0.000000 0.000000
# 4 0.000000 0.000000 0.000000 0.020033 0.000000 0.000000
# 5 0.000000 0.000000 0.000000 0.000000 0.020033 0.000000
# 6 0.001424 -0.001424 0.000000 0.000000 0.000000 0.017614
#
#
# Mechanical properties :
#
#
# Convention : Reuss Voigt Hill
#
# Bulk Modulus (GPa) = 62.63769 67.70803 65.17286
# Shear Modulus (GPa) = 38.04336 42.86760 40.45548
#
# Velocity S-wave (km/s) = 3.97350 4.21792 4.09753
# Velocity P-wave (km/s) = 6.85910 7.19869 7.03095
#
# Compressibility (1/GPa) = 0.01596483
#
# Stress axis : x y z
#
# Youngs Moduli (GPa) = 66.86096 66.86096 81.40757
#
# Poissons Ratio (x) = 0.14630 0.44480
# Poissons Ratio (y) = 0.14630 0.44480
# Poissons Ratio (z) = 0.36532 0.36532
#
# Static dielectric constant tensor:
#      x y z
#    x 1.972050 0.000000 0.000000 
#    y 0.000000 1.972050 0.000000 
#    z 0.000000 0.000000 1.978840 
# 
# From -- ./inp_files/3427.got.cif
#   From: 2010.05.17/outbox.cif.g08.bks.cpg/sg82_2_cif.got.tgz:3427.got - 2010.06.03 18:52:26.
