data_PCOD9542837
_publ_section_title
;
Structure prediction by ZEFSAII (Michael W. Deem and Ramdas Pophale) SiO2 
 PCOD9542837
Probable space group: I -4 
;
_chemical_formula_sum "Si O2"
_cell_formula_units_Z 60
_cell_length_a 11.499548
_cell_length_b 11.499548
_cell_length_c 21.220044
_cell_angle_alpha 90.000000
_cell_angle_beta 90.000000
_cell_angle_gamma 90.000000
_cell_volume 2806.130220
_symmetry_space_group_name_H-M "I -4 "
_symmetry_group_IT_number 82
_symmetry_cell_setting 'tetragonal'
loop_
_space_group_symop_operation_xyz
x,y,z
y,-x,-z
-x,-y,z
-y,x,-z
1/2+x,1/2+y,1/2+z
1/2+y,1/2-x,1/2-z
1/2-x,1/2-y,1/2+z
1/2-y,1/2+x,1/2-z
loop_
_atom_site_type_symbol
_atom_site_label
_atom_site_fract_x
_atom_site_fract_y
_atom_site_fract_z
Si Si1 0.500000 0.500000 0.113551
Si Si2 0.148117 0.371239 0.059708
Si Si3 0.300980 0.754835 0.739100
Si Si4 0.244696 0.506614 0.170773
Si Si5 0.172252 0.705604 0.868376
Si Si6 0.538026 0.242271 0.073214
Si Si7 0.453081 0.325674 0.494316
Si Si8 0.242834 0.603889 0.631980
O O1 0.379079 0.479177 0.151332
O O2 0.528725 0.381626 0.076668
O O3 0.158929 0.471538 0.112777
O O4 0.214103 0.263921 0.093421
O O5 0.206586 0.424584 0.997163
O O6 0.039037 0.297723 0.030362
O O7 0.421991 0.785370 0.771792
O O8 0.214519 0.721076 0.796055
O O9 0.309894 0.645249 0.693106
O O10 0.263547 0.863079 0.695910
O O11 0.192905 0.583534 0.902843
O O12 0.033605 0.721390 0.867651
O O13 0.628590 0.182349 0.121657
O O14 0.383506 0.427762 0.529024
O O15 0.374406 0.310802 0.432550
#
# Coordination Sequence:
#
# PCOD9542837 Si02
#       8
#     4   8   8   8   8   8   8   8
#     4  12  22  43  68 108 132 184 243 300 344 422
#     4  10  23  42  71 104 137 182 228 297 356 425
#     4  11  26  46  70 103 139 191 239 284 354 435
#     4  11  26  46  70 101 144 184 241 289 356 425
#     4  11  24  43  67 103 143 181 232 299 352 421
#     4  11  24  41  71 104 139 181 237 296 366 416
#     4  10  21  42  69 101 139 177 234 290 356 425
#     4  11  24  42  68 100 138 183 230 293 361 422
#
# _framework density 21.38176
#
# number of rings (size 3 to 8) (size 9 to 14) (size 15 to 20)
#    0.000    1.200    5.333    0.400    5.600    2.933 
#    0.000    0.000    8.800    0.000    0.000    0.000 
#    0.000    0.000    0.000    0.000    0.000    0.000 
#
# Total GULP energy -167168.337083 kJ/mol
# GULP energy per Si atom -5572.277903 kJ/mol
# Density = 2.133309 g / cm^3
# Si number density = 21.381760 Si / 1000 Ang^3
#
#
#
# Elastic Constant Matrix: (Units=GPa)
#
#
# Indices 1 2 3 4 5 6 
#
# 1 75.9146 11.1599 31.1865 0.0000 0.0000 -2.4839
# 2 11.1599 75.9146 31.1865 0.0000 0.0000 2.4839
# 3 31.1865 31.1865 98.3581 0.0000 0.0000 0.0000
# 4 0.0000 0.0000 0.0000 17.5644 0.0000 0.0000
# 5 0.0000 0.0000 0.0000 0.0000 17.5644 0.0000
# 6 -2.4839 2.4839 0.0000 0.0000 0.0000 23.8335
#
#
#
# Elastic Compliance Matrix: (Units=1/GPa)
#
#
# Indices 1 2 3 4 5 6 
#
# 1 0.015213 -0.000354 -0.004711 0.000000 0.000000 0.001622
# 2 -0.000354 0.015213 -0.004711 0.000000 0.000000 -0.001622
# 3 -0.004711 -0.004711 0.013155 0.000000 0.000000 0.000000
# 4 0.000000 0.000000 0.000000 0.056933 0.000000 0.000000
# 5 0.000000 0.000000 0.000000 0.000000 0.056933 0.000000
# 6 0.001622 -0.001622 0.000000 0.000000 0.000000 0.042296
#
#
# Mechanical properties :
#
#
# Convention : Reuss Voigt Hill
#
# Bulk Modulus (GPa) = 41.61901 44.13921 42.87911
# Shear Modulus (GPa) = 21.99667 23.56942 22.78304
#
# Velocity S-wave (km/s) = 3.21091 3.32371 3.26780
# Velocity P-wave (km/s) = 5.76659 5.95127 5.85966
#
# Compressibility (1/GPa) = 0.02402748
#
# Stress axis : x y z
#
# Youngs Moduli (GPa) = 65.73174 65.73174 76.01859
#
# Poissons Ratio (x) = 0.02327 0.35816
# Poissons Ratio (y) = 0.02327 0.35816
# Poissons Ratio (z) = 0.30969 0.30969
#
# Static dielectric constant tensor:
#      x y z
#    x 1.902830 0.000000 0.000000 
#    y 0.000000 1.902830 0.000000 
#    z 0.000000 0.000000 1.794040 
# 
# From -- ./inp_files/3172.got.cif
#   From: 2010.05.17/outbox.cif.g08.bks.cpg/sg82_2_cif.got.tgz:3172.got - 2010.06.03 18:52:26.
