data_PCOD9542427
_publ_section_title
;
Structure prediction by ZEFSAII (Michael W. Deem and Ramdas Pophale) SiO2 
 PCOD9542427
Probable space group: P -4
;
_chemical_formula_sum "Si O2"
_cell_formula_units_Z 26
_cell_length_a 11.014241
_cell_length_b 11.014241
_cell_length_c 9.651026
_cell_angle_alpha 90.000000
_cell_angle_beta 90.000000
_cell_angle_gamma 90.000000
_cell_volume 1170.799789
_symmetry_space_group_name_H-M "P -4"
_symmetry_group_IT_number 81
_symmetry_cell_setting 'tetragonal'
loop_
_space_group_symop_operation_xyz
x,y,z
y,-x,-z
-x,-y,z
-y,x,-z
loop_
_atom_site_type_symbol
_atom_site_label
_atom_site_fract_x
_atom_site_fract_y
_atom_site_fract_z
Si Si1 0.721520 0.478228 0.824829
Si Si2 0.811389 0.053364 0.787330
Si Si3 0.952025 0.632689 0.449206
Si Si4 0.931654 0.299901 0.742243
Si Si5 0.085487 0.393219 0.004544
Si Si6 0.682251 0.580436 0.536077
Si Si7 0.500000 0.500000 0.000000
Si Si8 0.000000 0.000000 0.000000
O O1 0.806348 0.372787 0.764368
O O2 0.700124 0.572804 0.700868
O O3 0.597150 0.440105 0.896485
O O4 0.797590 0.543989 0.943128
O O5 0.738437 0.004037 0.655256
O O6 0.902674 0.158005 0.738769
O O7 0.706541 0.111400 0.881849
O O8 0.887370 0.972560 0.897019
O O9 0.804955 0.628042 0.463481
O O10 0.000000 0.500000 0.405937
O O11 0.005085 0.657231 0.601866
O O12 0.013991 0.335161 0.873825
O O13 0.000000 0.500000 0.062482
O O14 0.654964 0.440069 0.494646
#
# Coordination Sequence:
#
# PCOD9542427 Si02
#       8
#     4   4   4   4   4   4   1   1
#     4  11  22  42  66 101 143 185 227 285 362 435
#     4  12  26  46  74 104 138 189 246 300 364 431
#     4  12  25  47  75 109 141 189 248 297 365 451
#     4  11  22  46  74  97 145 190 231 295 368 426
#     4  10  21  43  73 100 136 188 233 291 362 433
#     4  11  23  42  70 105 147 182 225 299 370 424
#     4  12  24  36  66 112 144 180 240 290 356 456
#     4  12  28  52  66 104 156 188 250 324 360 416
#
# _framework density 22.207039999999999
#
# number of rings (size 3 to 8) (size 9 to 14) (size 15 to 20)
#    0.000    0.769    4.615    3.692    0.000    2.462 
#    2.769    0.000    0.000    0.000    0.000    0.000 
#    0.000    0.000    0.000    0.000    0.000    0.000 
#
# Total GULP energy -145389.837899 kJ/mol
# GULP energy per Si atom -5591.916842 kJ/mol
# Density = 2.215650 g / cm^3
# Si number density = 22.207040 Si / 1000 Ang^3
#
#
#
# Elastic Constant Matrix: (Units=GPa)
#
#
# Indices 1 2 3 4 5 6 
#
# 1 72.3937 19.4246 27.0819 0.0000 0.0000 11.6679
# 2 19.4246 72.3937 27.0819 0.0000 0.0000 -11.6679
# 3 27.0819 27.0819 93.7800 0.0000 0.0000 0.0000
# 4 0.0000 0.0000 0.0000 22.3071 0.0000 0.0000
# 5 0.0000 0.0000 0.0000 0.0000 22.3071 0.0000
# 6 11.6679 -11.6679 0.0000 0.0000 0.0000 0.2725
#
#
#
# Elastic Compliance Matrix: (Units=1/GPa)
#
#
# Indices 1 2 3 4 5 6 
#
# 1 0.006035 0.007092 -0.003791 0.000000 0.000000 0.045251
# 2 0.007092 0.006035 -0.003791 0.000000 0.000000 -0.045251
# 3 -0.003791 -0.003791 0.012853 0.000000 0.000000 0.000000
# 4 0.000000 0.000000 0.000000 0.044829 0.000000 0.000000
# 5 0.000000 0.000000 0.000000 0.000000 0.044829 0.000000
# 6 0.045251 -0.045251 0.000000 0.000000 0.000000 -0.205427
#
#
# Mechanical properties :
#
#
# Convention : Reuss Voigt Hill
#
# Bulk Modulus (GPa) = 41.76459 42.86048 42.31254
# Shear Modulus (GPa) = -61.06101 19.97591 -20.54255
#
# Velocity S-wave (km/s) = -5.24937 3.00247 -3.04476
# Velocity P-wave (km/s) = 4.23007 5.60019 2.59505
#
# Compressibility (1/GPa) = 0.02394373
#
# Stress axis : x y z
#
# Youngs Moduli (GPa) = 165.69217 165.69217 77.80428
#
# Poissons Ratio (x) = -1.17510 0.29495
# Poissons Ratio (y) = -1.17510 0.29495
# Poissons Ratio (z) = 0.62813 0.62813
#
# Static dielectric constant tensor:
#      x y z
#    x 1.836480 0.000000 0.000000 
#    y 0.000000 1.836480 0.000000 
#    z 0.000000 0.000000 1.820610 
# 
# From -- ./inp_files/908.got.cif
#   From: 2010.05.17/outbox.cif.g08.bks.cpg/sg81_cif.got.tgz:908.got - 2010.06.03 18:51:07.
