data_PCOD9542111
_publ_section_title
;
Structure prediction by ZEFSAII (Michael W. Deem and Ramdas Pophale) SiO2 
 PCOD9542111
Probable space group: I 41
;
_chemical_formula_sum "Si O2"
_cell_formula_units_Z 40
_cell_length_a 14.644407
_cell_length_b 14.644407
_cell_length_c 8.330873
_cell_angle_alpha 90.000000
_cell_angle_beta 90.000000
_cell_angle_gamma 90.000000
_cell_volume 1786.627830
_symmetry_space_group_name_H-M "I 41"
_symmetry_group_IT_number 80
_symmetry_cell_setting 'tetragonal'
loop_
_space_group_symop_operation_xyz
x,y,z
-y,1/2+x,1/4+z
-x,-y,z
y,1/2-x,1/4+z
1/2+x,1/2+y,1/2+z
1/2-y,x,3/4+z
1/2-x,1/2-y,1/2+z
1/2+y,-x,3/4+z
loop_
_atom_site_type_symbol
_atom_site_label
_atom_site_fract_x
_atom_site_fract_y
_atom_site_fract_z
Si Si1 0.460209 0.698747 0.051910
Si Si2 0.769748 0.846122 0.394571
Si Si3 0.070505 0.628727 0.359188
Si Si4 0.847643 0.318260 0.063703
Si Si5 0.880988 0.547896 0.494724
O O1 0.548417 0.745326 0.131082
O O2 0.399735 0.654385 0.186845
O O3 0.406087 0.782263 0.965907
O O4 0.495674 0.627932 0.916731
O O5 0.792452 0.814529 0.571039
O O6 0.860269 0.823864 0.285369
O O7 0.064808 0.665592 0.178295
O O8 0.133825 0.538411 0.376839
O O9 0.975037 0.591865 0.430874
O O10 0.769004 0.329126 0.200851
#
# Coordination Sequence:
#
# PCOD9542111 Si02
#       5
#     8   8   8   8   8
#     4  10  20  38  60  84 118 158 202 256 312 369
#     4   9  19  35  57  81 111 150 191 241 300 360
#     4  10  20  37  60  84 117 157 197 249 309 369
#     4  12  24  38  60  91 124 162 208 259 316 379
#     4   9  19  38  59  82 112 155 202 247 305 365
#
# _framework density 22.388548
#
# number of rings (size 3 to 8) (size 9 to 14) (size 15 to 20)
#    0.000    2.000    0.000    3.600    0.000    1.600 
#    0.000   16.000    0.000    0.000    0.000    0.000 
#    0.000    0.000    0.000    0.000    0.000    0.000 
#
# Total GULP energy -111334.971386 kJ/mol
# GULP energy per Si atom -5566.748569 kJ/mol
# Density = 2.233759 g / cm^3
# Si number density = 22.388548 Si / 1000 Ang^3
#
#
#
# Elastic Constant Matrix: (Units=GPa)
#
#
# Indices 1 2 3 4 5 6 
#
# 1 49.9607 9.8183 20.3531 0.0000 0.0000 -1.5718
# 2 9.8183 49.9607 20.3531 0.0000 0.0000 1.5718
# 3 20.3531 20.3531 69.6164 0.0000 0.0000 0.0000
# 4 0.0000 0.0000 0.0000 34.3377 0.0000 0.0000
# 5 0.0000 0.0000 0.0000 0.0000 34.3377 0.0000
# 6 -1.5718 1.5718 0.0000 0.0000 0.0000 4.7118
#
#
#
# Elastic Compliance Matrix: (Units=1/GPa)
#
#
# Indices 1 2 3 4 5 6 
#
# 1 0.023233 -0.002347 -0.006106 0.000000 0.000000 0.008533
# 2 -0.002347 0.023233 -0.006106 0.000000 0.000000 -0.008533
# 3 -0.006106 -0.006106 0.017935 0.000000 0.000000 0.000000
# 4 0.000000 0.000000 0.000000 0.029122 0.000000 0.000000
# 5 0.000000 0.000000 0.000000 0.000000 0.029122 0.000000
# 6 0.008533 -0.008533 0.000000 0.000000 0.000000 0.217928
#
#
# Mechanical properties :
#
#
# Convention : Reuss Voigt Hill
#
# Bulk Modulus (GPa) = 28.34286 30.06521 29.20403
# Shear Modulus (GPa) = 13.10777 22.61168 17.85973
#
# Velocity S-wave (km/s) = 2.42227 3.18144 2.82745
# Velocity P-wave (km/s) = 4.52882 5.19167 4.87153
#
# Compressibility (1/GPa) = 0.03528226
#
# Stress axis : x y z
#
# Youngs Moduli (GPa) = 43.04236 43.04236 55.75711
#
# Poissons Ratio (x) = 0.10100 0.34047
# Poissons Ratio (y) = 0.10100 0.34047
# Poissons Ratio (z) = 0.26283 0.26283
#
# Static dielectric constant tensor:
#      x y z
#    x 1.915390 0.000000 0.000000 
#    y 0.000000 1.915390 0.000000 
#    z 0.000000 0.000000 1.783540 
# 
# From -- ./inp_files/187.got.cif
#   From: 2010.05.17/outbox.cif.g08.bks.cpg/sg80_cif.got.tgz:187.got - 2010.06.03 18:49:13.
