data_PCOD9542857
_publ_section_title
;
Structure prediction by ZEFSAII (Michael W. Deem and Ramdas Pophale) SiO2 
 PCOD9542857
Probable space group: I -4 
;
_chemical_formula_sum "Si O2"
_cell_formula_units_Z 56
_cell_length_a 14.892073
_cell_length_b 14.892073
_cell_length_c 11.682266
_cell_angle_alpha 90.000000
_cell_angle_beta 90.000000
_cell_angle_gamma 90.000000
_cell_volume 2590.820970
_symmetry_space_group_name_H-M "I -4 "
_symmetry_group_IT_number 82
_symmetry_cell_setting 'tetragonal'
loop_
_space_group_symop_operation_xyz
x,y,z
y,-x,-z
-x,-y,z
-y,x,-z
1/2+x,1/2+y,1/2+z
1/2+y,1/2-x,1/2-z
1/2-x,1/2-y,1/2+z
1/2-y,1/2+x,1/2-z
loop_
_atom_site_type_symbol
_atom_site_label
_atom_site_fract_x
_atom_site_fract_y
_atom_site_fract_z
Si Si1 0.522504 0.289305 0.630312
Si Si2 0.156591 0.837498 0.955020
Si Si3 0.675969 0.139696 0.113967
Si Si4 0.833131 0.866630 0.465390
Si Si5 0.188750 0.642981 0.880819
Si Si6 0.973907 0.402052 0.032829
Si Si7 0.106843 0.001571 0.656181
O O1 0.562106 0.339252 0.518908
O O2 0.417846 0.309411 0.620998
O O3 0.541722 0.182779 0.618546
O O4 0.552537 0.337621 0.745674
O O5 0.156859 0.746188 0.885057
O O6 0.226941 0.837176 0.060256
O O7 0.624304 0.231697 0.080294
O O8 0.687339 0.117204 0.247778
O O9 0.632432 0.055584 0.047791
O O10 0.851293 0.782583 0.550639
O O11 0.866107 0.951927 0.537401
O O12 0.899849 0.860191 0.358969
O O13 0.115482 0.589364 0.955554
O O14 0.000000 0.500000 0.081058
O O15 0.000000 0.000000 0.677603
#
# Coordination Sequence:
#
# PCOD9542857 Si02
#       7
#     8   8   8   8   8   8   8
#     4  10  22  40  63  89 134 171 215 268 328 389
#     4   9  20  39  57  95 125 166 221 264 314 408
#     4  10  22  39  64  91 125 172 216 268 333 378
#     4  11  23  42  65  91 134 161 213 274 320 404
#     4  10  22  39  64  91 125 172 216 268 333 378
#     4  10  24  41  63  95 131 166 230 271 312 392
#     4  12  24  41  64 100 127 165 213 263 338 395
#
# _framework density 21.61477
#
# number of rings (size 3 to 8) (size 9 to 14) (size 15 to 20)
#    0.000    1.714    1.429    1.714    6.000    0.000 
#    5.143    0.000    3.143    0.000    0.000    0.000 
#    0.000    0.000    0.000    0.000    0.000    0.000 
#
# Total GULP energy -156222.327561 kJ/mol
# GULP energy per Si atom -5579.368841 kJ/mol
# Density = 2.156557 g / cm^3
# Si number density = 21.614770 Si / 1000 Ang^3
#
#
#
# Elastic Constant Matrix: (Units=GPa)
#
#
# Indices 1 2 3 4 5 6 
#
# 1 56.6234 6.6617 10.6222 0.0000 0.0000 7.7010
# 2 6.6617 56.6234 10.6222 0.0000 0.0000 -7.7010
# 3 10.6222 10.6222 76.9214 0.0000 0.0000 0.0000
# 4 0.0000 0.0000 0.0000 17.6524 0.0000 0.0000
# 5 0.0000 0.0000 0.0000 0.0000 17.6524 0.0000
# 6 7.7010 -7.7010 0.0000 0.0000 0.0000 20.1477
#
#
#
# Elastic Compliance Matrix: (Units=1/GPa)
#
#
# Indices 1 2 3 4 5 6 
#
# 1 0.019629 -0.003060 -0.002288 0.000000 0.000000 -0.008672
# 2 -0.003060 0.019629 -0.002288 0.000000 0.000000 0.008672
# 3 -0.002288 -0.002288 0.013632 0.000000 0.000000 0.000000
# 4 0.000000 0.000000 0.000000 0.056649 0.000000 0.000000
# 5 0.000000 0.000000 0.000000 0.000000 0.056649 0.000000
# 6 -0.008672 0.008672 0.000000 0.000000 0.000000 0.056263
#
#
# Mechanical properties :
#
#
# Convention : Reuss Voigt Hill
#
# Bulk Modulus (GPa) = 26.58236 27.33117 26.95676
# Shear Modulus (GPa) = 19.97892 21.90798 20.94345
#
# Velocity S-wave (km/s) = 3.04356 3.18711 3.11616
# Velocity P-wave (km/s) = 4.96749 5.12012 5.04438
#
# Compressibility (1/GPa) = 0.03761894
#
# Stress axis : x y z
#
# Youngs Moduli (GPa) = 50.94455 50.94455 73.35563
#
# Poissons Ratio (x) = 0.15587 0.16785
# Poissons Ratio (y) = 0.15587 0.16785
# Poissons Ratio (z) = 0.11657 0.11657
#
# Static dielectric constant tensor:
#      x y z
#    x 1.836420 0.000000 0.000000 
#    y 0.000000 1.836420 0.000000 
#    z 0.000000 0.000000 1.795320 
# 
# From -- ./inp_files/1827.got.cif
#   From: 2010.05.17/outbox.cif.g08.bks.cpg/sg82_1_cif.got.tgz:1827.got - 2010.06.03 18:52:26.
