data_PCOD9542037
_publ_section_title
;
Structure prediction by ZEFSAII (Michael W. Deem and Ramdas Pophale) SiO2 
 PCOD9542037
Probable space group: I 4
;
_chemical_formula_sum "Si O2"
_cell_formula_units_Z 24
_cell_length_a 7.814318
_cell_length_b 7.814318
_cell_length_c 13.857197
_cell_angle_alpha 90.000000
_cell_angle_beta 90.000000
_cell_angle_gamma 90.000000
_cell_volume 846.169861
_symmetry_space_group_name_H-M "I 4"
_symmetry_group_IT_number 79
_symmetry_cell_setting 'tetragonal'
loop_
_space_group_symop_operation_xyz
x,y,z
-y,x,z
-x,-y,z
y,-x,z
1/2+x,1/2+y,1/2+z
1/2-y,1/2+x,1/2+z
1/2-x,1/2-y,1/2+z
1/2+y,1/2-x,1/2+z
loop_
_atom_site_type_symbol
_atom_site_label
_atom_site_fract_x
_atom_site_fract_y
_atom_site_fract_z
Si Si1 0.915951 0.271832 0.071540
Si Si2 0.781738 0.470018 0.231348
Si Si3 0.075870 0.278032 0.387951
O O1 0.927410 0.359641 0.176446
O O2 0.105314 0.200729 0.055272
O O3 0.834323 0.409332 0.999297
O O4 0.672665 0.637291 0.205212
O O5 0.844192 0.554543 0.333515
O O6 0.885982 0.201350 0.368477
#
# Coordination Sequence:
#
# PCOD9542037 Si02
#       3
#     8   8   8
#     4  11  26  50  81 120 167 219 274 335 408 489
#     4  11  26  45  74 116 160 214 272 332 404 478
#     4  11  26  50  81 120 167 219 274 335 408 489
#
# _framework density 28.363099999999999
#
# number of rings (size 3 to 8) (size 9 to 14) (size 15 to 20)
#    0.000    1.000    0.000    4.000    0.000   22.667 
#    0.000    3.333    0.000    0.000    0.000    0.000 
#    0.000    0.000    0.000    0.000    0.000    0.000 
#
# Total GULP energy -66838.978598 kJ/mol
# GULP energy per Si atom -5569.914883 kJ/mol
# Density = 2.829854 g / cm^3
# Si number density = 28.363100 Si / 1000 Ang^3
#
#
#
# Elastic Constant Matrix: (Units=GPa)
#
#
# Indices 1 2 3 4 5 6 
#
# 1 180.2230 61.8546 22.1269 0.0000 0.0000 -2.6843
# 2 61.8546 180.2230 22.1269 0.0000 0.0000 2.6843
# 3 22.1269 22.1269 114.4651 0.0000 0.0000 0.0000
# 4 0.0000 0.0000 0.0000 52.3954 0.0000 0.0000
# 5 0.0000 0.0000 0.0000 0.0000 52.3954 0.0000
# 6 -2.6843 2.6843 0.0000 0.0000 0.0000 59.3598
#
#
#
# Elastic Compliance Matrix: (Units=1/GPa)
#
#
# Indices 1 2 3 4 5 6 
#
# 1 0.006374 -0.002092 -0.000828 0.000000 0.000000 0.000383
# 2 -0.002092 0.006374 -0.000828 0.000000 0.000000 -0.000383
# 3 -0.000828 -0.000828 0.009056 0.000000 0.000000 0.000000
# 4 0.000000 0.000000 0.000000 0.019086 0.000000 0.000000
# 5 0.000000 0.000000 0.000000 0.000000 0.019086 0.000000
# 6 0.000383 -0.000383 0.000000 0.000000 0.000000 0.016881
#
#
# Mechanical properties :
#
#
# Convention : Reuss Voigt Hill
#
# Bulk Modulus (GPa) = 69.88295 76.34755 73.11525
# Shear Modulus (GPa) = 56.10361 57.41695 56.76028
#
# Velocity S-wave (km/s) = 4.45235 4.50416 4.47833
# Velocity P-wave (km/s) = 7.15006 7.35026 7.25085
#
# Compressibility (1/GPa) = 0.01430964
#
# Stress axis : x y z
#
# Youngs Moduli (GPa) = 156.88979 156.88979 110.42016
#
# Poissons Ratio (x) = 0.32816 0.09140
# Poissons Ratio (y) = 0.32816 0.09140
# Poissons Ratio (z) = 0.12987 0.12987
#
# Static dielectric constant tensor:
#      x y z
#    x 2.690080 0.000000 0.000000 
#    y 0.000000 2.690080 0.000000 
#    z 0.000000 0.000000 2.312190 
# 
# From -- ./inp_files/1241.got.cif
#   From: 2010.05.17/outbox.cif.g08.bks.cpg/sg79_cif.got.tgz:1241.got - 2010.06.03 18:47:27.
