data_PCOD9542764
_publ_section_title
;
Structure prediction by ZEFSAII (Michael W. Deem and Ramdas Pophale) SiO2 
 PCOD9542764
Probable space group: I -4 
;
_chemical_formula_sum "Si O2"
_cell_formula_units_Z 48
_cell_length_a 8.364422
_cell_length_b 8.364422
_cell_length_c 32.443508
_cell_angle_alpha 90.000000
_cell_angle_beta 90.000000
_cell_angle_gamma 90.000000
_cell_volume 2269.863169
_symmetry_space_group_name_H-M "I -4 "
_symmetry_group_IT_number 82
_symmetry_cell_setting 'tetragonal'
loop_
_space_group_symop_operation_xyz
x,y,z
y,-x,-z
-x,-y,z
-y,x,-z
1/2+x,1/2+y,1/2+z
1/2+y,1/2-x,1/2-z
1/2-x,1/2-y,1/2+z
1/2-y,1/2+x,1/2-z
loop_
_atom_site_type_symbol
_atom_site_label
_atom_site_fract_x
_atom_site_fract_y
_atom_site_fract_z
Si Si1 0.080267 0.253818 0.257017
Si Si2 0.213377 0.309055 0.536485
Si Si3 0.308143 0.814461 0.178721
Si Si4 0.954126 0.666445 0.452280
Si Si5 0.000000 0.000000 0.191729
Si Si6 0.047498 0.810503 0.597942
Si Si7 0.000000 0.000000 0.000000
Si Si8 0.000000 0.500000 0.750000
O O1 0.189162 0.399271 0.242240
O O2 0.138038 0.217821 0.302655
O O3 0.090385 0.118189 0.223026
O O4 0.127394 0.368430 0.495485
O O5 0.377082 0.409652 0.531483
O O6 0.084554 0.295994 0.573596
O O7 0.253265 0.120878 0.535057
O O8 0.139207 0.901269 0.168967
O O9 0.415108 0.787474 0.139123
O O10 0.390005 0.901469 0.217958
O O11 0.839857 0.788596 0.427879
O O12 0.000000 0.500000 0.430043
O O13 0.000000 0.000000 0.605360
#
# Coordination Sequence:
#
# PCOD9542764 Si02
#       8
#     8   8   8   8   4   8   2   2
#     4   9  19  36  65  98 127 180 235 286 354 434
#     4  11  22  42  72 102 141 183 237 286 365 432
#     4  11  23  44  67  99 140 181 245 288 365 434
#     4  11  21  42  71  99 140 188 230 289 365 446
#     4  10  20  40  69  94 132 183 225 302 354 427
#     4  10  25  44  71 107 137 190 240 305 352 444
#     4  12  24  40  74 116 132 192 228 300 352 450
#     4  12  24  44  68  96 140 200 232 300 372 432
#
# _framework density 21.146649
#
# number of rings (size 3 to 8) (size 9 to 14) (size 15 to 20)
#    0.000    1.500    5.000    0.000    1.167    0.000 
#   10.500    2.500    0.000    0.000    0.000    0.000 
#    0.000    0.000    0.000    0.000    0.000    0.000 
#
# Total GULP energy -133698.900684 kJ/mol
# GULP energy per Si atom -5570.787528 kJ/mol
# Density = 2.109852 g / cm^3
# Si number density = 21.146649 Si / 1000 Ang^3
#
#
#
# Elastic Constant Matrix: (Units=GPa)
#
#
# Indices 1 2 3 4 5 6 
#
# 1 221.3909 -113.5311 51.4675 0.0000 0.0000 -107.3091
# 2 -113.5311 221.3909 51.4676 0.0000 0.0000 107.3091
# 3 51.4675 51.4676 97.7731 0.0000 0.0000 0.0000
# 4 0.0000 0.0000 0.0000 22.1737 0.0000 0.0000
# 5 0.0000 0.0000 0.0000 0.0000 22.1737 0.0000
# 6 -107.3091 107.3091 0.0000 0.0000 0.0000 111.6382
#
#
#
# Elastic Compliance Matrix: (Units=1/GPa)
#
#
# Indices 1 2 3 4 5 6 
#
# 1 0.013203 0.005428 -0.009807 0.000000 0.000000 0.007473
# 2 0.005428 0.013203 -0.009807 0.000000 0.000000 -0.007473
# 3 -0.009807 -0.009807 0.020553 0.000000 0.000000 0.000000
# 4 0.000000 0.000000 0.000000 0.045099 0.000000 0.000000
# 5 0.000000 0.000000 0.000000 0.000000 0.045099 0.000000
# 6 0.007473 -0.007473 0.000000 0.000000 0.000000 0.023324
#
#
# Mechanical properties :
#
#
# Convention : Reuss Voigt Hill
#
# Bulk Modulus (GPa) = 53.80559 57.70700 55.75629
# Shear Modulus (GPa) = 25.63495 67.94049 46.78772
#
# Velocity S-wave (km/s) = 3.48551 5.67433 4.70886
# Velocity P-wave (km/s) = 6.45737 8.38325 7.48253
#
# Compressibility (1/GPa) = 0.01858543
#
# Stress axis : x y z
#
# Youngs Moduli (GPa) = 75.74295 75.74295 48.65552
#
# Poissons Ratio (x) = -0.41114 0.47717
# Poissons Ratio (y) = -0.41114 0.47717
# Poissons Ratio (z) = 0.74282 0.74282
#
# Static dielectric constant tensor:
#      x y z
#    x 1.902210 0.000000 0.000000 
#    y 0.000000 1.902210 0.000000 
#    z 0.000000 0.000000 1.636380 
# 
# From -- ./inp_files/4121.got.cif
#   From: 2010.05.17/outbox.cif.g08.bks.cpg/sg82_3_cif.got.tgz:4121.got - 2010.06.03 18:52:26.
