data_PCOD9542621
_publ_section_title
;
Structure prediction by ZEFSAII (Michael W. Deem and Ramdas Pophale) SiO2 
 PCOD9542621
Probable space group: I -4 
;
_chemical_formula_sum "Si O2"
_cell_formula_units_Z 32
_cell_length_a 9.133818
_cell_length_b 9.133818
_cell_length_c 20.911103
_cell_angle_alpha 90.000000
_cell_angle_beta 90.000000
_cell_angle_gamma 90.000000
_cell_volume 1744.542879
_symmetry_space_group_name_H-M "I -4 "
_symmetry_group_IT_number 82
_symmetry_cell_setting 'tetragonal'
loop_
_space_group_symop_operation_xyz
x,y,z
y,-x,-z
-x,-y,z
-y,x,-z
1/2+x,1/2+y,1/2+z
1/2+y,1/2-x,1/2-z
1/2-x,1/2-y,1/2+z
1/2-y,1/2+x,1/2-z
loop_
_atom_site_type_symbol
_atom_site_label
_atom_site_fract_x
_atom_site_fract_y
_atom_site_fract_z
Si Si1 0.465994 0.298086 0.962409
Si Si2 0.446270 0.771793 0.247746
Si Si3 0.000000 0.500000 0.090550
Si Si4 0.180657 0.597102 0.290245
Si Si5 0.500000 0.500000 0.156040
O O1 0.440583 0.129028 0.953315
O O2 0.495554 0.362991 0.892031
O O3 0.337374 0.392845 0.994458
O O4 0.590719 0.847883 0.277186
O O5 0.332736 0.682154 0.291544
O O6 0.494143 0.649514 0.196431
O O7 0.942927 0.623313 0.139821
O O8 0.186714 0.446966 0.247960
#
# Coordination Sequence:
#
# PCOD9542621 Si02
#       5
#     8   8   4   8   4
#     4   9  20  36  56  74  92 135 181 215 258 304
#     4  11  21  31  49  81 114 139 168 209 252 302
#     4  10  17  34  58  76 100 132 175 218 254 306
#     4   9  18  32  55  80 103 140 173 199 254 325
#     4  10  19  38  54  70 110 146 171 202 250 318
#
# _framework density 18.342911999999998
#
# number of rings (size 3 to 8) (size 9 to 14) (size 15 to 20)
#    0.000    2.750    0.000    6.000    0.000    0.000 
#    0.000   15.000    0.000    6.750    0.000    0.000 
#    0.000    0.000    0.000    0.000    0.000    0.000 
#
# Total GULP energy -89127.540370 kJ/mol
# GULP energy per Si atom -5570.471273 kJ/mol
# Density = 1.830116 g / cm^3
# Si number density = 18.342912 Si / 1000 Ang^3
#
#
#
# Elastic Constant Matrix: (Units=GPa)
#
#
# Indices 1 2 3 4 5 6 
#
# 1 96.2526 26.2010 31.0775 0.0000 0.0000 5.5474
# 2 26.2010 96.2526 31.0775 0.0000 0.0000 -5.5474
# 3 31.0775 31.0775 54.8487 0.0000 0.0000 0.0000
# 4 0.0000 0.0000 0.0000 4.3289 0.0000 0.0000
# 5 0.0000 0.0000 0.0000 0.0000 4.3289 0.0000
# 6 5.5474 -5.5474 0.0000 0.0000 0.0000 24.9306
#
#
#
# Elastic Compliance Matrix: (Units=1/GPa)
#
#
# Indices 1 2 3 4 5 6 
#
# 1 0.013130 -0.001667 -0.006495 0.000000 0.000000 -0.003292
# 2 -0.001667 0.013130 -0.006495 0.000000 0.000000 0.003292
# 3 -0.006495 -0.006495 0.025592 0.000000 0.000000 0.000000
# 4 0.000000 0.000000 0.000000 0.231008 0.000000 0.000000
# 5 0.000000 0.000000 0.000000 0.000000 0.231008 0.000000
# 6 -0.003292 0.003292 0.000000 0.000000 0.000000 0.041577
#
#
# Mechanical properties :
#
#
# Convention : Reuss Voigt Hill
#
# Bulk Modulus (GPa) = 44.36902 47.11845 45.74373
# Shear Modulus (GPa) = 8.44208 17.31752 12.87980
#
# Velocity S-wave (km/s) = 2.14764 3.07595 2.65272
# Velocity P-wave (km/s) = 5.51280 6.19343 5.86300
#
# Compressibility (1/GPa) = 0.02253825
#
# Stress axis : x y z
#
# Youngs Moduli (GPa) = 76.16217 76.16217 39.07433
#
# Poissons Ratio (x) = 0.12694 0.25379
# Poissons Ratio (y) = 0.12694 0.25379
# Poissons Ratio (z) = 0.49468 0.49468
#
# Static dielectric constant tensor:
#      x y z
#    x 1.692000 0.000000 0.000000 
#    y 0.000000 1.692000 0.000000 
#    z 0.000000 0.000000 1.611630 
# 
# From -- ./inp_files/2949.got.cif
#   From: 2010.05.17/outbox.cif.g08.bks.cpg/sg82_2_cif.got.tgz:2949.got - 2010.06.03 18:52:26.
