data_PCOD9542576
_publ_section_title
;
Structure prediction by ZEFSAII (Michael W. Deem and Ramdas Pophale) SiO2 
 PCOD9542576
Probable space group: P -4
;
_chemical_formula_sum "Si O2"
_cell_formula_units_Z 16
_cell_length_a 9.420182
_cell_length_b 9.420182
_cell_length_c 7.104187
_cell_angle_alpha 90.000000
_cell_angle_beta 90.000000
_cell_angle_gamma 90.000000
_cell_volume 630.424339
_symmetry_space_group_name_H-M "P -4"
_symmetry_group_IT_number 81
_symmetry_cell_setting 'tetragonal'
loop_
_space_group_symop_operation_xyz
x,y,z
y,-x,-z
-x,-y,z
-y,x,-z
loop_
_atom_site_type_symbol
_atom_site_label
_atom_site_fract_x
_atom_site_fract_y
_atom_site_fract_z
Si Si1 0.677485 0.113286 0.060065
Si Si2 0.044901 0.791580 0.572329
Si Si3 0.283469 0.578012 0.444429
Si Si4 0.178025 0.611898 0.035063
O O1 0.755581 0.243160 0.964215
O O2 0.756388 0.047364 0.240448
O O3 0.519388 0.169696 0.105667
O O4 0.651996 0.983620 0.920496
O O5 0.141330 0.656057 0.519287
O O6 0.925543 0.846809 0.424210
O O7 0.420490 0.676527 0.487153
O O8 0.262086 0.569598 0.219951
#
# Coordination Sequence:
#
# PCOD9542576 Si02
#       4
#     4   4   4   4
#     4  11  28  50  82 119 169 217 277 349 423 503
#     4  11  26  50  84 125 163 221 282 344 413 507
#     4  11  28  51  83 122 167 221 285 345 414 503
#     4  11  28  51  79 126 163 223 272 350 424 501
#
# _framework density 25.379732000000001
#
# number of rings (size 3 to 8) (size 9 to 14) (size 15 to 20)
#    0.000    1.000    2.500    0.000   14.000    6.000 
#    0.000    0.000    0.000    0.000    0.000    0.000 
#    0.000    0.000    0.000    0.000    0.000    0.000 
#
# Total GULP energy -89505.075948 kJ/mol
# GULP energy per Si atom -5594.067247 kJ/mol
# Density = 2.532197 g / cm^3
# Si number density = 25.379732 Si / 1000 Ang^3
#
#
#
# Elastic Constant Matrix: (Units=GPa)
#
#
# Indices 1 2 3 4 5 6 
#
# 1 156.9268 66.0509 42.8445 0.0000 0.0000 -12.8761
# 2 66.0509 156.9268 42.8445 0.0000 0.0000 12.8761
# 3 42.8445 42.8445 95.2673 0.0000 0.0000 0.0000
# 4 0.0000 0.0000 0.0000 37.2699 0.0000 0.0000
# 5 0.0000 0.0000 0.0000 0.0000 37.2699 0.0000
# 6 -12.8761 12.8761 0.0000 0.0000 0.0000 60.1338
#
#
#
# Elastic Compliance Matrix: (Units=1/GPa)
#
#
# Indices 1 2 3 4 5 6 
#
# 1 0.008568 -0.003147 -0.002438 0.000000 0.000000 0.002508
# 2 -0.003147 0.008568 -0.002438 0.000000 0.000000 -0.002508
# 3 -0.002438 -0.002438 0.012690 0.000000 0.000000 0.000000
# 4 0.000000 0.000000 0.000000 0.026831 0.000000 0.000000
# 5 0.000000 0.000000 0.000000 0.000000 0.026831 0.000000
# 6 0.002508 -0.002508 0.000000 0.000000 0.000000 0.017704
#
#
# Mechanical properties :
#
#
# Convention : Reuss Voigt Hill
#
# Bulk Modulus (GPa) = 72.56792 79.17786 75.87289
# Shear Modulus (GPa) = 41.03982 44.09344 42.56663
#
# Velocity S-wave (km/s) = 4.02560 4.17267 4.09979
# Velocity P-wave (km/s) = 7.08958 7.38105 7.23678
#
# Compressibility (1/GPa) = 0.01378019
#
# Stress axis : x y z
#
# Youngs Moduli (GPa) = 116.70897 116.70897 78.80243
#
# Poissons Ratio (x) = 0.36723 0.19215
# Poissons Ratio (y) = 0.36723 0.19215
# Poissons Ratio (z) = 0.28458 0.28458
#
# Static dielectric constant tensor:
#      x y z
#    x 2.041550 0.000000 0.000000 
#    y 0.000000 2.041550 0.000000 
#    z 0.000000 0.000000 2.002740 
# 
# From -- ./inp_files/609.got.cif
#   From: 2010.05.17/outbox.cif.g08.bks.cpg/sg81_cif.got.tgz:609.got - 2010.06.03 18:51:07.
