data_PCOD9542572
_publ_section_title
;
Structure prediction by ZEFSAII (Michael W. Deem and Ramdas Pophale) SiO2 
 PCOD9542572
Probable space group: P -4
;
_chemical_formula_sum "Si O2"
_cell_formula_units_Z 16
_cell_length_a 5.198080
_cell_length_b 5.198080
_cell_length_c 25.273505
_cell_angle_alpha 90.000000
_cell_angle_beta 90.000000
_cell_angle_gamma 90.000000
_cell_volume 682.891007
_symmetry_space_group_name_H-M "P -4"
_symmetry_group_IT_number 81
_symmetry_cell_setting 'tetragonal'
loop_
_space_group_symop_operation_xyz
x,y,z
y,-x,-z
-x,-y,z
-y,x,-z
loop_
_atom_site_type_symbol
_atom_site_label
_atom_site_fract_x
_atom_site_fract_y
_atom_site_fract_z
Si Si1 0.749441 0.178358 0.583747
Si Si2 0.160677 0.745649 0.700452
Si Si3 0.500000 0.500000 0.140651
Si Si4 0.000000 0.500000 0.929104
Si Si5 0.000000 0.500000 0.209154
Si Si6 0.000000 0.000000 0.000000
Si Si7 0.500000 0.500000 0.500000
O O1 0.731923 0.309571 0.641957
O O2 0.718460 0.387892 0.538219
O O3 0.500000 0.000000 0.580107
O O4 0.000000 0.000000 0.577541
O O5 0.000000 0.500000 0.717405
O O6 0.329464 0.837974 0.749207
O O7 0.000000 0.000000 0.689448
O O8 0.433315 0.249750 0.106027
O O9 0.759739 0.414332 0.172560
O O10 0.058399 0.250373 0.964617
#
# Coordination Sequence:
#
# PCOD9542572 Si02
#       7
#     4   4   2   2   2   1   1
#     4  11  29  52  75 112 149 195 257 326 395 493
#     4  11  26  48  77 105 148 202 264 311 388 483
#     4  12  28  44  76 112 172 190 270 318 400 442
#     4  12  26  49  74 122 148 219 258 330 374 458
#     4  12  26  47  74 112 154 217 242 334 386 472
#     4  12  24  48  84 100 164 204 280 308 388 442
#     4  12  32  46  84 104 160 186 256 324 432 458
#
# _framework density 23.429798000000002
#
# number of rings (size 3 to 8) (size 9 to 14) (size 15 to 20)
#    0.000    0.500    1.250    4.500   15.750    1.000 
#    0.000    0.000    0.000    0.000    0.000    0.000 
#    0.000    0.000    0.000    0.000    0.000    0.000 
#
# Total GULP energy -89482.127058 kJ/mol
# GULP energy per Si atom -5592.632941 kJ/mol
# Density = 2.337647 g / cm^3
# Si number density = 23.429798 Si / 1000 Ang^3
#
#
#
# Elastic Constant Matrix: (Units=GPa)
#
#
# Indices 1 2 3 4 5 6 
#
# 1 143.9060 37.0169 43.2997 0.0000 0.0000 -8.9171
# 2 37.0169 143.9060 43.2997 0.0000 0.0000 8.9171
# 3 43.2997 43.2997 122.6894 0.0000 0.0000 0.0000
# 4 0.0000 0.0000 0.0000 42.2158 0.0000 0.0000
# 5 0.0000 0.0000 0.0000 0.0000 42.2158 0.0000
# 6 -8.9171 8.9171 0.0000 0.0000 0.0000 54.7743
#
#
#
# Elastic Compliance Matrix: (Units=1/GPa)
#
#
# Indices 1 2 3 4 5 6 
#
# 1 0.008134 -0.001483 -0.002347 0.000000 0.000000 0.001566
# 2 -0.001483 0.008134 -0.002347 0.000000 0.000000 -0.001566
# 3 -0.002347 -0.002347 0.009807 0.000000 0.000000 0.000000
# 4 0.000000 0.000000 0.000000 0.023688 0.000000 0.000000
# 5 0.000000 0.000000 0.000000 0.000000 0.023688 0.000000
# 6 0.001566 -0.001566 0.000000 0.000000 0.000000 0.018766
#
#
# Mechanical properties :
#
#
# Convention : Reuss Voigt Hill
#
# Bulk Modulus (GPa) = 72.88573 73.08154 72.98363
# Shear Modulus (GPa) = 45.81067 46.96688 46.38878
#
# Velocity S-wave (km/s) = 4.42660 4.48211 4.45444
# Velocity P-wave (km/s) = 7.56981 7.61874 7.59431
#
# Compressibility (1/GPa) = 0.01372011
#
# Stress axis : x y z
#
# Youngs Moduli (GPa) = 122.94533 122.94533 101.96389
#
# Poissons Ratio (x) = 0.18233 0.23933
# Poissons Ratio (y) = 0.18233 0.23933
# Poissons Ratio (z) = 0.28857 0.28857
#
# Static dielectric constant tensor:
#      x y z
#    x 1.882050 0.000000 0.000000 
#    y 0.000000 1.882050 0.000000 
#    z 0.000000 0.000000 1.995120 
# 
# From -- ./inp_files/1859.got.cif
#   From: 2010.05.17/outbox.cif.g08.bks.cpg/sg81_cif.got.tgz:1859.got - 2010.06.03 18:51:07.
