data_PCOD9542245
_publ_section_title
;
Structure prediction by ZEFSAII (Michael W. Deem and Ramdas Pophale) SiO2 
 PCOD9542245
Probable space group: I 41
;
_chemical_formula_sum "Si O2"
_cell_formula_units_Z 60
_cell_length_a 12.060058
_cell_length_b 12.060058
_cell_length_c 19.557014
_cell_angle_alpha 90.000000
_cell_angle_beta 90.000000
_cell_angle_gamma 90.000000
_cell_volume 2844.469881
_symmetry_space_group_name_H-M "I 41"
_symmetry_group_IT_number 80
_symmetry_cell_setting 'tetragonal'
loop_
_space_group_symop_operation_xyz
x,y,z
-y,1/2+x,1/4+z
-x,-y,z
y,1/2-x,1/4+z
1/2+x,1/2+y,1/2+z
1/2-y,x,3/4+z
1/2-x,1/2-y,1/2+z
1/2+y,-x,3/4+z
loop_
_atom_site_type_symbol
_atom_site_label
_atom_site_fract_x
_atom_site_fract_y
_atom_site_fract_z
Si Si1 0.777707 0.034196 0.284260
Si Si2 0.237301 0.132653 0.402921
Si Si3 0.171267 0.055791 0.146401
Si Si4 0.116962 0.959502 0.495994
Si Si5 0.640769 0.305183 0.475859
Si Si6 0.500000 0.500000 0.539213
Si Si7 0.745708 0.314689 0.613224
Si Si8 0.983604 0.628467 0.906437
O O1 0.672162 0.093569 0.247772
O O2 0.809772 0.125245 0.341315
O O3 0.749784 0.925612 0.328726
O O4 0.855899 0.987474 0.223637
O O5 0.150537 0.234430 0.401868
O O6 0.360209 0.169280 0.421789
O O7 0.203759 0.032854 0.454303
O O8 0.070961 0.076731 0.093053
O O9 0.221736 0.944428 0.114383
O O10 0.129979 0.991087 0.575436
O O11 0.000000 0.000000 0.466994
O O12 0.575411 0.419786 0.491636
O O13 0.681391 0.263738 0.549050
O O14 0.748553 0.305432 0.427034
O O15 0.565762 0.212074 0.442166
O O16 0.000000 0.500000 0.927588
#
# Coordination Sequence:
#
# PCOD9542245 Si02
#       8
#     8   8   8   8   8   4   8   8
#     4  12  22  38  68 102 135 173 226 299 357 422
#     4  12  24  38  68 103 137 180 227 292 371 426
#     4  11  25  46  66  97 137 181 235 293 359 433
#     4  11  21  41  60  96 143 169 222 298 357 419
#     4  11  24  47  70 100 136 191 241 296 355 445
#     4  10  28  52  64  94 148 192 238 292 350 452
#     4  11  23  43  73 100 131 184 243 293 359 429
#     4  11  23  42  66 100 142 177 226 293 365 430
#
# _framework density 21.093561999999999
#
# number of rings (size 3 to 8) (size 9 to 14) (size 15 to 20)
#    0.000    0.800    6.667    0.800    1.867    3.200 
#   10.800    0.000    0.000    0.000    0.000    0.000 
#    0.000    0.000    0.000    0.000    0.000    0.000 
#
# Total GULP energy -167183.069761 kJ/mol
# GULP energy per Si atom -5572.768992 kJ/mol
# Density = 2.104555 g / cm^3
# Si number density = 21.093562 Si / 1000 Ang^3
#
#
#
# Elastic Constant Matrix: (Units=GPa)
#
#
# Indices 1 2 3 4 5 6 
#
# 1 82.9263 22.5522 14.8379 0.0000 0.0000 -2.1543
# 2 22.5522 82.9263 14.8379 0.0000 0.0000 2.1543
# 3 14.8379 14.8379 62.0791 0.0000 0.0000 0.0000
# 4 0.0000 0.0000 0.0000 6.5986 0.0000 0.0000
# 5 0.0000 0.0000 0.0000 0.0000 6.5986 0.0000
# 6 -2.1543 2.1543 0.0000 0.0000 0.0000 7.2293
#
#
#
# Elastic Compliance Matrix: (Units=1/GPa)
#
#
# Indices 1 2 3 4 5 6 
#
# 1 0.013544 -0.003380 -0.002429 0.000000 0.000000 0.005043
# 2 -0.003380 0.013544 -0.002429 0.000000 0.000000 -0.005043
# 3 -0.002429 -0.002429 0.017270 0.000000 0.000000 0.000000
# 4 0.000000 0.000000 0.000000 0.151547 0.000000 0.000000
# 5 0.000000 0.000000 0.000000 0.000000 0.151547 0.000000
# 6 0.005043 -0.005043 0.000000 0.000000 0.000000 0.141331
#
#
# Mechanical properties :
#
#
# Convention : Reuss Voigt Hill
#
# Bulk Modulus (GPa) = 35.86740 36.93196 36.39968
# Shear Modulus (GPa) = 9.71718 15.79890 12.75804
#
# Velocity S-wave (km/s) = 2.14865 2.73974 2.46200
# Velocity P-wave (km/s) = 4.81627 5.24927 5.03743
#
# Compressibility (1/GPa) = 0.02788047
#
# Stress axis : x y z
#
# Youngs Moduli (GPa) = 73.83512 73.83512 57.90459
#
# Poissons Ratio (x) = 0.24953 0.14067
# Poissons Ratio (y) = 0.24953 0.14067
# Poissons Ratio (z) = 0.17937 0.17937
#
# Static dielectric constant tensor:
#      x y z
#    x 1.839570 0.000000 0.000000 
#    y 0.000000 1.839570 0.000000 
#    z 0.000000 0.000000 1.813500 
# 
# From -- ./inp_files/1855.got.cif
#   From: 2010.05.17/outbox.cif.g08.bks.cpg/sg80_cif.got.tgz:1855.got - 2010.06.03 18:49:13.
