data_PCOD9542692
_publ_section_title
;
Structure prediction by ZEFSAII (Michael W. Deem and Ramdas Pophale) SiO2 
 PCOD9542692
Probable space group: I -4 
;
_chemical_formula_sum "Si O2"
_cell_formula_units_Z 26
_cell_length_a 9.990124
_cell_length_b 9.990124
_cell_length_c 11.066199
_cell_angle_alpha 90.000000
_cell_angle_beta 90.000000
_cell_angle_gamma 90.000000
_cell_volume 1104.435184
_symmetry_space_group_name_H-M "I -4 "
_symmetry_group_IT_number 82
_symmetry_cell_setting 'tetragonal'
loop_
_space_group_symop_operation_xyz
x,y,z
y,-x,-z
-x,-y,z
-y,x,-z
1/2+x,1/2+y,1/2+z
1/2+y,1/2-x,1/2-z
1/2-x,1/2-y,1/2+z
1/2-y,1/2+x,1/2-z
loop_
_atom_site_type_symbol
_atom_site_label
_atom_site_fract_x
_atom_site_fract_y
_atom_site_fract_z
Si Si1 0.500000 0.000000 0.250000
Si Si2 0.567452 0.208386 0.715245
Si Si3 0.112836 0.823590 0.454378
Si Si4 0.529297 0.848208 0.477743
O O1 0.489240 0.871686 0.338784
O O2 0.662679 0.080973 0.740519
O O3 0.615786 0.319582 0.809094
O O4 0.548710 0.241377 0.574223
O O5 0.172378 0.687108 0.507507
O O6 0.958591 0.823934 0.497045
O O7 0.500000 0.000000 0.527087
#
# Coordination Sequence:
#
# PCOD9542692 Si02
#       4
#     2   8   8   8
#     4   8  16  32  54  72 120 116 192 274 264 296
#     4   9  13  30  56  76  99 140 201 228 262 340
#     4  10  20  33  51  83 121 149 181 237 300 351
#     4   9  16  33  54  78 107 147 195 239 271 334
#
# _framework density 23.541447000000002
#
# number of rings (size 3 to 8) (size 9 to 14) (size 15 to 20)
#    0.923    1.846    6.154    0.000    0.000    0.000 
#   11.077    0.000    0.000    0.000    0.000    4.308 
#    0.000    0.000    0.000    0.000    0.000    0.000 
#
# Total GULP energy -72471.792033 kJ/mol
# GULP energy per Si atom -5574.753233 kJ/mol
# Density = 2.348787 g / cm^3
# Si number density = 23.541447 Si / 1000 Ang^3
#
#
#
# Elastic Constant Matrix: (Units=GPa)
#
#
# Indices 1 2 3 4 5 6 
#
# 1 72.9133 18.5794 28.2282 0.0000 0.0000 2.3381
# 2 18.5794 72.9133 28.2282 0.0000 0.0000 -2.3381
# 3 28.2282 28.2282 207.0951 0.0000 0.0000 0.0000
# 4 0.0000 0.0000 0.0000 22.1602 0.0000 0.0000
# 5 0.0000 0.0000 0.0000 0.0000 22.1602 0.0000
# 6 2.3381 -2.3381 0.0000 0.0000 0.0000 10.8882
#
#
#
# Elastic Compliance Matrix: (Units=1/GPa)
#
#
# Indices 1 2 3 4 5 6 
#
# 1 0.015342 -0.003409 -0.001627 0.000000 0.000000 -0.004027
# 2 -0.003409 0.015342 -0.001627 0.000000 0.000000 0.004027
# 3 -0.001627 -0.001627 0.005272 0.000000 0.000000 0.000000
# 4 0.000000 0.000000 0.000000 0.045126 0.000000 0.000000
# 5 0.000000 0.000000 0.000000 0.000000 0.045126 0.000000
# 6 -0.004027 0.004027 0.000000 0.000000 0.000000 0.093572
#
#
# Mechanical properties :
#
#
# Convention : Reuss Voigt Hill
#
# Bulk Modulus (GPa) = 44.18369 55.88815 50.03592
# Shear Modulus (GPa) = 20.77710 29.56744 25.17227
#
# Velocity S-wave (km/s) = 2.97404 3.54782 3.27352
# Velocity P-wave (km/s) = 5.53195 6.36981 5.96561
#
# Compressibility (1/GPa) = 0.02263279
#
# Stress axis : x y z
#
# Youngs Moduli (GPa) = 65.17882 65.17883 189.67669
#
# Poissons Ratio (x) = 0.22219 0.30853
# Poissons Ratio (y) = 0.22219 0.30853
# Poissons Ratio (z) = 0.10602 0.10602
#
# Static dielectric constant tensor:
#      x y z
#    x 1.891390 0.000000 0.000000 
#    y 0.000000 1.891390 0.000000 
#    z 0.000000 0.000000 1.978760 
# 
# From -- ./inp_files/1382.got.cif
#   From: 2010.05.17/outbox.cif.g08.bks.cpg/sg82_1_cif.got.tgz:1382.got - 2010.06.03 18:52:26.
