data_PCOD9542015
_publ_section_title
;
Structure prediction by ZEFSAII (Michael W. Deem and Ramdas Pophale) SiO2 
 PCOD9542015
Probable space group: I 4
;
_chemical_formula_sum "Si O2"
_cell_formula_units_Z 46
_cell_length_a 8.441105
_cell_length_b 8.441105
_cell_length_c 30.611990
_cell_angle_alpha 90.000000
_cell_angle_beta 90.000000
_cell_angle_gamma 90.000000
_cell_volume 2181.173275
_symmetry_space_group_name_H-M "I 4"
_symmetry_group_IT_number 79
_symmetry_cell_setting 'tetragonal'
loop_
_space_group_symop_operation_xyz
x,y,z
-y,x,z
-x,-y,z
y,-x,z
1/2+x,1/2+y,1/2+z
1/2-y,1/2+x,1/2+z
1/2-x,1/2-y,1/2+z
1/2+y,1/2-x,1/2+z
loop_
_atom_site_type_symbol
_atom_site_label
_atom_site_fract_x
_atom_site_fract_y
_atom_site_fract_z
Si Si1 0.088869 0.254047 0.413010
Si Si2 0.237820 0.126565 0.193961
Si Si3 0.000000 0.500000 0.345103
Si Si4 0.666998 0.917178 0.099411
Si Si5 0.897305 0.754968 0.509084
Si Si6 0.000000 0.000000 0.089641
Si Si7 0.249317 0.589737 0.277949
O O1 0.125772 0.322625 0.461401
O O2 0.905822 0.193309 0.409584
O O3 0.104368 0.386331 0.376153
O O4 0.303229 0.167053 0.146024
O O5 0.358011 0.178060 0.231511
O O6 0.063004 0.205371 0.197547
O O7 0.886456 0.394202 0.314419
O O8 0.646403 0.834310 0.052698
O O9 0.811679 0.039789 0.092517
O O10 0.500000 0.000000 0.106806
O O11 0.081482 0.801119 0.509684
O O12 0.304882 0.407434 0.281949
#
# Coordination Sequence:
#
# PCOD9542015 Si02
#       7
#     8   8   4   8   8   2   8
#     4   9  20  40  66  93 128 168 224 282 334 415
#     4  11  24  45  67  97 133 176 233 288 340 417
#     4  12  22  40  68  94 128 170 222 280 370 420
#     4  12  24  39  69  96 143 189 224 291 358 395
#     4   9  20  39  62  95 133 177 231 280 336 419
#     4  12  24  48  60 112 148 180 252 300 328 452
#     4  11  26  43  65  97 135 174 224 288 359 434
#
# _framework density 21.089568
#
# number of rings (size 3 to 8) (size 9 to 14) (size 15 to 20)
#    0.000    1.391    1.739    4.174    4.870    0.000 
#    0.000    3.478    0.000    0.000    0.000    0.000 
#    0.000    0.000    0.000    0.000    0.000    0.000 
#
# Total GULP energy -128127.694595 kJ/mol
# GULP energy per Si atom -5570.769330 kJ/mol
# Density = 2.104157 g / cm^3
# Si number density = 21.089568 Si / 1000 Ang^3
#
#
#
# Elastic Constant Matrix: (Units=GPa)
#
#
# Indices 1 2 3 4 5 6 
#
# 1 52.7322 23.3027 46.8146 0.0000 0.0000 6.9421
# 2 23.3027 52.7322 46.8146 0.0000 0.0000 -6.9421
# 3 46.8146 46.8146 194.9977 0.0000 0.0000 0.0000
# 4 0.0000 0.0000 0.0000 33.6760 0.0000 0.0000
# 5 0.0000 0.0000 0.0000 0.0000 33.6760 0.0000
# 6 6.9421 -6.9421 0.0000 0.0000 0.0000 34.4905
#
#
#
# Elastic Compliance Matrix: (Units=1/GPa)
#
#
# Indices 1 2 3 4 5 6 
#
# 1 0.028108 -0.009436 -0.004483 0.000000 0.000000 -0.007557
# 2 -0.009436 0.028108 -0.004483 0.000000 0.000000 0.007557
# 3 -0.004483 -0.004483 0.007281 0.000000 0.000000 0.000000
# 4 0.000000 0.000000 0.000000 0.029695 0.000000 0.000000
# 5 0.000000 0.000000 0.000000 0.000000 0.029695 0.000000
# 6 -0.007557 0.007557 0.000000 0.000000 0.000000 0.032035
#
#
# Mechanical properties :
#
#
# Convention : Reuss Voigt Hill
#
# Bulk Modulus (GPa) = 37.46224 59.36955 48.41590
# Shear Modulus (GPa) = 24.92228 32.60384 28.76306
#
# Velocity S-wave (km/s) = 3.44137 3.93615 3.69704
# Velocity P-wave (km/s) = 5.79592 6.99070 6.42116
#
# Compressibility (1/GPa) = 0.02669354
#
# Stress axis : x y z
#
# Youngs Moduli (GPa) = 35.57673 35.57673 137.35036
#
# Poissons Ratio (x) = 0.33572 0.61570
# Poissons Ratio (y) = 0.33572 0.61570
# Poissons Ratio (z) = 0.15948 0.15948
#
# Static dielectric constant tensor:
#      x y z
#    x 1.810860 0.000000 0.000000 
#    y 0.000000 1.810860 0.000000 
#    z 0.000000 0.000000 1.771960 
# 
# From -- ./inp_files/2106.got.cif
#   From: 2010.05.17/outbox.cif.g08.bks.cpg/sg79_cif.got.tgz:2106.got - 2010.06.03 18:47:27.
