data_PCOD9542473
_publ_section_title
;
Structure prediction by ZEFSAII (Michael W. Deem and Ramdas Pophale) SiO2 
 PCOD9542473
Probable space group: P -4
;
_chemical_formula_sum "Si O2"
_cell_formula_units_Z 26
_cell_length_a 10.709177
_cell_length_b 10.709177
_cell_length_c 9.950868
_cell_angle_alpha 90.000000
_cell_angle_beta 90.000000
_cell_angle_gamma 90.000000
_cell_volume 1141.229944
_symmetry_space_group_name_H-M "P -4"
_symmetry_group_IT_number 81
_symmetry_cell_setting 'tetragonal'
loop_
_space_group_symop_operation_xyz
x,y,z
y,-x,-z
-x,-y,z
-y,x,-z
loop_
_atom_site_type_symbol
_atom_site_label
_atom_site_fract_x
_atom_site_fract_y
_atom_site_fract_z
Si Si1 0.755282 0.558029 0.701631
Si Si2 0.545577 0.138552 0.005093
Si Si3 0.500000 0.500000 0.000000
Si Si4 0.181393 0.174238 0.665222
Si Si5 0.457320 0.142983 0.550930
Si Si6 0.167098 0.893874 0.030764
Si Si7 0.693260 0.495275 0.218888
Si Si8 0.000000 0.000000 0.500000
O O1 0.797184 0.527860 0.851324
O O2 0.834001 0.676997 0.648592
O O3 0.784239 0.455072 0.591210
O O4 0.614729 0.609447 0.717446
O O5 0.695329 0.139163 0.974271
O O6 0.500000 0.000000 0.022363
O O7 0.463654 0.197365 0.886284
O O8 0.602568 0.555323 0.103903
O O9 0.318905 0.141359 0.613182
O O10 0.167957 0.154499 0.823670
O O11 0.078547 0.095120 0.589834
O O12 0.542558 0.228140 0.652750
O O13 0.500000 0.000000 0.539627
O O14 0.044313 0.847250 0.951946
#
# Coordination Sequence:
#
# PCOD9542473 Si02
#       8
#     4   4   1   4   4   4   4   1
#     4  10  23  47  65  99 147 185 237 303 359 432
#     4  11  24  40  75 106 143 191 244 304 367 437
#     4  12  24  44  66  96 148 188 238 308 380 420
#     4  10  24  41  67 101 140 185 243 288 364 441
#     4  11  24  45  74 103 141 187 248 298 361 445
#     4  10  23  44  69 104 149 191 243 304 377 431
#     4  11  25  44  69 104 143 185 247 300 361 441
#     4  12  20  40  66 100 144 180 232 302 352 432
#
# _framework density 22.782440000000001
#
# number of rings (size 3 to 8) (size 9 to 14) (size 15 to 20)
#    0.000    1.385    1.538    2.769    8.615    3.692 
#    2.769    0.000    0.000    0.000    0.000    0.000 
#    0.000    0.000    0.000    0.000    0.000    0.000 
#
# Total GULP energy -145053.331655 kJ/mol
# GULP energy per Si atom -5578.974294 kJ/mol
# Density = 2.273059 g / cm^3
# Si number density = 22.782440 Si / 1000 Ang^3
#
#
#
# Elastic Constant Matrix: (Units=GPa)
#
#
# Indices 1 2 3 4 5 6 
#
# 1 79.3406 34.3024 38.9012 0.0000 0.0000 9.9614
# 2 34.3024 79.3406 38.9012 0.0000 0.0000 -9.9614
# 3 38.9012 38.9012 93.1197 0.0000 0.0000 0.0000
# 4 0.0000 0.0000 0.0000 81.9865 0.0000 0.0000
# 5 0.0000 0.0000 0.0000 0.0000 81.9865 0.0000
# 6 9.9614 -9.9614 0.0000 0.0000 0.0000 22.9684
#
#
#
# Elastic Compliance Matrix: (Units=1/GPa)
#
#
# Indices 1 2 3 4 5 6 
#
# 1 0.019899 -0.007575 -0.005149 0.000000 0.000000 -0.011916
# 2 -0.007575 0.019899 -0.005149 0.000000 0.000000 0.011916
# 3 -0.005149 -0.005149 0.015041 0.000000 0.000000 0.000000
# 4 0.000000 0.000000 0.000000 0.012197 0.000000 0.000000
# 5 0.000000 0.000000 0.000000 0.000000 0.012197 0.000000
# 6 -0.011916 0.011916 0.000000 0.000000 0.000000 0.053874
#
#
# Mechanical properties :
#
#
# Convention : Reuss Voigt Hill
#
# Bulk Modulus (GPa) = 52.36986 52.89007 52.62996
# Shear Modulus (GPa) = 28.53621 46.70134 37.61878
#
# Velocity S-wave (km/s) = 3.54298 4.53248 4.06793
# Velocity P-wave (km/s) = 6.30665 7.11736 6.72423
#
# Compressibility (1/GPa) = 0.01909495
#
# Stress axis : x y z
#
# Youngs Moduli (GPa) = 50.25312 50.25312 66.48707
#
# Poissons Ratio (x) = 0.38067 0.34231
# Poissons Ratio (y) = 0.38067 0.34231
# Poissons Ratio (z) = 0.25873 0.25873
#
# Static dielectric constant tensor:
#      x y z
#    x 1.900990 0.000000 0.000000 
#    y 0.000000 1.900990 0.000000 
#    z 0.000000 0.000000 1.838900 
# 
# From -- ./inp_files/910.got.cif
#   From: 2010.05.17/outbox.cif.g08.bks.cpg/sg81_cif.got.tgz:910.got - 2010.06.03 18:51:07.
