data_PCOD9542196
_publ_section_title
;
Structure prediction by ZEFSAII (Michael W. Deem and Ramdas Pophale) SiO2 
 PCOD9542196
Probable space group: I 41
;
_chemical_formula_sum "Si O2"
_cell_formula_units_Z 48
_cell_length_a 8.471242
_cell_length_b 8.471242
_cell_length_c 30.009170
_cell_angle_alpha 90.000000
_cell_angle_beta 90.000000
_cell_angle_gamma 90.000000
_cell_volume 2153.516288
_symmetry_space_group_name_H-M "I 41"
_symmetry_group_IT_number 80
_symmetry_cell_setting 'tetragonal'
loop_
_space_group_symop_operation_xyz
x,y,z
-y,1/2+x,1/4+z
-x,-y,z
y,1/2-x,1/4+z
1/2+x,1/2+y,1/2+z
1/2-y,x,3/4+z
1/2-x,1/2-y,1/2+z
1/2+y,-x,3/4+z
loop_
_atom_site_type_symbol
_atom_site_label
_atom_site_fract_x
_atom_site_fract_y
_atom_site_fract_z
Si Si1 0.823355 0.704398 0.905970
Si Si2 0.839485 0.103245 0.377935
Si Si3 0.688547 0.000509 0.737834
Si Si4 0.692327 0.991482 0.206998
Si Si5 0.393488 0.341612 0.310879
Si Si6 0.298204 0.814790 0.285771
O O1 0.792587 0.522313 0.893153
O O2 0.965932 0.740585 0.939082
O O3 0.671880 0.747737 0.936366
O O4 0.830757 0.796832 0.859533
O O5 0.880386 0.221856 0.417979
O O6 0.785990 0.184873 0.333057
O O7 0.000000 0.000000 0.369303
O O8 0.761283 0.876716 0.773852
O O9 0.500000 0.000000 0.736355
O O10 0.747694 0.166748 0.756282
O O11 0.749097 0.036284 0.255699
O O12 0.500000 0.000000 0.209920
O O13 0.500000 0.500000 0.314378
O O14 0.515162 0.206529 0.294779
#
# Coordination Sequence:
#
# PCOD9542196 Si02
#       6
#     8   8   8   8   8   8
#     4  10  22  42  68  94 136 172 220 271 341 397
#     4   9  22  40  66  99 135 173 226 276 333 407
#     4  11  26  44  69  97 140 174 227 287 337 405
#     4   9  21  41  62  97 132 165 223 271 327 395
#     4  10  23  43  64  95 133 179 224 268 337 409
#     4  11  24  41  71  99 133 177 228 274 342 402
#
# _framework density 22.289126
#
# number of rings (size 3 to 8) (size 9 to 14) (size 15 to 20)
#    0.000    2.333    0.000    2.500   11.667    0.000 
#    3.000    0.000    0.000    0.000    0.000    0.000 
#    0.000    0.000    0.000    0.000    0.000    0.000 
#
# Total GULP energy -134106.198409 kJ/mol
# GULP energy per Si atom -5587.758267 kJ/mol
# Density = 2.223839 g / cm^3
# Si number density = 22.289126 Si / 1000 Ang^3
#
#
#
# Elastic Constant Matrix: (Units=GPa)
#
#
# Indices 1 2 3 4 5 6 
#
# 1 63.5955 11.4789 30.8524 0.0000 0.0000 0.5214
# 2 11.4789 63.5955 30.8524 0.0000 0.0000 -0.5214
# 3 30.8524 30.8524 146.1057 0.0000 0.0000 0.0000
# 4 0.0000 0.0000 0.0000 22.3140 0.0000 0.0000
# 5 0.0000 0.0000 0.0000 0.0000 22.3140 0.0000
# 6 0.5214 -0.5214 0.0000 0.0000 0.0000 16.2122
#
#
#
# Elastic Compliance Matrix: (Units=1/GPa)
#
#
# Indices 1 2 3 4 5 6 
#
# 1 0.017659 -0.001541 -0.003403 0.000000 0.000000 -0.000617
# 2 -0.001541 0.017659 -0.003403 0.000000 0.000000 0.000617
# 3 -0.003403 -0.003403 0.008282 0.000000 0.000000 0.000000
# 4 0.000000 0.000000 0.000000 0.044815 0.000000 0.000000
# 5 0.000000 0.000000 0.000000 0.000000 0.044815 0.000000
# 6 -0.000617 0.000617 0.000000 0.000000 0.000000 0.061722
#
#
# Mechanical properties :
#
#
# Convention : Reuss Voigt Hill
#
# Bulk Modulus (GPa) = 37.17072 46.62932 41.90002
# Shear Modulus (GPa) = 22.66393 25.50890 24.08641
#
# Velocity S-wave (km/s) = 3.19221 3.38665 3.29087
# Velocity P-wave (km/s) = 5.50452 6.02147 5.76879
#
# Compressibility (1/GPa) = 0.02690290
#
# Stress axis : x y z
#
# Youngs Moduli (GPa) = 56.62906 56.62905 120.74766
#
# Poissons Ratio (x) = 0.08728 0.41096
# Poissons Ratio (y) = 0.08728 0.41096
# Poissons Ratio (z) = 0.19273 0.19273
#
# Static dielectric constant tensor:
#      x y z
#    x 1.871290 0.000000 0.000000 
#    y 0.000000 1.871290 0.000000 
#    z 0.000000 0.000000 1.809350 
# 
# From -- ./inp_files/2612.got.cif
#   From: 2010.05.17/outbox.cif.g08.bks.cpg/sg80_cif.got.tgz:2612.got - 2010.06.03 18:49:13.
