data_PCOD9542373
_publ_section_title
;
Structure prediction by ZEFSAII (Michael W. Deem and Ramdas Pophale) SiO2 
 PCOD9542373
Probable space group: P -4
;
_chemical_formula_sum "Si O2"
_cell_formula_units_Z 20
_cell_length_a 7.331459
_cell_length_b 7.331459
_cell_length_c 16.707050
_cell_angle_alpha 90.000000
_cell_angle_beta 90.000000
_cell_angle_gamma 90.000000
_cell_volume 898.008800
_symmetry_space_group_name_H-M "P -4"
_symmetry_group_IT_number 81
_symmetry_cell_setting 'tetragonal'
loop_
_space_group_symop_operation_xyz
x,y,z
y,-x,-z
-x,-y,z
-y,x,-z
loop_
_atom_site_type_symbol
_atom_site_label
_atom_site_fract_x
_atom_site_fract_y
_atom_site_fract_z
Si Si1 0.994314 0.222202 0.293449
Si Si2 0.292637 0.984006 0.525949
Si Si3 0.317137 0.258551 0.988840
Si Si4 0.759211 0.685067 0.814213
Si Si5 0.279966 0.185520 0.162297
O O1 0.050497 0.296979 0.378944
O O2 0.797230 0.294127 0.264108
O O3 0.129550 0.267072 0.220375
O O4 0.000000 0.000000 0.301519
O O5 0.176912 0.170270 0.512435
O O6 0.500000 0.000000 0.495253
O O7 0.290313 0.210418 0.896612
O O8 0.251054 0.467211 0.995843
O O9 0.231926 0.169659 0.067889
O O10 0.710172 0.472275 0.824746
O O11 0.978246 0.691304 0.811609
#
# Coordination Sequence:
#
# PCOD9542373 Si02
#       5
#     4   4   4   4   4
#     4  10  20  39  61  90 122 165 210 260 325 389
#     4  11  25  48  75 105 139 175 217 275 343 414
#     4   9  18  32  47  70 112 160 205 258 311 360
#     4   9  19  33  52  81 117 160 210 260 308 366
#     4   9  19  33  52  81 117 160 210 260 308 366
#
# _framework density 22.271495000000002
#
# number of rings (size 3 to 8) (size 9 to 14) (size 15 to 20)
#    0.000    2.400    2.000    0.000    2.800    3.600 
#    0.000    0.000    0.000    0.000    0.000    0.000 
#    0.000    0.000    0.000    0.000    0.000    0.000 
#
# Total GULP energy -111577.867575 kJ/mol
# GULP energy per Si atom -5578.893379 kJ/mol
# Density = 2.222080 g / cm^3
# Si number density = 22.271495 Si / 1000 Ang^3
#
#
#
# Elastic Constant Matrix: (Units=GPa)
#
#
# Indices 1 2 3 4 5 6 
#
# 1 72.5347 9.4130 -2.1809 0.0000 0.0000 -3.1971
# 2 9.4130 72.5347 -2.1809 0.0000 0.0000 3.1971
# 3 -2.1809 -2.1809 77.4309 0.0000 0.0000 0.0000
# 4 0.0000 0.0000 0.0000 9.0878 0.0000 0.0000
# 5 0.0000 0.0000 0.0000 0.0000 9.0878 0.0000
# 6 -3.1971 3.1971 0.0000 0.0000 0.0000 5.8823
#
#
#
# Elastic Compliance Matrix: (Units=1/GPa)
#
#
# Indices 1 2 3 4 5 6 
#
# 1 0.014493 -0.002272 0.000344 0.000000 0.000000 0.009112
# 2 -0.002272 0.014493 0.000344 0.000000 0.000000 -0.009112
# 3 0.000344 0.000344 0.012934 0.000000 0.000000 0.000000
# 4 0.000000 0.000000 0.000000 0.110038 0.000000 0.000000
# 5 0.000000 0.000000 0.000000 0.000000 0.110038 0.000000
# 6 0.009112 -0.009112 0.000000 0.000000 0.000000 0.179905
#
#
# Mechanical properties :
#
#
# Convention : Reuss Voigt Hill
#
# Bulk Modulus (GPa) = 25.80414 25.84474 25.82444
# Shear Modulus (GPa) = 10.91734 19.30819 15.11276
#
# Velocity S-wave (km/s) = 2.21643 2.94759 2.60776
# Velocity P-wave (km/s) = 4.26162 4.81809 4.54837
#
# Compressibility (1/GPa) = 0.03875347
#
# Stress axis : x y z
#
# Youngs Moduli (GPa) = 68.99717 68.99717 77.31486
#
# Poissons Ratio (x) = 0.15677 -0.02661
# Poissons Ratio (y) = 0.15677 -0.02661
# Poissons Ratio (z) = -0.02375 -0.02375
#
# Static dielectric constant tensor:
#      x y z
#    x 1.877540 0.000000 0.000000 
#    y 0.000000 1.877540 0.000000 
#    z 0.000000 0.000000 1.798440 
# 
# From -- ./inp_files/1496.got.cif
#   From: 2010.05.17/outbox.cif.g08.bks.cpg/sg81_cif.got.tgz:1496.got - 2010.06.03 18:51:07.
