data_PCOD9542260
_publ_section_title
;
Structure prediction by ZEFSAII (Michael W. Deem and Ramdas Pophale) SiO2 
 PCOD9542260
Probable space group: I 41
;
_chemical_formula_sum "Si O2"
_cell_formula_units_Z 52
_cell_length_a 19.501960
_cell_length_b 19.501960
_cell_length_c 6.505068
_cell_angle_alpha 90.000000
_cell_angle_beta 90.000000
_cell_angle_gamma 90.000000
_cell_volume 2474.049379
_symmetry_space_group_name_H-M "I 41"
_symmetry_group_IT_number 80
_symmetry_cell_setting 'tetragonal'
loop_
_space_group_symop_operation_xyz
x,y,z
-y,1/2+x,1/4+z
-x,-y,z
y,1/2-x,1/4+z
1/2+x,1/2+y,1/2+z
1/2-y,x,3/4+z
1/2-x,1/2-y,1/2+z
1/2+y,-x,3/4+z
loop_
_atom_site_type_symbol
_atom_site_label
_atom_site_fract_x
_atom_site_fract_y
_atom_site_fract_z
Si Si1 0.260538 0.948954 0.175180
Si Si2 0.500000 0.000000 0.081334
Si Si3 0.183186 0.421891 0.933693
Si Si4 0.677191 0.593601 0.934175
Si Si5 0.578770 0.907852 0.792448
Si Si6 0.128037 0.902027 0.439885
Si Si7 0.479380 0.825121 0.535495
O O1 0.190726 0.920062 0.284002
O O2 0.325550 0.898854 0.152653
O O3 0.290220 0.009656 0.320764
O O4 0.235581 0.973066 0.949660
O O5 0.459847 0.934334 0.181720
O O6 0.559061 0.969457 0.938473
O O7 0.248882 0.372346 0.949524
O O8 0.132063 0.386692 0.776985
O O9 0.142852 0.425053 0.148135
O O10 0.657329 0.584499 0.695964
O O11 0.688384 0.530959 0.095488
O O12 0.513494 0.889330 0.651852
O O13 0.156557 0.909188 0.672030
#
# Coordination Sequence:
#
# PCOD9542260 Si02
#       7
#     8   4   8   8   8   8   8
#     4  12  27  49  72 106 147 195 245 309 381 451
#     4  12  22  44  72 114 138 176 256 318 366 448
#     4  11  25  42  71  99 139 195 235 306 376 437
#     4  11  23  45  63 102 140 188 238 294 373 454
#     4  11  24  41  71 102 146 180 239 312 364 438
#     4  12  28  46  73 110 142 191 250 301 377 455
#     4  11  22  47  70  97 148 180 233 309 369 442
#
# _framework density 21.018174999999999
#
# number of rings (size 3 to 8) (size 9 to 14) (size 15 to 20)
#    0.000    0.615    6.154    0.923    8.615    1.231 
#    5.538    0.000    0.000    0.000    0.000    0.000 
#    0.000    0.000    0.000    0.000    0.000    0.000 
#
# Total GULP energy -144850.583461 kJ/mol
# GULP energy per Si atom -5571.176287 kJ/mol
# Density = 2.097034 g / cm^3
# Si number density = 21.018175 Si / 1000 Ang^3
#
#
#
# Elastic Constant Matrix: (Units=GPa)
#
#
# Indices 1 2 3 4 5 6 
#
# 1 114.3179 53.1460 58.8501 0.0000 0.0000 -11.2436
# 2 53.1460 114.3179 58.8501 0.0000 0.0000 11.2436
# 3 58.8501 58.8501 126.9549 0.0000 0.0000 0.0000
# 4 0.0000 0.0000 0.0000 27.0672 0.0000 0.0000
# 5 0.0000 0.0000 0.0000 0.0000 27.0672 0.0000
# 6 -11.2436 11.2436 0.0000 0.0000 0.0000 22.5900
#
#
#
# Elastic Compliance Matrix: (Units=1/GPa)
#
#
# Indices 1 2 3 4 5 6 
#
# 1 0.014433 -0.005576 -0.004106 0.000000 0.000000 0.009959
# 2 -0.005576 0.014433 -0.004106 0.000000 0.000000 -0.009959
# 3 -0.004106 -0.004106 0.011683 0.000000 0.000000 0.000000
# 4 0.000000 0.000000 0.000000 0.036945 0.000000 0.000000
# 5 0.000000 0.000000 0.000000 0.000000 0.036945 0.000000
# 6 0.009959 -0.009959 0.000000 0.000000 0.000000 0.054181
#
#
# Mechanical properties :
#
#
# Convention : Reuss Voigt Hill
#
# Bulk Modulus (GPa) = 77.07395 77.47592 77.27493
# Shear Modulus (GPa) = 24.93538 27.66115 26.29827
#
# Velocity S-wave (km/s) = 3.44811 3.63169 3.54109
# Velocity P-wave (km/s) = 7.25275 7.38424 7.31879
#
# Compressibility (1/GPa) = 0.01297455
#
# Stress axis : x y z
#
# Youngs Moduli (GPa) = 69.28733 69.28733 85.59266
#
# Poissons Ratio (x) = 0.38632 0.35142
# Poissons Ratio (y) = 0.38632 0.35142
# Poissons Ratio (z) = 0.28447 0.28447
#
# Static dielectric constant tensor:
#      x y z
#    x 1.862950 0.000000 0.000000 
#    y 0.000000 1.862950 0.000000 
#    z 0.000000 0.000000 1.796250 
# 
# From -- ./inp_files/318.got.cif
#   From: 2010.05.17/outbox.cif.g08.bks.cpg/sg80_cif.got.tgz:318.got - 2010.06.03 18:49:13.
