data_PCOD9542907
_publ_section_title
;
Structure prediction by ZEFSAII (Michael W. Deem and Ramdas Pophale) SiO2 
 PCOD9542907
Probable space group: I -4 
;
_chemical_formula_sum "Si O2"
_cell_formula_units_Z 48
_cell_length_a 8.370953
_cell_length_b 8.370953
_cell_length_c 30.423621
_cell_angle_alpha 90.000000
_cell_angle_beta 90.000000
_cell_angle_gamma 90.000000
_cell_volume 2131.869956
_symmetry_space_group_name_H-M "I -4 "
_symmetry_group_IT_number 82
_symmetry_cell_setting 'tetragonal'
loop_
_space_group_symop_operation_xyz
x,y,z
y,-x,-z
-x,-y,z
-y,x,-z
1/2+x,1/2+y,1/2+z
1/2+y,1/2-x,1/2-z
1/2-x,1/2-y,1/2+z
1/2-y,1/2+x,1/2-z
loop_
_atom_site_type_symbol
_atom_site_label
_atom_site_fract_x
_atom_site_fract_y
_atom_site_fract_z
Si Si1 0.751550 0.038960 0.988247
Si Si2 0.500000 0.500000 0.175002
Si Si3 0.265020 0.074706 0.744373
Si Si4 0.998115 0.315860 0.113012
Si Si5 0.808920 0.352835 0.867288
Si Si6 0.415494 0.326111 0.323931
Si Si7 0.500000 0.000000 0.054126
O O1 0.612395 0.094762 0.020294
O O2 0.702163 0.985605 0.939701
O O3 0.888666 0.170358 0.986794
O O4 0.654668 0.503780 0.206607
O O5 0.468880 0.334168 0.148856
O O6 0.422078 0.168274 0.728497
O O7 0.167469 0.189057 0.776718
O O8 0.174373 0.255416 0.125074
O O9 0.000000 0.500000 0.125647
O O10 0.860772 0.214153 0.137594
O O11 0.960522 0.313926 0.835427
O O12 0.879376 0.415214 0.912760
O O13 0.500000 0.500000 0.320830
#
# Coordination Sequence:
#
# PCOD9542907 Si02
#       7
#     8   4   8   8   8   8   4
#     4  11  23  42  68 101 138 184 240 288 352 420
#     4  12  28  48  70 105 148 192 235 300 374 430
#     4  11  25  45  72 104 136 183 241 296 356 425
#     4  11  23  41  74 105 134 183 243 296 350 426
#     4  11  27  45  68 105 142 194 235 290 370 424
#     4  10  22  44  70 101 139 182 241 294 352 430
#     4  12  24  46  68 103 150 186 229 302 356 430
#
# _framework density 22.515443000000001
#
# number of rings (size 3 to 8) (size 9 to 14) (size 15 to 20)
#    0.000    1.000    3.333    3.000   11.667    1.333 
#    0.000    0.000    0.000    0.000    0.000    0.000 
#    0.000    0.000    0.000    0.000    0.000    0.000 
#
# Total GULP energy -134124.736663 kJ/mol
# GULP energy per Si atom -5588.530694 kJ/mol
# Density = 2.246420 g / cm^3
# Si number density = 22.515443 Si / 1000 Ang^3
#
#
#
# Elastic Constant Matrix: (Units=GPa)
#
#
# Indices 1 2 3 4 5 6 
#
# 1 93.0708 24.8465 31.7794 0.0000 0.0000 -2.2949
# 2 24.8465 93.0708 31.7794 0.0000 0.0000 2.2948
# 3 31.7794 31.7794 101.9525 0.0000 0.0000 0.0000
# 4 0.0000 0.0000 0.0000 31.1607 0.0000 0.0000
# 5 0.0000 0.0000 0.0000 0.0000 31.1607 0.0000
# 6 -2.2949 2.2948 0.0000 0.0000 0.0000 41.3626
#
#
#
# Elastic Compliance Matrix: (Units=1/GPa)
#
#
# Indices 1 2 3 4 5 6 
#
# 1 0.012453 -0.002260 -0.003177 0.000000 0.000000 0.000816
# 2 -0.002260 0.012453 -0.003177 0.000000 0.000000 -0.000816
# 3 -0.003177 -0.003177 0.011789 0.000000 0.000000 0.000000
# 4 0.000000 0.000000 0.000000 0.032092 0.000000 0.000000
# 5 0.000000 0.000000 0.000000 0.000000 0.032092 0.000000
# 6 0.000816 -0.000816 0.000000 0.000000 0.000000 0.024267
#
#
# Mechanical properties :
#
#
# Convention : Reuss Voigt Hill
#
# Bulk Modulus (GPa) = 51.37063 51.65609 51.51336
# Shear Modulus (GPa) = 33.58807 34.04940 33.81873
#
# Velocity S-wave (km/s) = 3.86655 3.89301 3.87980
# Velocity P-wave (km/s) = 6.54208 6.57265 6.55738
#
# Compressibility (1/GPa) = 0.01946637
#
# Stress axis : x y z
#
# Youngs Moduli (GPa) = 80.30336 80.30337 84.82303
#
# Poissons Ratio (x) = 0.18146 0.26951
# Poissons Ratio (y) = 0.18146 0.26951
# Poissons Ratio (z) = 0.25515 0.25515
#
# Static dielectric constant tensor:
#      x y z
#    x 1.883350 0.000000 0.000000 
#    y 0.000000 1.883350 0.000000 
#    z 0.000000 0.000000 1.824450 
# 
# From -- ./inp_files/4074.got.cif
#   From: 2010.05.17/outbox.cif.g08.bks.cpg/sg82_3_cif.got.tgz:4074.got - 2010.06.03 18:52:26.
