data_PCOD9542781
_publ_section_title
;
Structure prediction by ZEFSAII (Michael W. Deem and Ramdas Pophale) SiO2 
 PCOD9542781
Probable space group: I -4 
;
_chemical_formula_sum "Si O2"
_cell_formula_units_Z 64
_cell_length_a 13.898411
_cell_length_b 13.898411
_cell_length_c 12.518572
_cell_angle_alpha 90.000000
_cell_angle_beta 90.000000
_cell_angle_gamma 90.000000
_cell_volume 2418.160330
_symmetry_space_group_name_H-M "I -4 "
_symmetry_group_IT_number 82
_symmetry_cell_setting 'tetragonal'
loop_
_space_group_symop_operation_xyz
x,y,z
y,-x,-z
-x,-y,z
-y,x,-z
1/2+x,1/2+y,1/2+z
1/2+y,1/2-x,1/2-z
1/2-x,1/2-y,1/2+z
1/2-y,1/2+x,1/2-z
loop_
_atom_site_type_symbol
_atom_site_label
_atom_site_fract_x
_atom_site_fract_y
_atom_site_fract_z
Si Si1 0.649598 0.094445 0.995556
Si Si2 0.607696 0.573227 0.566632
Si Si3 0.508659 0.144133 0.279511
Si Si4 0.783479 0.833781 0.720170
Si Si5 0.672336 0.632771 0.773408
Si Si6 0.822579 0.794539 0.497906
Si Si7 0.020460 0.630801 0.317215
Si Si8 0.729214 0.897005 0.936330
O O1 0.700524 0.008455 0.926998
O O2 0.547113 0.097446 0.935861
O O3 0.654540 0.054835 0.114439
O O4 0.688637 0.204379 0.995595
O O5 0.613929 0.465863 0.520474
O O6 0.590942 0.596555 0.689644
O O7 0.713297 0.611275 0.546636
O O8 0.433916 0.092570 0.199572
O O9 0.556310 0.240609 0.237120
O O10 0.715329 0.737907 0.736094
O O11 0.852707 0.810723 0.620711
O O12 0.736348 0.936559 0.686336
O O13 0.800835 0.860642 0.843268
O O14 0.644552 0.640863 0.897907
O O15 0.847206 0.687377 0.455588
O O16 0.095384 0.578277 0.232678
#
# Coordination Sequence:
#
# PCOD9542781 Si02
#       8
#     8   8   8   8   8   8   8   8
#     4  11  20  37  57  83 126 161 216 267 323 395
#     4  11  24  40  65  99 122 158 215 277 342 389
#     4  11  23  37  54  86 121 168 208 258 336 408
#     4  10  21  36  59  88 121 166 220 256 323 391
#     4  11  22  39  64  89 127 171 216 271 337 397
#     4  10  21  38  59  89 127 171 214 275 325 398
#     4  10  21  35  53  84 122 163 206 259 322 387
#     4  11  20  35  61  89 119 170 208 270 325 377
#
# _framework density 26.466398999999999
#
# number of rings (size 3 to 8) (size 9 to 14) (size 15 to 20)
#    0.000    1.375    5.000    0.750    1.750    2.000 
#    0.000    0.000    0.000    4.500    0.000    1.750 
#    0.000    0.000    0.000    0.000    0.000    0.000 
#
# Total GULP energy -178350.606108 kJ/mol
# GULP energy per Si atom -5573.456441 kJ/mol
# Density = 2.640616 g / cm^3
# Si number density = 26.466399 Si / 1000 Ang^3
#
#
#
# Elastic Constant Matrix: (Units=GPa)
#
#
# Indices 1 2 3 4 5 6 
#
# 1 71.7410 21.3046 14.8191 0.0000 0.0000 -10.1357
# 2 21.3046 71.7410 14.8191 0.0000 0.0000 10.1357
# 3 14.8191 14.8191 120.9570 0.0000 0.0000 0.0000
# 4 0.0000 0.0000 0.0000 34.0620 0.0000 0.0000
# 5 0.0000 0.0000 0.0000 0.0000 34.0620 0.0000
# 6 -10.1357 10.1357 0.0000 0.0000 0.0000 -14.6899
#
#
#
# Elastic Compliance Matrix: (Units=1/GPa)
#
#
# Indices 1 2 3 4 5 6 
#
# 1 0.013353 -0.002169 -0.001370 0.000000 0.000000 -0.010710
# 2 -0.002169 0.013353 -0.001370 0.000000 0.000000 0.010710
# 3 -0.001370 -0.001370 0.008603 0.000000 0.000000 0.000000
# 4 0.000000 0.000000 0.000000 0.029358 0.000000 0.000000
# 5 0.000000 0.000000 0.000000 0.000000 0.029358 0.000000
# 6 -0.010710 0.010710 0.000000 0.000000 0.000000 -0.053295
#
#
# Mechanical properties :
#
#
# Convention : Reuss Voigt Hill
#
# Bulk Modulus (GPa) = 39.23089 40.70271 39.96680
# Shear Modulus (GPa) = 84.67796 24.91989 54.79893
#
# Velocity S-wave (km/s) = 5.66251 3.07183 4.55522
# Velocity P-wave (km/s) = 7.58993 5.29092 6.54221
#
# Compressibility (1/GPa) = 0.02549012
#
# Stress axis : x y z
#
# Youngs Moduli (GPa) = 74.88884 74.88884 116.23665
#
# Poissons Ratio (x) = 0.16245 0.15927
# Poissons Ratio (y) = 0.16245 0.15927
# Poissons Ratio (z) = 0.10261 0.10261
#
# Static dielectric constant tensor:
#      x y z
#    x 2.150740 0.000000 0.000000 
#    y 0.000000 2.150740 0.000000 
#    z 0.000000 0.000000 2.173930 
# 
# From -- ./inp_files/1896.got.cif
#   From: 2010.05.17/outbox.cif.g08.bks.cpg/sg82_1_cif.got.tgz:1896.got - 2010.06.03 18:52:26.
