data_PCOD9542955
_publ_section_title
;
Structure prediction by ZEFSAII (Michael W. Deem and Ramdas Pophale) SiO2 
 PCOD9542955
Probable space group: I -4 
;
_chemical_formula_sum "Si O2"
_cell_formula_units_Z 28
_cell_length_a 8.968899
_cell_length_b 8.968899
_cell_length_c 14.236857
_cell_angle_alpha 90.000000
_cell_angle_beta 90.000000
_cell_angle_gamma 90.000000
_cell_volume 1145.229139
_symmetry_space_group_name_H-M "I -4 "
_symmetry_group_IT_number 82
_symmetry_cell_setting 'tetragonal'
loop_
_space_group_symop_operation_xyz
x,y,z
y,-x,-z
-x,-y,z
-y,x,-z
1/2+x,1/2+y,1/2+z
1/2+y,1/2-x,1/2-z
1/2-x,1/2-y,1/2+z
1/2-y,1/2+x,1/2-z
loop_
_atom_site_type_symbol
_atom_site_label
_atom_site_fract_x
_atom_site_fract_y
_atom_site_fract_z
Si Si1 0.000000 0.500000 0.750000
Si Si2 0.152057 0.371977 0.194553
Si Si3 0.500000 0.500000 0.000000
Si Si4 0.058175 0.273589 0.615456
Si Si5 0.022433 0.762217 0.015421
O O1 0.045193 0.635562 0.684830
O O2 0.174504 0.547729 0.217105
O O3 0.312605 0.303746 0.176605
O O4 0.058662 0.318355 0.102796
O O5 0.647612 0.526708 0.940791
O O6 0.142071 0.389711 0.546920
O O7 0.890861 0.854602 0.961834
#
# Coordination Sequence:
#
# PCOD9542955 Si02
#       5
#     2   8   2   8   8
#     4  12  32  48  76 112 158 192 248 328 376 440
#     4  10  24  41  79 109 148 191 253 306 367 446
#     4  12  32  52  80 104 152 202 260 308 376 464
#     4  11  29  48  75 108 155 197 249 312 381 445
#     4   9  21  45  74 106 146 202 248 300 374 455
#
# _framework density 24.449252000000001
#
# number of rings (size 3 to 8) (size 9 to 14) (size 15 to 20)
#    0.000    1.714    0.000    0.000   24.000    0.000 
#    0.000    0.000    0.000    0.000    0.000    0.000 
#    0.000    0.000    0.000    0.000    0.000    0.000 
#
# Total GULP energy -78260.900133 kJ/mol
# GULP energy per Si atom -5590.064295 kJ/mol
# Density = 2.439360 g / cm^3
# Si number density = 24.449252 Si / 1000 Ang^3
#
#
#
# Elastic Constant Matrix: (Units=GPa)
#
#
# Indices 1 2 3 4 5 6 
#
# 1 56.8761 -17.7850 26.6078 0.0000 0.0000 -10.5991
# 2 -17.7850 56.8761 26.6078 0.0000 0.0000 10.5991
# 3 26.6078 26.6078 59.5224 0.0000 0.0000 0.0000
# 4 0.0000 0.0000 0.0000 48.2900 0.0000 0.0000
# 5 0.0000 0.0000 0.0000 0.0000 48.2900 0.0000
# 6 -10.5991 10.5991 0.0000 0.0000 0.0000 44.8133
#
#
#
# Elastic Compliance Matrix: (Units=1/GPa)
#
#
# Indices 1 2 3 4 5 6 
#
# 1 0.039853 0.025495 -0.029212 0.000000 0.000000 0.003396
# 2 0.025495 0.039853 -0.029212 0.000000 0.000000 -0.003396
# 3 -0.029212 -0.029212 0.042917 0.000000 0.000000 0.000000
# 4 0.000000 0.000000 0.000000 0.020708 0.000000 0.000000
# 5 0.000000 0.000000 0.000000 0.000000 0.020708 0.000000
# 6 0.003396 -0.003396 0.000000 0.000000 0.000000 0.023921
#
#
# Mechanical properties :
#
#
# Convention : Reuss Voigt Hill
#
# Bulk Modulus (GPa) = 17.61637 27.12620 22.37129
# Shear Modulus (GPa) = 18.33245 37.46829 27.90037
#
# Velocity S-wave (km/s) = 2.74125 3.91895 3.38176
# Velocity P-wave (km/s) = 4.15213 5.62108 4.94150
#
# Compressibility (1/GPa) = 0.05676538
#
# Stress axis : x y z
#
# Youngs Moduli (GPa) = 25.09219 25.09219 23.30073
#
# Poissons Ratio (x) = -0.63973 0.68066
# Poissons Ratio (y) = -0.63973 0.68066
# Poissons Ratio (z) = 0.73299 0.73299
#
# Static dielectric constant tensor:
#      x y z
#    x 1.937160 0.000000 0.000000 
#    y 0.000000 1.937160 0.000000 
#    z 0.000000 0.000000 1.946640 
# 
# From -- ./inp_files/2497.got.cif
#   From: 2010.05.17/outbox.cif.g08.bks.cpg/sg82_2_cif.got.tgz:2497.got - 2010.06.03 18:52:26.
