data_PCOD9542238
_publ_section_title
;
Structure prediction by ZEFSAII (Michael W. Deem and Ramdas Pophale) SiO2 
 PCOD9542238
Probable space group: I 41
;
_chemical_formula_sum "Si O2"
_cell_formula_units_Z 40
_cell_length_a 13.445443
_cell_length_b 13.445443
_cell_length_c 10.285679
_cell_angle_alpha 90.000000
_cell_angle_beta 90.000000
_cell_angle_gamma 90.000000
_cell_volume 1859.444406
_symmetry_space_group_name_H-M "I 41"
_symmetry_group_IT_number 80
_symmetry_cell_setting 'tetragonal'
loop_
_space_group_symop_operation_xyz
x,y,z
-y,1/2+x,1/4+z
-x,-y,z
y,1/2-x,1/4+z
1/2+x,1/2+y,1/2+z
1/2-y,x,3/4+z
1/2-x,1/2-y,1/2+z
1/2+y,-x,3/4+z
loop_
_atom_site_type_symbol
_atom_site_label
_atom_site_fract_x
_atom_site_fract_y
_atom_site_fract_z
Si Si1 0.659659 0.245849 0.877100
Si Si2 0.095626 0.929733 0.963589
Si Si3 0.829768 0.806274 0.595624
Si Si4 0.539169 0.390189 0.031184
Si Si5 0.524146 0.207665 0.458872
O O1 0.720840 0.270155 0.747805
O O2 0.586876 0.153925 0.847631
O O3 0.594085 0.340220 0.911898
O O4 0.175656 0.969748 0.859463
O O5 0.059864 0.818406 0.929927
O O6 0.000000 0.000000 0.967198
O O7 0.800275 0.723164 0.703402
O O8 0.949060 0.819350 0.577411
O O9 0.799449 0.912129 0.657521
O O10 0.500000 0.500000 0.999945
O O11 0.623076 0.409707 0.139584
#
# Coordination Sequence:
#
# PCOD9542238 Si02
#       5
#     8   8   8   8   8
#     4  12  27  47  74 109 146 194 246 314 376 454
#     4  12  25  44  72 108 146 186 252 312 379 453
#     4  11  25  46  72 104 147 204 250 311 377 456
#     4  10  25  44  73 105 145 194 251 308 376 449
#     4  11  23  45  73 104 139 195 249 310 374 460
#
# _framework density 21.511801999999999
#
# number of rings (size 3 to 8) (size 9 to 14) (size 15 to 20)
#    0.000    0.800    2.000    5.400    8.400    4.000 
#    0.000    0.000    0.000    0.000    0.000    0.000 
#    0.000    0.000    0.000    0.000    0.000    0.000 
#
# Total GULP energy -111808.509669 kJ/mol
# GULP energy per Si atom -5590.425483 kJ/mol
# Density = 2.146284 g / cm^3
# Si number density = 21.511802 Si / 1000 Ang^3
#
#
#
# Elastic Constant Matrix: (Units=GPa)
#
#
# Indices 1 2 3 4 5 6 
#
# 1 102.8444 51.1139 51.5556 0.0000 0.0000 -4.4751
# 2 51.1139 102.8444 51.5556 0.0000 0.0000 4.4751
# 3 51.5556 51.5556 114.1412 0.0000 0.0000 0.0000
# 4 0.0000 0.0000 0.0000 31.0816 0.0000 0.0000
# 5 0.0000 0.0000 0.0000 0.0000 31.0816 0.0000
# 6 -4.4751 4.4751 0.0000 0.0000 0.0000 26.4262
#
#
#
# Elastic Compliance Matrix: (Units=1/GPa)
#
#
# Indices 1 2 3 4 5 6 
#
# 1 0.014613 -0.005301 -0.004206 0.000000 0.000000 0.003372
# 2 -0.005301 0.014613 -0.004206 0.000000 0.000000 -0.003372
# 3 -0.004206 -0.004206 0.012561 0.000000 0.000000 0.000000
# 4 0.000000 0.000000 0.000000 0.032173 0.000000 0.000000
# 5 0.000000 0.000000 0.000000 0.000000 0.032173 0.000000
# 6 0.003372 -0.003372 0.000000 0.000000 0.000000 0.038983
#
#
# Mechanical properties :
#
#
# Convention : Reuss Voigt Hill
#
# Bulk Modulus (GPa) = 69.63494 69.80890 69.72192
# Shear Modulus (GPa) = 28.19576 28.75821 28.47698
#
# Velocity S-wave (km/s) = 3.62430 3.66027 3.64233
# Velocity P-wave (km/s) = 7.06788 7.09826 7.08309
#
# Compressibility (1/GPa) = 0.01436061
#
# Stress axis : x y z
#
# Youngs Moduli (GPa) = 68.43045 68.43045 79.61267
#
# Poissons Ratio (x) = 0.36275 0.33487
# Poissons Ratio (y) = 0.36275 0.33487
# Poissons Ratio (z) = 0.28783 0.28783
#
# Static dielectric constant tensor:
#      x y z
#    x 1.784620 0.000000 0.000000 
#    y 0.000000 1.784620 0.000000 
#    z 0.000000 0.000000 1.800260 
# 
# From -- ./inp_files/612.got.cif
#   From: 2010.05.17/outbox.cif.g08.bks.cpg/sg80_cif.got.tgz:612.got - 2010.06.03 18:49:13.
