data_PCOD9542677
_publ_section_title
;
Structure prediction by ZEFSAII (Michael W. Deem and Ramdas Pophale) SiO2 
 PCOD9542677
Probable space group: I -4 
;
_chemical_formula_sum "Si O2"
_cell_formula_units_Z 40
_cell_length_a 11.197175
_cell_length_b 11.197175
_cell_length_c 14.706695
_cell_angle_alpha 90.000000
_cell_angle_beta 90.000000
_cell_angle_gamma 90.000000
_cell_volume 1843.877299
_symmetry_space_group_name_H-M "I -4 "
_symmetry_group_IT_number 82
_symmetry_cell_setting 'tetragonal'
loop_
_space_group_symop_operation_xyz
x,y,z
y,-x,-z
-x,-y,z
-y,x,-z
1/2+x,1/2+y,1/2+z
1/2+y,1/2-x,1/2-z
1/2-x,1/2-y,1/2+z
1/2-y,1/2+x,1/2-z
loop_
_atom_site_type_symbol
_atom_site_label
_atom_site_fract_x
_atom_site_fract_y
_atom_site_fract_z
Si Si1 0.000000 0.000000 0.500000
Si Si2 0.845579 0.433928 0.800693
Si Si3 0.863307 0.175767 0.385283
Si Si4 0.500000 0.000000 0.467733
Si Si5 0.000000 0.000000 0.000000
Si Si6 0.513865 0.801199 0.750058
Si Si7 0.755240 0.416646 0.445834
O O1 0.939083 0.897097 0.557993
O O2 0.849203 0.548960 0.736189
O O3 0.722473 0.366775 0.804481
O O4 0.888333 0.477236 0.900037
O O5 0.791940 0.277056 0.440304
O O6 0.983192 0.227344 0.339874
O O7 0.479344 0.120661 0.524124
O O8 0.140243 0.949166 0.004922
O O9 0.394937 0.880123 0.734457
O O10 0.544392 0.729148 0.658798
#
# Coordination Sequence:
#
# PCOD9542677 Si02
#       7
#     2   8   8   4   2   8   8
#     4  12  28  42  64 100 124 170 244 296 344 418
#     4   9  21  39  62  88 117 165 217 267 338 410
#     4  11  23  40  62  90 127 164 216 285 344 406
#     4  10  19  40  67  86 122 174 226 272 329 408
#     4  12  28  38  60 104 140 174 220 272 336 410
#     4   9  20  38  61  87 118 165 217 267 333 408
#     4  11  23  40  63  93 133 175 219 277 343 407
#
# _framework density 21.693418000000001
#
# number of rings (size 3 to 8) (size 9 to 14) (size 15 to 20)
#    0.000    2.000    0.000    4.800    0.000   10.400 
#    0.000    0.000    0.000    0.000    0.000    0.000 
#    0.000    0.000    0.000    0.000    0.000    0.000 
#
# Total GULP energy -111418.572321 kJ/mol
# GULP energy per Si atom -5570.928616 kJ/mol
# Density = 2.164404 g / cm^3
# Si number density = 21.693418 Si / 1000 Ang^3
#
#
#
# Elastic Constant Matrix: (Units=GPa)
#
#
# Indices 1 2 3 4 5 6 
#
# 1 67.5029 19.0566 -0.9103 0.0000 0.0000 10.4520
# 2 19.0566 67.5029 -0.9103 0.0000 0.0000 -10.4520
# 3 -0.9103 -0.9103 10.7298 0.0000 0.0000 0.0000
# 4 0.0000 0.0000 0.0000 7.0384 0.0000 0.0000
# 5 0.0000 0.0000 0.0000 0.0000 7.0384 0.0000
# 6 10.4520 -10.4520 0.0000 0.0000 0.0000 25.5742
#
#
#
# Elastic Compliance Matrix: (Units=1/GPa)
#
#
# Indices 1 2 3 4 5 6 
#
# 1 0.018317 -0.006744 0.000982 0.000000 0.000000 -0.010242
# 2 -0.006744 0.018317 0.000982 0.000000 0.000000 0.010242
# 3 0.000982 0.000982 0.093365 0.000000 0.000000 0.000000
# 4 0.000000 0.000000 0.000000 0.142077 0.000000 0.000000
# 5 0.000000 0.000000 0.000000 0.000000 0.142077 0.000000
# 6 -0.010242 0.010242 0.000000 0.000000 0.000000 0.047474
#
#
# Mechanical properties :
#
#
# Convention : Reuss Voigt Hill
#
# Bulk Modulus (GPa) = 8.30295 20.02305 14.16300
# Shear Modulus (GPa) = 9.77836 16.49685 13.13761
#
# Velocity S-wave (km/s) = 2.12540 2.76062 2.46357
# Velocity P-wave (km/s) = 3.13987 4.40584 3.82559
#
# Compressibility (1/GPa) = 0.12043916
#
# Stress axis : x y z
#
# Youngs Moduli (GPa) = 54.59374 54.59374 10.71068
#
# Poissons Ratio (x) = 0.36816 -0.01052
# Poissons Ratio (y) = 0.36816 -0.01052
# Poissons Ratio (z) = -0.05361 -0.05361
#
# Static dielectric constant tensor:
#      x y z
#    x 1.787040 0.000000 0.000000 
#    y 0.000000 1.787040 0.000000 
#    z 0.000000 0.000000 1.817570 
# 
# From -- ./inp_files/2243.got.cif
#   From: 2010.05.17/outbox.cif.g08.bks.cpg/sg82_2_cif.got.tgz:2243.got - 2010.06.03 18:52:26.
