data_PCOD9542204
_publ_section_title
;
Structure prediction by ZEFSAII (Michael W. Deem and Ramdas Pophale) SiO2 
 PCOD9542204
Probable space group: I 41
;
_chemical_formula_sum "Si O2"
_cell_formula_units_Z 36
_cell_length_a 8.587315
_cell_length_b 8.587315
_cell_length_c 19.235313
_cell_angle_alpha 90.000000
_cell_angle_beta 90.000000
_cell_angle_gamma 90.000000
_cell_volume 1418.450046
_symmetry_space_group_name_H-M "I 41"
_symmetry_group_IT_number 80
_symmetry_cell_setting 'tetragonal'
loop_
_space_group_symop_operation_xyz
x,y,z
-y,1/2+x,1/4+z
-x,-y,z
y,1/2-x,1/4+z
1/2+x,1/2+y,1/2+z
1/2-y,x,3/4+z
1/2-x,1/2-y,1/2+z
1/2+y,-x,3/4+z
loop_
_atom_site_type_symbol
_atom_site_label
_atom_site_fract_x
_atom_site_fract_y
_atom_site_fract_z
Si Si1 0.209155 0.431075 0.520590
Si Si2 0.297703 0.798604 0.236877
Si Si3 0.257946 0.921657 0.626723
Si Si4 0.914233 0.755414 0.118602
Si Si5 0.500000 0.000000 0.135160
O O1 0.208032 0.617584 0.511025
O O2 0.164897 0.378893 0.443152
O O3 0.367255 0.358782 0.552328
O O4 0.089431 0.387115 0.581331
O O5 0.323805 0.632392 0.197546
O O6 0.393319 0.831743 0.306027
O O7 0.368411 0.915980 0.180054
O O8 0.407080 0.803166 0.619377
O O9 0.318871 0.095632 0.624225
#
# Coordination Sequence:
#
# PCOD9542204 Si02
#       5
#     8   8   8   8   4
#     4  11  26  46  75 111 146 209 250 322 379 472
#     4  11  24  47  71 104 156 199 259 315 391 455
#     4  10  22  45  70 109 150 202 245 326 377 459
#     4  10  24  43  75 110 149 192 264 305 391 459
#     4  12  28  44  70 106 150 206 260 322 384 456
#
# _framework density 25.379816000000002
#
# number of rings (size 3 to 8) (size 9 to 14) (size 15 to 20)
#    0.000    1.333    2.222    1.333    6.222    2.667 
#    0.000    0.000    0.000    0.000    0.000    0.000 
#    0.000    0.000    0.000    0.000    0.000    0.000 
#
# Total GULP energy -100576.482101 kJ/mol
# GULP energy per Si atom -5587.582339 kJ/mol
# Density = 2.532205 g / cm^3
# Si number density = 25.379816 Si / 1000 Ang^3
#
#
#
# Elastic Constant Matrix: (Units=GPa)
#
#
# Indices 1 2 3 4 5 6 
#
# 1 72.7116 46.3055 31.1027 0.0000 0.0000 0.5068
# 2 46.3055 72.7116 31.1027 0.0000 0.0000 -0.5068
# 3 31.1027 31.1027 157.3467 0.0000 0.0000 0.0000
# 4 0.0000 0.0000 0.0000 33.1795 0.0000 0.0000
# 5 0.0000 0.0000 0.0000 0.0000 33.1795 0.0000
# 6 0.5068 -0.5068 0.0000 0.0000 0.0000 41.4069
#
#
#
# Elastic Compliance Matrix: (Units=1/GPa)
#
#
# Indices 1 2 3 4 5 6 
#
# 1 0.023629 -0.014259 -0.001852 0.000000 0.000000 -0.000464
# 2 -0.014259 0.023629 -0.001852 0.000000 0.000000 0.000464
# 3 -0.001852 -0.001852 0.007088 0.000000 0.000000 0.000000
# 4 0.000000 0.000000 0.000000 0.030139 0.000000 0.000000
# 5 0.000000 0.000000 0.000000 0.000000 0.030139 0.000000
# 6 -0.000464 0.000464 0.000000 0.000000 0.000000 0.024162
#
#
# Mechanical properties :
#
#
# Convention : Reuss Voigt Hill
#
# Bulk Modulus (GPa) = 54.29101 57.75463 56.02282
# Shear Modulus (GPa) = 27.64689 34.50377 31.07533
#
# Velocity S-wave (km/s) = 3.30407 3.69114 3.50295
# Velocity P-wave (km/s) = 5.99948 6.40090 6.20344
#
# Compressibility (1/GPa) = 0.01841926
#
# Stress axis : x y z
#
# Youngs Moduli (GPa) = 42.32077 42.32077 141.09063
#
# Poissons Ratio (x) = 0.60344 0.26133
# Poissons Ratio (y) = 0.60344 0.26133
# Poissons Ratio (z) = 0.07839 0.07839
#
# Static dielectric constant tensor:
#      x y z
#    x 2.065270 0.000000 0.000000 
#    y 0.000000 2.065270 0.000000 
#    z 0.000000 0.000000 2.018700 
# 
# From -- ./inp_files/1748.got.cif
#   From: 2010.05.17/outbox.cif.g08.bks.cpg/sg80_cif.got.tgz:1748.got - 2010.06.03 18:49:13.
