data_PCOD9542989
_publ_section_title
;
Structure prediction by ZEFSAII (Michael W. Deem and Ramdas Pophale) SiO2 
 PCOD9542989
Probable space group: I -4 
;
_chemical_formula_sum "Si O2"
_cell_formula_units_Z 40
_cell_length_a 8.502402
_cell_length_b 8.502402
_cell_length_c 24.963901
_cell_angle_alpha 90.000000
_cell_angle_beta 90.000000
_cell_angle_gamma 90.000000
_cell_volume 1804.661367
_symmetry_space_group_name_H-M "I -4 "
_symmetry_group_IT_number 82
_symmetry_cell_setting 'tetragonal'
loop_
_space_group_symop_operation_xyz
x,y,z
y,-x,-z
-x,-y,z
-y,x,-z
1/2+x,1/2+y,1/2+z
1/2+y,1/2-x,1/2-z
1/2-x,1/2-y,1/2+z
1/2-y,1/2+x,1/2-z
loop_
_atom_site_type_symbol
_atom_site_label
_atom_site_fract_x
_atom_site_fract_y
_atom_site_fract_z
Si Si1 0.734737 0.279150 0.629734
Si Si2 0.727381 0.874681 0.759722
Si Si3 0.832903 0.572463 0.459565
Si Si4 0.681987 0.062024 0.323466
Si Si5 0.374596 0.715865 0.421875
O O1 0.615538 0.285825 0.679239
O O2 0.705227 0.149627 0.585062
O O3 0.724555 0.443222 0.597184
O O4 0.898962 0.243855 0.658275
O O5 0.553208 0.796846 0.760078
O O6 0.848055 0.767945 0.725131
O O7 0.775256 0.628577 0.517056
O O8 0.714993 0.448835 0.430327
O O9 0.000000 0.500000 0.469507
O O10 0.696369 0.177387 0.374764
O O11 0.500000 0.000000 0.313677
#
# Coordination Sequence:
#
# PCOD9542989 Si02
#       5
#     8   8   8   8   8
#     4  11  25  43  73 106 141 190 245 292 373 431
#     4  11  27  49  74 109 152 197 247 305 371 443
#     4  12  25  44  73 108 146 191 242 306 362 449
#     4  10  25  47  74 107 148 192 246 307 365 442
#     4  11  24  46  75 104 146 189 242 295 372 442
#
# _framework density 22.164825
#
# number of rings (size 3 to 8) (size 9 to 14) (size 15 to 20)
#    0.000    1.000    2.000    3.600   11.200    2.400 
#    0.000    0.000    0.000    0.000    0.000    0.000 
#    0.000    0.000    0.000    0.000    0.000    0.000 
#
# Total GULP energy -111620.943978 kJ/mol
# GULP energy per Si atom -5581.047199 kJ/mol
# Density = 2.211438 g / cm^3
# Si number density = 22.164825 Si / 1000 Ang^3
#
#
#
# Elastic Constant Matrix: (Units=GPa)
#
#
# Indices 1 2 3 4 5 6 
#
# 1 45.3300 10.9438 36.8152 0.0000 0.0000 -0.2526
# 2 10.9438 45.3300 36.8152 0.0000 0.0000 0.2526
# 3 36.8152 36.8152 185.7253 0.0000 0.0000 0.0000
# 4 0.0000 0.0000 0.0000 33.6532 0.0000 0.0000
# 5 0.0000 0.0000 0.0000 0.0000 33.6532 0.0000
# 6 -0.2526 0.2526 0.0000 0.0000 0.0000 27.8209
#
#
#
# Elastic Compliance Matrix: (Units=1/GPa)
#
#
# Indices 1 2 3 4 5 6 
#
# 1 0.026539 -0.002546 -0.004756 0.000000 0.000000 0.000264
# 2 -0.002546 0.026539 -0.004756 0.000000 0.000000 -0.000264
# 3 -0.004756 -0.004756 0.007270 0.000000 0.000000 0.000000
# 4 0.000000 0.000000 0.000000 0.029715 0.000000 0.000000
# 5 0.000000 0.000000 0.000000 0.000000 0.029715 0.000000
# 6 0.000264 -0.000264 0.000000 0.000000 0.000000 0.035949
#
#
# Mechanical properties :
#
#
# Convention : Reuss Voigt Hill
#
# Bulk Modulus (GPa) = 27.59987 49.50374 38.55180
# Shear Modulus (GPa) = 26.05244 31.81286 28.93265
#
# Velocity S-wave (km/s) = 3.43212 3.79263 3.61687
# Velocity P-wave (km/s) = 5.30896 6.44682 5.90536
#
# Compressibility (1/GPa) = 0.03623206
#
# Stress axis : x y z
#
# Youngs Moduli (GPa) = 37.68005 37.68005 137.55522
#
# Poissons Ratio (x) = 0.09594 0.65421
# Poissons Ratio (y) = 0.09594 0.65421
# Poissons Ratio (z) = 0.17921 0.17921
#
# Static dielectric constant tensor:
#      x y z
#    x 1.915100 0.000000 0.000000 
#    y 0.000000 1.915100 0.000000 
#    z 0.000000 0.000000 1.839830 
# 
# From -- ./inp_files/3367.got.cif
#   From: 2010.05.17/outbox.cif.g08.bks.cpg/sg82_2_cif.got.tgz:3367.got - 2010.06.03 18:52:26.
