data_PCOD9542474
_publ_section_title
;
Structure prediction by ZEFSAII (Michael W. Deem and Ramdas Pophale) SiO2 
 PCOD9542474
Probable space group: P -4
;
_chemical_formula_sum "Si O2"
_cell_formula_units_Z 17
_cell_length_a 10.629923
_cell_length_b 10.629923
_cell_length_c 6.182110
_cell_angle_alpha 90.000000
_cell_angle_beta 90.000000
_cell_angle_gamma 90.000000
_cell_volume 698.549145
_symmetry_space_group_name_H-M "P -4"
_symmetry_group_IT_number 81
_symmetry_cell_setting 'tetragonal'
loop_
_space_group_symop_operation_xyz
x,y,z
y,-x,-z
-x,-y,z
-y,x,-z
loop_
_atom_site_type_symbol
_atom_site_label
_atom_site_fract_x
_atom_site_fract_y
_atom_site_fract_z
Si Si1 0.415877 0.179963 0.484679
Si Si2 0.500000 0.500000 0.000000
Si Si3 0.796138 0.978491 0.540662
Si Si4 0.628238 0.294669 0.212973
Si Si5 0.394389 0.911221 0.864770
O O1 0.325067 0.068164 0.402981
O O2 0.494049 0.252111 0.306327
O O3 0.315181 0.270514 0.601271
O O4 0.520908 0.138016 0.660829
O O5 0.609409 0.436892 0.133799
O O6 0.902504 0.871110 0.552550
O O7 0.725153 0.015571 0.763926
O O8 0.655245 0.198392 0.020481
O O9 0.500000 0.000000 0.977284
#
# Coordination Sequence:
#
# PCOD9542474 Si02
#       5
#     4   1   4   4   4
#     4  11  24  42  71 103 141 191 228 290 367 428
#     4  12  24  38  64 108 146 188 220 282 356 440
#     4  10  23  44  70  97 133 187 248 297 354 415
#     4  12  24  42  69 106 150 184 232 291 358 442
#     4  10  24  45  69 104 141 186 241 295 358 427
#
# _framework density 24.336151999999998
#
# number of rings (size 3 to 8) (size 9 to 14) (size 15 to 20)
#    0.000    1.176    2.353    2.824    3.294    4.706 
#    0.000    9.412    0.000    0.000    0.000    0.000 
#    0.000    0.000    0.000    0.000    0.000    0.000 
#
# Total GULP energy -94967.767680 kJ/mol
# GULP energy per Si atom -5586.339275 kJ/mol
# Density = 2.428076 g / cm^3
# Si number density = 24.336152 Si / 1000 Ang^3
#
#
#
# Elastic Constant Matrix: (Units=GPa)
#
#
# Indices 1 2 3 4 5 6 
#
# 1 113.5173 52.5743 38.4776 0.0000 0.0000 12.7670
# 2 52.5743 113.5173 38.4776 0.0000 0.0000 -12.7670
# 3 38.4776 38.4776 45.5902 0.0000 0.0000 0.0000
# 4 0.0000 0.0000 0.0000 24.6125 0.0000 0.0000
# 5 0.0000 0.0000 0.0000 0.0000 24.6125 0.0000
# 6 12.7670 -12.7670 0.0000 0.0000 0.0000 65.6214
#
#
#
# Elastic Compliance Matrix: (Units=1/GPa)
#
#
# Indices 1 2 3 4 5 6 
#
# 1 0.013876 -0.003989 -0.008345 0.000000 0.000000 -0.003476
# 2 -0.003989 0.013876 -0.008345 0.000000 0.000000 0.003476
# 3 -0.008345 -0.008345 0.036020 0.000000 0.000000 0.000000
# 4 0.000000 0.000000 0.000000 0.040630 0.000000 0.000000
# 5 0.000000 0.000000 0.000000 0.000000 0.040630 0.000000
# 6 -0.003476 0.003476 0.000000 0.000000 0.000000 0.016591
#
#
# Mechanical properties :
#
#
# Convention : Reuss Voigt Hill
#
# Bulk Modulus (GPa) = 44.61132 59.07597 51.84365
# Shear Modulus (GPa) = 23.75847 32.50896 28.13372
#
# Velocity S-wave (km/s) = 3.12791 3.65887 3.40376
# Velocity P-wave (km/s) = 5.60501 6.49441 6.06604
#
# Compressibility (1/GPa) = 0.02241583
#
# Stress axis : x y z
#
# Youngs Moduli (GPa) = 72.06655 72.06655 27.76239
#
# Poissons Ratio (x) = 0.28747 0.23166
# Poissons Ratio (y) = 0.28747 0.23166
# Poissons Ratio (z) = 0.60136 0.60136
#
# Static dielectric constant tensor:
#      x y z
#    x 1.965770 0.000000 0.000000 
#    y 0.000000 1.965770 0.000000 
#    z 0.000000 0.000000 1.929400 
# 
# From -- ./inp_files/199.got.cif
#   From: 2010.05.17/outbox.cif.g08.bks.cpg/sg81_cif.got.tgz:199.got - 2010.06.03 18:51:07.
