data_PCOD9542285
_publ_section_title
;
Structure prediction by ZEFSAII (Michael W. Deem and Ramdas Pophale) SiO2 
 PCOD9542285
Probable space group: I 41
;
_chemical_formula_sum "Si O2"
_cell_formula_units_Z 36
_cell_length_a 9.706590
_cell_length_b 9.706590
_cell_length_c 18.160610
_cell_angle_alpha 90.000000
_cell_angle_beta 90.000000
_cell_angle_gamma 90.000000
_cell_volume 1711.054345
_symmetry_space_group_name_H-M "I 41"
_symmetry_group_IT_number 80
_symmetry_cell_setting 'tetragonal'
loop_
_space_group_symop_operation_xyz
x,y,z
-y,1/2+x,1/4+z
-x,-y,z
y,1/2-x,1/4+z
1/2+x,1/2+y,1/2+z
1/2-y,x,3/4+z
1/2-x,1/2-y,1/2+z
1/2+y,-x,3/4+z
loop_
_atom_site_type_symbol
_atom_site_label
_atom_site_fract_x
_atom_site_fract_y
_atom_site_fract_z
Si Si1 0.000000 0.500000 0.558410
Si Si2 0.149381 0.306311 0.456973
Si Si3 0.344250 0.843571 0.550047
Si Si4 0.344250 0.343571 0.316774
Si Si5 0.806311 0.350619 0.659848
O O1 0.119641 0.441554 0.506215
O O2 0.058446 0.619641 0.610606
O O3 0.245032 0.335320 0.387131
O O4 0.227363 0.199287 0.509224
O O5 0.000000 0.250000 0.433410
O O6 0.505001 0.827625 0.531176
O O7 0.300714 0.727363 0.607597
O O8 0.245031 0.835320 0.479690
O O9 0.327626 0.994999 0.585645
#
# Coordination Sequence:
#
# PCOD9542285 Si02
#       5
#     4   8   8   8   8
#     4  12  24  44  68 108 140 188 238 288 352 412
#     4  12  24  46  72 102 144 187 234 289 350 421
#     4  11  26  46  71 104 143 185 235 289 353 416
#     4  11  26  46  71 104 143 185 235 289 353 416
#     4  12  24  46  72 102 144 187 234 289 350 421
#
# _framework density 21.039660000000001
#
# number of rings (size 3 to 8) (size 9 to 14) (size 15 to 20)
#    0.000    0.444    4.444    4.000    0.000    0.000 
#    0.000    0.000    0.000    0.000    0.000    0.000 
#    0.000    0.000    0.000    0.000    0.000    0.000 
#
# Total GULP energy -100742.365237 kJ/mol
# GULP energy per Si atom -5596.798069 kJ/mol
# Density = 2.099177 g / cm^3
# Si number density = 21.039660 Si / 1000 Ang^3
#
#
#
# Elastic Constant Matrix: (Units=GPa)
#
#
# Indices 1 2 3 4 5 6 
#
# 1 120.2895 36.6989 52.5941 0.0000 0.0000 2.6037
# 2 36.6989 120.2895 52.5941 0.0000 0.0000 -2.6037
# 3 52.5941 52.5941 117.7247 0.0000 0.0000 0.0000
# 4 0.0000 0.0000 0.0000 29.9518 0.0000 0.0000
# 5 0.0000 0.0000 0.0000 0.0000 29.9518 0.0000
# 6 2.6037 -2.6037 0.0000 0.0000 0.0000 38.9932
#
#
#
# Elastic Compliance Matrix: (Units=1/GPa)
#
#
# Indices 1 2 3 4 5 6 
#
# 1 0.010552 -0.001461 -0.004062 0.000000 0.000000 -0.000802
# 2 -0.001461 0.010552 -0.004062 0.000000 0.000000 0.000802
# 3 -0.004062 -0.004062 0.012123 0.000000 0.000000 0.000000
# 4 0.000000 0.000000 0.000000 0.033387 0.000000 0.000000
# 5 0.000000 0.000000 0.000000 0.000000 0.033387 0.000000
# 6 -0.000802 0.000802 0.000000 0.000000 0.000000 0.025753
#
#
# Mechanical properties :
#
#
# Convention : Reuss Voigt Hill
#
# Bulk Modulus (GPa) = 71.12509 71.34198 71.23353
# Shear Modulus (GPa) = 33.42044 34.20714 33.81379
#
# Velocity S-wave (km/s) = 3.98986 4.03655 4.01327
# Velocity P-wave (km/s) = 7.42320 7.46370 7.44348
#
# Compressibility (1/GPa) = 0.01405974
#
# Stress axis : x y z
#
# Youngs Moduli (GPa) = 94.76713 94.76713 82.48462
#
# Poissons Ratio (x) = 0.13844 0.33502
# Poissons Ratio (y) = 0.13844 0.33502
# Poissons Ratio (z) = 0.38491 0.38491
#
# Static dielectric constant tensor:
#      x y z
#    x 1.758620 0.000000 0.000000 
#    y 0.000000 1.758620 0.000000 
#    z 0.000000 0.000000 1.738820 
# 
# From -- ./inp_files/1722.got.cif
#   From: 2010.05.17/outbox.cif.g08.bks.cpg/sg80_cif.got.tgz:1722.got - 2010.06.03 18:49:13.
