data_PCOD9542119
_publ_section_title
;
Structure prediction by ZEFSAII (Michael W. Deem and Ramdas Pophale) SiO2 
 PCOD9542119
Probable space group: I 41
;
_chemical_formula_sum "Si O2"
_cell_formula_units_Z 40
_cell_length_a 8.316307
_cell_length_b 8.316307
_cell_length_c 25.328794
_cell_angle_alpha 90.000000
_cell_angle_beta 90.000000
_cell_angle_gamma 90.000000
_cell_volume 1751.763762
_symmetry_space_group_name_H-M "I 41"
_symmetry_group_IT_number 80
_symmetry_cell_setting 'tetragonal'
loop_
_space_group_symop_operation_xyz
x,y,z
-y,1/2+x,1/4+z
-x,-y,z
y,1/2-x,1/4+z
1/2+x,1/2+y,1/2+z
1/2-y,x,3/4+z
1/2-x,1/2-y,1/2+z
1/2+y,-x,3/4+z
loop_
_atom_site_type_symbol
_atom_site_label
_atom_site_fract_x
_atom_site_fract_y
_atom_site_fract_z
Si Si1 0.323640 0.432376 0.483720
Si Si2 0.060528 0.317845 0.604160
Si Si3 0.050753 0.180951 0.721040
Si Si4 0.896336 0.258743 0.496927
Si Si5 0.368221 0.385056 0.645479
O O1 0.500000 0.500000 0.493127
O O2 0.201645 0.572436 0.504057
O O3 0.273587 0.440412 0.421434
O O4 0.307285 0.237395 0.490470
O O5 0.249724 0.340788 0.599587
O O6 0.000000 0.500000 0.613032
O O7 0.044987 0.216889 0.657896
O O8 0.988828 0.244156 0.551930
O O9 0.905983 0.296196 0.740964
O O10 0.000000 0.000000 0.731914
O O11 0.009322 0.288847 0.444610
O O12 0.500000 0.500000 0.622691
#
# Coordination Sequence:
#
# PCOD9542119 Si02
#       5
#     8   8   8   8   8
#     4  10  20  38  73 100 138 193 238 297 384 440
#     4  11  22  42  70 106 140 193 255 302 384 459
#     4  11  23  44  74 103 149 194 245 323 377 461
#     4  11  22  44  71 101 150 190 252 312 372 459
#     4   9  20  40  69 101 144 186 238 311 365 451
#
# _framework density 22.834126999999999
#
# number of rings (size 3 to 8) (size 9 to 14) (size 15 to 20)
#    0.000    1.600    4.000    1.800    0.000    0.000 
#   10.800    4.000    4.400    0.000    0.000    0.000 
#    0.000    0.000    0.000    0.000    0.000    0.000 
#
# Total GULP energy -111486.139196 kJ/mol
# GULP energy per Si atom -5574.306960 kJ/mol
# Density = 2.278216 g / cm^3
# Si number density = 22.834127 Si / 1000 Ang^3
#
#
#
# Elastic Constant Matrix: (Units=GPa)
#
#
# Indices 1 2 3 4 5 6 
#
# 1 151.2796 67.1931 66.7360 0.0000 0.0000 2.1613
# 2 67.1931 151.2796 66.7360 0.0000 0.0000 -2.1613
# 3 66.7360 66.7360 131.0892 0.0000 0.0000 0.0000
# 4 0.0000 0.0000 0.0000 23.9880 0.0000 0.0000
# 5 0.0000 0.0000 0.0000 0.0000 23.9880 0.0000
# 6 2.1613 -2.1613 0.0000 0.0000 0.0000 41.3611
#
#
#
# Elastic Compliance Matrix: (Units=1/GPa)
#
#
# Indices 1 2 3 4 5 6 
#
# 1 0.009284 -0.002641 -0.003382 0.000000 0.000000 -0.000623
# 2 -0.002641 0.009284 -0.003382 0.000000 0.000000 0.000623
# 3 -0.003382 -0.003382 0.011072 0.000000 0.000000 0.000000
# 4 0.000000 0.000000 0.000000 0.041687 0.000000 0.000000
# 5 0.000000 0.000000 0.000000 0.000000 0.041687 0.000000
# 6 -0.000623 0.000623 0.000000 0.000000 0.000000 0.024242
#
#
# Mechanical properties :
#
#
# Convention : Reuss Voigt Hill
#
# Bulk Modulus (GPa) = 92.33208 92.77539 92.55374
# Shear Modulus (GPa) = 31.31321 33.39966 32.35644
#
# Velocity S-wave (km/s) = 3.70717 3.82869 3.76842
# Velocity P-wave (km/s) = 7.67124 7.76295 7.71723
#
# Compressibility (1/GPa) = 0.01083047
#
# Stress axis : x y z
#
# Youngs Moduli (GPa) = 107.71210 107.71210 90.31804
#
# Poissons Ratio (x) = 0.28442 0.30547
# Poissons Ratio (y) = 0.28442 0.30547
# Poissons Ratio (z) = 0.36429 0.36429
#
# Static dielectric constant tensor:
#      x y z
#    x 1.912650 0.000000 0.000000 
#    y 0.000000 1.912650 0.000000 
#    z 0.000000 0.000000 1.829940 
# 
# From -- ./inp_files/2000.got.cif
#   From: 2010.05.17/outbox.cif.g08.bks.cpg/sg80_cif.got.tgz:2000.got - 2010.06.03 18:49:13.
