data_PCOD9542177
_publ_section_title
;
Structure prediction by ZEFSAII (Michael W. Deem and Ramdas Pophale) SiO2 
 PCOD9542177
Probable space group: I 41
;
_chemical_formula_sum "Si O2"
_cell_formula_units_Z 40
_cell_length_a 17.967138
_cell_length_b 17.967138
_cell_length_c 6.511438
_cell_angle_alpha 90.000000
_cell_angle_beta 90.000000
_cell_angle_gamma 90.000000
_cell_volume 2102.009704
_symmetry_space_group_name_H-M "I 41"
_symmetry_group_IT_number 80
_symmetry_cell_setting 'tetragonal'
loop_
_space_group_symop_operation_xyz
x,y,z
-y,1/2+x,1/4+z
-x,-y,z
y,1/2-x,1/4+z
1/2+x,1/2+y,1/2+z
1/2-y,x,3/4+z
1/2-x,1/2-y,1/2+z
1/2+y,-x,3/4+z
loop_
_atom_site_type_symbol
_atom_site_label
_atom_site_fract_x
_atom_site_fract_y
_atom_site_fract_z
Si Si1 0.997455 0.610483 0.490460
Si Si2 0.494755 0.611855 0.538163
Si Si3 0.437527 0.411375 0.119606
Si Si4 0.794445 0.841103 0.800770
Si Si5 0.229894 0.458511 0.576533
O O1 0.930687 0.568176 0.372201
O O2 0.981405 0.581624 0.722324
O O3 0.992022 0.697691 0.439334
O O4 0.071852 0.574389 0.397992
O O5 0.499956 0.592353 0.297361
O O6 0.501427 0.696310 0.620917
O O7 0.359536 0.394929 0.230435
O O8 0.454291 0.339615 0.978714
O O9 0.736390 0.829500 0.619345
O O10 0.753112 0.877161 0.995504
#
# Coordination Sequence:
#
# PCOD9542177 Si02
#       5
#     8   8   8   8   8
#     4  10  22  38  60  85 119 156 201 253 295 358
#     4  10  22  39  57  87 118 157 202 248 298 361
#     4  11  21  38  59  83 120 158 199 242 298 357
#     4  12  20  32  52  85 123 164 194 227 283 353
#     4  11  21  38  53  88 117 155 203 242 295 362
#
# _framework density 19.029406999999999
#
# number of rings (size 3 to 8) (size 9 to 14) (size 15 to 20)
#    0.000    1.200    4.000    3.600    0.000    6.400 
#    0.000    0.000    0.000    0.000    5.200    0.000 
#    0.000    0.000    0.000    0.000    0.000    0.000 
#
# Total GULP energy -111513.391373 kJ/mol
# GULP energy per Si atom -5575.669569 kJ/mol
# Density = 1.898610 g / cm^3
# Si number density = 19.029407 Si / 1000 Ang^3
#
#
#
# Elastic Constant Matrix: (Units=GPa)
#
#
# Indices 1 2 3 4 5 6 
#
# 1 53.2233 17.9372 12.0480 0.0000 0.0000 4.1940
# 2 17.9372 53.2233 12.0480 0.0000 0.0000 -4.1940
# 3 12.0480 12.0480 93.6384 0.0000 0.0000 0.0000
# 4 0.0000 0.0000 0.0000 27.3703 0.0000 0.0000
# 5 0.0000 0.0000 0.0000 0.0000 27.3703 0.0000
# 6 4.1940 -4.1940 0.0000 0.0000 0.0000 27.2565
#
#
#
# Elastic Compliance Matrix: (Units=1/GPa)
#
#
# Indices 1 2 3 4 5 6 
#
# 1 0.022054 -0.007361 -0.001890 0.000000 0.000000 -0.004526
# 2 -0.007361 0.022054 -0.001890 0.000000 0.000000 0.004526
# 3 -0.001890 -0.001890 0.011166 0.000000 0.000000 0.000000
# 4 0.000000 0.000000 0.000000 0.036536 0.000000 0.000000
# 5 0.000000 0.000000 0.000000 0.000000 0.036536 0.000000
# 6 -0.004526 0.004526 0.000000 0.000000 0.000000 0.038081
#
#
# Mechanical properties :
#
#
# Convention : Reuss Voigt Hill
#
# Bulk Modulus (GPa) = 30.31242 31.57237 30.94240
# Shear Modulus (GPa) = 25.03642 26.93620 25.98631
#
# Velocity S-wave (km/s) = 3.63115 3.76640 3.69939
# Velocity P-wave (km/s) = 5.79173 5.96169 5.87733
#
# Compressibility (1/GPa) = 0.03298977
#
# Stress axis : x y z
#
# Youngs Moduli (GPa) = 45.34263 45.34263 89.55873
#
# Poissons Ratio (x) = 0.33379 0.16931
# Poissons Ratio (y) = 0.33379 0.16931
# Poissons Ratio (z) = 0.08572 0.08572
#
# Static dielectric constant tensor:
#      x y z
#    x 1.684070 0.000000 0.000000 
#    y 0.000000 1.684070 0.000000 
#    z 0.000000 0.000000 1.785340 
# 
# From -- ./inp_files/198.got.cif
#   From: 2010.05.17/outbox.cif.g08.bks.cpg/sg80_cif.got.tgz:198.got - 2010.06.03 18:49:13.
