data_PCOD9542608
_publ_section_title
;
Structure prediction by ZEFSAII (Michael W. Deem and Ramdas Pophale) SiO2 
 PCOD9542608
Probable space group: I -4 
;
_chemical_formula_sum "Si O2"
_cell_formula_units_Z 36
_cell_length_a 10.733780
_cell_length_b 10.733780
_cell_length_c 14.236167
_cell_angle_alpha 90.000000
_cell_angle_beta 90.000000
_cell_angle_gamma 90.000000
_cell_volume 1640.206216
_symmetry_space_group_name_H-M "I -4 "
_symmetry_group_IT_number 82
_symmetry_cell_setting 'tetragonal'
loop_
_space_group_symop_operation_xyz
x,y,z
y,-x,-z
-x,-y,z
-y,x,-z
1/2+x,1/2+y,1/2+z
1/2+y,1/2-x,1/2-z
1/2-x,1/2-y,1/2+z
1/2-y,1/2+x,1/2-z
loop_
_atom_site_type_symbol
_atom_site_label
_atom_site_fract_x
_atom_site_fract_y
_atom_site_fract_z
Si Si1 0.500000 0.500000 0.000000
Si Si2 0.136365 0.337949 0.379190
Si Si3 0.129528 0.641166 0.893704
Si Si4 0.351153 0.147033 0.388524
Si Si5 0.000000 0.500000 0.250000
Si Si6 0.730195 0.622704 0.090160
O O1 0.588484 0.594580 0.055672
O O2 0.142903 0.364912 0.491309
O O3 0.248838 0.245606 0.354310
O O4 0.113791 0.461691 0.318730
O O5 0.004801 0.268773 0.362289
O O6 0.150293 0.498821 0.859609
O O7 0.245031 0.723461 0.859772
O O8 0.992298 0.687616 0.869319
O O9 0.319106 0.139021 0.499856
#
# Coordination Sequence:
#
# PCOD9542608 Si02
#       6
#     2   8   8   8   2   8
#     4  12  12  24  48  88 112 136 172 240 286 340
#     4  10  19  32  50  77 111 152 185 220 281 339
#     4   9  16  28  53  85 110 132 173 240 296 329
#     4   9  15  26  47  79 109 133 173 231 287 326
#     4  12  24  36  52  72 112 160 200 226 256 352
#     4  10  15  26  48  79 113 134 179 234 287 324
#
# _framework density 21.948461000000002
#
# number of rings (size 3 to 8) (size 9 to 14) (size 15 to 20)
#    0.000    2.222    6.667    2.667    0.000    0.000 
#    0.000    0.000    0.000   30.667    0.000    3.111 
#    0.000   10.667    0.000    0.000    0.000    0.000 
#
# Total GULP energy -100340.180516 kJ/mol
# GULP energy per Si atom -5574.454473 kJ/mol
# Density = 2.189850 g / cm^3
# Si number density = 21.948461 Si / 1000 Ang^3
#
#
#
# Elastic Constant Matrix: (Units=GPa)
#
#
# Indices 1 2 3 4 5 6 
#
# 1 129.5699 38.4432 18.9127 0.0000 0.0000 -3.5985
# 2 38.4432 129.5699 18.9127 0.0000 0.0000 3.5985
# 3 18.9127 18.9127 90.2295 0.0000 0.0000 0.0000
# 4 0.0000 0.0000 0.0000 -1.3335 0.0000 0.0000
# 5 0.0000 0.0000 0.0000 0.0000 -1.3335 0.0000
# 6 -3.5985 3.5985 0.0000 0.0000 0.0000 18.7660
#
#
#
# Elastic Compliance Matrix: (Units=1/GPa)
#
#
# Indices 1 2 3 4 5 6 
#
# 1 0.008695 -0.002448 -0.001309 0.000000 0.000000 0.002137
# 2 -0.002448 0.008695 -0.001309 0.000000 0.000000 -0.002137
# 3 -0.001309 -0.001309 0.011632 0.000000 0.000000 0.000000
# 4 0.000000 0.000000 0.000000 -0.749927 0.000001 0.000000
# 5 0.000000 0.000000 0.000000 0.000001 -0.749929 0.000000
# 6 0.002137 -0.002137 0.000000 0.000000 0.000000 0.054107
#
#
# Mechanical properties :
#
#
# Convention : Reuss Voigt Hill
#
# Bulk Modulus (GPa) = 52.94438 55.76738 54.35588
# Shear Modulus (GPa) = -3.57067 21.42653 8.92793
#
# Velocity S-wave (km/s) = -1.27686 3.12784 2.01904
# Velocity P-wave (km/s) = 4.69049 6.20548 5.50039
#
# Compressibility (1/GPa) = 0.01888775
#
# Stress axis : x y z
#
# Youngs Moduli (GPa) = 115.01407 115.01407 85.97160
#
# Poissons Ratio (x) = 0.28154 0.11257
# Poissons Ratio (y) = 0.28154 0.11257
# Poissons Ratio (z) = 0.15059 0.15059
#
# Static dielectric constant tensor:
#      x y z
#    x 1.837410 0.000000 0.000000 
#    y 0.000000 1.837410 0.000000 
#    z 0.000000 0.000000 1.848300 
# 
# From -- ./inp_files/2562.got.cif
#   From: 2010.05.17/outbox.cif.g08.bks.cpg/sg82_2_cif.got.tgz:2562.got - 2010.06.03 18:52:26.
