data_PCOD9542445
_publ_section_title
;
Structure prediction by ZEFSAII (Michael W. Deem and Ramdas Pophale) SiO2 
 PCOD9542445
Probable space group: P -4
;
_chemical_formula_sum "Si O2"
_cell_formula_units_Z 25
_cell_length_a 11.899731
_cell_length_b 11.899731
_cell_length_c 8.349806
_cell_angle_alpha 90.000000
_cell_angle_beta 90.000000
_cell_angle_gamma 90.000000
_cell_volume 1182.362571
_symmetry_space_group_name_H-M "P -4"
_symmetry_group_IT_number 81
_symmetry_cell_setting 'tetragonal'
loop_
_space_group_symop_operation_xyz
x,y,z
y,-x,-z
-x,-y,z
-y,x,-z
loop_
_atom_site_type_symbol
_atom_site_label
_atom_site_fract_x
_atom_site_fract_y
_atom_site_fract_z
Si Si1 0.215500 0.716914 0.248773
Si Si2 0.000000 0.000000 0.000000
Si Si3 0.888637 0.383865 0.749584
Si Si4 0.192006 0.250205 0.403880
Si Si5 0.771674 0.025308 0.838356
Si Si6 0.130764 0.502732 0.399832
Si Si7 0.385352 0.874598 0.099482
O O1 0.207527 0.779141 0.420495
O O2 0.202404 0.586991 0.291258
O O3 0.325630 0.763099 0.163612
O O4 0.106180 0.749002 0.147841
O O5 0.047722 0.104466 0.097716
O O6 0.807963 0.277168 0.723351
O O7 0.878337 0.447619 0.579485
O O8 0.863356 0.479976 0.883369
O O9 0.018087 0.352442 0.786964
O O10 0.066162 0.227786 0.344194
O O11 0.193955 0.384776 0.407121
O O12 0.673372 0.091482 0.932695
O O13 0.000000 0.500000 0.342556
#
# Coordination Sequence:
#
# PCOD9542445 Si02
#       7
#     4   1   4   4   4   4   4
#     4  11  24  39  67  92 129 171 223 283 329 405
#     4  12  24  40  54  92 152 160 202 280 348 416
#     4  10  22  40  69  90 131 180 218 275 343 398
#     4  11  24  41  66  99 126 172 234 281 333 408
#     4  12  25  39  64  97 133 175 220 272 350 419
#     4  11  19  40  64  95 127 167 229 278 332 409
#     4  11  22  43  63  92 134 178 218 270 344 415
#
# _framework density 21.144106000000001
#
# number of rings (size 3 to 8) (size 9 to 14) (size 15 to 20)
#    0.000    0.960    6.400    0.960    2.240    2.560 
#    0.000    0.800    0.000    0.000    0.000    0.000 
#    0.000    0.000    0.000    0.000    0.000    0.000 
#
# Total GULP energy -139611.101041 kJ/mol
# GULP energy per Si atom -5584.444042 kJ/mol
# Density = 2.109598 g / cm^3
# Si number density = 21.144106 Si / 1000 Ang^3
#
#
#
# Elastic Constant Matrix: (Units=GPa)
#
#
# Indices 1 2 3 4 5 6 
#
# 1 73.4734 18.9997 5.8389 0.0000 0.0000 1.5863
# 2 18.9997 73.4734 5.8389 0.0000 0.0000 -1.5863
# 3 5.8389 5.8389 44.2864 0.0000 0.0000 0.0000
# 4 0.0000 0.0000 0.0000 25.9173 0.0000 0.0000
# 5 0.0000 0.0000 0.0000 0.0000 25.9173 0.0000
# 6 1.5863 -1.5863 0.0000 0.0000 0.0000 33.1842
#
#
#
# Elastic Compliance Matrix: (Units=1/GPa)
#
#
# Indices 1 2 3 4 5 6 
#
# 1 0.014703 -0.003706 -0.001450 0.000000 0.000000 -0.000880
# 2 -0.003706 0.014703 -0.001450 0.000000 0.000000 0.000880
# 3 -0.001450 -0.001450 0.022963 0.000000 0.000000 0.000000
# 4 0.000000 0.000000 0.000000 0.038584 0.000000 0.000000
# 5 0.000000 0.000000 0.000000 0.000000 0.038584 0.000000
# 6 -0.000880 0.000880 0.000000 0.000000 0.000000 0.030219
#
#
# Mechanical properties :
#
#
# Convention : Reuss Voigt Hill
#
# Bulk Modulus (GPa) = 25.53816 28.06538 26.80177
# Shear Modulus (GPa) = 26.87888 27.70746 27.29317
#
# Velocity S-wave (km/s) = 3.56929 3.62389 3.59669
# Velocity P-wave (km/s) = 5.39359 5.55088 5.47280
#
# Compressibility (1/GPa) = 0.03915709
#
# Stress axis : x y z
#
# Youngs Moduli (GPa) = 68.01382 68.01382 43.54906
#
# Poissons Ratio (x) = 0.25205 0.06314
# Poissons Ratio (y) = 0.25205 0.06314
# Poissons Ratio (z) = 0.09861 0.09861
#
# Static dielectric constant tensor:
#      x y z
#    x 1.756280 0.000000 0.000000 
#    y 0.000000 1.756280 0.000000 
#    z 0.000000 0.000000 1.830530 
# 
# From -- ./inp_files/883.got.cif
#   From: 2010.05.17/outbox.cif.g08.bks.cpg/sg81_cif.got.tgz:883.got - 2010.06.03 18:51:07.
