data_PCOD9542729
_publ_section_title
;
Structure prediction by ZEFSAII (Michael W. Deem and Ramdas Pophale) SiO2 
 PCOD9542729
Probable space group: I -4 
;
_chemical_formula_sum "Si O2"
_cell_formula_units_Z 64
_cell_length_a 13.720687
_cell_length_b 13.720687
_cell_length_c 16.994593
_cell_angle_alpha 90.000000
_cell_angle_beta 90.000000
_cell_angle_gamma 90.000000
_cell_volume 3199.355373
_symmetry_space_group_name_H-M "I -4 "
_symmetry_group_IT_number 82
_symmetry_cell_setting 'tetragonal'
loop_
_space_group_symop_operation_xyz
x,y,z
y,-x,-z
-x,-y,z
-y,x,-z
1/2+x,1/2+y,1/2+z
1/2+y,1/2-x,1/2-z
1/2-x,1/2-y,1/2+z
1/2-y,1/2+x,1/2-z
loop_
_atom_site_type_symbol
_atom_site_label
_atom_site_fract_x
_atom_site_fract_y
_atom_site_fract_z
Si Si1 0.766588 0.147820 0.144273
Si Si2 0.167785 0.224731 0.531267
Si Si3 0.321479 0.364856 0.865534
Si Si4 0.556133 0.196863 0.638106
Si Si5 0.265645 0.502657 0.197112
Si Si6 0.845848 0.080472 0.306820
Si Si7 0.859420 0.485769 0.052468
Si Si8 0.203448 0.604702 0.485878
O O1 0.667236 0.210627 0.145364
O O2 0.852659 0.228439 0.130036
O O3 0.787000 0.096555 0.226496
O O4 0.752255 0.078335 0.069281
O O5 0.153135 0.147880 0.458415
O O6 0.138174 0.196031 0.618431
O O7 0.092493 0.310202 0.506183
O O8 0.284288 0.239593 0.529066
O O9 0.384213 0.287189 0.815777
O O10 0.346214 0.469972 0.833981
O O11 0.523923 0.200226 0.728728
O O12 0.578617 0.087467 0.608021
O O13 0.467923 0.232752 0.583327
O O14 0.368952 0.449753 0.208163
O O15 0.218057 0.470755 0.114942
O O16 0.898375 0.583915 0.011399
#
# Coordination Sequence:
#
# PCOD9542729 Si02
#       8
#     8   8   8   8   8   8   8   8
#     4  10  23  46  61  90 133 167 219 271 320 393
#     4  10  20  37  66  91 128 163 206 262 328 382
#     4  10  21  40  63  91 130 167 208 270 323 391
#     4  11  23  39  66  92 127 171 212 267 329 393
#     4  10  22  36  61  95 132 162 206 257 332 399
#     4  11  22  38  65  96 123 173 211 262 324 398
#     4  11  21  40  62  98 129 163 204 270 332 392
#     4  11  22  40  64  91 126 171 212 262 326 397
#
# _framework density 20.004031000000001
#
# number of rings (size 3 to 8) (size 9 to 14) (size 15 to 20)
#    0.000    1.500    5.000    2.250    5.250    0.000 
#    4.500    0.000    0.000    0.000    0.000    0.000 
#    0.000    0.000    0.000    0.000    0.000    0.000 
#
# Total GULP energy -178386.749856 kJ/mol
# GULP energy per Si atom -5574.585933 kJ/mol
# Density = 1.995850 g / cm^3
# Si number density = 20.004031 Si / 1000 Ang^3
#
#
#
# Elastic Constant Matrix: (Units=GPa)
#
#
# Indices 1 2 3 4 5 6 
#
# 1 52.0492 5.0763 19.1355 0.0000 0.0000 -5.3960
# 2 5.0763 52.0492 19.1355 0.0000 0.0000 5.3960
# 3 19.1355 19.1355 53.9327 0.0000 0.0000 0.0000
# 4 0.0000 0.0000 0.0000 29.4686 0.0000 0.0000
# 5 0.0000 0.0000 0.0000 0.0000 29.4686 0.0000
# 6 -5.3960 5.3960 0.0000 0.0000 0.0000 17.8195
#
#
#
# Elastic Compliance Matrix: (Units=1/GPa)
#
#
# Indices 1 2 3 4 5 6 
#
# 1 0.022922 0.000042 -0.008148 0.000000 0.000000 0.006929
# 2 0.000042 0.022922 -0.008148 0.000000 0.000000 -0.006929
# 3 -0.008148 -0.008148 0.024323 0.000000 0.000000 0.000000
# 4 0.000000 0.000000 0.000000 0.033934 0.000000 0.000000
# 5 0.000000 0.000000 0.000000 0.000000 0.033934 0.000000
# 6 0.006929 -0.006929 0.000000 0.000000 0.000000 0.060315
#
#
# Mechanical properties :
#
#
# Convention : Reuss Voigt Hill
#
# Bulk Modulus (GPa) = 26.55316 27.19174 26.87245
# Shear Modulus (GPa) = 20.54133 22.99694 21.76914
#
# Velocity S-wave (km/s) = 3.20794 3.39428 3.30242
# Velocity P-wave (km/s) = 5.19845 5.38369 5.29188
#
# Compressibility (1/GPa) = 0.03766030
#
# Stress axis : x y z
#
# Youngs Moduli (GPa) = 43.62578 43.62578 41.11299
#
# Poissons Ratio (x) = -0.00181 0.33497
# Poissons Ratio (y) = -0.00181 0.33497
# Poissons Ratio (z) = 0.35545 0.35545
#
# Static dielectric constant tensor:
#      x y z
#    x 1.749480 0.000000 0.000000 
#    y 0.000000 1.749480 0.000000 
#    z 0.000000 0.000000 1.703440 
# 
# From -- ./inp_files/2721.got.cif
#   From: 2010.05.17/outbox.cif.g08.bks.cpg/sg82_2_cif.got.tgz:2721.got - 2010.06.03 18:52:26.
