data_PCOD9542516
_publ_section_title
;
Structure prediction by ZEFSAII (Michael W. Deem and Ramdas Pophale) SiO2 
 PCOD9542516
Probable space group: P -4
;
_chemical_formula_sum "Si O2"
_cell_formula_units_Z 14
_cell_length_a 9.020700
_cell_length_b 9.020700
_cell_length_c 8.719001
_cell_angle_alpha 90.000000
_cell_angle_beta 90.000000
_cell_angle_gamma 90.000000
_cell_volume 709.491517
_symmetry_space_group_name_H-M "P -4"
_symmetry_group_IT_number 81
_symmetry_cell_setting 'tetragonal'
loop_
_space_group_symop_operation_xyz
x,y,z
y,-x,-z
-x,-y,z
-y,x,-z
loop_
_atom_site_type_symbol
_atom_site_label
_atom_site_fract_x
_atom_site_fract_y
_atom_site_fract_z
Si Si1 0.500000 0.000000 0.760534
Si Si2 0.191346 0.966194 0.906644
Si Si3 0.737419 0.444038 0.484322
Si Si4 0.181598 0.091977 0.406979
O O1 0.638646 0.027703 0.868799
O O2 0.477030 0.147043 0.654300
O O3 0.121328 0.898201 0.752508
O O4 0.128895 0.865804 0.044777
O O5 0.595012 0.336811 0.452422
O O6 0.839169 0.344293 0.595774
O O7 0.076958 0.175165 0.533720
#
# Coordination Sequence:
#
# PCOD9542516 Si02
#       4
#     2   4   4   4
#     4  12  24  48  68  98 148 180 228 286 348 418
#     4  11  24  44  67 100 137 186 234 273 336 425
#     4  11  22  40  68 105 135 169 226 299 353 394
#     4  11  20  38  71 100 131 180 236 291 332 395
#
# _framework density 19.732443
#
# number of rings (size 3 to 8) (size 9 to 14) (size 15 to 20)
#    0.000    0.857    5.714    3.429    0.000    0.000 
#    5.143    0.000    0.000    0.000    0.000    0.000 
#    0.000    0.000    0.000    0.000    0.000    0.000 
#
# Total GULP energy -78004.357700 kJ/mol
# GULP energy per Si atom -5571.739836 kJ/mol
# Density = 1.968753 g / cm^3
# Si number density = 19.732443 Si / 1000 Ang^3
#
#
#
# Elastic Constant Matrix: (Units=GPa)
#
#
# Indices 1 2 3 4 5 6 
#
# 1 139.0369 49.5786 51.7429 0.0000 0.0000 16.8801
# 2 49.5786 139.0369 51.7429 0.0000 0.0000 -16.8801
# 3 51.7429 51.7429 103.9183 0.0000 0.0000 0.0000
# 4 0.0000 0.0000 0.0000 32.2050 0.0000 0.0000
# 5 0.0000 0.0000 0.0000 0.0000 32.2050 0.0000
# 6 16.8801 -16.8801 0.0000 0.0000 0.0000 48.2573
#
#
#
# Elastic Compliance Matrix: (Units=1/GPa)
#
#
# Indices 1 2 3 4 5 6 
#
# 1 0.010087 -0.002792 -0.003632 0.000000 0.000000 -0.004505
# 2 -0.002792 0.010087 -0.003632 0.000000 0.000000 0.004505
# 3 -0.003632 -0.003632 0.013240 0.000000 0.000000 0.000000
# 4 0.000000 0.000000 0.000000 0.031051 0.000000 0.000000
# 5 0.000000 0.000000 0.000000 0.000000 0.031051 0.000000
# 6 -0.004505 0.004505 0.000000 0.000000 0.000000 0.023874
#
#
# Mechanical properties :
#
#
# Convention : Reuss Voigt Hill
#
# Bulk Modulus (GPa) = 75.18426 76.45790 75.82108
# Shear Modulus (GPa) = 34.73800 37.79534 36.26667
#
# Velocity S-wave (km/s) = 4.20033 4.38127 4.29175
# Velocity P-wave (km/s) = 7.85546 8.02654 7.94146
#
# Compressibility (1/GPa) = 0.01330066
#
# Stress axis : x y z
#
# Youngs Moduli (GPa) = 99.14238 99.14238 75.52902
#
# Poissons Ratio (x) = 0.27680 0.27433
# Poissons Ratio (y) = 0.27680 0.27433
# Poissons Ratio (z) = 0.36010 0.36010
#
# Static dielectric constant tensor:
#      x y z
#    x 1.761970 0.000000 0.000000 
#    y 0.000000 1.761970 0.000000 
#    z 0.000000 0.000000 1.682610 
# 
# From -- ./inp_files/476.got.cif
#   From: 2010.05.17/outbox.cif.g08.bks.cpg/sg81_cif.got.tgz:476.got - 2010.06.03 18:51:07.
