data_PCOD9542886
_publ_section_title
;
Structure prediction by ZEFSAII (Michael W. Deem and Ramdas Pophale) SiO2 
 PCOD9542886
Probable space group: I -4 
;
_chemical_formula_sum "Si O2"
_cell_formula_units_Z 52
_cell_length_a 16.396969
_cell_length_b 16.396969
_cell_length_c 8.564856
_cell_angle_alpha 90.000000
_cell_angle_beta 90.000000
_cell_angle_gamma 90.000000
_cell_volume 2302.752258
_symmetry_space_group_name_H-M "I -4 "
_symmetry_group_IT_number 82
_symmetry_cell_setting 'tetragonal'
loop_
_space_group_symop_operation_xyz
x,y,z
y,-x,-z
-x,-y,z
-y,x,-z
1/2+x,1/2+y,1/2+z
1/2+y,1/2-x,1/2-z
1/2-x,1/2-y,1/2+z
1/2-y,1/2+x,1/2-z
loop_
_atom_site_type_symbol
_atom_site_label
_atom_site_fract_x
_atom_site_fract_y
_atom_site_fract_z
Si Si1 0.187520 0.493083 0.176347
Si Si2 0.500000 0.500000 0.500000
Si Si3 0.257256 0.071172 0.341737
Si Si4 0.359118 0.725573 0.645424
Si Si5 0.500000 0.000000 0.750000
Si Si6 0.180713 0.896866 0.561061
Si Si7 0.788145 0.707508 0.652593
Si Si8 0.633486 0.459248 0.747109
O O1 0.210470 0.428070 0.309646
O O2 0.091855 0.514989 0.178975
O O3 0.262724 0.557782 0.186486
O O4 0.206868 0.455356 0.006173
O O5 0.574661 0.505831 0.625198
O O6 0.174307 0.123447 0.374515
O O7 0.317823 0.133752 0.259169
O O8 0.224124 0.997814 0.234162
O O9 0.333361 0.726219 0.467115
O O10 0.278809 0.748960 0.743726
O O11 0.379485 0.634444 0.698704
O O12 0.248612 0.855966 0.449565
O O13 0.128899 0.953707 0.439173
#
# Coordination Sequence:
#
# PCOD9542886 Si02
#       8
#     8   2   8   8   2   8   8   8
#     4  11  24  46  67 103 141 186 239 297 365 433
#     4  12  24  40  54 104 160 180 218 296 360 424
#     4  11  22  43  70  98 136 186 236 294 353 439
#     4  11  21  42  65  99 135 187 236 290 352 433
#     4  12  28  44  76 114 144 180 252 318 364 428
#     4  10  22  42  69  96 133 190 240 286 361 432
#     4  11  20  40  68  95 129 182 238 288 340 425
#     4  10  24  38  60  99 141 175 232 284 355 430
#
# _framework density 22.581672999999999
#
# number of rings (size 3 to 8) (size 9 to 14) (size 15 to 20)
#    0.000    1.231    4.615    1.846    2.154    0.000 
#    2.769   10.769    0.000    0.923    0.000    0.000 
#    0.000    0.000    0.000    0.000    0.000    0.000 
#
# Total GULP energy -144817.810536 kJ/mol
# GULP energy per Si atom -5569.915790 kJ/mol
# Density = 2.253028 g / cm^3
# Si number density = 22.581673 Si / 1000 Ang^3
#
#
#
# Elastic Constant Matrix: (Units=GPa)
#
#
# Indices 1 2 3 4 5 6 
#
# 1 89.2022 18.2679 19.9358 0.0000 0.0000 -8.3926
# 2 18.2679 89.2022 19.9358 0.0000 0.0000 8.3926
# 3 19.9358 19.9358 57.4190 0.0000 0.0000 0.0000
# 4 0.0000 0.0000 0.0000 30.1665 0.0000 0.0000
# 5 0.0000 0.0000 0.0000 0.0000 30.1665 0.0000
# 6 -8.3926 8.3926 0.0000 0.0000 0.0000 29.7796
#
#
#
# Elastic Compliance Matrix: (Units=1/GPa)
#
#
# Indices 1 2 3 4 5 6 
#
# 1 0.012893 -0.002212 -0.003708 0.000000 0.000000 0.004257
# 2 -0.002212 0.012893 -0.003708 0.000000 0.000000 -0.004257
# 3 -0.003708 -0.003708 0.019991 0.000000 0.000000 0.000000
# 4 0.000000 0.000000 0.000000 0.033149 0.000000 0.000000
# 5 0.000000 0.000000 0.000000 0.000000 0.033149 0.000000
# 6 0.004257 -0.004257 0.000000 0.000000 0.000000 0.035979
#
#
# Mechanical properties :
#
#
# Convention : Reuss Voigt Hill
#
# Bulk Modulus (GPa) = 37.70881 39.12249 38.41565
# Shear Modulus (GPa) = 28.38464 29.86812 29.12638
#
# Velocity S-wave (km/s) = 3.54923 3.64080 3.59531
# Velocity P-wave (km/s) = 5.79061 5.91915 5.85524
#
# Compressibility (1/GPa) = 0.02651900
#
# Stress axis : x y z
#
# Youngs Moduli (GPa) = 77.56279 77.56279 50.02286
#
# Poissons Ratio (x) = 0.17158 0.18550
# Poissons Ratio (y) = 0.17158 0.18550
# Poissons Ratio (z) = 0.28763 0.28763
#
# Static dielectric constant tensor:
#      x y z
#    x 1.911310 0.000000 0.000000 
#    y 0.000000 1.911310 0.000000 
#    z 0.000000 0.000000 1.873090 
# 
# From -- ./inp_files/1179.got.cif
#   From: 2010.05.17/outbox.cif.g08.bks.cpg/sg82_1_cif.got.tgz:1179.got - 2010.06.03 18:52:26.
