data_PCOD9542050
_publ_section_title
;
Structure prediction by ZEFSAII (Michael W. Deem and Ramdas Pophale) SiO2 
 PCOD9542050
Probable space group: I 4
;
_chemical_formula_sum "Si O2"
_cell_formula_units_Z 52
_cell_length_a 16.085930
_cell_length_b 16.085930
_cell_length_c 7.850846
_cell_angle_alpha 90.000000
_cell_angle_beta 90.000000
_cell_angle_gamma 90.000000
_cell_volume 2031.462489
_symmetry_space_group_name_H-M "I 4"
_symmetry_group_IT_number 79
_symmetry_cell_setting 'tetragonal'
loop_
_space_group_symop_operation_xyz
x,y,z
-y,x,z
-x,-y,z
y,-x,z
1/2+x,1/2+y,1/2+z
1/2-y,1/2+x,1/2+z
1/2-x,1/2-y,1/2+z
1/2+y,1/2-x,1/2+z
loop_
_atom_site_type_symbol
_atom_site_label
_atom_site_fract_x
_atom_site_fract_y
_atom_site_fract_z
Si Si1 0.872237 0.275317 0.186600
Si Si2 0.627762 0.224681 0.288651
Si Si3 0.395373 0.416004 0.695991
Si Si4 0.946929 0.681067 0.298509
Si Si5 0.000000 0.500000 0.237631
Si Si6 0.916005 0.104628 0.779255
Si Si7 0.446928 0.181067 0.176749
O O1 0.862339 0.182609 0.258915
O O2 0.824958 0.355456 0.262290
O O3 0.972686 0.286965 0.198566
O O4 0.849762 0.275924 0.987625
O O5 0.675040 0.144542 0.212963
O O6 0.637659 0.317389 0.216332
O O7 0.527312 0.213035 0.276692
O O8 0.487209 0.387998 0.747318
O O9 0.393546 0.413899 0.487623
O O10 0.967694 0.583518 0.322892
O O11 0.945070 0.719152 0.487629
O O12 0.916481 0.467693 0.152370
O O13 0.012792 0.112002 0.727929
#
# Coordination Sequence:
#
# PCOD9542050 Si02
#       7
#     8   8   8   8   4   8   8
#     4   9  17  28  43  65  89 112 142 177 210 248
#     4   9  17  28  43  65  89 112 142 177 210 248
#     4   8  14  27  48  68  82 103 142 187 219 243
#     4   9  16  25  39  60  88 118 142 168 207 252
#     4   8  14  24  40  58  78 112 156 186 194 224
#     4   8  14  27  48  68  82 103 142 187 219 243
#     4   9  16  25  39  60  88 118 142 168 207 252
#
# _framework density 25.597322999999999
#
# number of rings (size 3 to 8) (size 9 to 14) (size 15 to 20)
#    0.000    3.385    0.000    1.385    0.000    7.385 
#    0.000    1.538    0.000    1.846    0.000    2.154 
#    0.000    0.000    0.000    0.000    0.000    0.000 
#
# Total GULP energy -144817.184938 kJ/mol
# GULP energy per Si atom -5569.891728 kJ/mol
# Density = 2.553906 g / cm^3
# Si number density = 25.597323 Si / 1000 Ang^3
#
#
#
# Elastic Constant Matrix: (Units=GPa)
#
#
# Indices 1 2 3 4 5 6 
#
# 1 139.3937 -3.8875 -4.6554 0.0000 0.0000 24.9040
# 2 -3.8875 139.3937 -4.6554 0.0000 0.0000 -24.9040
# 3 -4.6554 -4.6554 38.9045 0.0000 0.0000 0.0000
# 4 0.0000 0.0000 0.0000 7.0280 0.0000 0.0000
# 5 0.0000 0.0000 0.0000 0.0000 7.0280 0.0000
# 6 24.9040 -24.9040 0.0000 0.0000 0.0000 -0.8731
#
#
#
# Elastic Compliance Matrix: (Units=1/GPa)
#
#
# Indices 1 2 3 4 5 6 
#
# 1 0.004040 0.003401 0.000890 0.000000 0.000000 0.018238
# 2 0.003401 0.004040 0.000890 0.000000 0.000000 -0.018238
# 3 0.000890 0.000890 0.025917 0.000000 0.000000 0.000000
# 4 0.000000 0.000000 0.000000 0.142288 0.000000 0.000000
# 5 0.000000 0.000000 0.000000 0.000000 0.142288 0.000000
# 6 0.018238 -0.018238 0.000000 0.000000 0.000000 -0.104928
#
#
# Mechanical properties :
#
#
# Convention : Reuss Voigt Hill
#
# Bulk Modulus (GPa) = 22.54259 32.36615 27.45437
# Shear Modulus (GPa) = 22.92864 24.69593 23.81228
#
# Velocity S-wave (km/s) = 2.99614 3.10947 3.05333
# Velocity P-wave (km/s) = 4.56014 5.05604 4.81448
#
# Compressibility (1/GPa) = 0.04436047
#
# Stress axis : x y z
#
# Youngs Moduli (GPa) = 247.51477 247.51477 38.58462
#
# Poissons Ratio (x) = -0.84174 -0.03436
# Poissons Ratio (y) = -0.84174 -0.03436
# Poissons Ratio (z) = -0.22039 -0.22039
#
# Static dielectric constant tensor:
#      x y z
#    x 2.050580 0.000000 0.000000 
#    y 0.000000 2.050580 0.000000 
#    z 0.000000 0.000000 1.974280 
# 
# From -- ./inp_files/684.got.cif
#   From: 2010.05.17/outbox.cif.g08.bks.cpg/sg79_cif.got.tgz:684.got - 2010.06.03 18:47:27.
