data_PCOD9542047
_publ_section_title
;
Structure prediction by ZEFSAII (Michael W. Deem and Ramdas Pophale) SiO2 
 PCOD9542047
Probable space group: I 4
;
_chemical_formula_sum "Si O2"
_cell_formula_units_Z 18
_cell_length_a 9.592420
_cell_length_b 9.592420
_cell_length_c 7.226796
_cell_angle_alpha 90.000000
_cell_angle_beta 90.000000
_cell_angle_gamma 90.000000
_cell_volume 664.970176
_symmetry_space_group_name_H-M "I 4"
_symmetry_group_IT_number 79
_symmetry_cell_setting 'tetragonal'
loop_
_space_group_symop_operation_xyz
x,y,z
-y,x,z
-x,-y,z
y,-x,z
1/2+x,1/2+y,1/2+z
1/2-y,1/2+x,1/2+z
1/2-x,1/2-y,1/2+z
1/2+y,1/2-x,1/2+z
loop_
_atom_site_type_symbol
_atom_site_label
_atom_site_fract_x
_atom_site_fract_y
_atom_site_fract_z
Si Si1 0.263268 0.688434 0.837620
Si Si2 0.963335 0.658982 0.980473
Si Si3 0.500000 0.500000 0.994333
O O1 0.247228 0.601317 0.648930
O O2 0.355922 0.594676 0.974394
O O3 0.336911 0.838568 0.830526
O O4 0.104999 0.717666 0.897864
O O5 0.000000 0.500000 0.030661
#
# Coordination Sequence:
#
# PCOD9542047 Si02
#       3
#     8   8   2
#     4  12  28  51  85 124 173 230 292 353 441 511
#     4  12  28  52  83 129 172 230 288 359 427 523
#     4  12  24  48  80 122 168 224 284 362 416 516
#
# _framework density 27.068881000000001
#
# number of rings (size 3 to 8) (size 9 to 14) (size 15 to 20)
#    0.000    0.000    4.444    4.000    6.222    0.889 
#    0.000    0.000    0.000    0.000    0.000    0.000 
#    0.000    0.000    0.000    0.000    0.000    0.000 
#
# Total GULP energy -50241.780134 kJ/mol
# GULP energy per Si atom -5582.420015 kJ/mol
# Density = 2.700727 g / cm^3
# Si number density = 27.068881 Si / 1000 Ang^3
#
#
#
# Elastic Constant Matrix: (Units=GPa)
#
#
# Indices 1 2 3 4 5 6 
#
# 1 201.8682 24.5830 21.9525 0.0000 0.0000 -6.7532
# 2 24.5830 201.8682 21.9525 0.0000 0.0000 6.7532
# 3 21.9525 21.9525 69.4265 0.0000 0.0000 0.0000
# 4 0.0000 0.0000 0.0000 38.3310 0.0000 0.0000
# 5 0.0000 0.0000 0.0000 0.0000 38.3310 0.0000
# 6 -6.7532 6.7532 0.0000 0.0000 0.0000 76.6537
#
#
#
# Elastic Compliance Matrix: (Units=1/GPa)
#
#
# Indices 1 2 3 4 5 6 
#
# 1 0.005192 -0.000487 -0.001488 0.000000 0.000000 0.000500
# 2 -0.000487 0.005192 -0.001488 0.000000 0.000000 -0.000500
# 3 -0.001488 -0.001488 0.015344 0.000000 0.000000 0.000000
# 4 0.000000 0.000000 0.000000 0.026089 0.000000 0.000000
# 5 0.000000 0.000000 0.000000 0.000000 0.026089 0.000000
# 6 0.000500 -0.000500 0.000000 0.000000 0.000000 0.013134
#
#
# Mechanical properties :
#
#
# Convention : Reuss Voigt Hill
#
# Bulk Modulus (GPa) = 53.18270 67.79322 60.48796
# Shear Modulus (GPa) = 47.97058 57.64146 52.80602
#
# Velocity S-wave (km/s) = 4.21428 4.61959 4.42158
# Velocity P-wave (km/s) = 6.58559 7.31801 6.96144
#
# Compressibility (1/GPa) = 0.01880311
#
# Stress axis : x y z
#
# Youngs Moduli (GPa) = 192.62052 192.62052 65.17029
#
# Poissons Ratio (x) = 0.09384 0.09694
# Poissons Ratio (y) = 0.09384 0.09694
# Poissons Ratio (z) = 0.28652 0.28652
#
# Static dielectric constant tensor:
#      x y z
#    x 2.062240 0.000000 0.000000 
#    y 0.000000 2.062240 0.000000 
#    z 0.000000 0.000000 2.333450 
# 
# From -- ./inp_files/324.got.cif
#   From: 2010.05.17/outbox.cif.g08.bks.cpg/sg79_cif.got.tgz:324.got - 2010.06.03 18:47:27.
