data_PCOD9542642
_publ_section_title
;
Structure prediction by ZEFSAII (Michael W. Deem and Ramdas Pophale) SiO2 
 PCOD9542642
Probable space group: I -4 
;
_chemical_formula_sum "Si O2"
_cell_formula_units_Z 64
_cell_length_a 30.624508
_cell_length_b 30.624508
_cell_length_c 5.221138
_cell_angle_alpha 90.000000
_cell_angle_beta 90.000000
_cell_angle_gamma 90.000000
_cell_volume 4896.699044
_symmetry_space_group_name_H-M "I -4 "
_symmetry_group_IT_number 82
_symmetry_cell_setting 'tetragonal'
loop_
_space_group_symop_operation_xyz
x,y,z
y,-x,-z
-x,-y,z
-y,x,-z
1/2+x,1/2+y,1/2+z
1/2+y,1/2-x,1/2-z
1/2-x,1/2-y,1/2+z
1/2-y,1/2+x,1/2-z
loop_
_atom_site_type_symbol
_atom_site_label
_atom_site_fract_x
_atom_site_fract_y
_atom_site_fract_z
Si Si1 0.263694 0.692396 0.746080
Si Si2 0.877306 0.504336 0.190775
Si Si3 0.353699 0.903903 0.631255
Si Si4 0.985347 0.429564 0.800697
Si Si5 0.687436 0.130387 0.133247
Si Si6 0.274622 0.303922 0.753537
Si Si7 0.920508 0.321694 0.135451
Si Si8 0.211927 0.379724 0.863589
O O1 0.235214 0.649558 0.688516
O O2 0.297319 0.702656 0.518837
O O3 0.229116 0.732869 0.746566
O O4 0.287267 0.694433 0.018685
O O5 0.870717 0.452545 0.176138
O O6 0.913172 0.514061 0.409330
O O7 0.835310 0.530838 0.287878
O O8 0.892416 0.521889 0.912950
O O9 0.329766 0.900541 0.358813
O O10 0.392155 0.867197 0.635900
O O11 0.320468 0.890717 0.857448
O O12 0.950252 0.467548 0.762527
O O13 0.655241 0.172257 0.143304
O O14 0.255006 0.351580 0.806991
O O15 0.900670 0.291148 0.356969
O O16 0.913552 0.299346 0.861757
#
# Coordination Sequence:
#
# PCOD9542642 Si02
#       8
#     8   8   8   8   8   8   8   8
#     4   9  15  23  37  56  75  93 111 129 152 192
#     4  12  22  33  46  58  70  90 120 148 184 234
#     4  10  19  30  42  54  70  91 115 146 181 219
#     4  11  22  34  46  58  70  82 104 148 200 242
#     4   9  17  28  40  55  74  93 111 134 168 206
#     4   9  15  23  37  56  75  93 111 129 152 192
#     4  10  19  30  42  54  70  91 115 146 181 219
#     4   9  17  28  40  55  74  93 111 134 168 206
#
# _framework density 13.070029999999999
#
# number of rings (size 3 to 8) (size 9 to 14) (size 15 to 20)
#    0.000    2.125    0.000    5.250    0.000    9.000 
#    0.000    0.000    0.000    0.000    0.000    0.000 
#    0.000    0.000    0.000    0.000    0.000    0.000 
#
# Total GULP energy -178486.264283 kJ/mol
# GULP energy per Si atom -5577.695759 kJ/mol
# Density = 1.304028 g / cm^3
# Si number density = 13.070030 Si / 1000 Ang^3
#
#
#
# Elastic Constant Matrix: (Units=GPa)
#
#
# Indices 1 2 3 4 5 6 
#
# 1 11.4589 5.7329 -6.7785 0.0000 0.0000 0.3135
# 2 5.7329 11.4589 -6.7785 0.0000 0.0000 -0.3135
# 3 -6.7785 -6.7785 25.1891 0.0000 0.0000 0.0000
# 4 0.0000 0.0000 0.0000 14.7260 0.0000 0.0000
# 5 0.0000 0.0000 0.0000 0.0000 14.7260 0.0000
# 6 0.3135 -0.3135 0.0000 0.0000 0.0000 8.9096
#
#
#
# Elastic Compliance Matrix: (Units=1/GPa)
#
#
# Indices 1 2 3 4 5 6 
#
# 1 0.124578 -0.050741 0.019870 0.000000 0.000000 -0.006168
# 2 -0.050741 0.124578 0.019870 0.000000 0.000000 0.006168
# 3 0.019870 0.019870 0.050394 0.000000 0.000000 0.000000
# 4 0.000000 0.000000 0.000000 0.067907 0.000000 0.000000
# 5 0.000000 0.000000 0.000000 0.000000 0.067907 0.000000
# 6 -0.006168 0.006168 0.000000 0.000000 0.000000 0.112673
#
#
# Mechanical properties :
#
#
# Convention : Reuss Voigt Hill
#
# Bulk Modulus (GPa) = 3.60302 3.60651 3.60477
# Shear Modulus (GPa) = 7.54654 11.40106 9.47380
#
# Velocity S-wave (km/s) = 2.40551 2.95669 2.69522
# Velocity P-wave (km/s) = 3.23697 3.79755 3.52841
#
# Compressibility (1/GPa) = 0.27754480
#
# Stress axis : x y z
#
# Youngs Moduli (GPa) = 8.02712 8.02712 19.84375
#
# Poissons Ratio (x) = 0.40731 -0.39429
# Poissons Ratio (y) = 0.40731 -0.39429
# Poissons Ratio (z) = -0.15950 -0.15950
#
# Static dielectric constant tensor:
#      x y z
#    x 1.418940 0.000000 0.000000 
#    y 0.000000 1.418940 0.000000 
#    z 0.000000 0.000000 1.450950 
# 
# From -- ./inp_files/495.got.cif
#   From: 2010.05.17/outbox.cif.g08.bks.cpg/sg82_1_cif.got.tgz:495.got - 2010.06.03 18:52:26.
