data_PCOD9542314
_publ_section_title
;
Structure prediction by ZEFSAII (Michael W. Deem and Ramdas Pophale) SiO2 
 PCOD9542314
Probable space group: I 41
;
_chemical_formula_sum "Si O2"
_cell_formula_units_Z 16
_cell_length_a 7.085696
_cell_length_b 7.085696
_cell_length_c 10.215430
_cell_angle_alpha 90.000000
_cell_angle_beta 90.000000
_cell_angle_gamma 90.000000
_cell_volume 512.886991
_symmetry_space_group_name_H-M "I 41"
_symmetry_group_IT_number 80
_symmetry_cell_setting 'tetragonal'
loop_
_space_group_symop_operation_xyz
x,y,z
-y,1/2+x,1/4+z
-x,-y,z
y,1/2-x,1/4+z
1/2+x,1/2+y,1/2+z
1/2-y,x,3/4+z
1/2-x,1/2-y,1/2+z
1/2+y,-x,3/4+z
loop_
_atom_site_type_symbol
_atom_site_label
_atom_site_fract_x
_atom_site_fract_y
_atom_site_fract_z
Si Si1 0.787497 0.074801 0.468840
Si Si2 0.162692 0.353988 0.280482
O O1 0.808661 0.204025 0.597629
O O2 0.878315 0.824644 0.186997
O O3 0.000000 0.000000 0.444033
O O4 0.388961 0.342454 0.243884
O O5 0.000000 0.500000 0.244032
#
# Coordination Sequence:
#
# PCOD9542314 Si02
#       2
#     8   8
#     4  12  30  67 103 151 204 262 343 421 508 604
#     4  12  32  67  98 147 204 268 338 416 502 604
#
# _framework density 31.195958999999998
#
# number of rings (size 3 to 8) (size 9 to 14) (size 15 to 20)
#    0.000    0.000    5.000    0.000    7.000    6.000 
#    9.000    2.500    0.000    0.000    0.000    0.000 
#    0.000    0.000    0.000    0.000    0.000    0.000 
#
# Total GULP energy -44713.876572 kJ/mol
# GULP energy per Si atom -5589.234571 kJ/mol
# Density = 3.112496 g / cm^3
# Si number density = 31.195959 Si / 1000 Ang^3
#
#
#
# Elastic Constant Matrix: (Units=GPa)
#
#
# Indices 1 2 3 4 5 6 
#
# 1 195.1802 142.9975 113.9369 0.0000 0.0000 -28.4154
# 2 142.9975 195.1805 113.9371 0.0003 0.0001 28.4155
# 3 113.9369 113.9371 282.9751 0.0003 0.0001 0.0001
# 4 0.0000 0.0003 0.0003 70.1084 0.0001 0.0001
# 5 0.0000 0.0001 0.0001 0.0001 70.1082 0.0001
# 6 -28.4154 28.4155 0.0001 0.0001 0.0001 87.3159
#
#
#
# Elastic Compliance Matrix: (Units=1/GPa)
#
#
# Indices 1 2 3 4 5 6 
#
# 1 0.016871 -0.012813 -0.001634 0.000000 0.000000 0.009660
# 2 -0.012813 0.016871 -0.001634 0.000000 0.000000 -0.009660
# 3 -0.001634 -0.001634 0.004850 0.000000 0.000000 0.000000
# 4 0.000000 0.000000 0.000000 0.014264 0.000000 0.000000
# 5 0.000000 0.000000 0.000000 0.000000 0.014264 0.000000
# 6 0.009660 -0.009660 0.000000 0.000000 0.000000 0.017740
#
#
# Mechanical properties :
#
#
# Convention : Reuss Voigt Hill
#
# Bulk Modulus (GPa) = 155.52126 157.23098 156.37612
# Shear Modulus (GPa) = 41.95896 65.67078 53.81487
#
# Velocity S-wave (km/s) = 3.67142 4.59312 4.15789
# Velocity P-wave (km/s) = 8.24219 8.86789 8.56076
#
# Compressibility (1/GPa) = 0.00642999
#
# Stress axis : x y z
#
# Youngs Moduli (GPa) = 59.27327 59.27331 206.20099
#
# Poissons Ratio (x) = 0.75947 0.33691
# Poissons Ratio (y) = 0.75947 0.33692
# Poissons Ratio (z) = 0.09685 0.09685
#
# Static dielectric constant tensor:
#      x y z
#    x 2.495600 0.000000 0.000000 
#    y 0.000000 2.495600 0.000000 
#    z 0.000000 0.000000 2.555470 
# 
# From -- ./inp_files/451.got.cif
#   From: 2010.05.17/outbox.cif.g08.bks.cpg/sg80_cif.got.tgz:451.got - 2010.06.03 18:49:13.
