data_PCOD9542185
_publ_section_title
;
Structure prediction by ZEFSAII (Michael W. Deem and Ramdas Pophale) SiO2 
 PCOD9542185
Probable space group: I 41
;
_chemical_formula_sum "Si O2"
_cell_formula_units_Z 56
_cell_length_a 15.929241
_cell_length_b 15.929241
_cell_length_c 10.320857
_cell_angle_alpha 90.000000
_cell_angle_beta 90.000000
_cell_angle_gamma 90.000000
_cell_volume 2618.821674
_symmetry_space_group_name_H-M "I 41"
_symmetry_group_IT_number 80
_symmetry_cell_setting 'tetragonal'
loop_
_space_group_symop_operation_xyz
x,y,z
-y,1/2+x,1/4+z
-x,-y,z
y,1/2-x,1/4+z
1/2+x,1/2+y,1/2+z
1/2-y,x,3/4+z
1/2-x,1/2-y,1/2+z
1/2+y,-x,3/4+z
loop_
_atom_site_type_symbol
_atom_site_label
_atom_site_fract_x
_atom_site_fract_y
_atom_site_fract_z
Si Si1 0.048043 0.585996 0.764540
Si Si2 0.698434 0.696297 0.419065
Si Si3 0.555787 0.424913 0.454289
Si Si4 0.829785 0.229064 0.532430
Si Si5 0.994312 0.758935 0.890547
Si Si6 0.502557 0.767268 0.693218
Si Si7 0.107809 0.584809 0.488986
O O1 0.147795 0.607553 0.794152
O O2 0.044498 0.581567 0.608096
O O3 0.000000 0.500000 0.811514
O O4 0.005385 0.672706 0.813734
O O5 0.720227 0.753048 0.540339
O O6 0.600374 0.707138 0.388776
O O7 0.721172 0.601486 0.456264
O O8 0.500000 0.500000 0.399205
O O9 0.549631 0.342111 0.366355
O O10 0.648282 0.456315 0.473945
O O11 0.534205 0.411593 0.606536
O O12 0.796556 0.258171 0.675605
O O13 0.869384 0.316268 0.477979
O O14 0.014583 0.741471 0.040218
O O15 0.463758 0.693134 0.776506
#
# Coordination Sequence:
#
# PCOD9542185 Si02
#       7
#     8   8   8   8   8   8   8
#     4  11  25  45  64 100 145 185 227 284 348 430
#     4  10  22  46  66  98 135 187 238 283 347 420
#     4  11  20  38  67  97 127 178 227 289 345 413
#     4  10  23  42  69 103 139 183 233 286 358 415
#     4  10  24  42  63  98 139 179 227 285 347 419
#     4  10  22  40  68  96 131 176 231 285 345 413
#     4  10  23  42  67  99 134 169 233 289 347 409
#
# _framework density 21.383662999999999
#
# number of rings (size 3 to 8) (size 9 to 14) (size 15 to 20)
#    0.000    1.714    1.429    2.143    6.000    2.857 
#   12.857    0.000    0.000    0.000    0.000    0.000 
#    0.000    0.000    0.000    0.000    0.000    0.000 
#
# Total GULP energy -155984.933879 kJ/mol
# GULP energy per Si atom -5570.890496 kJ/mol
# Density = 2.133499 g / cm^3
# Si number density = 21.383663 Si / 1000 Ang^3
#
#
#
# Elastic Constant Matrix: (Units=GPa)
#
#
# Indices 1 2 3 4 5 6 
#
# 1 115.8637 55.8446 39.8431 0.0000 0.0000 -4.5549
# 2 55.8446 115.8637 39.8431 0.0000 0.0000 4.5549
# 3 39.8431 39.8431 82.3831 0.0000 0.0000 0.0000
# 4 0.0000 0.0000 0.0000 31.7250 0.0000 0.0000
# 5 0.0000 0.0000 0.0000 0.0000 31.7250 0.0000
# 6 -4.5549 4.5549 0.0000 0.0000 0.0000 39.4689
#
#
#
# Elastic Compliance Matrix: (Units=1/GPa)
#
#
# Indices 1 2 3 4 5 6 
#
# 1 0.012234 -0.004725 -0.003632 0.000000 0.000000 0.001957
# 2 -0.004725 0.012234 -0.003632 0.000000 0.000000 -0.001957
# 3 -0.003632 -0.003632 0.015651 0.000000 0.000000 0.000000
# 4 0.000000 0.000000 0.000000 0.031521 0.000000 0.000000
# 5 0.000000 0.000000 0.000000 0.000000 0.031521 0.000000
# 6 0.001957 -0.001957 0.000000 0.000000 0.000000 0.025788
#
#
# Mechanical properties :
#
#
# Convention : Reuss Voigt Hill
#
# Bulk Modulus (GPa) = 61.94687 65.01914 63.48300
# Shear Modulus (GPa) = 31.58446 32.48910 32.03678
#
# Velocity S-wave (km/s) = 3.84739 3.90210 3.87484
# Velocity P-wave (km/s) = 6.98346 7.12558 7.05488
#
# Compressibility (1/GPa) = 0.01614287
#
# Stress axis : x y z
#
# Youngs Moduli (GPa) = 81.74052 81.74052 63.89271
#
# Poissons Ratio (x) = 0.38619 0.23204
# Poissons Ratio (y) = 0.38619 0.23204
# Poissons Ratio (z) = 0.29686 0.29686
#
# Static dielectric constant tensor:
#      x y z
#    x 1.789120 0.000000 0.000000 
#    y 0.000000 1.789120 0.000000 
#    z 0.000000 0.000000 1.860720 
# 
# From -- ./inp_files/1052.got.cif
#   From: 2010.05.17/outbox.cif.g08.bks.cpg/sg80_cif.got.tgz:1052.got - 2010.06.03 18:49:13.
