data_PCOD9542248
_publ_section_title
;
Structure prediction by ZEFSAII (Michael W. Deem and Ramdas Pophale) SiO2 
 PCOD9542248
Probable space group: I 41
;
_chemical_formula_sum "Si O2"
_cell_formula_units_Z 64
_cell_length_a 21.386179
_cell_length_b 21.386179
_cell_length_c 7.502434
_cell_angle_alpha 90.000000
_cell_angle_beta 90.000000
_cell_angle_gamma 90.000000
_cell_volume 3431.378127
_symmetry_space_group_name_H-M "I 41"
_symmetry_group_IT_number 80
_symmetry_cell_setting 'tetragonal'
loop_
_space_group_symop_operation_xyz
x,y,z
-y,1/2+x,1/4+z
-x,-y,z
y,1/2-x,1/4+z
1/2+x,1/2+y,1/2+z
1/2-y,x,3/4+z
1/2-x,1/2-y,1/2+z
1/2+y,-x,3/4+z
loop_
_atom_site_type_symbol
_atom_site_label
_atom_site_fract_x
_atom_site_fract_y
_atom_site_fract_z
Si Si1 0.824081 0.714884 0.827870
Si Si2 0.873160 0.527602 0.953092
Si Si3 0.938119 0.457117 0.235288
Si Si4 0.163498 0.386536 0.513738
Si Si5 0.774652 0.957573 0.481126
Si Si6 0.579207 0.801176 0.827042
Si Si7 0.629654 0.516901 0.253391
Si Si8 0.574437 0.004269 0.099932
O O1 0.800998 0.777763 0.734201
O O2 0.824797 0.657720 0.686524
O O3 0.896771 0.722362 0.859782
O O4 0.885283 0.498496 0.145152
O O5 0.799068 0.536205 0.945876
O O6 0.924635 0.584492 0.942048
O O7 0.892201 0.484071 0.786972
O O8 0.919029 0.445640 0.439538
O O9 0.000000 0.500000 0.255100
O O10 0.958586 0.408843 0.083137
O O11 0.144258 0.339033 0.356315
O O12 0.231155 0.417163 0.503234
O O13 0.109055 0.438960 0.537670
O O14 0.800983 0.946405 0.281160
O O15 0.822074 0.000427 0.595031
O O16 0.539711 0.838607 0.685650
O O17 0.500000 0.000000 0.135769
#
# Coordination Sequence:
#
# PCOD9542248 Si02
#       8
#     8   8   8   8   8   8   8   8
#     4  11  21  36  46  69 110 151 207 243 283 339
#     4  11  21  37  57  84 108 151 206 242 306 351
#     4   9  21  37  55  83 103 140 202 246 305 358
#     4  11  20  35  53  75 107 155 203 243 298 352
#     4  11  23  37  54  77 114 152 193 252 297 352
#     4  11  23  37  52  76 115 152 205 246 296 349
#     4  11  24  37  58  82 112 155 201 250 307 360
#     4  11  20  36  60  76 109 146 201 261 297 352
#
# _framework density 18.651399999999999
#
# number of rings (size 3 to 8) (size 9 to 14) (size 15 to 20)
#    0.000    1.250    3.750    5.625    3.500    3.000 
#    0.000    0.000    0.000    0.000    0.000    0.000 
#    0.000    0.000    4.250    0.125    0.000    0.000 
#
# Total GULP energy -178272.546607 kJ/mol
# GULP energy per Si atom -5571.017081 kJ/mol
# Density = 1.860895 g / cm^3
# Si number density = 18.651400 Si / 1000 Ang^3
#
#
#
# Elastic Constant Matrix: (Units=GPa)
#
#
# Indices 1 2 3 4 5 6 
#
# 1 40.7110 21.3303 23.5066 0.0000 0.0000 -3.2147
# 2 21.3303 40.7110 23.5066 0.0000 0.0000 3.2147
# 3 23.5066 23.5066 101.4274 0.0000 0.0000 0.0000
# 4 0.0000 0.0000 0.0000 24.8834 0.0000 0.0000
# 5 0.0000 0.0000 0.0000 0.0000 24.8834 0.0000
# 6 -3.2147 3.2147 0.0000 0.0000 0.0000 21.5808
#
#
#
# Elastic Compliance Matrix: (Units=1/GPa)
#
#
# Indices 1 2 3 4 5 6 
#
# 1 0.036916 -0.017364 -0.004531 0.000000 0.000000 0.008086
# 2 -0.017364 0.036916 -0.004531 0.000000 0.000000 -0.008086
# 3 -0.004531 -0.004531 0.011960 0.000000 0.000000 0.000000
# 4 0.000000 0.000000 0.000000 0.040187 0.000000 0.000000
# 5 0.000000 0.000000 0.000000 0.000000 0.040187 0.000000
# 6 0.008086 -0.008086 0.000000 0.000000 0.000000 0.048747
#
#
# Mechanical properties :
#
#
# Convention : Reuss Voigt Hill
#
# Bulk Modulus (GPa) = 30.35977 35.50404 32.93191
# Shear Modulus (GPa) = 17.93749 21.90325 19.92037
#
# Velocity S-wave (km/s) = 3.10453 3.43059 3.27163
# Velocity P-wave (km/s) = 5.40034 5.89651 5.65387
#
# Compressibility (1/GPa) = 0.03293832
#
# Stress axis : x y z
#
# Youngs Moduli (GPa) = 27.08851 27.08851 83.61473
#
# Poissons Ratio (x) = 0.47036 0.37889
# Poissons Ratio (y) = 0.47036 0.37889
# Poissons Ratio (z) = 0.12275 0.12275
#
# Static dielectric constant tensor:
#      x y z
#    x 1.721970 0.000000 0.000000 
#    y 0.000000 1.721970 0.000000 
#    z 0.000000 0.000000 1.690700 
# 
# From -- ./inp_files/817.got.cif
#   From: 2010.05.17/outbox.cif.g08.bks.cpg/sg80_cif.got.tgz:817.got - 2010.06.03 18:49:13.
