data_PCOD9542879
_publ_section_title
;
Structure prediction by ZEFSAII (Michael W. Deem and Ramdas Pophale) SiO2 
 PCOD9542879
Probable space group: I -4 
;
_chemical_formula_sum "Si O2"
_cell_formula_units_Z 20
_cell_length_a 11.525183
_cell_length_b 11.525183
_cell_length_c 4.699600
_cell_angle_alpha 90.000000
_cell_angle_beta 90.000000
_cell_angle_gamma 90.000000
_cell_volume 624.247131
_symmetry_space_group_name_H-M "I -4 "
_symmetry_group_IT_number 82
_symmetry_cell_setting 'tetragonal'
loop_
_space_group_symop_operation_xyz
x,y,z
y,-x,-z
-x,-y,z
-y,x,-z
1/2+x,1/2+y,1/2+z
1/2+y,1/2-x,1/2-z
1/2-x,1/2-y,1/2+z
1/2-y,1/2+x,1/2-z
loop_
_atom_site_type_symbol
_atom_site_label
_atom_site_fract_x
_atom_site_fract_y
_atom_site_fract_z
Si Si1 0.298940 0.770735 0.836596
Si Si2 0.000000 0.500000 0.750000
Si Si3 0.000000 0.000000 0.500000
Si Si4 0.250315 0.537266 0.828225
O O1 0.271261 0.662170 0.597923
O O2 0.431381 0.775909 0.925671
O O3 0.257959 0.848893 0.558704
O O4 0.998688 0.366069 0.858772
O O5 0.999591 0.114305 0.693855
#
# Coordination Sequence:
#
# PCOD9542879 Si02
#       4
#     8   2   2   8
#     4  11  24  43  68 101 149 192 242 297 378 441
#     4  12  20  40  78 112 146 180 266 320 362 416
#     4   8  20  44  64  98 148 214 232 294 384 474
#     4  10  22  41  71 104 148 194 246 308 372 444
#
# _framework density 32.038594000000003
#
# number of rings (size 3 to 8) (size 9 to 14) (size 15 to 20)
#    0.000    1.600    4.000    0.000    0.000    6.400 
#    0.000    0.000    0.000   14.400    0.000    0.000 
#    0.000    0.000    0.000    0.000    0.000    0.000 
#
# Total GULP energy -55685.185383 kJ/mol
# GULP energy per Si atom -5568.518538 kJ/mol
# Density = 3.196567 g / cm^3
# Si number density = 32.038594 Si / 1000 Ang^3
#
#
#
# Elastic Constant Matrix: (Units=GPa)
#
#
# Indices 1 2 3 4 5 6 
#
# 1 337.5861 4.7962 70.3670 0.0000 0.0000 1.3167
# 2 4.7962 337.5861 70.3670 0.0000 0.0000 -1.3167
# 3 70.3670 70.3670 290.4763 0.0000 0.0000 0.0000
# 4 0.0000 0.0000 0.0000 51.7806 0.0000 0.0000
# 5 0.0000 0.0000 0.0000 0.0000 51.7806 0.0000
# 6 1.3167 -1.3167 0.0000 0.0000 0.0000 45.8472
#
#
#
# Elastic Compliance Matrix: (Units=1/GPa)
#
#
# Indices 1 2 3 4 5 6 
#
# 1 0.003125 0.000119 -0.000786 0.000000 0.000000 -0.000086
# 2 0.000119 0.003125 -0.000786 0.000000 0.000000 0.000086
# 3 -0.000786 -0.000786 0.003823 0.000000 0.000000 0.000000
# 4 0.000000 0.000000 0.000000 0.019312 0.000000 0.000000
# 5 0.000000 0.000000 0.000000 0.000000 0.019312 0.000000
# 6 -0.000086 0.000086 0.000000 0.000000 0.000000 0.021817
#
#
# Mechanical properties :
#
#
# Convention : Reuss Voigt Hill
#
# Bulk Modulus (GPa) = 139.51633 139.63432 139.57532
# Shear Modulus (GPa) = 65.95625 84.55624 75.25624
#
# Velocity S-wave (km/s) = 4.54216 5.14289 4.85183
# Velocity P-wave (km/s) = 8.43499 8.88502 8.66293
#
# Compressibility (1/GPa) = 0.00716762
#
# Stress axis : x y z
#
# Youngs Moduli (GPa) = 320.03681 320.03681 261.55242
#
# Poissons Ratio (x) = -0.03810 0.20552
# Poissons Ratio (y) = -0.03810 0.20552
# Poissons Ratio (z) = 0.25148 0.25148
#
# Static dielectric constant tensor:
#      x y z
#    x 2.521350 0.000000 0.000000 
#    y 0.000000 2.521350 0.000000 
#    z 0.000000 0.000000 2.332600 
# 
# From -- ./inp_files/54.got.cif
#   From: 2010.05.17/outbox.cif.g08.bks.cpg/sg82_1_cif.got.tgz:54.got - 2010.06.03 18:52:26.
