data_PCOD9542567
_publ_section_title
;
Structure prediction by ZEFSAII (Michael W. Deem and Ramdas Pophale) SiO2 
 PCOD9542567
Probable space group: P -4
;
_chemical_formula_sum "Si O2"
_cell_formula_units_Z 19
_cell_length_a 8.462010
_cell_length_b 8.462010
_cell_length_c 11.699953
_cell_angle_alpha 90.000000
_cell_angle_beta 90.000000
_cell_angle_gamma 90.000000
_cell_volume 837.782309
_symmetry_space_group_name_H-M "P -4"
_symmetry_group_IT_number 81
_symmetry_cell_setting 'tetragonal'
loop_
_space_group_symop_operation_xyz
x,y,z
y,-x,-z
-x,-y,z
-y,x,-z
loop_
_atom_site_type_symbol
_atom_site_label
_atom_site_fract_x
_atom_site_fract_y
_atom_site_fract_z
Si Si1 0.500000 0.500000 0.500000
Si Si2 0.500000 0.000000 0.683816
Si Si3 0.428684 0.238079 0.876485
Si Si4 0.504234 0.179569 0.367944
Si Si5 0.567833 0.753046 0.125200
Si Si6 0.760179 0.095547 0.501310
O O1 0.451444 0.345684 0.425162
O O2 0.418124 0.122128 0.770939
O O3 0.636295 0.082978 0.606889
O O4 0.602941 0.316184 0.873448
O O5 0.313811 0.388700 0.870199
O O6 0.406628 0.164517 0.003251
O O7 0.422466 0.162038 0.245961
O O8 0.691929 0.192958 0.392982
O O9 0.500000 0.000000 0.417704
O O10 0.919961 0.186313 0.535797
#
# Coordination Sequence:
#
# PCOD9542567 Si02
#       6
#     1   2   4   4   4   4
#     4  12  28  44  68 106 148 184 240 296 342 456
#     4  12  24  38  68  94 126 176 224 282 350 426
#     4   9  20  38  63  92 126 172 220 275 345 401
#     4  12  25  39  69 101 134 179 229 286 357 418
#     4   9  20  39  62  91 131 169 217 282 332 413
#     4  11  26  45  61  93 135 174 225 287 359 426
#
# _framework density 22.678923000000001
#
# number of rings (size 3 to 8) (size 9 to 14) (size 15 to 20)
#    0.000    1.474    1.053    5.053   10.316    0.000 
#    0.000    0.000    0.000    0.000    0.000    2.947 
#    0.000    0.000    0.000    0.000    0.000    0.000 
#
# Total GULP energy -105817.710872 kJ/mol
# GULP energy per Si atom -5569.353204 kJ/mol
# Density = 2.262730 g / cm^3
# Si number density = 22.678923 Si / 1000 Ang^3
#
#
#
# Elastic Constant Matrix: (Units=GPa)
#
#
# Indices 1 2 3 4 5 6 
#
# 1 74.0744 -0.1471 31.2533 0.0000 0.0000 -4.7046
# 2 -0.1471 74.0744 31.2533 0.0000 0.0000 4.7046
# 3 31.2533 31.2533 146.6356 0.0000 0.0000 0.0000
# 4 0.0000 0.0000 0.0000 25.0759 0.0000 0.0000
# 5 0.0000 0.0000 0.0000 0.0000 25.0759 0.0000
# 6 -4.7046 4.7046 0.0000 0.0000 0.0000 19.3280
#
#
#
# Elastic Compliance Matrix: (Units=1/GPa)
#
#
# Indices 1 2 3 4 5 6 
#
# 1 0.015201 0.001299 -0.003517 0.000000 0.000000 0.003384
# 2 0.001299 0.015201 -0.003517 0.000000 0.000000 -0.003384
# 3 -0.003517 -0.003517 0.008319 0.000000 0.000000 0.000000
# 4 0.000000 0.000000 0.000000 0.039879 0.000000 0.000000
# 5 0.000000 0.000000 0.000000 0.000000 0.039879 0.000000
# 6 0.003384 -0.003384 0.000000 0.000000 0.000000 0.053386
#
#
# Mechanical properties :
#
#
# Convention : Reuss Voigt Hill
#
# Bulk Modulus (GPa) = 36.69440 46.61150 41.65295
# Shear Modulus (GPa) = 25.98508 29.39094 27.68801
#
# Velocity S-wave (km/s) = 3.38861 3.60385 3.49789
# Velocity P-wave (km/s) = 5.61474 6.15746 5.89235
#
# Compressibility (1/GPa) = 0.02725212
#
# Stress axis : x y z
#
# Youngs Moduli (GPa) = 65.78414 65.78414 120.21051
#
# Poissons Ratio (x) = -0.08546 0.42276
# Poissons Ratio (y) = -0.08546 0.42276
# Poissons Ratio (z) = 0.23135 0.23135
#
# Static dielectric constant tensor:
#      x y z
#    x 2.077370 0.000000 0.000000 
#    y 0.000000 2.077370 0.000000 
#    z 0.000000 0.000000 1.945500 
# 
# From -- ./inp_files/1291.got.cif
#   From: 2010.05.17/outbox.cif.g08.bks.cpg/sg81_cif.got.tgz:1291.got - 2010.06.03 18:51:07.
