data_PCOD9542106
_publ_section_title
;
Structure prediction by ZEFSAII (Michael W. Deem and Ramdas Pophale) SiO2 
 PCOD9542106
Probable space group: I 41
;
_chemical_formula_sum "Si O2"
_cell_formula_units_Z 60
_cell_length_a 12.511970
_cell_length_b 12.511970
_cell_length_c 18.779575
_cell_angle_alpha 90.000000
_cell_angle_beta 90.000000
_cell_angle_gamma 90.000000
_cell_volume 2939.931072
_symmetry_space_group_name_H-M "I 41"
_symmetry_group_IT_number 80
_symmetry_cell_setting 'tetragonal'
loop_
_space_group_symop_operation_xyz
x,y,z
-y,1/2+x,1/4+z
-x,-y,z
y,1/2-x,1/4+z
1/2+x,1/2+y,1/2+z
1/2-y,x,3/4+z
1/2-x,1/2-y,1/2+z
1/2+y,-x,3/4+z
loop_
_atom_site_type_symbol
_atom_site_label
_atom_site_fract_x
_atom_site_fract_y
_atom_site_fract_z
Si Si1 0.709889 0.223272 0.434370
Si Si2 0.325181 0.148574 0.116130
Si Si3 0.000000 0.000000 0.293569
Si Si4 0.543634 0.352260 0.513088
Si Si5 0.162273 0.554837 0.426930
Si Si6 0.890266 0.853887 0.529768
Si Si7 0.141950 0.897362 0.539319
Si Si8 0.428301 0.169766 0.749406
O O1 0.613945 0.252653 0.488635
O O2 0.774695 0.333438 0.424329
O O3 0.788531 0.139626 0.471659
O O4 0.661457 0.185537 0.359807
O O5 0.318736 0.145853 0.200836
O O6 0.222802 0.098109 0.075462
O O7 0.425339 0.074469 0.091603
O O8 0.347508 0.266119 0.084934
O O9 0.065891 0.925514 0.238792
O O10 0.533459 0.370807 0.596952
O O11 0.424219 0.346224 0.481980
O O12 0.608604 0.458509 0.492320
O O13 0.230709 0.450178 0.448620
O O14 0.019128 0.861838 0.529967
O O15 0.852077 0.974519 0.545852
#
# Coordination Sequence:
#
# PCOD9542106 Si02
#       8
#     8   8   4   8   8   8   8   8
#     4  11  22  40  69  94 124 171 222 260 323 385
#     4  11  24  41  66  98 127 177 205 273 325 404
#     4  10  20  36  64 102 138 156 224 260 346 380
#     4  10  20  39  60  93 132 165 212 269 316 379
#     4  10  20  35  63  98 124 175 204 275 320 394
#     4  11  26  44  66  91 134 164 218 263 333 384
#     4  11  24  43  67  93 127 167 213 274 315 391
#     4   9  22  35  61  91 133 161 212 260 329 368
#
# _framework density 20.408643000000001
#
# number of rings (size 3 to 8) (size 9 to 14) (size 15 to 20)
#    0.000    1.600    1.333    3.200    7.467    2.133 
#    0.000    0.000    0.000    0.000    0.000    0.000 
#    0.000    0.000    0.000    0.000    0.000    0.000 
#
# Total GULP energy -167504.587944 kJ/mol
# GULP energy per Si atom -5583.486265 kJ/mol
# Density = 2.036219 g / cm^3
# Si number density = 20.408643 Si / 1000 Ang^3
#
#
#
# Elastic Constant Matrix: (Units=GPa)
#
#
# Indices 1 2 3 4 5 6 
#
# 1 84.9318 35.4247 16.2009 0.0000 0.0000 -1.8611
# 2 35.4247 84.9318 16.2009 0.0000 0.0000 1.8611
# 3 16.2009 16.2009 74.5645 0.0000 0.0000 0.0000
# 4 0.0000 0.0000 0.0000 9.4159 0.0000 0.0000
# 5 0.0000 0.0000 0.0000 0.0000 9.4159 0.0000
# 6 -1.8611 1.8611 0.0000 0.0000 0.0000 16.7179
#
#
#
# Elastic Compliance Matrix: (Units=1/GPa)
#
#
# Indices 1 2 3 4 5 6 
#
# 1 0.014597 -0.005772 -0.001917 0.000000 0.000000 0.002268
# 2 -0.005772 0.014597 -0.001917 0.000000 0.000000 -0.002268
# 3 -0.001917 -0.001917 0.014244 0.000000 0.000000 0.000000
# 4 0.000000 0.000000 0.000000 0.106203 0.000000 0.000000
# 5 0.000000 0.000000 0.000000 0.000000 0.106203 0.000000
# 6 0.002268 -0.002268 0.000000 0.000000 0.000000 0.060321
#
#
# Mechanical properties :
#
#
# Convention : Reuss Voigt Hill
#
# Bulk Modulus (GPa) = 41.28053 42.23121 41.75587
# Shear Modulus (GPa) = 14.55796 18.88341 16.72069
#
# Velocity S-wave (km/s) = 2.67371 3.04512 2.86544
# Velocity P-wave (km/s) = 5.45917 5.75338 5.60820
#
# Compressibility (1/GPa) = 0.02422449
#
# Stress axis : x y z
#
# Youngs Moduli (GPa) = 68.50618 68.50618 70.20295
#
# Poissons Ratio (x) = 0.39544 0.13461
# Poissons Ratio (y) = 0.39544 0.13461
# Poissons Ratio (z) = 0.13135 0.13135
#
# Static dielectric constant tensor:
#      x y z
#    x 1.761160 0.000000 0.000000 
#    y 0.000000 1.761160 0.000000 
#    z 0.000000 0.000000 1.711740 
# 
# From -- ./inp_files/1853.got.cif
#   From: 2010.05.17/outbox.cif.g08.bks.cpg/sg80_cif.got.tgz:1853.got - 2010.06.03 18:49:13.
