data_PCOD9542809
_publ_section_title
;
Structure prediction by ZEFSAII (Michael W. Deem and Ramdas Pophale) SiO2 
 PCOD9542809
Probable space group: I -4 
;
_chemical_formula_sum "Si O2"
_cell_formula_units_Z 48
_cell_length_a 14.349175
_cell_length_b 14.349175
_cell_length_c 12.104952
_cell_angle_alpha 90.000000
_cell_angle_beta 90.000000
_cell_angle_gamma 90.000000
_cell_volume 2492.395371
_symmetry_space_group_name_H-M "I -4 "
_symmetry_group_IT_number 82
_symmetry_cell_setting 'tetragonal'
loop_
_space_group_symop_operation_xyz
x,y,z
y,-x,-z
-x,-y,z
-y,x,-z
1/2+x,1/2+y,1/2+z
1/2+y,1/2-x,1/2-z
1/2-x,1/2-y,1/2+z
1/2-y,1/2+x,1/2-z
loop_
_atom_site_type_symbol
_atom_site_label
_atom_site_fract_x
_atom_site_fract_y
_atom_site_fract_z
Si Si1 0.645868 0.554913 0.497544
Si Si2 0.344799 0.748944 0.321192
Si Si3 0.868411 0.668621 0.129222
Si Si4 0.760664 0.392846 0.991666
Si Si5 0.186744 0.416678 0.348557
Si Si6 0.108596 0.752163 0.568159
O O1 0.614568 0.448137 0.489774
O O2 0.712260 0.571238 0.602638
O O3 0.707538 0.589275 0.394068
O O4 0.268707 0.665898 0.326341
O O5 0.297032 0.835604 0.384277
O O6 0.374672 0.767064 0.196856
O O7 0.823132 0.599472 0.218595
O O8 0.978413 0.656231 0.126612
O O9 0.826923 0.654260 0.008492
O O10 0.839912 0.373349 0.084859
O O11 0.665877 0.344799 0.034640
O O12 0.745574 0.500023 0.962353
#
# Coordination Sequence:
#
# PCOD9542809 Si02
#       6
#     8   8   8   8   8   8
#     4  10  21  38  67  97 123 166 222 272 318 382
#     4  10  22  42  62  95 128 167 209 268 323 381
#     4  11  23  38  66  91 128 171 211 268 315 390
#     4  10  24  42  66  92 128 173 209 267 322 382
#     4  11  22  41  65  94 129 167 222 264 321 381
#     4  11  24  43  63  94 133 166 216 260 333 384
#
# _framework density 19.258581
#
# number of rings (size 3 to 8) (size 9 to 14) (size 15 to 20)
#    0.000    1.500    3.333    1.000    0.000    8.000 
#    0.000    1.667    0.000    0.000    0.000    0.000 
#    0.000    0.000    0.000    0.000    0.000    0.000 
#
# Total GULP energy -134042.929431 kJ/mol
# GULP energy per Si atom -5585.122060 kJ/mol
# Density = 1.921475 g / cm^3
# Si number density = 19.258581 Si / 1000 Ang^3
#
#
#
# Elastic Constant Matrix: (Units=GPa)
#
#
# Indices 1 2 3 4 5 6 
#
# 1 97.4221 21.8070 35.3102 0.0000 0.0000 5.3628
# 2 21.8070 97.4221 35.3102 0.0000 0.0000 -5.3628
# 3 35.3102 35.3102 109.5924 0.0000 0.0000 0.0000
# 4 0.0000 0.0000 0.0000 20.1396 0.0000 0.0000
# 5 0.0000 0.0000 0.0000 0.0000 20.1396 0.0000
# 6 5.3628 -5.3628 0.0000 0.0000 0.0000 15.3108
#
#
#
# Elastic Compliance Matrix: (Units=1/GPa)
#
#
# Indices 1 2 3 4 5 6 
#
# 1 0.012141 -0.001775 -0.003340 0.000000 0.000000 -0.004874
# 2 -0.001775 0.012141 -0.003340 0.000000 0.000000 0.004874
# 3 -0.003340 -0.003340 0.011277 0.000000 0.000000 0.000000
# 4 0.000000 0.000000 0.000000 0.049653 0.000000 0.000000
# 5 0.000000 0.000000 0.000000 0.000000 0.049653 0.000000
# 6 -0.004874 0.004874 0.000000 0.000000 0.000000 0.068728
#
#
# Mechanical properties :
#
#
# Convention : Reuss Voigt Hill
#
# Bulk Modulus (GPa) = 53.62284 54.36572 53.99428
# Shear Modulus (GPa) = 22.05375 25.25195 23.65285
#
# Velocity S-wave (km/s) = 3.38766 3.62498 3.50833
# Velocity P-wave (km/s) = 6.57311 6.76841 6.67147
#
# Compressibility (1/GPa) = 0.01864877
#
# Stress axis : x y z
#
# Youngs Moduli (GPa) = 82.36689 82.36689 88.67783
#
# Poissons Ratio (x) = 0.14624 0.29615
# Poissons Ratio (y) = 0.14624 0.29615
# Poissons Ratio (z) = 0.27508 0.27508
#
# Static dielectric constant tensor:
#      x y z
#    x 1.677750 0.000000 0.000000 
#    y 0.000000 1.677750 0.000000 
#    z 0.000000 0.000000 1.672180 
# 
# From -- ./inp_files/1786.got.cif
#   From: 2010.05.17/outbox.cif.g08.bks.cpg/sg82_1_cif.got.tgz:1786.got - 2010.06.03 18:52:26.
