data_PCOD9542043
_publ_section_title
;
Structure prediction by ZEFSAII (Michael W. Deem and Ramdas Pophale) SiO2 
 PCOD9542043
Probable space group: I 4
;
_chemical_formula_sum "Si O2"
_cell_formula_units_Z 46
_cell_length_a 8.654196
_cell_length_b 8.654196
_cell_length_c 30.437487
_cell_angle_alpha 90.000000
_cell_angle_beta 90.000000
_cell_angle_gamma 90.000000
_cell_volume 2279.618888
_symmetry_space_group_name_H-M "I 4"
_symmetry_group_IT_number 79
_symmetry_cell_setting 'tetragonal'
loop_
_space_group_symop_operation_xyz
x,y,z
-y,x,z
-x,-y,z
y,-x,z
1/2+x,1/2+y,1/2+z
1/2-y,1/2+x,1/2+z
1/2-x,1/2-y,1/2+z
1/2+y,1/2-x,1/2+z
loop_
_atom_site_type_symbol
_atom_site_label
_atom_site_fract_x
_atom_site_fract_y
_atom_site_fract_z
Si Si1 0.913934 0.247343 0.385890
Si Si2 0.609589 0.264112 0.156316
Si Si3 0.000000 0.500000 0.320430
Si Si4 0.670241 0.072141 0.070431
Si Si5 0.235889 0.109588 0.484545
Si Si6 0.000000 0.000000 0.070430
Si Si7 0.252657 0.413934 0.254971
O O1 0.876049 0.303329 0.435394
O O2 0.092071 0.188416 0.381380
O O3 0.900792 0.384648 0.351124
O O4 0.696408 0.428033 0.152860
O O5 0.667840 0.162583 0.116606
O O6 0.623951 0.196671 0.205467
O O7 0.115352 0.400792 0.289737
O O8 0.815337 0.957301 0.070430
O O9 0.500000 0.000000 0.070431
O O10 0.667839 0.162583 0.024255
O O11 0.071968 0.196408 0.488001
O O12 0.407930 0.311584 0.259481
#
# Coordination Sequence:
#
# PCOD9542043 Si02
#       7
#     8   8   4   8   8   2   8
#     4   9  20  37  57  82 118 154 203 261 310 385
#     4   9  18  36  61  87 114 162 218 253 309 397
#     4  12  20  32  60  86 116 152 208 260 340 374
#     4  12  24  39  64  87 136 178 198 260 338 364
#     4   9  18  36  61  87 114 162 218 253 309 397
#     4  12  28  44  60 112 140 164 236 284 284 408
#     4   9  20  37  57  82 118 154 203 261 310 385
#
# _framework density 20.178809999999999
#
# number of rings (size 3 to 8) (size 9 to 14) (size 15 to 20)
#    0.000    2.087    0.000    6.261    2.435    1.391 
#    0.000    0.000    0.000    0.000    0.000    0.000 
#    0.000    0.000    0.000    0.000    0.000    0.000 
#
# Total GULP energy -128042.041190 kJ/mol
# GULP energy per Si atom -5567.045269 kJ/mol
# Density = 2.013288 g / cm^3
# Si number density = 20.178810 Si / 1000 Ang^3
#
#
#
# Elastic Constant Matrix: (Units=GPa)
#
#
# Indices 1 2 3 4 5 6 
#
# 1 43.3527 12.7152 44.4717 0.0000 0.0000 2.9971
# 2 12.7152 43.3527 44.4717 0.0000 0.0000 -2.9971
# 3 44.4717 44.4717 166.3217 0.0000 0.0000 0.0000
# 4 0.0000 0.0000 0.0000 21.9310 0.0000 0.0000
# 5 0.0000 0.0000 0.0000 0.0000 21.9310 0.0000
# 6 2.9971 -2.9971 0.0000 0.0000 0.0000 18.8907
#
#
#
# Elastic Compliance Matrix: (Units=1/GPa)
#
#
# Indices 1 2 3 4 5 6 
#
# 1 0.032329 -0.001356 -0.008282 0.000000 0.000000 -0.005344
# 2 -0.001356 0.032329 -0.008282 0.000000 0.000000 0.005344
# 3 -0.008282 -0.008282 0.010441 0.000000 0.000000 0.000000
# 4 0.000000 0.000000 0.000000 0.045598 0.000000 0.000000
# 5 0.000000 0.000000 0.000000 0.000000 0.045598 0.000000
# 6 -0.005344 0.005344 0.000000 0.000000 0.000000 0.054632
#
#
# Mechanical properties :
#
#
# Convention : Reuss Voigt Hill
#
# Bulk Modulus (GPa) = 25.47064 50.70493 38.08778
# Shear Modulus (GPa) = 18.52861 22.64177 20.58519
#
# Velocity S-wave (km/s) = 3.03350 3.35335 3.19743
# Velocity P-wave (km/s) = 4.99193 6.33842 5.70504
#
# Compressibility (1/GPa) = 0.03926089
#
# Stress axis : x y z
#
# Youngs Moduli (GPa) = 30.93165 30.93166 95.77375
#
# Poissons Ratio (x) = 0.04194 0.79318
# Poissons Ratio (y) = 0.04194 0.79318
# Poissons Ratio (z) = 0.25617 0.25617
#
# Static dielectric constant tensor:
#      x y z
#    x 1.733290 0.000000 0.000000 
#    y 0.000000 1.733290 0.000000 
#    z 0.000000 0.000000 1.720900 
# 
# From -- ./inp_files/2123.got.cif
#   From: 2010.05.17/outbox.cif.g08.bks.cpg/sg79_cif.got.tgz:2123.got - 2010.06.03 18:47:27.
