data_PCOD9542552
_publ_section_title
;
Structure prediction by ZEFSAII (Michael W. Deem and Ramdas Pophale) SiO2 
 PCOD9542552
Probable space group: P -4
;
_chemical_formula_sum "Si O2"
_cell_formula_units_Z 23
_cell_length_a 8.969503
_cell_length_b 8.969503
_cell_length_c 12.845149
_cell_angle_alpha 90.000000
_cell_angle_beta 90.000000
_cell_angle_gamma 90.000000
_cell_volume 1033.417723
_symmetry_space_group_name_H-M "P -4"
_symmetry_group_IT_number 81
_symmetry_cell_setting 'tetragonal'
loop_
_space_group_symop_operation_xyz
x,y,z
y,-x,-z
-x,-y,z
-y,x,-z
loop_
_atom_site_type_symbol
_atom_site_label
_atom_site_fract_x
_atom_site_fract_y
_atom_site_fract_z
Si Si1 0.000000 0.000000 0.500000
Si Si2 0.025726 0.678571 0.126151
Si Si3 0.500000 0.000000 0.584311
Si Si4 0.779132 0.307801 0.918712
Si Si5 0.250170 0.625648 0.294243
Si Si6 0.708081 0.104694 0.406126
Si Si7 0.500000 0.500000 0.860536
Si Si8 0.500000 0.000000 0.222738
O O1 0.932179 0.878036 0.576625
O O2 0.127117 0.716178 0.226202
O O3 0.000000 0.500000 0.125138
O O4 0.861204 0.750879 0.121648
O O5 0.130745 0.710515 0.026463
O O6 0.500877 0.146439 0.655980
O O7 0.633502 0.024858 0.504154
O O8 0.621792 0.397289 0.920673
O O9 0.878691 0.417937 0.848200
O O10 0.309944 0.718278 0.392604
O O11 0.380034 0.578754 0.216399
O O12 0.629511 0.052418 0.300626
#
# Coordination Sequence:
#
# PCOD9542552 Si02
#       8
#     1   4   2   4   4   4   2   2
#     4  12  24  44  76 108 146 200 248 304 376 452
#     4  12  28  47  75 109 151 194 249 310 378 449
#     4  11  24  47  70 102 156 183 256 313 366 448
#     4  12  28  50  73 115 151 200 248 314 378 457
#     4  12  25  47  72 112 141 201 248 311 374 436
#     4  11  26  43  73 107 145 196 243 309 375 438
#     4  12  26  47  85 104 152 198 259 312 369 454
#     4  11  26  49  74 108 152 191 254 309 374 456
#
# _framework density 22.256243999999999
#
# number of rings (size 3 to 8) (size 9 to 14) (size 15 to 20)
#    0.000    0.348    6.957    0.000    7.304    3.826 
#    0.000    0.000    0.000    0.000    0.000    0.000 
#    0.000    0.000    0.000    0.000    0.000    0.000 
#
# Total GULP energy -128367.497567 kJ/mol
# GULP energy per Si atom -5581.195546 kJ/mol
# Density = 2.220559 g / cm^3
# Si number density = 22.256244 Si / 1000 Ang^3
#
#
#
# Elastic Constant Matrix: (Units=GPa)
#
#
# Indices 1 2 3 4 5 6 
#
# 1 107.6394 38.9866 33.1578 0.0000 0.0000 -3.4857
# 2 38.9866 107.6394 33.1578 0.0000 0.0000 3.4857
# 3 33.1578 33.1578 84.7443 0.0000 0.0000 0.0000
# 4 0.0000 0.0000 0.0000 -12.3620 0.0000 0.0000
# 5 0.0000 0.0000 0.0000 0.0000 -12.3620 0.0000
# 6 -3.4857 3.4857 0.0000 0.0000 0.0000 39.0793
#
#
#
# Elastic Compliance Matrix: (Units=1/GPa)
#
#
# Indices 1 2 3 4 5 6 
#
# 1 0.011493 -0.003206 -0.003242 0.000000 0.000000 0.001311
# 2 -0.003206 0.011493 -0.003242 0.000000 0.000000 -0.001311
# 3 -0.003242 -0.003242 0.014337 0.000000 0.000000 0.000000
# 4 0.000000 0.000000 0.000000 -0.080893 0.000000 0.000000
# 5 0.000000 0.000000 0.000000 0.000000 -0.080893 0.000000
# 6 0.001311 -0.001311 0.000000 0.000000 0.000000 0.025823
#
#
# Mechanical properties :
#
#
# Convention : Reuss Voigt Hill
#
# Bulk Modulus (GPa) = 55.73712 56.73639 56.23676
# Shear Modulus (GPa) = -68.23333 15.85245 -26.19044
#
# Velocity S-wave (km/s) = -5.54298 2.67173 -3.43413
# Velocity P-wave (km/s) = 3.98352 5.92159 3.09813
#
# Compressibility (1/GPa) = 0.01794136
#
# Stress axis : x y z
#
# Youngs Moduli (GPa) = 87.01087 87.01087 69.74779
#
# Poissons Ratio (x) = 0.27899 0.22614
# Poissons Ratio (y) = 0.27899 0.22614
# Poissons Ratio (z) = 0.28211 0.28211
#
# Static dielectric constant tensor:
#      x y z
#    x 1.901890 0.000000 0.000000 
#    y 0.000000 1.901890 0.000000 
#    z 0.000000 0.000000 1.828910 
# 
# From -- ./inp_files/1660.got.cif
#   From: 2010.05.17/outbox.cif.g08.bks.cpg/sg81_cif.got.tgz:1660.got - 2010.06.03 18:51:07.
