data_PCOD9542265
_publ_section_title
;
Structure prediction by ZEFSAII (Michael W. Deem and Ramdas Pophale) SiO2 
 PCOD9542265
Probable space group: I 41
;
_chemical_formula_sum "Si O2"
_cell_formula_units_Z 48
_cell_length_a 11.199720
_cell_length_b 11.199720
_cell_length_c 17.439645
_cell_angle_alpha 90.000000
_cell_angle_beta 90.000000
_cell_angle_gamma 90.000000
_cell_volume 2187.519689
_symmetry_space_group_name_H-M "I 41"
_symmetry_group_IT_number 80
_symmetry_cell_setting 'tetragonal'
loop_
_space_group_symop_operation_xyz
x,y,z
-y,1/2+x,1/4+z
-x,-y,z
y,1/2-x,1/4+z
1/2+x,1/2+y,1/2+z
1/2-y,x,3/4+z
1/2-x,1/2-y,1/2+z
1/2+y,-x,3/4+z
loop_
_atom_site_type_symbol
_atom_site_label
_atom_site_fract_x
_atom_site_fract_y
_atom_site_fract_z
Si Si1 0.207264 0.645636 0.456640
Si Si2 0.268999 0.044260 0.229757
Si Si3 0.306529 0.457184 0.055216
Si Si4 0.599480 0.742177 0.798710
Si Si5 0.303096 0.399798 0.234951
Si Si6 0.852465 0.311590 0.046140
O O1 0.225443 0.523186 0.502270
O O2 0.219254 0.631969 0.366199
O O3 0.317796 0.730443 0.474871
O O4 0.088583 0.715044 0.482559
O O5 0.398011 0.073227 0.267970
O O6 0.261339 0.079142 0.139818
O O7 0.179769 0.129140 0.276205
O O8 0.299175 0.418198 0.143943
O O9 0.208653 0.389273 0.004265
O O10 0.253954 0.591984 0.054254
O O11 0.674623 0.857887 0.769676
O O12 0.356373 0.515637 0.277128
#
# Coordination Sequence:
#
# PCOD9542265 Si02
#       6
#     8   8   8   8   8   8
#     4  12  25  45  68 102 143 182 233 295 358 419
#     4  11  24  45  70 100 138 188 235 293 356 428
#     4  11  24  45  70 100 138 188 235 293 356 428
#     4  11  23  44  72 103 141 180 240 292 358 431
#     4  11  23  44  72 103 141 180 240 292 358 431
#     4  12  25  45  68 102 143 182 233 295 358 419
#
# _framework density 21.942658999999999
#
# number of rings (size 3 to 8) (size 9 to 14) (size 15 to 20)
#    0.000    0.667    3.333    7.000    0.000    4.000 
#    6.000    0.000    0.000    0.000    0.000    0.000 
#    0.000    0.000    0.000    0.000    0.000    0.000 
#
# Total GULP energy -133914.749439 kJ/mol
# GULP energy per Si atom -5579.781227 kJ/mol
# Density = 2.189272 g / cm^3
# Si number density = 21.942659 Si / 1000 Ang^3
#
#
#
# Elastic Constant Matrix: (Units=GPa)
#
#
# Indices 1 2 3 4 5 6 
#
# 1 -20.5435 139.5231 15.0450 0.0000 0.0000 -98.5044
# 2 139.5231 -20.5435 15.0450 0.0000 0.0000 98.5044
# 3 15.0450 15.0450 92.2009 0.0000 0.0000 0.0000
# 4 0.0000 0.0000 0.0000 -0.3029 0.0000 0.0000
# 5 0.0000 0.0000 0.0000 0.0000 -0.3029 0.0000
# 6 -98.5044 98.5044 0.0000 0.0000 0.0000 -56.1468
#
#
#
# Elastic Compliance Matrix: (Units=1/GPa)
#
#
# Indices 1 2 3 4 5 6 
#
# 1 0.007078 0.001689 -0.001431 0.000000 0.000000 -0.009454
# 2 0.001689 0.007078 -0.001431 0.000000 0.000000 0.009454
# 3 -0.001431 -0.001431 0.011313 0.000000 0.000000 0.000000
# 4 0.000000 0.000000 0.000000 -3.301515 0.000000 0.000000
# 5 0.000000 0.000000 0.000000 0.000000 -3.301509 0.000000
# 6 -0.009454 0.009454 0.000000 0.000000 0.000000 0.015363
#
#
# Mechanical properties :
#
#
# Convention : Reuss Voigt Hill
#
# Bulk Modulus (GPa) = 43.24535 43.37115 43.30825
# Shear Modulus (GPa) = -0.76311 -19.25047 -10.00679
#
# Velocity S-wave (km/s) = -0.59036 -2.96515 -2.13783
# Velocity P-wave (km/s) = 4.39163 2.84355 3.69947
#
# Compressibility (1/GPa) = 0.02312388
#
# Stress axis : x y z
#
# Youngs Moduli (GPa) = 141.28821 141.28821 88.39602
#
# Poissons Ratio (x) = -0.23861 0.12645
# Poissons Ratio (y) = -0.23861 0.12645
# Poissons Ratio (z) = 0.20211 0.20211
#
# Static dielectric constant tensor:
#      x y z
#    x 1.817090 0.000000 0.000000 
#    y 0.000000 1.817090 0.000000 
#    z 0.000000 0.000000 1.748310 
# 
# From -- ./inp_files/1535.got.cif
#   From: 2010.05.17/outbox.cif.g08.bks.cpg/sg80_cif.got.tgz:1535.got - 2010.06.03 18:49:13.
