data_PCOD9542481
_publ_section_title
;
Structure prediction by ZEFSAII (Michael W. Deem and Ramdas Pophale) SiO2 
 PCOD9542481
Probable space group: P -4
;
_chemical_formula_sum "Si O2"
_cell_formula_units_Z 25
_cell_length_a 14.341328
_cell_length_b 14.341328
_cell_length_c 5.450158
_cell_angle_alpha 90.000000
_cell_angle_beta 90.000000
_cell_angle_gamma 90.000000
_cell_volume 1120.954100
_symmetry_space_group_name_H-M "P -4"
_symmetry_group_IT_number 81
_symmetry_cell_setting 'tetragonal'
loop_
_space_group_symop_operation_xyz
x,y,z
y,-x,-z
-x,-y,z
-y,x,-z
loop_
_atom_site_type_symbol
_atom_site_label
_atom_site_fract_x
_atom_site_fract_y
_atom_site_fract_z
Si Si1 0.483862 0.228432 0.049265
Si Si2 0.655940 0.504226 0.466400
Si Si3 0.944122 0.584609 0.184365
Si Si4 0.000000 0.000000 0.000000
Si Si5 0.892778 0.142744 0.210327
Si Si6 0.897102 0.309997 0.873423
Si Si7 0.249432 0.952154 0.515831
O O1 0.488705 0.291752 0.798216
O O2 0.543705 0.136177 0.985541
O O3 0.518121 0.277290 0.298031
O O4 0.380666 0.189247 0.118354
O O5 0.592092 0.414435 0.535595
O O6 0.000000 0.500000 0.311130
O O7 0.905047 0.660872 0.365686
O O8 0.024163 0.640538 0.040861
O O9 0.965403 0.912590 0.849217
O O10 0.992373 0.177775 0.310105
O O11 0.806457 0.130610 0.387827
O O12 0.867627 0.212103 0.992701
O O13 0.957676 0.289277 0.632488
#
# Coordination Sequence:
#
# PCOD9542481 Si02
#       7
#     4   4   4   1   4   4   4
#     4  11  25  46  77 108 142 186 236 289 359 430
#     4  11  26  51  76 108 145 184 228 289 366 439
#     4   9  23  42  66 100 133 183 228 290 367 418
#     4  12  20  42  60  84 142 184 252 274 372 400
#     4  11  23  39  60  94 129 190 237 299 345 412
#     4  10  24  42  63  98 142 178 238 297 341 420
#     4  11  23  41  66  91 138 186 240 296 351 418
#
# _framework density 22.302427000000002
#
# number of rings (size 3 to 8) (size 9 to 14) (size 15 to 20)
#    0.000    1.440    1.600    1.920    8.960    3.200 
#    5.760    0.000    0.000    0.000    0.000    0.000 
#    0.000    0.000    0.000    0.000    0.000    0.000 
#
# Total GULP energy -139443.555829 kJ/mol
# GULP energy per Si atom -5577.742233 kJ/mol
# Density = 2.225167 g / cm^3
# Si number density = 22.302427 Si / 1000 Ang^3
#
#
#
# Elastic Constant Matrix: (Units=GPa)
#
#
# Indices 1 2 3 4 5 6 
#
# 1 76.0926 18.4290 14.5374 0.0000 0.0000 -5.3321
# 2 18.4290 76.0926 14.5374 0.0000 0.0000 5.3321
# 3 14.5374 14.5374 63.9126 0.0000 0.0000 0.0000
# 4 0.0000 0.0000 0.0000 30.1446 0.0000 0.0000
# 5 0.0000 0.0000 0.0000 0.0000 30.1446 0.0000
# 6 -5.3321 5.3321 0.0000 0.0000 0.0000 28.8088
#
#
#
# Elastic Compliance Matrix: (Units=1/GPa)
#
#
# Indices 1 2 3 4 5 6 
#
# 1 0.014666 -0.003291 -0.002587 0.000000 0.000000 0.003324
# 2 -0.003291 0.014666 -0.002587 0.000000 0.000000 -0.003324
# 3 -0.002587 -0.002587 0.016823 0.000000 0.000000 0.000000
# 4 0.000000 0.000000 0.000000 0.033173 0.000000 0.000000
# 5 0.000000 0.000000 0.000000 0.000000 0.033173 0.000000
# 6 0.003324 -0.003324 0.000000 0.000000 0.000000 0.035942
#
#
# Mechanical properties :
#
#
# Convention : Reuss Voigt Hill
#
# Bulk Modulus (GPa) = 34.21770 34.56728 34.39249
# Shear Modulus (GPa) = 28.55237 29.05919 28.80578
#
# Velocity S-wave (km/s) = 3.58192 3.61357 3.59778
# Velocity P-wave (km/s) = 5.69937 5.73964 5.71954
#
# Compressibility (1/GPa) = 0.02922464
#
# Stress axis : x y z
#
# Youngs Moduli (GPa) = 68.18469 68.18469 59.44096
#
# Poissons Ratio (x) = 0.22437 0.15380
# Poissons Ratio (y) = 0.22437 0.15380
# Poissons Ratio (z) = 0.17642 0.17642
#
# Static dielectric constant tensor:
#      x y z
#    x 1.839730 0.000000 0.000000 
#    y 0.000000 1.839730 0.000000 
#    z 0.000000 0.000000 1.954600 
# 
# From -- ./inp_files/345.got.cif
#   From: 2010.05.17/outbox.cif.g08.bks.cpg/sg81_cif.got.tgz:345.got - 2010.06.03 18:51:07.
