data_PCOD9542534
_publ_section_title
;
Structure prediction by ZEFSAII (Michael W. Deem and Ramdas Pophale) SiO2 
 PCOD9542534
Probable space group: P -4
;
_chemical_formula_sum "Si O2"
_cell_formula_units_Z 13
_cell_length_a 8.417084
_cell_length_b 8.417084
_cell_length_c 7.970319
_cell_angle_alpha 90.000000
_cell_angle_beta 90.000000
_cell_angle_gamma 90.000000
_cell_volume 564.675606
_symmetry_space_group_name_H-M "P -4"
_symmetry_group_IT_number 81
_symmetry_cell_setting 'tetragonal'
loop_
_space_group_symop_operation_xyz
x,y,z
y,-x,-z
-x,-y,z
-y,x,-z
loop_
_atom_site_type_symbol
_atom_site_label
_atom_site_fract_x
_atom_site_fract_y
_atom_site_fract_z
Si Si1 0.719417 0.797800 0.657237
Si Si2 0.000000 0.000000 0.500000
Si Si3 0.763615 0.881032 0.003762
Si Si4 0.822027 0.448448 0.698052
O O1 0.724815 0.610445 0.694694
O O2 0.619331 0.820410 0.489442
O O3 0.664447 0.873086 0.831754
O O4 0.887969 0.883101 0.608779
O O5 0.682165 0.790731 0.159135
O O6 0.933952 0.800432 0.964494
O O7 0.000000 0.500000 0.739282
#
# Coordination Sequence:
#
# PCOD9542534 Si02
#       4
#     4   1   4   4
#     4  12  25  45  72 102 143 183 236 292 352 414
#     4  12  20  44  78 104 128 182 252 304 334 404
#     4  11  23  42  72 106 138 178 238 300 344 408
#     4  12  26  44  70 107 139 186 234 285 357 415
#
# _framework density 23.022068000000001
#
# number of rings (size 3 to 8) (size 9 to 14) (size 15 to 20)
#    0.000    0.308    6.154    3.692    0.000    4.308 
#    0.000    0.000    0.000    0.000    0.000    0.000 
#    0.000    0.000    0.000    0.000    0.000    0.000 
#
# Total GULP energy -72669.396766 kJ/mol
# GULP energy per Si atom -5589.953597 kJ/mol
# Density = 2.296967 g / cm^3
# Si number density = 23.022068 Si / 1000 Ang^3
#
#
#
# Elastic Constant Matrix: (Units=GPa)
#
#
# Indices 1 2 3 4 5 6 
#
# 1 61.1858 3.8520 12.1029 0.0000 0.0000 1.4719
# 2 3.8520 61.1858 12.1029 0.0000 0.0000 -1.4719
# 3 12.1029 12.1029 153.5968 0.0000 0.0000 0.0000
# 4 0.0000 0.0000 0.0000 -21.6311 0.0000 0.0000
# 5 0.0000 0.0000 0.0000 0.0000 -21.6311 0.0000
# 6 1.4719 -1.4719 0.0000 0.0000 0.0000 13.6129
#
#
#
# Elastic Compliance Matrix: (Units=1/GPa)
#
#
# Indices 1 2 3 4 5 6 
#
# 1 0.016690 -0.000849 -0.001248 0.000000 0.000000 -0.001896
# 2 -0.000849 0.016690 -0.001248 0.000000 0.000000 0.001896
# 3 -0.001248 -0.001248 0.006707 0.000000 0.000000 0.000000
# 4 0.000000 0.000000 0.000000 -0.046230 0.000000 0.000000
# 5 0.000000 0.000000 0.000000 0.000000 -0.046230 0.000000
# 6 -0.001896 0.001896 0.000000 0.000000 0.000000 0.073870
#
#
# Mechanical properties :
#
#
# Convention : Reuss Voigt Hill
#
# Bulk Modulus (GPa) = 29.94455 36.89822 33.42138
# Shear Modulus (GPa) = 127.16247 10.59753 68.88000
#
# Velocity S-wave (km/s) = 7.44009 2.14784 5.47577
# Velocity P-wave (km/s) = 9.31889 4.71307 7.38427
#
# Compressibility (1/GPa) = 0.03339506
#
# Stress axis : x y z
#
# Youngs Moduli (GPa) = 59.91738 59.91738 149.09234
#
# Poissons Ratio (x) = 0.05090 0.18609
# Poissons Ratio (y) = 0.05090 0.18609
# Poissons Ratio (z) = 0.07479 0.07479
#
# Static dielectric constant tensor:
#      x y z
#    x 1.898370 0.000000 0.000000 
#    y 0.000000 1.898370 0.000000 
#    z 0.000000 0.000000 1.899560 
# 
# From -- ./inp_files/482.got.cif
#   From: 2010.05.17/outbox.cif.g08.bks.cpg/sg81_cif.got.tgz:482.got - 2010.06.03 18:51:07.
