data_PCOD9542747
_publ_section_title
;
Structure prediction by ZEFSAII (Michael W. Deem and Ramdas Pophale) SiO2 
 PCOD9542747
Probable space group: I -4 
;
_chemical_formula_sum "Si O2"
_cell_formula_units_Z 40
_cell_length_a 11.070407
_cell_length_b 11.070407
_cell_length_c 15.721153
_cell_angle_alpha 90.000000
_cell_angle_beta 90.000000
_cell_angle_gamma 90.000000
_cell_volume 1926.688788
_symmetry_space_group_name_H-M "I -4 "
_symmetry_group_IT_number 82
_symmetry_cell_setting 'tetragonal'
loop_
_space_group_symop_operation_xyz
x,y,z
y,-x,-z
-x,-y,z
-y,x,-z
1/2+x,1/2+y,1/2+z
1/2+y,1/2-x,1/2-z
1/2-x,1/2-y,1/2+z
1/2-y,1/2+x,1/2-z
loop_
_atom_site_type_symbol
_atom_site_label
_atom_site_fract_x
_atom_site_fract_y
_atom_site_fract_z
Si Si1 0.626571 0.940487 0.954908
Si Si2 0.487632 0.852687 0.360862
Si Si3 0.765748 0.119125 0.295712
Si Si4 0.686600 0.937843 0.772312
Si Si5 0.541299 0.685526 0.028691
O O1 0.711058 0.941917 0.873306
O O2 0.500000 0.000000 0.926522
O O3 0.670950 0.009489 0.039632
O O4 0.590441 0.807471 0.986933
O O5 0.350884 0.816140 0.337038
O O6 0.569041 0.784298 0.293158
O O7 0.500000 0.000000 0.350547
O O8 0.878262 0.204559 0.278439
O O9 0.797444 0.023447 0.369834
O O10 0.569815 0.851668 0.759408
O O11 0.639722 0.581100 0.013903
#
# Coordination Sequence:
#
# PCOD9542747 Si02
#       5
#     8   8   8   8   8
#     4  10  21  37  62  86 125 166 204 254 304 386
#     4  10  20  39  64  94 123 159 209 261 309 374
#     4  11  21  39  66  91 120 160 207 260 314 374
#     4  11  23  41  59  88 125 168 213 252 314 379
#     4  10  23  39  62  96 124 156 208 268 322 361
#
# _framework density 20.761008
#
# number of rings (size 3 to 8) (size 9 to 14) (size 15 to 20)
#    0.000    1.600    4.000    1.200    2.800    0.000 
#    3.600    0.000    0.000    0.000    0.000    0.000 
#    0.000    0.000    0.000    0.000    0.000    0.000 
#
# Total GULP energy -111668.971222 kJ/mol
# GULP energy per Si atom -5583.448561 kJ/mol
# Density = 2.071376 g / cm^3
# Si number density = 20.761008 Si / 1000 Ang^3
#
#
#
# Elastic Constant Matrix: (Units=GPa)
#
#
# Indices 1 2 3 4 5 6 
#
# 1 27.3096 -4.4335 16.5176 0.0000 0.0000 0.7952
# 2 -4.4335 27.3096 16.5176 0.0000 0.0000 -0.7952
# 3 16.5176 16.5176 139.8449 0.0000 0.0000 0.0000
# 4 0.0000 0.0000 0.0000 22.8950 0.0000 0.0000
# 5 0.0000 0.0000 0.0000 0.0000 22.8950 0.0000
# 6 0.7952 -0.7952 0.0000 0.0000 0.0000 16.8371
#
#
#
# Elastic Compliance Matrix: (Units=1/GPa)
#
#
# Indices 1 2 3 4 5 6 
#
# 1 0.042140 0.010563 -0.006225 0.000000 0.000000 -0.001491
# 2 0.010563 0.042140 -0.006225 0.000000 0.000000 0.001491
# 3 -0.006225 -0.006225 0.008621 0.000000 0.000000 0.000000
# 4 0.000000 0.000000 0.000000 0.043678 0.000000 0.000000
# 5 0.000000 0.000000 0.000000 0.000000 0.043678 0.000000
# 6 -0.001491 0.001491 0.000000 0.000000 0.000000 0.059533
#
#
# Mechanical properties :
#
#
# Convention : Reuss Voigt Hill
#
# Bulk Modulus (GPa) = 11.21983 27.96307 19.59145
# Shear Modulus (GPa) = 18.29661 23.58291 20.93976
#
# Velocity S-wave (km/s) = 2.97188 3.37400 3.17931
# Velocity P-wave (km/s) = 4.14634 5.35507 4.78899
#
# Compressibility (1/GPa) = 0.08912791
#
# Stress axis : x y z
#
# Youngs Moduli (GPa) = 23.73015 23.73016 115.99188
#
# Poissons Ratio (x) = -0.25066 0.72205
# Poissons Ratio (y) = -0.25066 0.72205
# Poissons Ratio (z) = 0.14772 0.14772
#
# Static dielectric constant tensor:
#      x y z
#    x 1.737770 0.000000 0.000000 
#    y 0.000000 1.737770 0.000000 
#    z 0.000000 0.000000 1.795170 
# 
# From -- ./inp_files/2182.got.cif
#   From: 2010.05.17/outbox.cif.g08.bks.cpg/sg82_2_cif.got.tgz:2182.got - 2010.06.03 18:52:26.
