data_PCOD9542507
_publ_section_title
;
Structure prediction by ZEFSAII (Michael W. Deem and Ramdas Pophale) SiO2 
 PCOD9542507
Probable space group: P -4
;
_chemical_formula_sum "Si O2"
_cell_formula_units_Z 17
_cell_length_a 10.721352
_cell_length_b 10.721352
_cell_length_c 5.730408
_cell_angle_alpha 90.000000
_cell_angle_beta 90.000000
_cell_angle_gamma 90.000000
_cell_volume 658.695436
_symmetry_space_group_name_H-M "P -4"
_symmetry_group_IT_number 81
_symmetry_cell_setting 'tetragonal'
loop_
_space_group_symop_operation_xyz
x,y,z
y,-x,-z
-x,-y,z
-y,x,-z
loop_
_atom_site_type_symbol
_atom_site_label
_atom_site_fract_x
_atom_site_fract_y
_atom_site_fract_z
Si Si1 0.000000 0.000000 0.000000
Si Si2 0.395658 0.082632 0.842363
Si Si3 0.437545 0.328888 0.093713
Si Si4 0.750743 0.762049 0.459541
Si Si5 0.973143 0.763597 0.770742
O O1 0.928470 0.901648 0.840096
O O2 0.326638 0.170703 0.662437
O O3 0.500000 0.000000 0.722094
O O4 0.447673 0.184864 0.024321
O O5 0.317577 0.984700 0.996864
O O6 0.338731 0.328602 0.308204
O O7 0.380130 0.421056 0.893675
O O8 0.877831 0.712228 0.577769
O O9 0.784340 0.883705 0.305428
#
# Coordination Sequence:
#
# PCOD9542507 Si02
#       5
#     1   4   4   4   4
#     4  12  20  42  72 104 162 184 244 310 392 464
#     4  11  27  45  74 107 153 197 253 326 392 477
#     4  10  26  51  77 107 149 204 265 332 391 476
#     4  11  25  44  76 109 151 206 259 321 404 470
#     4  11  24  42  70 113 148 200 249 321 390 479
#
# _framework density 25.808588
#
# number of rings (size 3 to 8) (size 9 to 14) (size 15 to 20)
#    0.000    1.176    2.353    1.412    6.588    5.647 
#    0.000    2.353    0.000    0.000    0.000    0.000 
#    0.000    0.000    0.000    0.000    0.000    0.000 
#
# Total GULP energy -95023.311629 kJ/mol
# GULP energy per Si atom -5589.606566 kJ/mol
# Density = 2.574985 g / cm^3
# Si number density = 25.808588 Si / 1000 Ang^3
#
#
#
# Elastic Constant Matrix: (Units=GPa)
#
#
# Indices 1 2 3 4 5 6 
#
# 1 102.7710 67.0091 40.9050 0.0000 0.0000 5.1523
# 2 67.0091 102.7710 40.9050 0.0000 0.0000 -5.1523
# 3 40.9050 40.9050 92.5336 0.0000 0.0000 0.0000
# 4 0.0000 0.0000 0.0000 42.0435 0.0000 0.0000
# 5 0.0000 0.0000 0.0000 0.0000 42.0435 0.0000
# 6 5.1523 -5.1523 0.0000 0.0000 0.0000 36.5511
#
#
#
# Elastic Compliance Matrix: (Units=1/GPa)
#
#
# Indices 1 2 3 4 5 6 
#
# 1 0.018315 -0.010831 -0.003308 0.000000 0.000000 -0.004109
# 2 -0.010831 0.018315 -0.003308 0.000000 0.000000 0.004109
# 3 -0.003308 -0.003308 0.013732 0.000000 0.000000 0.000000
# 4 0.000000 0.000000 0.000000 0.023785 0.000000 0.000000
# 5 0.000000 0.000000 0.000000 0.000000 0.023785 0.000000
# 6 -0.004109 0.004109 0.000000 0.000000 0.000000 0.028517
#
#
# Mechanical properties :
#
#
# Convention : Reuss Voigt Hill
#
# Bulk Modulus (GPa) = 64.65567 66.19043 65.42305
# Shear Modulus (GPa) = 30.02979 34.07803 32.05391
#
# Velocity S-wave (km/s) = 3.41480 3.63769 3.52801
# Velocity P-wave (km/s) = 6.37606 6.58377 6.48075
#
# Compressibility (1/GPa) = 0.01546655
#
# Stress axis : x y z
#
# Youngs Moduli (GPa) = 54.59895 54.59895 72.82315
#
# Poissons Ratio (x) = 0.59137 0.24093
# Poissons Ratio (y) = 0.59137 0.24093
# Poissons Ratio (z) = 0.18064 0.18064
#
# Static dielectric constant tensor:
#      x y z
#    x 2.068850 0.000000 0.000000 
#    y 0.000000 2.068850 0.000000 
#    z 0.000000 0.000000 2.100730 
# 
# From -- ./inp_files/204.got.cif
#   From: 2010.05.17/outbox.cif.g08.bks.cpg/sg81_cif.got.tgz:204.got - 2010.06.03 18:51:07.
