data_PCOD9542880
_publ_section_title
;
Structure prediction by ZEFSAII (Michael W. Deem and Ramdas Pophale) SiO2 
 PCOD9542880
Probable space group: I -4 
;
_chemical_formula_sum "Si O2"
_cell_formula_units_Z 48
_cell_length_a 13.750992
_cell_length_b 13.750992
_cell_length_c 11.030691
_cell_angle_alpha 90.000000
_cell_angle_beta 90.000000
_cell_angle_gamma 90.000000
_cell_volume 2085.790945
_symmetry_space_group_name_H-M "I -4 "
_symmetry_group_IT_number 82
_symmetry_cell_setting 'tetragonal'
loop_
_space_group_symop_operation_xyz
x,y,z
y,-x,-z
-x,-y,z
-y,x,-z
1/2+x,1/2+y,1/2+z
1/2+y,1/2-x,1/2-z
1/2-x,1/2-y,1/2+z
1/2-y,1/2+x,1/2-z
loop_
_atom_site_type_symbol
_atom_site_label
_atom_site_fract_x
_atom_site_fract_y
_atom_site_fract_z
Si Si1 0.246085 0.528170 0.485527
Si Si2 0.856945 0.778960 0.779407
Si Si3 0.322456 0.486906 0.229851
Si Si4 0.182472 0.817733 0.604586
Si Si5 0.621540 0.854239 0.073799
Si Si6 0.067799 0.661759 0.449410
O O1 0.289504 0.596328 0.588961
O O2 0.314088 0.503679 0.373070
O O3 0.204417 0.433454 0.553546
O O4 0.155829 0.588877 0.430971
O O5 0.744293 0.747197 0.799349
O O6 0.897940 0.686000 0.707884
O O7 0.871808 0.881698 0.712944
O O8 0.359729 0.584434 0.164644
O O9 0.215908 0.468514 0.170971
O O10 0.258250 0.846878 0.500271
O O11 0.104796 0.745884 0.543067
O O12 0.522781 0.889070 0.012875
#
# Coordination Sequence:
#
# PCOD9542880 Si02
#       6
#     8   8   8   8   8   8
#     4  11  25  40  69 104 137 176 226 285 355 403
#     4  11  24  43  68  97 141 181 224 278 348 412
#     4  11  22  42  72  98 132 182 232 281 336 412
#     4  10  22  41  71  94 134 178 226 280 340 397
#     4  11  23  43  66  97 137 176 224 279 343 408
#     4  10  23  43  67 102 133 179 229 287 341 406
#
# _framework density 23.012853
#
# number of rings (size 3 to 8) (size 9 to 14) (size 15 to 20)
#    0.000    1.333    3.333    1.500    9.333    0.000 
#    0.000    0.833    0.000    0.000    0.000    0.000 
#    0.000    0.000    0.000    0.000    0.000    0.000 
#
# Total GULP energy -134128.606862 kJ/mol
# GULP energy per Si atom -5588.691953 kJ/mol
# Density = 2.296047 g / cm^3
# Si number density = 23.012853 Si / 1000 Ang^3
#
#
#
# Elastic Constant Matrix: (Units=GPa)
#
#
# Indices 1 2 3 4 5 6 
#
# 1 64.2253 -10.2954 5.7290 0.0000 0.0000 0.2582
# 2 -10.2954 64.2253 5.7290 0.0000 0.0000 -0.2582
# 3 5.7290 5.7290 60.1771 0.0000 0.0000 0.0000
# 4 0.0000 0.0000 0.0000 27.1487 0.0000 0.0000
# 5 0.0000 0.0000 0.0000 0.0000 27.1487 0.0000
# 6 0.2582 -0.2582 0.0000 0.0000 0.0000 17.4837
#
#
#
# Elastic Compliance Matrix: (Units=1/GPa)
#
#
# Indices 1 2 3 4 5 6 
#
# 1 0.016173 0.002752 -0.001802 0.000000 0.000000 -0.000198
# 2 0.002752 0.016173 -0.001802 0.000000 0.000000 0.000198
# 3 -0.001802 -0.001802 0.016961 0.000000 0.000000 0.000000
# 4 0.000000 0.000000 0.000000 0.036834 0.000000 0.000000
# 5 0.000000 0.000000 0.000000 0.000000 0.036834 0.000000
# 6 -0.000198 0.000198 0.000000 0.000000 0.000000 0.057202
#
#
# Mechanical properties :
#
#
# Convention : Reuss Voigt Hill
#
# Bulk Modulus (GPa) = 21.00641 21.21698 21.11170
# Shear Modulus (GPa) = 25.28483 26.85389 26.06936
#
# Velocity S-wave (km/s) = 3.31830 3.41971 3.36939
# Velocity P-wave (km/s) = 4.88154 4.98319 4.93263
#
# Compressibility (1/GPa) = 0.04760451
#
# Stress axis : x y z
#
# Youngs Moduli (GPa) = 61.83174 61.83174 58.95996
#
# Poissons Ratio (x) = -0.17019 0.10623
# Poissons Ratio (y) = -0.17019 0.10623
# Poissons Ratio (z) = 0.11140 0.11140
#
# Static dielectric constant tensor:
#      x y z
#    x 1.847700 0.000000 0.000000 
#    y 0.000000 1.847700 0.000000 
#    z 0.000000 0.000000 1.869650 
# 
# From -- ./inp_files/1772.got.cif
#   From: 2010.05.17/outbox.cif.g08.bks.cpg/sg82_1_cif.got.tgz:1772.got - 2010.06.03 18:52:26.
