data_PCOD9542579
_publ_section_title
;
Structure prediction by ZEFSAII (Michael W. Deem and Ramdas Pophale) SiO2 
 PCOD9542579
Probable space group: P -4
;
_chemical_formula_sum "Si O2"
_cell_formula_units_Z 12
_cell_length_a 5.232490
_cell_length_b 5.232490
_cell_length_c 17.546224
_cell_angle_alpha 90.000000
_cell_angle_beta 90.000000
_cell_angle_gamma 90.000000
_cell_volume 480.397218
_symmetry_space_group_name_H-M "P -4"
_symmetry_group_IT_number 81
_symmetry_cell_setting 'tetragonal'
loop_
_space_group_symop_operation_xyz
x,y,z
y,-x,-z
-x,-y,z
-y,x,-z
loop_
_atom_site_type_symbol
_atom_site_label
_atom_site_fract_x
_atom_site_fract_y
_atom_site_fract_z
Si Si1 0.340290 0.266299 0.111422
Si Si2 0.500000 0.000000 0.593085
Si Si3 0.164233 0.757077 0.724807
Si Si4 0.000000 0.000000 0.000000
Si Si5 0.500000 0.500000 0.500000
O O1 0.500000 0.500000 0.081547
O O2 0.281208 0.331018 0.199654
O O3 0.500000 0.000000 0.113116
O O4 0.102712 0.214194 0.057101
O O5 0.305515 0.853790 0.649528
O O6 0.596086 0.756912 0.544023
O O7 0.000000 0.500000 0.710370
O O8 0.000000 0.000000 0.748633
#
# Coordination Sequence:
#
# PCOD9542579 Si02
#       5
#     4   2   4   1   1
#     4  11  29  50  81 118 165 217 284 346 417 488
#     4  12  30  52  84 122 168 216 274 336 420 498
#     4  11  26  51  84 121 158 219 278 345 405 496
#     4  12  28  52  76 120 168 222 280 352 428 472
#     4  12  32  52  84 128 168 218 260 348 420 504
#
# _framework density 24.979330000000001
#
# number of rings (size 3 to 8) (size 9 to 14) (size 15 to 20)
#    0.000    0.667    1.667    2.000   23.333    0.000 
#    0.000    0.000    0.000    0.000    0.000    0.000 
#    0.000    0.000    0.000    0.000    0.000    0.000 
#
# Total GULP energy -67165.477169 kJ/mol
# GULP energy per Si atom -5597.123097 kJ/mol
# Density = 2.492248 g / cm^3
# Si number density = 24.979330 Si / 1000 Ang^3
#
#
#
# Elastic Constant Matrix: (Units=GPa)
#
#
# Indices 1 2 3 4 5 6 
#
# 1 143.6210 55.0553 51.6840 0.0000 0.0000 -9.9982
# 2 55.0553 143.6210 51.6840 0.0000 0.0000 9.9982
# 3 51.6840 51.6840 144.6261 0.0000 0.0000 0.0000
# 4 0.0000 0.0000 0.0000 34.7517 0.0000 0.0000
# 5 0.0000 0.0000 0.0000 0.0000 34.7517 0.0000
# 6 -9.9982 9.9982 0.0000 0.0000 0.0000 69.0393
#
#
#
# Elastic Compliance Matrix: (Units=1/GPa)
#
#
# Indices 1 2 3 4 5 6 
#
# 1 0.008928 -0.002745 -0.002210 0.000000 0.000000 0.001690
# 2 -0.002745 0.008928 -0.002210 0.000000 0.000000 -0.001690
# 3 -0.002210 -0.002210 0.008494 0.000000 0.000000 0.000000
# 4 0.000000 0.000000 0.000000 0.028776 0.000000 0.000000
# 5 0.000000 0.000000 0.000000 0.000000 0.028776 0.000000
# 6 0.001690 -0.001690 0.000000 0.000000 0.000000 0.014974
#
#
# Mechanical properties :
#
#
# Convention : Reuss Voigt Hill
#
# Bulk Modulus (GPa) = 83.18610 83.19053 83.18832
# Shear Modulus (GPa) = 42.65865 45.93820 44.29842
#
# Velocity S-wave (km/s) = 4.13699 4.29307 4.21575
# Velocity P-wave (km/s) = 7.49625 7.61248 7.55459
#
# Compressibility (1/GPa) = 0.01202124
#
# Stress axis : x y z
#
# Youngs Moduli (GPa) = 112.00957 112.00957 117.73583
#
# Poissons Ratio (x) = 0.30746 0.26014
# Poissons Ratio (y) = 0.30746 0.26014
# Poissons Ratio (z) = 0.24749 0.24749
#
# Static dielectric constant tensor:
#      x y z
#    x 2.005960 0.000000 0.000000 
#    y 0.000000 2.005960 0.000000 
#    z 0.000000 0.000000 2.031480 
# 
# From -- ./inp_files/1693.got.cif
#   From: 2010.05.17/outbox.cif.g08.bks.cpg/sg81_cif.got.tgz:1693.got - 2010.06.03 18:51:07.
