data_PCOD9542069
_publ_section_title
;
Structure prediction by ZEFSAII (Michael W. Deem and Ramdas Pophale) SiO2 
 PCOD9542069
Probable space group: I 41
;
_chemical_formula_sum "Si O2"
_cell_formula_units_Z 48
_cell_length_a 14.812314
_cell_length_b 14.812314
_cell_length_c 8.818172
_cell_angle_alpha 90.000000
_cell_angle_beta 90.000000
_cell_angle_gamma 90.000000
_cell_volume 1934.747906
_symmetry_space_group_name_H-M "I 41"
_symmetry_group_IT_number 80
_symmetry_cell_setting 'tetragonal'
loop_
_space_group_symop_operation_xyz
x,y,z
-y,1/2+x,1/4+z
-x,-y,z
y,1/2-x,1/4+z
1/2+x,1/2+y,1/2+z
1/2-y,x,3/4+z
1/2-x,1/2-y,1/2+z
1/2+y,-x,3/4+z
loop_
_atom_site_type_symbol
_atom_site_label
_atom_site_fract_x
_atom_site_fract_y
_atom_site_fract_z
Si Si1 0.487534 0.099700 0.938710
Si Si2 0.712791 0.032145 0.565209
Si Si3 0.676867 0.167280 0.836026
Si Si4 0.187111 0.315689 0.553552
Si Si5 0.958607 0.403601 0.876006
Si Si6 0.861084 0.894912 0.880231
O O1 0.579111 0.153007 0.910120
O O2 0.441914 0.091591 0.773066
O O3 0.500000 0.000000 0.997647
O O4 0.410778 0.144996 0.037191
O O5 0.697915 0.081462 0.727752
O O6 0.637831 0.074700 0.453179
O O7 0.816314 0.051420 0.519207
O O8 0.686288 0.926751 0.580586
O O9 0.676937 0.250544 0.719199
O O10 0.219381 0.317136 0.723991
O O11 0.262768 0.366052 0.445947
O O12 0.000000 0.500000 0.827306
O O13 0.030198 0.365087 0.999923
#
# Coordination Sequence:
#
# PCOD9542069 Si02
#       6
#     8   8   8   8   8   8
#     4  11  20  35  65  98 125 162 219 277 314 373
#     4  11  18  32  57  91 123 157 205 265 320 366
#     4  12  25  41  65  95 129 168 217 269 329 384
#     4  10  23  38  63  97 134 169 217 264 326 385
#     4  10  19  30  51  87 122 151 200 262 316 363
#     4  10  18  32  57  95 124 152 207 266 311 361
#
# _framework density 24.809432999999999
#
# number of rings (size 3 to 8) (size 9 to 14) (size 15 to 20)
#    0.000    1.333    5.000    2.500    4.667    0.000 
#    0.000    1.667    3.667    0.000    0.000    5.833 
#    0.000    0.000    0.000    0.000    0.000    0.000 
#
# Total GULP energy -134440.579599 kJ/mol
# GULP energy per Si atom -5601.690817 kJ/mol
# Density = 2.475297 g / cm^3
# Si number density = 24.809433 Si / 1000 Ang^3
#
#
#
# Elastic Constant Matrix: (Units=GPa)
#
#
# Indices 1 2 3 4 5 6 
#
# 1 196.4048 91.2246 53.1820 0.0000 0.0000 0.7735
# 2 91.2246 196.4048 53.1820 0.0000 0.0000 -0.7735
# 3 53.1820 53.1820 80.6573 0.0000 0.0000 0.0000
# 4 0.0000 0.0000 0.0000 -191.1351 0.0000 0.0000
# 5 0.0000 0.0000 0.0000 0.0000 -191.1351 0.0000
# 6 0.7735 -0.7735 0.0000 0.0000 0.0000 20.1595
#
#
#
# Elastic Compliance Matrix: (Units=1/GPa)
#
#
# Indices 1 2 3 4 5 6 
#
# 1 0.007055 -0.002458 -0.003032 0.000000 0.000000 -0.000365
# 2 -0.002458 0.007055 -0.003032 0.000000 0.000000 0.000365
# 3 -0.003032 -0.003032 0.016396 0.000000 0.000000 0.000000
# 4 0.000000 0.000000 0.000000 -0.005232 0.000000 0.000000
# 5 0.000000 0.000000 0.000000 0.000000 -0.005232 0.000000
# 6 -0.000365 0.000365 0.000000 0.000000 0.000000 0.049632
#
#
# Mechanical properties :
#
#
# Convention : Reuss Voigt Hill
#
# Bulk Modulus (GPa) = 74.26577 96.51603 85.39090
# Shear Modulus (GPa) = 54.82167 -54.03024 0.39571
#
# Velocity S-wave (km/s) = 4.70586 -4.67176 0.39981
# Velocity P-wave (km/s) = 7.71533 3.14434 5.89123
#
# Compressibility (1/GPa) = 0.01346515
#
# Stress axis : x y z
#
# Youngs Moduli (GPa) = 141.73732 141.73732 60.99082
#
# Poissons Ratio (x) = 0.34833 0.18490
# Poissons Ratio (y) = 0.34833 0.18490
# Poissons Ratio (z) = 0.42969 0.42969
#
# Static dielectric constant tensor:
#      x y z
#    x 2.077170 0.000000 0.000000 
#    y 0.000000 2.077170 0.000000 
#    z 0.000000 0.000000 1.946480 
# 
# From -- ./inp_files/1010.got.cif
#   From: 2010.05.17/outbox.cif.g08.bks.cpg/sg80_cif.got.tgz:1010.got - 2010.06.03 18:49:13.
