data_PCOD9542147
_publ_section_title
;
Structure prediction by ZEFSAII (Michael W. Deem and Ramdas Pophale) SiO2 
 PCOD9542147
Probable space group: I 41
;
_chemical_formula_sum "Si O2"
_cell_formula_units_Z 48
_cell_length_a 22.473864
_cell_length_b 22.473864
_cell_length_c 5.639522
_cell_angle_alpha 90.000000
_cell_angle_beta 90.000000
_cell_angle_gamma 90.000000
_cell_volume 2848.379110
_symmetry_space_group_name_H-M "I 41"
_symmetry_group_IT_number 80
_symmetry_cell_setting 'tetragonal'
loop_
_space_group_symop_operation_xyz
x,y,z
-y,1/2+x,1/4+z
-x,-y,z
y,1/2-x,1/4+z
1/2+x,1/2+y,1/2+z
1/2-y,x,3/4+z
1/2-x,1/2-y,1/2+z
1/2+y,-x,3/4+z
loop_
_atom_site_type_symbol
_atom_site_label
_atom_site_fract_x
_atom_site_fract_y
_atom_site_fract_z
Si Si1 0.903453 0.483923 0.650150
Si Si2 0.890114 0.639844 0.232869
Si Si3 0.844028 0.511409 0.138190
Si Si4 0.451434 0.214930 0.351353
Si Si5 0.831987 0.721449 0.587245
Si Si6 0.097366 0.014905 0.357016
O O1 0.867813 0.492942 0.401278
O O2 0.943052 0.543374 0.693455
O O3 0.949813 0.430924 0.595846
O O4 0.868147 0.478146 0.900528
O O5 0.863670 0.580875 0.113048
O O6 0.838562 0.669488 0.390957
O O7 0.949129 0.617775 0.373223
O O8 0.913000 0.693104 0.072155
O O9 0.772714 0.509671 0.142123
O O10 0.485328 0.155743 0.268667
O O11 0.400107 0.229783 0.162226
O O12 0.785014 0.694217 0.769012
#
# Coordination Sequence:
#
# PCOD9542147 Si02
#       6
#     8   8   8   8   8   8
#     4  10  22  39  56  84 107 147 188 236 283 334
#     4  10  21  37  53  75 107 150 193 237 275 332
#     4  11  23  35  57  79 116 143 186 234 278 328
#     4  11  22  36  55  76 110 148 189 235 285 332
#     4  11  25  34  47  71 106 156 203 241 270 315
#     4   9  21  36  60  76 107 145 192 229 285 335
#
# _framework density 16.851689
#
# number of rings (size 3 to 8) (size 9 to 14) (size 15 to 20)
#    0.000    1.667    1.667    2.000   16.333    1.333 
#    0.000    0.000    0.000    0.000    0.000    0.000 
#    0.000    2.667    0.000    0.000    0.000    0.000 
#
# Total GULP energy -133660.967213 kJ/mol
# GULP energy per Si atom -5569.206967 kJ/mol
# Density = 1.681333 g / cm^3
# Si number density = 16.851689 Si / 1000 Ang^3
#
#
#
# Elastic Constant Matrix: (Units=GPa)
#
#
# Indices 1 2 3 4 5 6 
#
# 1 75.7617 42.1558 23.5469 0.0000 0.0000 -5.8324
# 2 42.1558 75.7617 23.5469 0.0000 0.0000 5.8324
# 3 23.5469 23.5469 55.2690 0.0000 0.0000 0.0000
# 4 0.0000 0.0000 0.0000 7.7681 0.0000 0.0000
# 5 0.0000 0.0000 0.0000 0.0000 7.7681 0.0000
# 6 -5.8324 5.8324 0.0000 0.0000 0.0000 25.2376
#
#
#
# Elastic Compliance Matrix: (Units=1/GPa)
#
#
# Indices 1 2 3 4 5 6 
#
# 1 0.021286 -0.011066 -0.004354 0.000000 0.000000 0.007477
# 2 -0.011066 0.021286 -0.004354 0.000000 0.000000 -0.007477
# 3 -0.004354 -0.004354 0.021803 0.000000 0.000000 0.000000
# 4 0.000000 0.000000 0.000000 0.128731 0.000000 0.000000
# 5 0.000000 0.000000 0.000000 0.000000 0.128731 0.000000
# 6 0.007477 -0.007477 0.000000 0.000000 0.000000 0.043079
#
#
# Mechanical properties :
#
#
# Convention : Reuss Voigt Hill
#
# Bulk Modulus (GPa) = 40.27971 42.81019 41.54495
# Shear Modulus (GPa) = 12.11419 15.99096 14.05257
#
# Velocity S-wave (km/s) = 2.68409 3.08380 2.89086
# Velocity P-wave (km/s) = 5.79311 6.17568 5.98745
#
# Compressibility (1/GPa) = 0.02482640
#
# Stress axis : x y z
#
# Youngs Moduli (GPa) = 46.98018 46.98018 45.86480
#
# Poissons Ratio (x) = 0.51989 0.19969
# Poissons Ratio (y) = 0.51989 0.19969
# Poissons Ratio (z) = 0.20455 0.20455
#
# Static dielectric constant tensor:
#      x y z
#    x 1.556180 0.000000 0.000000 
#    y 0.000000 1.556180 0.000000 
#    z 0.000000 0.000000 1.692560 
# 
# From -- ./inp_files/277.got.cif
#   From: 2010.05.17/outbox.cif.g08.bks.cpg/sg80_cif.got.tgz:277.got - 2010.06.03 18:49:13.
