data_PCOD9542321
_publ_section_title
;
Structure prediction by ZEFSAII (Michael W. Deem and Ramdas Pophale) SiO2 
 PCOD9542321
Probable space group: P -4
;
_chemical_formula_sum "Si O2"
_cell_formula_units_Z 22
_cell_length_a 8.017261
_cell_length_b 8.017261
_cell_length_c 16.426939
_cell_angle_alpha 90.000000
_cell_angle_beta 90.000000
_cell_angle_gamma 90.000000
_cell_volume 1055.865717
_symmetry_space_group_name_H-M "P -4"
_symmetry_group_IT_number 81
_symmetry_cell_setting 'tetragonal'
loop_
_space_group_symop_operation_xyz
x,y,z
y,-x,-z
-x,-y,z
-y,x,-z
loop_
_atom_site_type_symbol
_atom_site_label
_atom_site_fract_x
_atom_site_fract_y
_atom_site_fract_z
Si Si1 0.000000 0.000000 0.765426
Si Si2 0.755311 0.409623 0.022385
Si Si3 0.500000 0.000000 0.098364
Si Si4 0.596362 0.739979 0.634932
Si Si5 0.000000 0.000000 0.500000
Si Si6 0.722507 0.253709 0.188134
Si Si7 0.894891 0.760780 0.370638
Si Si8 0.500000 0.500000 0.500000
O O1 0.877864 0.873919 0.809560
O O2 0.122471 0.891285 0.708269
O O3 0.772431 0.385037 0.118576
O O4 0.599756 0.297566 0.994538
O O5 0.912861 0.372272 0.965106
O O6 0.431685 0.853649 0.155125
O O7 0.663909 0.688223 0.724087
O O8 0.397795 0.776502 0.636201
O O9 0.615256 0.609688 0.561026
O O10 0.688108 0.916610 0.620857
O O11 0.888378 0.121957 0.555044
#
# Coordination Sequence:
#
# PCOD9542321 Si02
#       8
#     2   4   2   4   1   4   4   1
#     4   9  20  35  57  86 109 144 198 240 285 357
#     4   9  20  38  59  84 118 156 193 236 297 368
#     4  10  22  38  60  92 118 150 202 246 288 360
#     4  10  22  38  55  82 118 156 193 243 309 362
#     4  10  16  32  60  80 102 144 194 248 286 336
#     4  10  22  39  59  84 119 159 194 243 308 360
#     4   9  19  36  56  79 110 148 190 238 300 358
#     4  12  24  36  56  88 114 148 212 260 284 344
#
# _framework density 20.835981
#
# number of rings (size 3 to 8) (size 9 to 14) (size 15 to 20)
#    0.000    2.364    0.000    1.091    0.000   11.636 
#    0.000    3.636    0.000    0.000    0.000    0.000 
#    0.000    0.000    0.000    0.000    0.000    0.000 
#
# Total GULP energy -122669.563875 kJ/mol
# GULP energy per Si atom -5575.889267 kJ/mol
# Density = 2.078856 g / cm^3
# Si number density = 20.835981 Si / 1000 Ang^3
#
#
#
# Elastic Constant Matrix: (Units=GPa)
#
#
# Indices 1 2 3 4 5 6 
#
# 1 62.7944 1.0584 37.0632 0.0000 0.0000 -5.2793
# 2 1.0584 62.7944 37.0632 0.0000 0.0000 5.2793
# 3 37.0632 37.0632 145.6474 0.0000 0.0000 0.0000
# 4 0.0000 0.0000 0.0000 13.8214 0.0000 0.0000
# 5 0.0000 0.0000 0.0000 0.0000 13.8214 0.0000
# 6 -5.2793 5.2793 0.0000 0.0000 0.0000 18.0179
#
#
#
# Elastic Compliance Matrix: (Units=1/GPa)
#
#
# Indices 1 2 3 4 5 6 
#
# 1 0.019640 0.002587 -0.005656 0.000000 0.000000 0.004996
# 2 0.002587 0.019640 -0.005656 0.000000 0.000000 -0.004996
# 3 -0.005656 -0.005656 0.009745 0.000000 0.000000 0.000000
# 4 0.000000 0.000000 0.000000 0.072352 0.000000 0.000000
# 5 0.000000 0.000000 0.000000 0.000000 0.072352 0.000000
# 6 0.004996 -0.004996 0.000000 0.000000 0.000000 0.058428
#
#
# Mechanical properties :
#
#
# Convention : Reuss Voigt Hill
#
# Bulk Modulus (GPa) = 31.67134 46.84508 39.25821
# Shear Modulus (GPa) = 17.84879 22.20223 20.02551
#
# Velocity S-wave (km/s) = 2.93001 3.26785 3.10353
# Velocity P-wave (km/s) = 5.16526 6.06383 5.63249
#
# Compressibility (1/GPa) = 0.03157429
#
# Stress axis : x y z
#
# Youngs Moduli (GPa) = 50.91671 50.91671 102.62099
#
# Poissons Ratio (x) = -0.13174 0.58045
# Poissons Ratio (y) = -0.13174 0.58045
# Poissons Ratio (z) = 0.28800 0.28800
#
# Static dielectric constant tensor:
#      x y z
#    x 1.792330 0.000000 0.000000 
#    y 0.000000 1.792330 0.000000 
#    z 0.000000 0.000000 1.759100 
# 
# From -- ./inp_files/1575.got.cif
#   From: 2010.05.17/outbox.cif.g08.bks.cpg/sg81_cif.got.tgz:1575.got - 2010.06.03 18:51:07.
