data_PCOD9542784
_publ_section_title
;
Structure prediction by ZEFSAII (Michael W. Deem and Ramdas Pophale) SiO2 
 PCOD9542784
Probable space group: I -4 
;
_chemical_formula_sum "Si O2"
_cell_formula_units_Z 32
_cell_length_a 9.841372
_cell_length_b 9.841372
_cell_length_c 12.508227
_cell_angle_alpha 90.000000
_cell_angle_beta 90.000000
_cell_angle_gamma 90.000000
_cell_volume 1211.454342
_symmetry_space_group_name_H-M "I -4 "
_symmetry_group_IT_number 82
_symmetry_cell_setting 'tetragonal'
loop_
_space_group_symop_operation_xyz
x,y,z
y,-x,-z
-x,-y,z
-y,x,-z
1/2+x,1/2+y,1/2+z
1/2+y,1/2-x,1/2-z
1/2-x,1/2-y,1/2+z
1/2-y,1/2+x,1/2-z
loop_
_atom_site_type_symbol
_atom_site_label
_atom_site_fract_x
_atom_site_fract_y
_atom_site_fract_z
Si Si1 0.302596 0.505668 0.542354
Si Si2 0.257855 0.830138 0.350389
Si Si3 0.811889 0.546859 0.002420
Si Si4 0.653571 0.874919 0.805591
O O1 0.414382 0.625820 0.551364
O O2 0.160664 0.574286 0.514074
O O3 0.016880 0.289467 0.614614
O O4 0.390104 0.736740 0.372987
O O5 0.134436 0.799391 0.433998
O O6 0.204601 0.785724 0.235293
O O7 0.841019 0.420666 0.083235
O O8 0.535155 0.833071 0.718621
#
# Coordination Sequence:
#
# PCOD9542784 Si02
#       4
#     8   8   8   8
#     4   9  19  34  62 109 140 185 241 295 357 438
#     4  10  21  35  67 103 143 189 241 300 358 436
#     4  10  21  38  66  98 149 189 242 298 370 435
#     4   9  20  36  65 102 136 182 240 295 355 437
#
# _framework density 26.414534
#
# number of rings (size 3 to 8) (size 9 to 14) (size 15 to 20)
#    0.000    2.500    0.000    0.750   17.500    0.500 
#    0.000    0.000   11.000    9.000   19.500    0.000 
#   45.000    0.000    0.000    0.000    0.000    0.000 
#
# Total GULP energy -89335.503543 kJ/mol
# GULP energy per Si atom -5583.468971 kJ/mol
# Density = 2.635441 g / cm^3
# Si number density = 26.414534 Si / 1000 Ang^3
#
#
#
# Elastic Constant Matrix: (Units=GPa)
#
#
# Indices 1 2 3 4 5 6 
#
# 1 129.7852 53.7865 46.5299 0.0000 0.0000 -12.6272
# 2 53.7865 129.7852 46.5299 0.0000 0.0000 12.6272
# 3 46.5299 46.5299 100.2939 0.0000 0.0000 0.0000
# 4 0.0000 0.0000 0.0000 34.8173 0.0000 0.0000
# 5 0.0000 0.0000 0.0000 0.0000 34.8174 0.0000
# 6 -12.6272 12.6272 0.0000 0.0000 0.0000 31.1779
#
#
#
# Elastic Compliance Matrix: (Units=1/GPa)
#
#
# Indices 1 2 3 4 5 6 
#
# 1 0.011163 -0.004041 -0.003304 0.000000 0.000000 0.006158
# 2 -0.004041 0.011163 -0.003304 0.000000 0.000000 -0.006158
# 3 -0.003304 -0.003304 0.013037 0.000000 0.000000 0.000000
# 4 0.000000 0.000000 0.000000 0.028721 0.000000 0.000000
# 5 0.000000 0.000000 0.000000 0.000000 0.028721 0.000000
# 6 0.006158 -0.006158 0.000000 0.000000 0.000000 0.037062
#
#
# Mechanical properties :
#
#
# Convention : Reuss Voigt Hill
#
# Bulk Modulus (GPa) = 71.10215 72.61744 71.85980
# Shear Modulus (GPa) = 32.08094 34.36373 33.22233
#
# Velocity S-wave (km/s) = 3.48878 3.61077 3.55030
# Velocity P-wave (km/s) = 6.57305 6.70333 6.63851
#
# Compressibility (1/GPa) = 0.01406427
#
# Stress axis : x y z
#
# Youngs Moduli (GPa) = 89.57775 89.57775 76.70607
#
# Poissons Ratio (x) = 0.36197 0.25347
# Poissons Ratio (y) = 0.36197 0.25347
# Poissons Ratio (z) = 0.29600 0.29600
#
# Static dielectric constant tensor:
#      x y z
#    x 2.125090 0.000000 0.000000 
#    y 0.000000 2.125090 0.000000 
#    z 0.000000 0.000000 2.096850 
# 
# From -- ./inp_files/2876.got.cif
#   From: 2010.05.17/outbox.cif.g08.bks.cpg/sg82_2_cif.got.tgz:2876.got - 2010.06.03 18:52:26.
