data_PCOD9542741
_publ_section_title
;
Structure prediction by ZEFSAII (Michael W. Deem and Ramdas Pophale) SiO2 
 PCOD9542741
Probable space group: I -4 
;
_chemical_formula_sum "Si O2"
_cell_formula_units_Z 60
_cell_length_a 11.827125
_cell_length_b 11.827125
_cell_length_c 16.408301
_cell_angle_alpha 90.000000
_cell_angle_beta 90.000000
_cell_angle_gamma 90.000000
_cell_volume 2295.207678
_symmetry_space_group_name_H-M "I -4 "
_symmetry_group_IT_number 82
_symmetry_cell_setting 'tetragonal'
loop_
_space_group_symop_operation_xyz
x,y,z
y,-x,-z
-x,-y,z
-y,x,-z
1/2+x,1/2+y,1/2+z
1/2+y,1/2-x,1/2-z
1/2-x,1/2-y,1/2+z
1/2-y,1/2+x,1/2-z
loop_
_atom_site_type_symbol
_atom_site_label
_atom_site_fract_x
_atom_site_fract_y
_atom_site_fract_z
Si Si1 0.615298 0.065246 0.111811
Si Si2 0.242015 0.978036 0.354155
Si Si3 0.719281 0.695672 0.450398
Si Si4 0.500000 0.500000 0.124732
Si Si5 0.994657 0.134999 0.175633
Si Si6 0.749329 0.853595 0.138659
Si Si7 0.466321 0.830307 0.788174
Si Si8 0.973578 0.760520 0.448891
O O1 0.564573 0.160607 0.170839
O O2 0.701575 0.129606 0.051557
O O3 0.500000 0.000000 0.081515
O O4 0.696992 0.976489 0.155510
O O5 0.268690 0.848884 0.333981
O O6 0.252504 0.985677 0.454151
O O7 0.118083 0.015510 0.329327
O O8 0.677339 0.592760 0.393959
O O9 0.740579 0.651247 0.540669
O O10 0.841689 0.745389 0.425648
O O11 0.386057 0.485241 0.072653
O O12 0.125090 0.170126 0.165676
O O13 0.956131 0.203270 0.255251
O O14 0.000000 0.000000 0.172947
O O15 0.379851 0.913520 0.743102
O O16 0.462847 0.824362 0.886536
#
# Coordination Sequence:
#
# PCOD9542741 Si02
#       8
#     8   8   8   4   8   8   8   8
#     4  10  20  39  58  94 134 164 200 260 331 393
#     4  10  22  38  64 100 133 166 210 269 337 397
#     4  11  21  40  63  94 130 169 211 267 329 390
#     4  12  23  38  64 100 132 164 215 280 335 394
#     4  12  25  42  66  94 130 167 219 268 318 387
#     4  10  23  37  64  96 129 171 211 262 334 388
#     4  11  27  49  63  88 125 176 223 264 311 380
#     4  11  23  40  64  91 128 174 220 264 320 386
#
# _framework density 26.141425000000002
#
# number of rings (size 3 to 8) (size 9 to 14) (size 15 to 20)
#    0.000    1.200    4.000    2.000    4.667    1.067 
#    4.800    0.000    0.000    0.000    0.000    0.000 
#    0.000    0.000    0.000    0.000    0.000    0.000 
#
# Total GULP energy -168012.048413 kJ/mol
# GULP energy per Si atom -5600.401614 kJ/mol
# Density = 2.608193 g / cm^3
# Si number density = 26.141425 Si / 1000 Ang^3
#
#
#
# Elastic Constant Matrix: (Units=GPa)
#
#
# Indices 1 2 3 4 5 6 
#
# 1 164.2194 36.1807 31.9303 0.0000 0.0000 0.9662
# 2 36.1807 164.2194 31.9303 0.0000 0.0000 -0.9662
# 3 31.9303 31.9303 104.9866 0.0000 0.0000 0.0000
# 4 0.0000 0.0000 0.0000 17.3374 0.0000 0.0000
# 5 0.0000 0.0000 0.0000 0.0000 17.3374 0.0000
# 6 0.9662 -0.9662 0.0000 0.0000 0.0000 42.8967
#
#
#
# Elastic Compliance Matrix: (Units=1/GPa)
#
#
# Indices 1 2 3 4 5 6 
#
# 1 0.006669 -0.001144 -0.001681 0.000000 0.000000 -0.000176
# 2 -0.001144 0.006669 -0.001681 0.000000 0.000000 0.000176
# 3 -0.001681 -0.001681 0.010547 0.000000 0.000000 0.000000
# 4 0.000000 0.000000 0.000000 0.057679 0.000000 0.000000
# 5 0.000000 0.000000 0.000000 0.000000 0.057679 0.000000
# 6 -0.000176 0.000176 0.000000 0.000000 0.000000 0.023320
#
#
# Mechanical properties :
#
#
# Convention : Reuss Voigt Hill
#
# Bulk Modulus (GPa) = 67.22129 70.38977 68.80553
# Shear Modulus (GPa) = 28.32369 37.73992 33.03181
#
# Velocity S-wave (km/s) = 3.29520 3.80370 3.55854
# Velocity P-wave (km/s) = 6.34413 6.80264 6.57738
#
# Compressibility (1/GPa) = 0.01487624
#
# Stress axis : x y z
#
# Youngs Moduli (GPa) = 149.94374 149.94374 94.81152
#
# Poissons Ratio (x) = 0.17148 0.15933
# Poissons Ratio (y) = 0.17148 0.15933
# Poissons Ratio (z) = 0.25198 0.25198
#
# Static dielectric constant tensor:
#      x y z
#    x 2.070170 0.000000 0.000000 
#    y 0.000000 2.070170 0.000000 
#    z 0.000000 0.000000 2.047200 
# 
# From -- ./inp_files/3171.got.cif
#   From: 2010.05.17/outbox.cif.g08.bks.cpg/sg82_2_cif.got.tgz:3171.got - 2010.06.03 18:52:26.
