data_PCOD9542783
_publ_section_title
;
Structure prediction by ZEFSAII (Michael W. Deem and Ramdas Pophale) SiO2 
 PCOD9542783
Probable space group: I -4 
;
_chemical_formula_sum "Si O2"
_cell_formula_units_Z 32
_cell_length_a 8.975032
_cell_length_b 8.975032
_cell_length_c 19.467130
_cell_angle_alpha 90.000000
_cell_angle_beta 90.000000
_cell_angle_gamma 90.000000
_cell_volume 1568.100670
_symmetry_space_group_name_H-M "I -4 "
_symmetry_group_IT_number 82
_symmetry_cell_setting 'tetragonal'
loop_
_space_group_symop_operation_xyz
x,y,z
y,-x,-z
-x,-y,z
-y,x,-z
1/2+x,1/2+y,1/2+z
1/2+y,1/2-x,1/2-z
1/2-x,1/2-y,1/2+z
1/2-y,1/2+x,1/2-z
loop_
_atom_site_type_symbol
_atom_site_label
_atom_site_fract_x
_atom_site_fract_y
_atom_site_fract_z
Si Si1 0.580429 0.159528 0.989049
Si Si2 0.236833 0.586249 0.253190
Si Si3 0.290775 0.663626 0.105921
Si Si4 0.331150 0.527666 0.401596
O O1 0.487689 0.260769 0.936199
O O2 0.741625 0.128422 0.955502
O O3 0.500000 0.000000 0.994807
O O4 0.596250 0.238045 0.062108
O O5 0.181625 0.415882 0.242339
O O6 0.325549 0.634509 0.185324
O O7 0.321245 0.597064 0.325184
O O8 0.130165 0.746186 0.104096
O O9 0.500000 0.500000 0.420753
#
# Coordination Sequence:
#
# PCOD9542783 Si02
#       4
#     8   8   8   8
#     4  10  22  39  59  96 126 157 205 260 314 366
#     4   9  16  36  61  88 122 161 208 249 302 370
#     4  10  21  38  63  86 126 167 199 258 310 370
#     4  10  21  35  62  94 122 159 210 258 302 369
#
# _framework density 20.406852000000001
#
# number of rings (size 3 to 8) (size 9 to 14) (size 15 to 20)
#    0.000    2.250    2.500    0.000    7.000    0.500 
#    4.500    0.000    0.000    0.000    0.000    0.000 
#    0.000    0.000    0.000    0.000    0.000    0.000 
#
# Total GULP energy -89410.611544 kJ/mol
# GULP energy per Si atom -5588.163221 kJ/mol
# Density = 2.036041 g / cm^3
# Si number density = 20.406852 Si / 1000 Ang^3
#
#
#
# Elastic Constant Matrix: (Units=GPa)
#
#
# Indices 1 2 3 4 5 6 
#
# 1 60.8802 7.3507 39.4015 0.0000 0.0000 -2.4799
# 2 7.3507 60.8802 39.4015 0.0000 0.0000 2.4799
# 3 39.4015 39.4015 174.2989 0.0000 0.0000 0.0000
# 4 0.0000 0.0000 0.0000 28.1042 0.0000 0.0000
# 5 0.0000 0.0000 0.0000 0.0000 28.1042 0.0000
# 6 -2.4799 2.4799 0.0000 0.0000 0.0000 12.4781
#
#
#
# Elastic Compliance Matrix: (Units=1/GPa)
#
#
# Indices 1 2 3 4 5 6 
#
# 1 0.019433 0.000401 -0.004484 0.000000 0.000000 0.003782
# 2 0.000401 0.019433 -0.004484 0.000000 0.000000 -0.003782
# 3 -0.004484 -0.004484 0.007764 0.000000 0.000000 0.000000
# 4 0.000000 0.000000 0.000000 0.035582 0.000000 0.000000
# 5 0.000000 0.000000 0.000000 0.000000 0.035582 0.000000
# 6 0.003782 -0.003782 0.000000 0.000000 0.000000 0.081644
#
#
# Mechanical properties :
#
#
# Convention : Reuss Voigt Hill
#
# Bulk Modulus (GPa) = 33.89984 52.04072 42.97028
# Shear Modulus (GPa) = 22.08446 27.73100 24.90773
#
# Velocity S-wave (km/s) = 3.29326 3.69033 3.49744
# Velocity P-wave (km/s) = 5.57753 6.61173 6.11653
#
# Compressibility (1/GPa) = 0.02949866
#
# Stress axis : x y z
#
# Youngs Moduli (GPa) = 51.45838 51.45838 128.79241
#
# Poissons Ratio (x) = -0.02066 0.57747
# Poissons Ratio (y) = -0.02066 0.57747
# Poissons Ratio (z) = 0.23073 0.23073
#
# Static dielectric constant tensor:
#      x y z
#    x 1.716510 0.000000 0.000000 
#    y 0.000000 1.716510 0.000000 
#    z 0.000000 0.000000 1.722970 
# 
# From -- ./inp_files/2860.got.cif
#   From: 2010.05.17/outbox.cif.g08.bks.cpg/sg82_2_cif.got.tgz:2860.got - 2010.06.03 18:52:26.
