data_PCOD9542347
_publ_section_title
;
Structure prediction by ZEFSAII (Michael W. Deem and Ramdas Pophale) SiO2 
 PCOD9542347
Probable space group: P -4
;
_chemical_formula_sum "Si O2"
_cell_formula_units_Z 26
_cell_length_a 8.193152
_cell_length_b 8.193152
_cell_length_c 16.718569
_cell_angle_alpha 90.000000
_cell_angle_beta 90.000000
_cell_angle_gamma 90.000000
_cell_volume 1122.279748
_symmetry_space_group_name_H-M "P -4"
_symmetry_group_IT_number 81
_symmetry_cell_setting 'tetragonal'
loop_
_space_group_symop_operation_xyz
x,y,z
y,-x,-z
-x,-y,z
-y,x,-z
loop_
_atom_site_type_symbol
_atom_site_label
_atom_site_fract_x
_atom_site_fract_y
_atom_site_fract_z
Si Si1 0.364912 0.722768 0.527685
Si Si2 0.904819 0.257999 0.823587
Si Si3 0.500000 0.000000 0.872013
Si Si4 0.778041 0.898722 0.770021
Si Si5 0.736316 0.131396 0.378977
Si Si6 0.258138 0.990568 0.006047
Si Si7 0.775449 0.386833 0.673929
O O1 0.552800 0.716069 0.502148
O O2 0.268658 0.854118 0.474891
O O3 0.354948 0.715309 0.623373
O O4 0.920261 0.318451 0.914150
O O5 0.791968 0.368807 0.768324
O O6 0.092872 0.239529 0.796017
O O7 0.838186 0.075275 0.803207
O O8 0.397011 0.115899 0.812807
O O9 0.377573 0.923162 0.938433
O O10 0.797028 0.885181 0.673535
O O11 0.575833 0.231560 0.349617
O O12 0.692897 0.945652 0.357047
O O13 0.147118 0.131266 0.965834
#
# Coordination Sequence:
#
# PCOD9542347 Si02
#       7
#     4   4   2   4   4   4   4
#     4   9  18  34  53  76 113 161 198 229 283 348
#     4  10  19  38  57  82 113 150 183 239 293 346
#     4  12  22  34  62  88 108 146 192 234 282 350
#     4  10  20  35  57  84 113 140 192 239 285 338
#     4   9  19  35  54  82 114 147 193 244 283 340
#     4  11  20  39  61  83 113 150 190 234 291 350
#     4   9  19  34  57  81 112 152 195 235 291 342
#
# _framework density 23.167128999999999
#
# number of rings (size 3 to 8) (size 9 to 14) (size 15 to 20)
#    0.000    2.154    3.077    0.923    0.000    4.923 
#    0.000    1.538    0.000    2.308    0.000    0.000 
#    0.000    0.000    0.000    0.000    0.000    0.000 
#
# Total GULP energy -144779.189402 kJ/mol
# GULP energy per Si atom -5568.430362 kJ/mol
# Density = 2.311440 g / cm^3
# Si number density = 23.167129 Si / 1000 Ang^3
#
#
#
# Elastic Constant Matrix: (Units=GPa)
#
#
# Indices 1 2 3 4 5 6 
#
# 1 51.2034 0.6230 12.1817 0.0000 0.0000 -3.5827
# 2 0.6230 51.2034 12.1817 0.0000 0.0000 3.5827
# 3 12.1817 12.1817 97.1969 0.0000 0.0000 0.0000
# 4 0.0000 0.0000 0.0000 28.2456 0.0000 0.0000
# 5 0.0000 0.0000 0.0000 0.0000 28.2456 0.0000
# 6 -3.5827 3.5827 0.0000 0.0000 0.0000 14.8103
#
#
#
# Elastic Compliance Matrix: (Units=1/GPa)
#
#
# Indices 1 2 3 4 5 6 
#
# 1 0.020488 0.000016 -0.002570 0.000000 0.000000 0.004952
# 2 0.000016 0.020488 -0.002570 0.000000 0.000000 -0.004952
# 3 -0.002570 -0.002570 0.010933 0.000000 0.000000 0.000000
# 4 0.000000 0.000000 0.000000 0.035404 0.000000 0.000000
# 5 0.000000 0.000000 0.000000 0.000000 0.035404 0.000000
# 6 0.004952 -0.004952 0.000000 0.000000 0.000000 0.069917
#
#
# Mechanical properties :
#
#
# Convention : Reuss Voigt Hill
#
# Bulk Modulus (GPa) = 24.00373 27.73071 25.86722
# Shear Modulus (GPa) = 23.06633 25.90146 24.48390
#
# Velocity S-wave (km/s) = 3.15881 3.34732 3.25443
# Velocity P-wave (km/s) = 4.86701 5.18992 5.03105
#
# Compressibility (1/GPa) = 0.04166018
#
# Stress axis : x y z
#
# Youngs Moduli (GPa) = 48.81003 48.81003 91.47032
#
# Poissons Ratio (x) = -0.00076 0.23505
# Poissons Ratio (y) = -0.00076 0.23505
# Poissons Ratio (z) = 0.12542 0.12542
#
# Static dielectric constant tensor:
#      x y z
#    x 1.937770 0.000000 0.000000 
#    y 0.000000 1.937770 0.000000 
#    z 0.000000 0.000000 2.008050 
# 
# From -- ./inp_files/1745.got.cif
#   From: 2010.05.17/outbox.cif.g08.bks.cpg/sg81_cif.got.tgz:1745.got - 2010.06.03 18:51:07.
