data_PCOD9542973
_publ_section_title
;
Structure prediction by ZEFSAII (Michael W. Deem and Ramdas Pophale) SiO2 
 PCOD9542973
Probable space group: I -4 
;
_chemical_formula_sum "Si O2"
_cell_formula_units_Z 32
_cell_length_a 8.421887
_cell_length_b 8.421887
_cell_length_c 19.000270
_cell_angle_alpha 90.000000
_cell_angle_beta 90.000000
_cell_angle_gamma 90.000000
_cell_volume 1347.654583
_symmetry_space_group_name_H-M "I -4 "
_symmetry_group_IT_number 82
_symmetry_cell_setting 'tetragonal'
loop_
_space_group_symop_operation_xyz
x,y,z
y,-x,-z
-x,-y,z
-y,x,-z
1/2+x,1/2+y,1/2+z
1/2+y,1/2-x,1/2-z
1/2-x,1/2-y,1/2+z
1/2-y,1/2+x,1/2-z
loop_
_atom_site_type_symbol
_atom_site_label
_atom_site_fract_x
_atom_site_fract_y
_atom_site_fract_z
Si Si1 0.870310 0.773231 0.018646
Si Si2 0.409170 0.661582 0.091626
Si Si3 0.890695 0.699389 0.716964
Si Si4 0.431015 0.833732 0.839909
O O1 0.770562 0.652711 0.970469
O O2 0.859891 0.698214 0.096694
O O3 0.051785 0.792607 0.991387
O O4 0.500000 0.500000 0.071636
O O5 0.517413 0.764479 0.144326
O O6 0.264359 0.582946 0.133366
O O7 0.806623 0.528712 0.724033
O O8 0.765280 0.840442 0.719885
O O9 0.500000 0.000000 0.820874
#
# Coordination Sequence:
#
# PCOD9542973 Si02
#       4
#     8   8   8   8
#     4  11  25  43  75 119 162 206 252 327 401 475
#     4  10  24  45  73 112 154 207 263 320 395 463
#     4  10  25  48  77 108 145 208 264 316 384 472
#     4  11  24  47  74 115 157 203 263 328 395 467
#
# _framework density 23.744959999999999
#
# number of rings (size 3 to 8) (size 9 to 14) (size 15 to 20)
#    0.000    1.500    2.500    0.000   14.000    0.000 
#   13.500    0.000    0.000    0.000    0.000    0.000 
#    0.000    0.000    0.000    0.000    0.000    0.000 
#
# Total GULP energy -89540.779968 kJ/mol
# GULP energy per Si atom -5596.298748 kJ/mol
# Density = 2.369092 g / cm^3
# Si number density = 23.744960 Si / 1000 Ang^3
#
#
#
# Elastic Constant Matrix: (Units=GPa)
#
#
# Indices 1 2 3 4 5 6 
#
# 1 135.6013 55.4658 66.8266 0.0000 0.0000 -15.0388
# 2 55.4658 135.6013 66.8266 0.0000 0.0000 15.0388
# 3 66.8266 66.8266 110.4889 0.0000 0.0000 0.0000
# 4 0.0000 0.0000 0.0000 37.0386 0.0000 0.0000
# 5 0.0000 0.0000 0.0000 0.0000 37.0386 0.0000
# 6 -15.0388 15.0388 0.0000 0.0000 0.0000 49.1137
#
#
#
# Elastic Compliance Matrix: (Units=1/GPa)
#
#
# Indices 1 2 3 4 5 6 
#
# 1 0.011586 -0.002514 -0.005487 0.000000 0.000000 0.004317
# 2 -0.002514 0.011586 -0.005487 0.000000 0.000000 -0.004317
# 3 -0.005487 -0.005487 0.015688 0.000000 0.000000 0.000000
# 4 0.000000 0.000000 0.000000 0.026999 0.000000 0.000000
# 5 0.000000 0.000000 0.000000 0.000000 0.026999 0.000000
# 6 0.004317 -0.004317 0.000000 0.000000 0.000000 0.023005
#
#
# Mechanical properties :
#
#
# Convention : Reuss Voigt Hill
#
# Bulk Modulus (GPa) = 84.14629 84.43663 84.29146
# Shear Modulus (GPa) = 34.06036 37.47635 35.76836
#
# Velocity S-wave (km/s) = 3.79149 3.97708 3.88539
# Velocity P-wave (km/s) = 7.39470 7.53170 7.46352
#
# Compressibility (1/GPa) = 0.01188407
#
# Stress axis : x y z
#
# Youngs Moduli (GPa) = 86.31404 86.31404 63.74312
#
# Poissons Ratio (x) = 0.21697 0.34975
# Poissons Ratio (y) = 0.21697 0.34975
# Poissons Ratio (z) = 0.47360 0.47360
#
# Static dielectric constant tensor:
#      x y z
#    x 1.928870 0.000000 0.000000 
#    y 0.000000 1.928870 0.000000 
#    z 0.000000 0.000000 1.895850 
# 
# From -- ./inp_files/2874.got.cif
#   From: 2010.05.17/outbox.cif.g08.bks.cpg/sg82_2_cif.got.tgz:2874.got - 2010.06.03 18:52:26.
