data_PCOD9542354
_publ_section_title
;
Structure prediction by ZEFSAII (Michael W. Deem and Ramdas Pophale) SiO2 
 PCOD9542354
Probable space group: P -4
;
_chemical_formula_sum "Si O2"
_cell_formula_units_Z 24
_cell_length_a 13.808893
_cell_length_b 13.808893
_cell_length_c 7.619754
_cell_angle_alpha 90.000000
_cell_angle_beta 90.000000
_cell_angle_gamma 90.000000
_cell_volume 1452.976799
_symmetry_space_group_name_H-M "P -4"
_symmetry_group_IT_number 81
_symmetry_cell_setting 'tetragonal'
loop_
_space_group_symop_operation_xyz
x,y,z
y,-x,-z
-x,-y,z
-y,x,-z
loop_
_atom_site_type_symbol
_atom_site_label
_atom_site_fract_x
_atom_site_fract_y
_atom_site_fract_z
Si Si1 0.889047 0.223759 0.126483
Si Si2 0.268753 0.617572 0.166867
Si Si3 0.276241 0.389048 0.126484
Si Si4 0.231247 0.882429 0.833133
Si Si5 0.621638 0.396966 0.520218
Si Si6 0.896966 0.878362 0.520218
O O1 0.829752 0.323634 0.135977
O O2 0.864585 0.160994 0.300264
O O3 0.004017 0.238530 0.124230
O O4 0.849350 0.165328 0.959217
O O5 0.261470 0.504018 0.124230
O O6 0.303190 0.628335 0.367696
O O7 0.349350 0.665328 0.040783
O O8 0.176366 0.329752 0.135977
O O9 0.339005 0.364586 0.300264
O O10 0.196811 0.871665 0.632304
O O11 0.512750 0.374706 0.452247
O O12 0.012750 0.874706 0.547753
#
# Coordination Sequence:
#
# PCOD9542354 Si02
#       6
#     4   4   4   4   4   4
#     4  10  20  33  50  72  98 128 162 200 241 285
#     4  10  20  33  50  72  98 128 162 200 241 285
#     4  10  20  33  50  72  98 128 162 200 241 285
#     4  10  20  33  50  72  98 128 162 200 241 285
#     4   9  17  30  50  74  97 123 158 198 237 281
#     4   9  17  30  50  74  97 123 158 198 237 281
#
# _framework density 16.517813
#
# number of rings (size 3 to 8) (size 9 to 14) (size 15 to 20)
#    0.000    2.333    0.000    3.000    0.000    4.000 
#    0.000    0.000    0.000    0.000    0.000    9.333 
#    0.000    0.000    0.000    0.000    0.000    0.000 
#
# Total GULP energy -133883.829060 kJ/mol
# GULP energy per Si atom -5578.492878 kJ/mol
# Density = 1.648022 g / cm^3
# Si number density = 16.517813 Si / 1000 Ang^3
#
#
#
# Elastic Constant Matrix: (Units=GPa)
#
#
# Indices 1 2 3 4 5 6 
#
# 1 36.5086 20.3350 -0.1188 0.0000 0.0000 9.1440
# 2 20.3350 36.5086 -0.1188 0.0000 0.0000 -9.1440
# 3 -0.1188 -0.1188 25.3248 0.0000 0.0000 0.0000
# 4 0.0000 0.0000 0.0000 21.5748 0.0000 0.0000
# 5 0.0000 0.0000 0.0000 0.0000 21.5748 0.0000
# 6 9.1440 -9.1440 0.0000 0.0000 0.0000 6.4266
#
#
#
# Elastic Compliance Matrix: (Units=1/GPa)
#
#
# Indices 1 2 3 4 5 6 
#
# 1 -0.041981 0.059573 0.000083 0.000000 0.000000 0.144493
# 2 0.059573 -0.041981 0.000083 0.000000 0.000000 -0.144493
# 3 0.000083 0.000083 0.039488 0.000000 0.000000 0.000000
# 4 0.000000 0.000000 0.000000 0.046350 0.000000 0.000000
# 5 0.000000 0.000000 0.000000 0.000000 0.046350 0.000000
# 6 0.144493 -0.144493 0.000000 0.000000 0.000000 -0.255575
#
#
# Mechanical properties :
#
#
# Convention : Reuss Voigt Hill
#
# Bulk Modulus (GPa) = 13.33287 15.39301 14.36294
# Shear Modulus (GPa) = -16.56602 15.13153 -0.71725
#
# Velocity S-wave (km/s) = -3.17032 3.02995 -0.65967
# Velocity P-wave (km/s) = 2.30477 4.64544 2.85203
#
# Compressibility (1/GPa) = 0.07500263
#
# Stress axis : x y z
#
# Youngs Moduli (GPa) = -23.82056 -23.82056 25.32435
#
# Poissons Ratio (x) = 1.41906 -0.00209
# Poissons Ratio (y) = 1.41906 -0.00209
# Poissons Ratio (z) = 0.00197 0.00197
#
# Static dielectric constant tensor:
#      x y z
#    x 1.535080 0.000000 0.000000 
#    y 0.000000 1.535080 0.000000 
#    z 0.000000 0.000000 1.540860 
# 
# From -- ./inp_files/274.got.cif
#   From: 2010.05.17/outbox.cif.g08.bks.cpg/sg81_cif.got.tgz:274.got - 2010.06.03 18:51:07.
