data_PCOD9542287
_publ_section_title
;
Structure prediction by ZEFSAII (Michael W. Deem and Ramdas Pophale) SiO2 
 PCOD9542287
Probable space group: I 41
;
_chemical_formula_sum "Si O2"
_cell_formula_units_Z 32
_cell_length_a 8.626107
_cell_length_b 8.626107
_cell_length_c 18.250014
_cell_angle_alpha 90.000000
_cell_angle_beta 90.000000
_cell_angle_gamma 90.000000
_cell_volume 1357.978468
_symmetry_space_group_name_H-M "I 41"
_symmetry_group_IT_number 80
_symmetry_cell_setting 'tetragonal'
loop_
_space_group_symop_operation_xyz
x,y,z
-y,1/2+x,1/4+z
-x,-y,z
y,1/2-x,1/4+z
1/2+x,1/2+y,1/2+z
1/2-y,x,3/4+z
1/2-x,1/2-y,1/2+z
1/2+y,-x,3/4+z
loop_
_atom_site_type_symbol
_atom_site_label
_atom_site_fract_x
_atom_site_fract_y
_atom_site_fract_z
Si Si1 0.310650 0.650179 0.051560
Si Si2 0.381219 0.862610 0.694432
Si Si3 0.362612 0.118784 0.864524
Si Si4 0.849822 0.810651 0.507395
O O1 0.245401 0.604524 0.131126
O O2 0.302031 0.490860 0.005118
O O3 0.490860 0.697966 0.053838
O O4 0.213993 0.786979 0.011691
O O5 0.500003 0.750001 0.654478
O O6 0.500000 0.000000 0.709514
O O7 0.286010 0.213024 0.797265
O O8 0.500000 0.000000 0.849442
O O9 0.395479 0.245404 0.927829
#
# Coordination Sequence:
#
# PCOD9542287 Si02
#       4
#     8   8   8   8
#     4  11  26  50  76 109 153 203 252 312 383 456
#     4  12  27  46  76 113 152 198 253 315 380 453
#     4  12  27  46  76 113 152 198 253 315 380 453
#     4  11  26  50  76 109 153 203 252 312 383 456
#
# _framework density 23.564440000000001
#
# number of rings (size 3 to 8) (size 9 to 14) (size 15 to 20)
#    0.000    0.500    5.000    1.500    7.000    0.000 
#    9.000    0.000    0.000    0.000    0.000    0.000 
#    0.000    0.000    0.000    0.000    0.000    0.000 
#
# Total GULP energy -89422.505507 kJ/mol
# GULP energy per Si atom -5588.906594 kJ/mol
# Density = 2.351081 g / cm^3
# Si number density = 23.564440 Si / 1000 Ang^3
#
#
#
# Elastic Constant Matrix: (Units=GPa)
#
#
# Indices 1 2 3 4 5 6 
#
# 1 158.6727 74.5664 40.5913 0.0000 0.0000 10.3691
# 2 74.5664 158.6727 40.5913 0.0000 0.0000 -10.3691
# 3 40.5913 40.5913 95.6496 0.0000 0.0000 0.0000
# 4 0.0000 0.0000 0.0000 25.8080 0.0000 0.0000
# 5 0.0000 0.0000 0.0000 0.0000 25.8080 0.0000
# 6 10.3691 -10.3691 0.0000 0.0000 0.0000 57.1795
#
#
#
# Elastic Compliance Matrix: (Units=1/GPa)
#
#
# Indices 1 2 3 4 5 6 
#
# 1 0.008738 -0.003708 -0.002135 0.000000 0.000000 -0.002257
# 2 -0.003708 0.008738 -0.002135 0.000000 0.000000 0.002257
# 3 -0.002135 -0.002135 0.012267 0.000000 0.000000 0.000000
# 4 0.000000 0.000000 0.000000 0.038748 0.000000 0.000000
# 5 0.000000 0.000000 0.000000 0.000000 0.038748 0.000000
# 6 -0.002257 0.002257 0.000000 0.000000 0.000000 0.018307
#
#
# Mechanical properties :
#
#
# Convention : Reuss Voigt Hill
#
# Bulk Modulus (GPa) = 72.52428 80.49923 76.51175
# Shear Modulus (GPa) = 34.22375 38.90884 36.56630
#
# Velocity S-wave (km/s) = 3.81510 4.06786 3.94351
# Velocity P-wave (km/s) = 7.08876 7.50326 7.29895
#
# Compressibility (1/GPa) = 0.01378849
#
# Stress axis : x y z
#
# Youngs Moduli (GPa) = 114.43781 114.43781 81.52113
#
# Poissons Ratio (x) = 0.42432 0.17403
# Poissons Ratio (y) = 0.42432 0.17403
# Poissons Ratio (z) = 0.24430 0.24430
#
# Static dielectric constant tensor:
#      x y z
#    x 1.457100 0.000000 0.000000 
#    y 0.000000 1.457100 0.000000 
#    z 0.000000 0.000000 2.135790 
# 
# From -- ./inp_files/1656.got.cif
#   From: 2010.05.17/outbox.cif.g08.bks.cpg/sg80_cif.got.tgz:1656.got - 2010.06.03 18:49:13.
