data_PCOD9542317
_publ_section_title
;
Structure prediction by ZEFSAII (Michael W. Deem and Ramdas Pophale) SiO2 
 PCOD9542317
Probable space group: I 41
;
_chemical_formula_sum "Si O2"
_cell_formula_units_Z 30
_cell_length_a 18.000000
_cell_length_b 18.000000
_cell_length_c 9.000000
_cell_angle_alpha 90.000000
_cell_angle_beta 90.000000
_cell_angle_gamma 90.000000
_cell_volume 2916.000000
_symmetry_space_group_name_H-M "I 41"
_symmetry_group_IT_number 80
_symmetry_cell_setting 'tetragonal'
loop_
_space_group_symop_operation_xyz
x,y,z
-y,1/2+x,1/4+z
-x,-y,z
y,1/2-x,1/4+z
1/2+x,1/2+y,1/2+z
1/2-y,x,3/4+z
1/2-x,1/2-y,1/2+z
1/2+y,-x,3/4+z
loop_
_atom_site_type_symbol
_atom_site_label
_atom_site_fract_x
_atom_site_fract_y
_atom_site_fract_z
Si Si1 0.301374 0.686383 0.255710
Si Si2 0.308274 0.180831 0.181499
Si Si3 0.612702 0.080943 0.895384
Si Si4 0.464818 0.133588 0.293602
Si Si5 0.479224 0.268304 0.800871
Si Si6 0.534646 0.139600 0.611199
Si Si7 0.500000 0.000000 0.105881
Si Si8 0.421560 0.779431 0.074526
O O1 0.300900 0.727882 0.411696
O O2 0.312503 0.600356 0.287375
O O3 0.367510 0.721876 0.156704
O O4 0.245378 0.191061 0.307410
O O5 0.387884 0.176504 0.265383
O O6 0.293485 0.103255 0.093700
O O7 0.581590 0.086737 0.726380
O O8 0.546763 0.050428 0.996935
O O9 0.624998 0.161886 0.972078
O O10 0.678165 0.023757 0.936593
O O11 0.487743 0.117326 0.464701
O O12 0.454627 0.054585 0.211703
O O13 0.529481 0.177930 0.201058
O O14 0.483252 0.188076 0.720980
O O15 0.525078 0.260751 0.955113
#
# Coordination Sequence:
#
# PCOD9542317 Si02
#       8
#     8   8   8   8   8   8   4   8
#     4  12  25  38  61 102 149 193 232 273 337 417
#     4  12  28  50  76 105 134 183 242 311 382 434
#     4  10  22  41  66  97 136 184 233 280 355 417
#     4  11  23  48  66 105 139 184 237 299 365 430
#     4  11  23  45  71  99 141 191 234 299 358 432
#     4  11  26  41  66 104 146 181 234 296 347 427
#     4  10  22  42  72  96 128 178 234 282 358 438
#     4  10  22  41  66  95 144 194 238 283 341 429
#
# _framework density 10.288066000000001
#
# number of rings (size 3 to 8) (size 9 to 14) (size 15 to 20)
#    0.000    1.067    4.000    1.600    9.333    0.533 
#    0.000    1.333    0.000    0.000    0.000    0.000 
#    0.000    0.000    0.000    0.000    0.000    0.000 
#
# Total GULP energy -167527.473263 kJ/mol
# GULP energy per Si atom -5584.249109 kJ/mol
# Density = 1.026465 g / cm^3
# Si number density = 10.288066 Si / 1000 Ang^3
#
#
#
# Elastic Constant Matrix: (Units=GPa)
#
#
# Indices 1 2 3 4 5 6 
#
# 1 57.2219 22.8521 37.4564 0.0000 0.0000 -4.3589
# 2 22.8521 57.2219 37.4564 0.0000 0.0000 4.3589
# 3 37.4564 37.4564 147.8761 0.0000 0.0000 0.0000
# 4 0.0000 0.0000 0.0000 31.8859 0.0000 0.0000
# 5 0.0000 0.0000 0.0000 0.0000 31.8859 0.0000
# 6 -4.3589 4.3589 0.0000 0.0000 0.0000 25.0730
#
#
#
# Elastic Compliance Matrix: (Units=1/GPa)
#
#
# Indices 1 2 3 4 5 6 
#
# 1 0.023402 -0.007035 -0.004146 0.000000 0.000000 0.005291
# 2 -0.007035 0.023402 -0.004146 0.000000 0.000000 -0.005291
# 3 -0.004146 -0.004146 0.008863 0.000000 0.000000 0.000000
# 4 0.000000 0.000000 0.000000 0.031362 0.000000 0.000000
# 5 0.000000 0.000000 0.000000 0.000000 0.031362 0.000000
# 6 0.005291 -0.005291 0.000000 0.000000 0.000000 0.041723
#
#
# Mechanical properties :
#
#
# Convention : Reuss Voigt Hill
#
# Bulk Modulus (GPa) = 39.97807 50.87220 45.42514
# Shear Modulus (GPa) = 25.11235 28.73927 26.92581
#
# Velocity S-wave (km/s) = 3.49730 3.74134 3.62137
# Velocity P-wave (km/s) = 5.98161 6.59098 6.29368
#
# Compressibility (1/GPa) = 0.02501371
#
# Stress axis : x y z
#
# Youngs Moduli (GPa) = 42.73108 42.73108 112.83387
#
# Poissons Ratio (x) = 0.30062 0.46777
# Poissons Ratio (y) = 0.30062 0.46777
# Poissons Ratio (z) = 0.17715 0.17715
#
# Static dielectric constant tensor:
#      x y z
#    x 1.761430 0.000000 0.000000 
#    y 0.000000 1.761430 0.000000 
#    z 0.000000 0.000000 1.697580 
# 
# From -- ./inp_files/742.got.cif
#   From: 2010.05.17/outbox.ucp.g08.bks.cvg/sg80_cif.got.tgz:742.got - 2010.06.11 10:34:24.
