data_PCOD9542509
_publ_section_title
;
Structure prediction by ZEFSAII (Michael W. Deem and Ramdas Pophale) SiO2 
 PCOD9542509
Probable space group: P -4
;
_chemical_formula_sum "Si O2"
_cell_formula_units_Z 10
_cell_length_a 5.222791
_cell_length_b 5.222791
_cell_length_c 15.880882
_cell_angle_alpha 90.000000
_cell_angle_beta 90.000000
_cell_angle_gamma 90.000000
_cell_volume 433.191487
_symmetry_space_group_name_H-M "P -4"
_symmetry_group_IT_number 81
_symmetry_cell_setting 'tetragonal'
loop_
_space_group_symop_operation_xyz
x,y,z
y,-x,-z
-x,-y,z
-y,x,-z
loop_
_atom_site_type_symbol
_atom_site_label
_atom_site_fract_x
_atom_site_fract_y
_atom_site_fract_z
Si Si1 0.500000 0.000000 0.389825
Si Si2 0.500000 0.500000 0.000000
Si Si3 0.500000 0.500000 0.500000
Si Si4 0.000000 0.000000 0.717970
Si Si5 0.847025 0.756279 0.116444
O O1 0.566649 0.750102 0.444769
O O2 0.244582 0.920201 0.337313
O O3 0.717479 0.414058 0.933752
O O4 0.798803 0.136583 0.782727
O O5 0.000000 0.500000 0.098585
O O6 0.000000 0.000000 0.085806
#
# Coordination Sequence:
#
# PCOD9542509 Si02
#       5
#     2   1   1   2   4
#     4  12  26  48  80 108 158 182 250 306 378 480
#     4  12  28  46  76 104 172 198 292 332 380 458
#     4  12  28  46  80 120 140 198 232 304 400 454
#     4  10  28  47  79 106 154 200 252 312 382 460
#     4  10  28  45  73 109 148 207 267 318 395 441
#
# _framework density 23.084481
#
# number of rings (size 3 to 8) (size 9 to 14) (size 15 to 20)
#    1.200    0.000    0.000    2.400   16.800    0.000 
#    0.000    0.000    0.000    0.000    0.000    0.000 
#    0.000    0.000    0.000    0.000    0.000    0.000 
#
# Total GULP energy -55749.379794 kJ/mol
# GULP energy per Si atom -5574.937979 kJ/mol
# Density = 2.303194 g / cm^3
# Si number density = 23.084481 Si / 1000 Ang^3
#
#
#
# Elastic Constant Matrix: (Units=GPa)
#
#
# Indices 1 2 3 4 5 6 
#
# 1 126.1248 8.0307 34.7406 0.0000 0.0000 0.0067
# 2 8.0307 126.1248 34.7406 0.0000 0.0000 -0.0067
# 3 34.7406 34.7406 115.7532 0.0000 0.0000 0.0000
# 4 0.0000 0.0000 0.0000 35.4579 0.0000 0.0000
# 5 0.0000 0.0000 0.0000 0.0000 35.4579 0.0000
# 6 0.0067 -0.0067 0.0000 0.0000 0.0000 38.0541
#
#
#
# Elastic Compliance Matrix: (Units=1/GPa)
#
#
# Indices 1 2 3 4 5 6 
#
# 1 0.008647 0.000179 -0.002649 0.000000 0.000000 -0.000001
# 2 0.000179 0.008647 -0.002649 0.000000 0.000000 0.000001
# 3 -0.002649 -0.002649 0.010229 0.000000 0.000000 0.000000
# 4 0.000000 0.000000 0.000000 0.028202 0.000000 0.000000
# 5 0.000000 0.000000 0.000000 0.000000 0.028202 0.000000
# 6 -0.000001 0.000001 0.000000 0.000000 0.000000 0.026278
#
#
# Mechanical properties :
#
#
# Convention : Reuss Voigt Hill
#
# Bulk Modulus (GPa) = 57.85240 58.11407 57.98324
# Shear Modulus (GPa) = 39.61794 41.16002 40.38898
#
# Velocity S-wave (km/s) = 4.14722 4.22716 4.18738
# Velocity P-wave (km/s) = 6.93167 7.00388 6.96787
#
# Compressibility (1/GPa) = 0.01728537
#
# Stress axis : x y z
#
# Youngs Moduli (GPa) = 115.64859 115.64859 97.76050
#
# Poissons Ratio (x) = -0.02071 0.25896
# Poissons Ratio (y) = -0.02071 0.25896
# Poissons Ratio (z) = 0.30634 0.30634
#
# Static dielectric constant tensor:
#      x y z
#    x 1.882770 0.000000 0.000000 
#    y 0.000000 1.882770 0.000000 
#    z 0.000000 0.000000 1.923700 
# 
# From -- ./inp_files/1685.got.cif
#   From: 2010.05.17/outbox.cif.g08.bks.cpg/sg81_cif.got.tgz:1685.got - 2010.06.03 18:51:07.
