data_PCOD9542014
_publ_section_title
;
Structure prediction by ZEFSAII (Michael W. Deem and Ramdas Pophale) SiO2 
 PCOD9542014
Probable space group: I 4
;
_chemical_formula_sum "Si O2"
_cell_formula_units_Z 50
_cell_length_a 8.391509
_cell_length_b 8.391509
_cell_length_c 30.015967
_cell_angle_alpha 90.000000
_cell_angle_beta 90.000000
_cell_angle_gamma 90.000000
_cell_volume 2113.647054
_symmetry_space_group_name_H-M "I 4"
_symmetry_group_IT_number 79
_symmetry_cell_setting 'tetragonal'
loop_
_space_group_symop_operation_xyz
x,y,z
-y,x,z
-x,-y,z
y,-x,z
1/2+x,1/2+y,1/2+z
1/2-y,1/2+x,1/2+z
1/2-x,1/2-y,1/2+z
1/2+y,1/2-x,1/2+z
loop_
_atom_site_type_symbol
_atom_site_label
_atom_site_fract_x
_atom_site_fract_y
_atom_site_fract_z
Si Si1 0.586806 0.246299 0.010060
Si Si2 0.610341 0.849580 0.691890
Si Si3 0.000000 0.000000 0.207192
Si Si4 0.754135 0.406281 0.593669
Si Si5 0.833446 0.803996 0.769270
Si Si6 0.253174 0.595684 0.429036
Si Si7 0.874495 0.227891 0.349128
O O1 0.694993 0.405894 0.012381
O O2 0.642808 0.136684 0.050799
O O3 0.624458 0.157352 0.964086
O O4 0.509631 0.693707 0.703330
O O5 0.632071 0.848889 0.638820
O O6 0.776714 0.825496 0.718233
O O7 0.500000 0.000000 0.705765
O O8 0.696179 0.589958 0.593933
O O9 0.748030 0.665761 0.796990
O O10 0.016827 0.785369 0.783189
O O11 0.301909 0.414026 0.436194
O O12 0.196186 0.632993 0.379185
O O13 0.059416 0.207878 0.360021
#
# Coordination Sequence:
#
# PCOD9542014 Si02
#       7
#     8   8   2   8   8   8   8
#     4  11  26  43  66 101 143 185 239 299 364 443
#     4  12  26  44  74 104 142 196 242 312 380 447
#     4  12  24  48  68 104 144 184 248 300 356 464
#     4  11  24  44  68 101 136 181 241 298 362 444
#     4  11  27  46  66 101 140 184 243 302 365 447
#     4  11  24  45  70 100 138 182 234 297 362 443
#     4  11  26  43  70 103 139 182 236 297 367 449
#
# _framework density 23.655795999999999
#
# number of rings (size 3 to 8) (size 9 to 14) (size 15 to 20)
#    0.000    0.800    1.600    3.840    6.720    8.960 
#    0.000    1.600    0.000    0.000    0.000    0.000 
#    0.000    0.000    0.000    0.000    0.000    0.000 
#
# Total GULP energy -139648.592664 kJ/mol
# GULP energy per Si atom -5585.943707 kJ/mol
# Density = 2.360195 g / cm^3
# Si number density = 23.655796 Si / 1000 Ang^3
#
#
#
# Elastic Constant Matrix: (Units=GPa)
#
#
# Indices 1 2 3 4 5 6 
#
# 1 47.8993 13.8100 7.9799 0.0000 0.0000 -8.7537
# 2 13.8100 47.8993 7.9799 0.0000 0.0000 8.7537
# 3 7.9799 7.9799 124.9514 0.0000 0.0000 0.0000
# 4 0.0000 0.0000 0.0000 34.6585 0.0000 0.0000
# 5 0.0000 0.0000 0.0000 0.0000 34.6585 0.0000
# 6 -8.7537 8.7537 0.0000 0.0000 0.0000 17.7905
#
#
#
# Elastic Compliance Matrix: (Units=1/GPa)
#
#
# Indices 1 2 3 4 5 6 
#
# 1 0.027866 -0.011389 -0.001052 0.000000 0.000000 0.019315
# 2 -0.011389 0.027866 -0.001052 0.000000 0.000000 -0.019315
# 3 -0.001052 -0.001052 0.008138 0.000000 0.000000 0.000000
# 4 0.000000 0.000000 0.000000 0.028853 0.000000 0.000000
# 5 0.000000 0.000000 0.000000 0.000000 0.028853 0.000000
# 6 0.019315 -0.019315 0.000000 0.000000 0.000000 0.075217
#
#
# Mechanical properties :
#
#
# Convention : Reuss Voigt Hill
#
# Bulk Modulus (GPa) = 27.11301 31.14330 29.12816
# Shear Modulus (GPa) = 21.17997 30.15351 25.66674
#
# Velocity S-wave (km/s) = 2.99547 3.57414 3.29752
# Velocity P-wave (km/s) = 4.84253 5.49785 5.18056
#
# Compressibility (1/GPa) = 0.03688266
#
# Stress axis : x y z
#
# Youngs Moduli (GPa) = 35.88643 35.88643 122.88751
#
# Poissons Ratio (x) = 0.40869 0.12932
# Poissons Ratio (y) = 0.40869 0.12931
# Poissons Ratio (z) = 0.03776 0.03776
#
# Static dielectric constant tensor:
#      x y z
#    x 1.878550 0.000000 0.000000 
#    y 0.000000 1.878550 0.000000 
#    z 0.000000 0.000000 1.867890 
# 
# From -- ./inp_files/2177.got.cif
#   From: 2010.05.17/outbox.cif.g08.bks.cpg/sg79_cif.got.tgz:2177.got - 2010.06.03 18:47:27.
