data_PCOD9542838
_publ_section_title
;
Structure prediction by ZEFSAII (Michael W. Deem and Ramdas Pophale) SiO2 
 PCOD9542838
Probable space group: I -4 
;
_chemical_formula_sum "Si O2"
_cell_formula_units_Z 34
_cell_length_a 9.642741
_cell_length_b 9.642741
_cell_length_c 13.758546
_cell_angle_alpha 90.000000
_cell_angle_beta 90.000000
_cell_angle_gamma 90.000000
_cell_volume 1279.303370
_symmetry_space_group_name_H-M "I -4 "
_symmetry_group_IT_number 82
_symmetry_cell_setting 'tetragonal'
loop_
_space_group_symop_operation_xyz
x,y,z
y,-x,-z
-x,-y,z
-y,x,-z
1/2+x,1/2+y,1/2+z
1/2+y,1/2-x,1/2-z
1/2-x,1/2-y,1/2+z
1/2-y,1/2+x,1/2-z
loop_
_atom_site_type_symbol
_atom_site_label
_atom_site_fract_x
_atom_site_fract_y
_atom_site_fract_z
Si Si1 0.000000 0.500000 0.250000
Si Si2 0.555959 0.813679 0.094882
Si Si3 0.530906 0.309497 0.443032
Si Si4 0.594838 0.369967 0.223198
Si Si5 0.934036 0.275848 0.385264
O O1 0.095908 0.581941 0.328532
O O2 0.645338 0.950064 0.070290
O O3 0.450810 0.779757 0.182206
O O4 0.677164 0.700137 0.119903
O O5 0.477021 0.776405 0.996740
O O6 0.381601 0.363105 0.479976
O O7 0.571928 0.366875 0.337575
O O8 0.500000 0.500000 0.188118
O O9 0.732016 0.424081 0.171065
#
# Coordination Sequence:
#
# PCOD9542838 Si02
#       5
#     2   8   8   8   8
#     4  12  28  40  72 108 146 164 236 300 356 392
#     4  11  24  42  72  94 137 179 235 276 341 417
#     4  11  24  43  69 103 137 180 225 294 350 414
#     4  10  21  43  67  94 131 183 231 272 348 414
#     4  11  24  44  68 102 133 183 225 288 338 422
#
# _framework density 26.576964
#
# number of rings (size 3 to 8) (size 9 to 14) (size 15 to 20)
#    0.000    1.176    4.706    1.412    6.588    1.882 
#    0.000    0.000    0.000    0.000    0.000    0.000 
#    0.000    0.000    0.000    0.000    0.000    0.000 
#
# Total GULP energy -94908.072799 kJ/mol
# GULP energy per Si atom -5582.827812 kJ/mol
# Density = 2.651647 g / cm^3
# Si number density = 26.576964 Si / 1000 Ang^3
#
#
#
# Elastic Constant Matrix: (Units=GPa)
#
#
# Indices 1 2 3 4 5 6 
#
# 1 66.9874 10.0222 20.3377 0.0000 0.0000 3.2355
# 2 10.0222 66.9875 20.3377 0.0000 0.0000 -3.2355
# 3 20.3377 20.3377 164.9566 0.0000 0.0000 0.0000
# 4 0.0000 0.0000 0.0000 35.1776 0.0000 0.0000
# 5 0.0000 0.0000 0.0000 0.0000 35.1776 0.0000
# 6 3.2355 -3.2355 0.0000 0.0000 0.0000 43.9606
#
#
#
# Elastic Compliance Matrix: (Units=1/GPa)
#
#
# Indices 1 2 3 4 5 6 
#
# 1 0.015796 -0.001906 -0.001713 0.000000 0.000000 -0.001303
# 2 -0.001906 0.015796 -0.001713 0.000000 0.000000 0.001303
# 3 -0.001713 -0.001713 0.006484 0.000000 0.000000 0.000000
# 4 0.000000 0.000000 0.000000 0.028427 0.000000 0.000000
# 5 0.000000 0.000000 0.000000 0.000000 0.028427 0.000000
# 6 -0.001303 0.001303 0.000000 0.000000 0.000000 0.022939
#
#
# Mechanical properties :
#
#
# Convention : Reuss Voigt Hill
#
# Bulk Modulus (GPa) = 36.47734 44.48073 40.47904
# Shear Modulus (GPa) = 36.31832 39.41207 37.86519
#
# Velocity S-wave (km/s) = 3.70068 3.85507 3.77866
# Velocity P-wave (km/s) = 5.65818 6.04883 5.85676
#
# Compressibility (1/GPa) = 0.02741428
#
# Stress axis : x y z
#
# Youngs Moduli (GPa) = 63.30622 63.30623 154.21450
#
# Poissons Ratio (x) = 0.12068 0.26409
# Poissons Ratio (y) = 0.12068 0.26409
# Poissons Ratio (z) = 0.10841 0.10841
#
# Static dielectric constant tensor:
#      x y z
#    x 2.360210 0.000000 0.000000 
#    y 0.000000 2.360210 0.000000 
#    z 0.000000 0.000000 1.968050 
# 
# From -- ./inp_files/1528.got.cif
#   From: 2010.05.17/outbox.cif.g08.bks.cpg/sg82_1_cif.got.tgz:1528.got - 2010.06.03 18:52:26.
