data_PCOD9542782
_publ_section_title
;
Structure prediction by ZEFSAII (Michael W. Deem and Ramdas Pophale) SiO2 
 PCOD9542782
Probable space group: I -4 
;
_chemical_formula_sum "Si O2"
_cell_formula_units_Z 44
_cell_length_a 17.377831
_cell_length_b 17.377831
_cell_length_c 6.048925
_cell_angle_alpha 90.000000
_cell_angle_beta 90.000000
_cell_angle_gamma 90.000000
_cell_volume 1826.708874
_symmetry_space_group_name_H-M "I -4 "
_symmetry_group_IT_number 82
_symmetry_cell_setting 'tetragonal'
loop_
_space_group_symop_operation_xyz
x,y,z
y,-x,-z
-x,-y,z
-y,x,-z
1/2+x,1/2+y,1/2+z
1/2+y,1/2-x,1/2-z
1/2-x,1/2-y,1/2+z
1/2-y,1/2+x,1/2-z
loop_
_atom_site_type_symbol
_atom_site_label
_atom_site_fract_x
_atom_site_fract_y
_atom_site_fract_z
Si Si1 0.000000 0.500000 0.250000
Si Si2 0.962545 0.355293 0.470464
Si Si3 0.377289 0.311907 0.979664
Si Si4 0.461538 0.650065 0.219020
Si Si5 0.384582 0.169799 0.229567
Si Si6 0.500000 0.500000 0.000000
Si Si7 0.245899 0.984805 0.899625
O O1 0.050510 0.557717 0.392791
O O2 0.902339 0.339842 0.667204
O O3 0.963162 0.297412 0.263987
O O4 0.050256 0.356511 0.556892
O O5 0.327340 0.387636 0.930383
O O6 0.416646 0.290363 0.747426
O O7 0.454418 0.327467 0.124877
O O8 0.339552 0.238758 0.103885
O O9 0.460825 0.559356 0.168423
O O10 0.464112 0.683728 0.465105
O O11 0.436477 0.204882 0.425232
#
# Coordination Sequence:
#
# PCOD9542782 Si02
#       7
#     2   8   8   8   8   2   8
#     4  12  20  34  60  92 122 152 208 274 312 376
#     4  11  21  35  56  91 125 159 210 264 322 375
#     4   9  20  35  57  88 117 167 203 258 313 378
#     4   9  18  35  55  88 126 159 209 259 316 375
#     4  10  21  36  55  87 120 161 203 259 320 376
#     4   8  16  32  58  88 132 162 220 272 310 384
#     4  10  21  35  56  93 121 164 196 262 324 372
#
# _framework density 24.087033999999999
#
# number of rings (size 3 to 8) (size 9 to 14) (size 15 to 20)
#    0.000    2.182    1.818    1.091    0.000    5.818 
#    0.000    0.909    0.000    0.000   80.364    0.000 
#    0.000    0.000    0.000    0.000    0.000    0.364 
#
# Total GULP energy -122707.888992 kJ/mol
# GULP energy per Si atom -5577.631318 kJ/mol
# Density = 2.403221 g / cm^3
# Si number density = 24.087034 Si / 1000 Ang^3
#
#
#
# Elastic Constant Matrix: (Units=GPa)
#
#
# Indices 1 2 3 4 5 6 
#
# 1 78.6069 21.3250 39.8611 0.0000 0.0000 -7.3870
# 2 21.3250 78.6069 39.8611 0.0000 0.0000 7.3870
# 3 39.8611 39.8611 118.5209 0.0000 0.0000 0.0000
# 4 0.0000 0.0000 0.0000 36.5951 0.0000 0.0000
# 5 0.0000 0.0000 0.0000 0.0000 36.5951 0.0000
# 6 -7.3870 7.3870 0.0000 0.0000 0.0000 -1.3137
#
#
#
# Elastic Compliance Matrix: (Units=1/GPa)
#
#
# Indices 1 2 3 4 5 6 
#
# 1 0.010400 0.003276 -0.004600 0.000000 0.000000 -0.040063
# 2 0.003276 0.010400 -0.004600 0.000000 0.000000 0.040063
# 3 -0.004600 -0.004600 0.011531 0.000000 0.000000 0.000000
# 4 0.000000 0.000000 0.000000 0.027326 0.000000 0.000000
# 5 0.000000 0.000000 0.000000 0.000000 0.027326 0.000000
# 6 -0.040063 0.040063 0.000000 0.000000 0.000000 -0.310663
#
#
# Mechanical properties :
#
#
# Convention : Reuss Voigt Hill
#
# Bulk Modulus (GPa) = 48.81564 53.09214 50.95389
# Shear Modulus (GPa) = -24.38982 26.02113 0.81566
#
# Velocity S-wave (km/s) = -3.18554 3.29035 0.58255
# Velocity P-wave (km/s) = 2.60386 6.04358 4.65322
#
# Compressibility (1/GPa) = 0.02048524
#
# Stress axis : x y z
#
# Youngs Moduli (GPa) = 96.15006 96.15006 86.72099
#
# Poissons Ratio (x) = -0.31497 0.39888
# Poissons Ratio (y) = -0.31497 0.39888
# Poissons Ratio (z) = 0.44225 0.44225
#
# Static dielectric constant tensor:
#      x y z
#    x 2.023870 0.000000 0.000000 
#    y 0.000000 2.023870 0.000000 
#    z 0.000000 0.000000 1.955360 
# 
# From -- ./inp_files/313.got.cif
#   From: 2010.05.17/outbox.cif.g08.bks.cpg/sg82_1_cif.got.tgz:313.got - 2010.06.03 18:52:26.
