data_PCOD9542148
_publ_section_title
;
Structure prediction by ZEFSAII (Michael W. Deem and Ramdas Pophale) SiO2 
 PCOD9542148
Probable space group: I 41
;
_chemical_formula_sum "Si O2"
_cell_formula_units_Z 60
_cell_length_a 17.849268
_cell_length_b 17.849268
_cell_length_c 7.930067
_cell_angle_alpha 90.000000
_cell_angle_beta 90.000000
_cell_angle_gamma 90.000000
_cell_volume 2526.490545
_symmetry_space_group_name_H-M "I 41"
_symmetry_group_IT_number 80
_symmetry_cell_setting 'tetragonal'
loop_
_space_group_symop_operation_xyz
x,y,z
-y,1/2+x,1/4+z
-x,-y,z
y,1/2-x,1/4+z
1/2+x,1/2+y,1/2+z
1/2-y,x,3/4+z
1/2-x,1/2-y,1/2+z
1/2+y,-x,3/4+z
loop_
_atom_site_type_symbol
_atom_site_label
_atom_site_fract_x
_atom_site_fract_y
_atom_site_fract_z
Si Si1 0.697607 0.673063 0.561740
Si Si2 0.615192 0.924321 0.618132
Si Si3 0.072324 0.785460 0.883471
Si Si4 0.394636 0.626458 0.703884
Si Si5 0.270571 0.923739 0.269754
Si Si6 0.979123 0.633698 0.836693
Si Si7 0.000000 0.000000 0.316841
Si Si8 0.093227 0.242823 0.626029
O O1 0.671949 0.751035 0.644892
O O2 0.625487 0.619528 0.535465
O O3 0.746858 0.643007 0.715100
O O4 0.541941 0.909670 0.508243
O O5 0.678778 0.884918 0.503250
O O6 0.651037 0.006125 0.629669
O O7 0.113509 0.787528 0.702394
O O8 0.037541 0.700852 0.884451
O O9 0.110796 0.812459 0.053748
O O10 0.314801 0.585595 0.711381
O O11 0.465805 0.568315 0.703096
O O12 0.400803 0.672115 0.877575
O O13 0.279393 0.011611 0.306127
O O14 0.916770 0.683375 0.739545
O O15 0.993411 0.570013 0.697035
#
# Coordination Sequence:
#
# PCOD9542148 Si02
#       8
#     8   8   8   8   8   8   4   8
#     4  12  23  33  55  90 129 187 244 288 352 457
#     4  10  21  38  58  91 131 188 232 291 375 438
#     4  10  24  46  70 105 153 190 249 318 384 456
#     4  12  26  49  80 112 150 203 254 321 384 471
#     4  10  25  50  71 107 146 193 246 314 392 443
#     4  10  21  43  66 101 143 189 239 315 379 451
#     4  12  22  46  82 112 148 194 258 312 390 462
#     4  10  21  40  60  86 135 182 232 305 368 438
#
# _framework density 23.748358
#
# number of rings (size 3 to 8) (size 9 to 14) (size 15 to 20)
#    0.000    1.600    2.667    4.800    5.600    1.067 
#    4.800    0.667    0.000    0.000    0.000    0.000 
#    0.000    0.000    0.000    0.000    0.000    0.000 
#
# Total GULP energy -167280.133352 kJ/mol
# GULP energy per Si atom -5576.004445 kJ/mol
# Density = 2.369431 g / cm^3
# Si number density = 23.748358 Si / 1000 Ang^3
#
#
#
# Elastic Constant Matrix: (Units=GPa)
#
#
# Indices 1 2 3 4 5 6 
#
# 1 56.3744 5.1366 12.0712 0.0000 0.0000 -0.4250
# 2 5.1366 56.3744 12.0712 0.0000 0.0000 0.4250
# 3 12.0712 12.0712 55.1963 0.0000 0.0000 0.0000
# 4 0.0000 0.0000 0.0000 30.4844 0.0000 0.0000
# 5 0.0000 0.0000 0.0000 0.0000 30.4844 0.0000
# 6 -0.4250 0.4250 0.0000 0.0000 0.0000 4.5288
#
#
#
# Elastic Compliance Matrix: (Units=1/GPa)
#
#
# Indices 1 2 3 4 5 6 
#
# 1 0.018665 -0.000882 -0.003889 0.000000 0.000000 0.001834
# 2 -0.000882 0.018665 -0.003889 0.000000 0.000000 -0.001834
# 3 -0.003889 -0.003889 0.019818 0.000000 0.000000 0.000000
# 4 0.000000 0.000000 0.000000 0.032804 0.000000 0.000000
# 5 0.000000 0.000000 0.000000 0.000000 0.032804 0.000000
# 6 0.001834 -0.001834 0.000000 0.000000 0.000000 0.221153
#
#
# Mechanical properties :
#
#
# Convention : Reuss Voigt Hill
#
# Bulk Modulus (GPa) = 25.10742 25.16699 25.13720
# Shear Modulus (GPa) = 13.35093 22.34394 17.84743
#
# Velocity S-wave (km/s) = 2.37361 3.07068 2.74437
# Velocity P-wave (km/s) = 4.25526 4.81585 4.54421
#
# Compressibility (1/GPa) = 0.03982887
#
# Stress axis : x y z
#
# Youngs Moduli (GPa) = 53.57478 53.57478 50.45850
#
# Poissons Ratio (x) = 0.04724 0.19624
# Poissons Ratio (y) = 0.04724 0.19624
# Poissons Ratio (z) = 0.20836 0.20836
#
# Static dielectric constant tensor:
#      x y z
#    x 1.883390 0.000000 0.000000 
#    y 0.000000 1.883390 0.000000 
#    z 0.000000 0.000000 1.994110 
# 
# From -- ./inp_files/766.got.cif
#   From: 2010.05.17/outbox.cif.g08.bks.cpg/sg80_cif.got.tgz:766.got - 2010.06.03 18:49:13.
