data_PCOD9542295
_publ_section_title
;
Structure prediction by ZEFSAII (Michael W. Deem and Ramdas Pophale) SiO2 
 PCOD9542295
Probable space group: I 41
;
_chemical_formula_sum "Si O2"
_cell_formula_units_Z 40
_cell_length_a 13.525844
_cell_length_b 13.525844
_cell_length_c 9.951573
_cell_angle_alpha 90.000000
_cell_angle_beta 90.000000
_cell_angle_gamma 90.000000
_cell_volume 1820.624914
_symmetry_space_group_name_H-M "I 41"
_symmetry_group_IT_number 80
_symmetry_cell_setting 'tetragonal'
loop_
_space_group_symop_operation_xyz
x,y,z
-y,1/2+x,1/4+z
-x,-y,z
y,1/2-x,1/4+z
1/2+x,1/2+y,1/2+z
1/2-y,x,3/4+z
1/2-x,1/2-y,1/2+z
1/2+y,-x,3/4+z
loop_
_atom_site_type_symbol
_atom_site_label
_atom_site_fract_x
_atom_site_fract_y
_atom_site_fract_z
Si Si1 0.324262 0.746355 0.438550
Si Si2 0.540310 0.289174 0.087309
Si Si3 0.057395 0.897900 0.311082
Si Si4 0.085130 0.416266 0.039009
Si Si5 0.310022 0.016482 0.777062
O O1 0.292943 0.741759 0.591173
O O2 0.338433 0.858659 0.394440
O O3 0.420671 0.682182 0.430234
O O4 0.451692 0.327847 0.184519
O O5 0.528456 0.329553 0.937081
O O6 0.569051 0.172950 0.077602
O O7 0.018056 0.846381 0.173328
O O8 0.000000 0.000000 0.322011
O O9 0.047429 0.304529 0.015051
O O10 0.121177 0.409935 0.194707
O O11 0.000000 0.500000 0.024967
#
# Coordination Sequence:
#
# PCOD9542295 Si02
#       5
#     8   8   8   8   8
#     4  12  22  39  68 109 139 182 241 304 372 439
#     4  12  25  44  77 107 150 193 240 310 383 447
#     4  12  30  47  75 111 154 189 255 317 378 450
#     4  12  26  50  77 106 154 194 252 307 385 467
#     4  12  27  47  75 107 147 200 244 314 376 459
#
# _framework density 21.970479000000001
#
# number of rings (size 3 to 8) (size 9 to 14) (size 15 to 20)
#    0.000    0.000    6.000    2.400   11.200    0.000 
#    3.600    0.000    0.000    0.000    0.000    0.000 
#    0.000    0.000    0.000    0.000    0.000    0.000 
#
# Total GULP energy -111595.348185 kJ/mol
# GULP energy per Si atom -5579.767409 kJ/mol
# Density = 2.192047 g / cm^3
# Si number density = 21.970479 Si / 1000 Ang^3
#
#
#
# Elastic Constant Matrix: (Units=GPa)
#
#
# Indices 1 2 3 4 5 6 
#
# 1 171.9255 -69.9661 34.7749 0.0000 0.0000 -73.8536
# 2 -69.9661 171.9255 34.7749 0.0000 0.0000 73.8536
# 3 34.7749 34.7749 153.1383 0.0000 0.0000 0.0000
# 4 0.0000 0.0000 0.0000 33.1981 0.0000 0.0000
# 5 0.0000 0.0000 0.0000 0.0000 33.1981 0.0000
# 6 -73.8536 73.8536 0.0000 0.0000 0.0000 83.2523
#
#
#
# Elastic Compliance Matrix: (Units=1/GPa)
#
#
# Indices 1 2 3 4 5 6 
#
# 1 0.010313 0.001293 -0.002635 0.000000 0.000000 0.008002
# 2 0.001293 0.010313 -0.002635 0.000000 0.000000 -0.008002
# 3 -0.002635 -0.002635 0.007727 0.000000 0.000000 0.000000
# 4 0.000000 0.000000 0.000000 0.030122 0.000000 0.000000
# 5 0.000000 0.000000 0.000000 0.000000 0.030122 0.000000
# 6 0.008002 -0.008002 0.000000 0.000000 0.000000 0.026209
#
#
# Mechanical properties :
#
#
# Convention : Reuss Voigt Hill
#
# Bulk Modulus (GPa) = 49.02831 55.12852 52.07841
# Shear Modulus (GPa) = 38.59167 63.09006 50.84086
#
# Velocity S-wave (km/s) = 4.19564 5.36453 4.81568
# Velocity P-wave (km/s) = 6.77017 7.96978 7.39434
#
# Compressibility (1/GPa) = 0.02039638
#
# Stress axis : x y z
#
# Youngs Moduli (GPa) = 96.96537 96.96537 129.41717
#
# Poissons Ratio (x) = -0.12533 0.34107
# Poissons Ratio (y) = -0.12533 0.34107
# Poissons Ratio (z) = 0.25554 0.25554
#
# Static dielectric constant tensor:
#      x y z
#    x 1.825510 0.000000 0.000000 
#    y 0.000000 1.825510 0.000000 
#    z 0.000000 0.000000 1.839920 
# 
# From -- ./inp_files/602.got.cif
#   From: 2010.05.17/outbox.cif.g08.bks.cpg/sg80_cif.got.tgz:602.got - 2010.06.03 18:49:13.
