data_PCOD9542163
_publ_section_title
;
Structure prediction by ZEFSAII (Michael W. Deem and Ramdas Pophale) SiO2 
 PCOD9542163
Probable space group: I 41
;
_chemical_formula_sum "Si O2"
_cell_formula_units_Z 56
_cell_length_a 14.313280
_cell_length_b 14.313280
_cell_length_c 11.398957
_cell_angle_alpha 90.000000
_cell_angle_beta 90.000000
_cell_angle_gamma 90.000000
_cell_volume 2335.304142
_symmetry_space_group_name_H-M "I 41"
_symmetry_group_IT_number 80
_symmetry_cell_setting 'tetragonal'
loop_
_space_group_symop_operation_xyz
x,y,z
-y,1/2+x,1/4+z
-x,-y,z
y,1/2-x,1/4+z
1/2+x,1/2+y,1/2+z
1/2-y,x,3/4+z
1/2-x,1/2-y,1/2+z
1/2+y,-x,3/4+z
loop_
_atom_site_type_symbol
_atom_site_label
_atom_site_fract_x
_atom_site_fract_y
_atom_site_fract_z
Si Si1 0.260667 0.315014 0.781190
Si Si2 0.041719 0.591965 0.384515
Si Si3 0.460682 0.859996 0.492728
Si Si4 0.907422 0.044503 0.504783
Si Si5 0.033170 0.744791 0.557650
Si Si6 0.830363 0.898573 0.949662
Si Si7 0.469506 0.667856 0.418673
O O1 0.200897 0.263829 0.674763
O O2 0.247659 0.424729 0.771158
O O3 0.357240 0.268799 0.736053
O O4 0.112200 0.557539 0.285672
O O5 0.000000 0.500000 0.445034
O O6 0.080948 0.670048 0.469931
O O7 0.958170 0.636142 0.309595
O O8 0.510910 0.900355 0.378370
O O9 0.532746 0.825322 0.590040
O O10 0.418882 0.766207 0.436162
O O11 0.391688 0.930429 0.559264
O O12 0.924391 0.152567 0.541527
O O13 0.812754 0.035509 0.429824
O O14 0.000000 0.000000 0.447131
O O15 0.917052 0.829527 0.916790
#
# Coordination Sequence:
#
# PCOD9542163 Si02
#       7
#     8   8   8   8   8   8   8
#     4  12  26  44  75 118 155 196 254 323 396 472
#     4   9  20  41  69 101 139 185 246 311 370 433
#     4  11  23  43  70 102 147 194 256 308 385 453
#     4  12  28  49  74 108 157 206 251 320 387 475
#     4  12  27  49  72 108 154 204 255 310 389 465
#     4  10  21  41  73 105 141 184 246 319 378 449
#     4  10  22  41  67 105 137 191 245 314 369 448
#
# _framework density 23.979745999999999
#
# number of rings (size 3 to 8) (size 9 to 14) (size 15 to 20)
#    0.000    1.143    1.429    5.143    2.000    8.000 
#    7.714    0.000    0.000    0.000    0.000    0.000 
#    0.000    0.000    0.000    0.000    0.000    0.000 
#
# Total GULP energy -156190.246888 kJ/mol
# GULP energy per Si atom -5578.223103 kJ/mol
# Density = 2.392517 g / cm^3
# Si number density = 23.979746 Si / 1000 Ang^3
#
#
#
# Elastic Constant Matrix: (Units=GPa)
#
#
# Indices 1 2 3 4 5 6 
#
# 1 91.8585 15.3216 19.5364 0.0000 0.0000 4.0585
# 2 15.3216 91.8585 19.5364 0.0000 0.0000 -4.0585
# 3 19.5364 19.5364 150.4219 0.0000 0.0000 0.0000
# 4 0.0000 0.0000 0.0000 28.8908 0.0000 0.0000
# 5 0.0000 0.0000 0.0000 0.0000 28.8908 0.0000
# 6 4.0585 -4.0585 0.0000 0.0000 0.0000 24.9227
#
#
#
# Elastic Compliance Matrix: (Units=1/GPa)
#
#
# Indices 1 2 3 4 5 6 
#
# 1 0.011545 -0.001751 -0.001272 0.000000 0.000000 -0.002165
# 2 -0.001751 0.011545 -0.001272 0.000000 0.000000 0.002165
# 3 -0.001272 -0.001272 0.006978 0.000000 0.000000 0.000000
# 4 0.000000 0.000000 0.000000 0.034613 0.000000 0.000000
# 5 0.000000 0.000000 0.000000 0.000000 0.034613 0.000000
# 6 -0.002165 0.002165 0.000000 0.000000 0.000000 0.040829
#
#
# Mechanical properties :
#
#
# Convention : Reuss Voigt Hill
#
# Bulk Modulus (GPa) = 46.55926 49.21419 47.88673
# Shear Modulus (GPa) = 32.07771 35.19050 33.63410
#
# Velocity S-wave (km/s) = 3.66143 3.83496 3.74920
# Velocity P-wave (km/s) = 6.11007 6.33854 6.22535
#
# Compressibility (1/GPa) = 0.02147800
#
# Stress axis : x y z
#
# Youngs Moduli (GPa) = 86.62128 86.62128 143.29987
#
# Poissons Ratio (x) = 0.15165 0.18228
# Poissons Ratio (y) = 0.15165 0.18228
# Poissons Ratio (z) = 0.11018 0.11018
#
# Static dielectric constant tensor:
#      x y z
#    x 1.985740 0.000000 0.000000 
#    y 0.000000 1.985740 0.000000 
#    z 0.000000 0.000000 2.000360 
# 
# From -- ./inp_files/1045.got.cif
#   From: 2010.05.17/outbox.cif.g08.bks.cpg/sg80_cif.got.tgz:1045.got - 2010.06.03 18:49:13.
