data_PCOD9542633
_publ_section_title
;
Structure prediction by ZEFSAII (Michael W. Deem and Ramdas Pophale) SiO2 
 PCOD9542633
Probable space group: I -4 
;
_chemical_formula_sum "Si O2"
_cell_formula_units_Z 48
_cell_length_a 11.514385
_cell_length_b 11.514385
_cell_length_c 19.061805
_cell_angle_alpha 90.000000
_cell_angle_beta 90.000000
_cell_angle_gamma 90.000000
_cell_volume 2527.234349
_symmetry_space_group_name_H-M "I -4 "
_symmetry_group_IT_number 82
_symmetry_cell_setting 'tetragonal'
loop_
_space_group_symop_operation_xyz
x,y,z
y,-x,-z
-x,-y,z
-y,x,-z
1/2+x,1/2+y,1/2+z
1/2+y,1/2-x,1/2-z
1/2-x,1/2-y,1/2+z
1/2-y,1/2+x,1/2-z
loop_
_atom_site_type_symbol
_atom_site_label
_atom_site_fract_x
_atom_site_fract_y
_atom_site_fract_z
Si Si1 0.509414 0.329051 0.879691
Si Si2 0.624790 0.945584 0.523968
Si Si3 0.143794 0.745616 0.245866
Si Si4 0.843607 0.414203 0.768074
Si Si5 0.861582 0.469193 0.346919
Si Si6 0.297606 0.494727 0.900881
O O1 0.487964 0.208513 0.919918
O O2 0.560286 0.311592 0.801765
O O3 0.391472 0.400233 0.876983
O O4 0.613078 0.399153 0.921034
O O5 0.584092 0.841313 0.575805
O O6 0.710322 0.941950 0.458236
O O7 0.500000 0.000000 0.503733
O O8 0.258649 0.819643 0.235206
O O9 0.166350 0.626639 0.288141
O O10 0.079198 0.713333 0.174747
O O11 0.861487 0.528778 0.721075
O O12 0.782912 0.456863 0.839065
O O13 0.000000 0.500000 0.341149
#
# Coordination Sequence:
#
# PCOD9542633 Si02
#       6
#     8   8   8   8   8   8
#     4   9  20  36  61  90 109 150 196 252 300 334
#     4  10  21  31  53  86 119 150 180 229 305 353
#     4  10  18  34  58  85 117 146 189 251 296 356
#     4  10  24  38  53  79 115 167 201 236 301 360
#     4  10  18  32  56  87 118 143 181 250 308 352
#     4  10  20  39  61  81 118 150 201 253 290 352
#
# _framework density 18.993093999999999
#
# number of rings (size 3 to 8) (size 9 to 14) (size 15 to 20)
#    0.000    2.167    1.667    1.000    4.667    1.333 
#    0.000    0.000    0.000    0.000    0.000    0.000 
#    5.000    0.000    0.000    0.000    0.000    0.000 
#
# Total GULP energy -133617.638512 kJ/mol
# GULP energy per Si atom -5567.401605 kJ/mol
# Density = 1.894987 g / cm^3
# Si number density = 18.993094 Si / 1000 Ang^3
#
#
#
# Elastic Constant Matrix: (Units=GPa)
#
#
# Indices 1 2 3 4 5 6 
#
# 1 100.0795 44.3607 11.0181 0.0000 0.0000 -2.5493
# 2 44.3607 100.0795 11.0181 0.0000 0.0000 2.5493
# 3 11.0181 11.0181 30.9528 0.0000 0.0000 0.0000
# 4 0.0000 0.0000 0.0000 22.0689 0.0000 0.0000
# 5 0.0000 0.0000 0.0000 0.0000 22.0689 0.0000
# 6 -2.5493 2.5493 0.0000 0.0000 0.0000 42.7185
#
#
#
# Elastic Compliance Matrix: (Units=1/GPa)
#
#
# Indices 1 2 3 4 5 6 
#
# 1 0.012683 -0.005362 -0.002606 0.000000 0.000000 0.001077
# 2 -0.005362 0.012683 -0.002606 0.000000 0.000000 -0.001077
# 3 -0.002606 -0.002606 0.034163 0.000000 0.000000 0.000000
# 4 0.000000 0.000000 0.000000 0.045313 0.000000 0.000000
# 5 0.000000 0.000000 0.000000 0.000000 0.045313 0.000000
# 6 0.001077 -0.001077 0.000000 0.000000 0.000000 0.023538
#
#
# Mechanical properties :
#
#
# Convention : Reuss Voigt Hill
#
# Bulk Modulus (GPa) = 26.05500 40.43396 33.24448
# Shear Modulus (GPa) = 24.08079 28.35224 26.21651
#
# Velocity S-wave (km/s) = 3.56458 3.86782 3.71929
# Velocity P-wave (km/s) = 5.53982 6.42509 5.99880
#
# Compressibility (1/GPa) = 0.03838035
#
# Stress axis : x y z
#
# Youngs Moduli (GPa) = 78.84355 78.84355 29.27186
#
# Poissons Ratio (x) = 0.42280 0.07628
# Poissons Ratio (y) = 0.42280 0.07628
# Poissons Ratio (z) = 0.20546 0.20546
#
# Static dielectric constant tensor:
#      x y z
#    x 1.699750 0.000000 0.000000 
#    y 0.000000 1.699750 0.000000 
#    z 0.000000 0.000000 1.717460 
# 
# From -- ./inp_files/3073.got.cif
#   From: 2010.05.17/outbox.cif.g08.bks.cpg/sg82_2_cif.got.tgz:3073.got - 2010.06.03 18:52:26.
