data_PCOD9542114
_publ_section_title
;
Structure prediction by ZEFSAII (Michael W. Deem and Ramdas Pophale) SiO2 
 PCOD9542114
Probable space group: I 41
;
_chemical_formula_sum "Si O2"
_cell_formula_units_Z 40
_cell_length_a 8.559634
_cell_length_b 8.559634
_cell_length_c 20.293567
_cell_angle_alpha 90.000000
_cell_angle_beta 90.000000
_cell_angle_gamma 90.000000
_cell_volume 1486.855556
_symmetry_space_group_name_H-M "I 41"
_symmetry_group_IT_number 80
_symmetry_cell_setting 'tetragonal'
loop_
_space_group_symop_operation_xyz
x,y,z
-y,1/2+x,1/4+z
-x,-y,z
y,1/2-x,1/4+z
1/2+x,1/2+y,1/2+z
1/2-y,x,3/4+z
1/2-x,1/2-y,1/2+z
1/2+y,-x,3/4+z
loop_
_atom_site_type_symbol
_atom_site_label
_atom_site_fract_x
_atom_site_fract_y
_atom_site_fract_z
Si Si1 0.500000 0.500000 0.296000
Si Si2 0.719295 0.158310 0.645498
Si Si3 0.823615 0.498077 0.670568
Si Si4 0.163109 0.995376 0.018470
Si Si5 0.500000 0.500000 0.755517
Si Si6 0.844636 0.687846 0.935927
O O1 0.370713 0.579618 0.343308
O O2 0.429670 0.370456 0.246911
O O3 0.804681 0.322090 0.640047
O O4 0.651702 0.159437 0.719805
O O5 0.819140 0.999905 0.641405
O O6 0.661341 0.497964 0.714119
O O7 0.820653 0.682122 0.648804
O O8 0.000000 0.500000 0.701139
O O9 0.000000 0.000000 0.059248
O O10 0.338292 0.004087 0.045506
O O11 0.153732 0.142105 0.969808
#
# Coordination Sequence:
#
# PCOD9542114 Si02
#       6
#     4   8   8   8   4   8
#     4  12  22  38  74 111 146 224 265 306 412 478
#     4  10  20  41  67 103 154 196 251 323 389 460
#     4  10  20  37  68  97 137 198 239 307 389 438
#     4   8  14  31  55  84 128 177 222 287 360 418
#     4   8  16  28  56  89 116 172 227 274 360 436
#     4  10  20  37  64 101 141 190 257 311 373 456
#
# _framework density 26.902412999999999
#
# number of rings (size 3 to 8) (size 9 to 14) (size 15 to 20)
#    0.000    2.400    3.000    1.200    0.000    0.000 
#    0.000    6.000   19.800    0.000   13.000    0.000 
#    0.000    0.000    0.000    0.000    0.000    0.000 
#
# Total GULP energy -111448.747755 kJ/mol
# GULP energy per Si atom -5572.437388 kJ/mol
# Density = 2.684118 g / cm^3
# Si number density = 26.902413 Si / 1000 Ang^3
#
#
#
# Elastic Constant Matrix: (Units=GPa)
#
#
# Indices 1 2 3 4 5 6 
#
# 1 36.1161 280.8785 58.3701 0.0000 0.0000 69.4948
# 2 280.8785 36.1161 58.3701 0.0000 0.0000 -69.4948
# 3 58.3701 58.3701 67.2743 0.0000 0.0000 0.0000
# 4 0.0000 0.0000 0.0000 45.0151 0.0000 0.0000
# 5 0.0000 0.0000 0.0000 0.0000 45.0151 0.0000
# 6 69.4948 -69.4948 0.0000 0.0000 0.0000 18.0236
#
#
#
# Elastic Compliance Matrix: (Units=1/GPa)
#
#
# Indices 1 2 3 4 5 6 
#
# 1 0.001677 0.002958 -0.004022 0.000000 0.000000 0.004939
# 2 0.002958 0.001677 -0.004022 0.000000 0.000000 -0.004939
# 3 -0.004022 -0.004022 0.021844 0.000000 0.000000 0.000000
# 4 0.000000 0.000000 0.000000 0.022215 0.000000 0.000000
# 5 0.000000 0.000000 0.000000 0.000000 0.022215 0.000000
# 6 0.004939 -0.004939 0.000000 0.000000 0.000000 0.017395
#
#
# Mechanical properties :
#
#
# Convention : Reuss Voigt Hill
#
# Bulk Modulus (GPa) = 66.54715 103.86045 85.20380
# Shear Modulus (GPa) = 48.92092 4.40329 26.66210
#
# Velocity S-wave (km/s) = 4.26896 1.28075 3.15154
# Velocity P-wave (km/s) = 7.00635 6.39353 6.70694
#
# Compressibility (1/GPa) = 0.01502694
#
# Stress axis : x y z
#
# Youngs Moduli (GPa) = 596.12593 596.12597 45.77828
#
# Poissons Ratio (x) = -1.76361 0.18414
# Poissons Ratio (y) = -1.76361 0.18414
# Poissons Ratio (z) = 2.39782 2.39782
#
# Static dielectric constant tensor:
#      x y z
#    x 2.171300 0.000000 0.000000 
#    y 0.000000 2.171300 0.000000 
#    z 0.000000 0.000000 2.153960 
# 
# From -- ./inp_files/2038.got.cif
#   From: 2010.05.17/outbox.cif.g08.bks.cpg/sg80_cif.got.tgz:2038.got - 2010.06.03 18:49:13.
