data_PCOD9542664
_publ_section_title
;
Structure prediction by ZEFSAII (Michael W. Deem and Ramdas Pophale) SiO2 
 PCOD9542664
Probable space group: I -4 
;
_chemical_formula_sum "Si O2"
_cell_formula_units_Z 64
_cell_length_a 12.299191
_cell_length_b 12.299191
_cell_length_c 23.054122
_cell_angle_alpha 90.000000
_cell_angle_beta 90.000000
_cell_angle_gamma 90.000000
_cell_volume 3487.399323
_symmetry_space_group_name_H-M "I -4 "
_symmetry_group_IT_number 82
_symmetry_cell_setting 'tetragonal'
loop_
_space_group_symop_operation_xyz
x,y,z
y,-x,-z
-x,-y,z
-y,x,-z
1/2+x,1/2+y,1/2+z
1/2+y,1/2-x,1/2-z
1/2-x,1/2-y,1/2+z
1/2-y,1/2+x,1/2-z
loop_
_atom_site_type_symbol
_atom_site_label
_atom_site_fract_x
_atom_site_fract_y
_atom_site_fract_z
Si Si1 0.503621 0.642867 0.968682
Si Si2 0.123819 0.459867 0.880092
Si Si3 0.849355 0.412770 0.985725
Si Si4 0.769972 0.468977 0.472268
Si Si5 0.240558 0.204646 0.588927
Si Si6 0.246619 0.556135 0.682820
Si Si7 0.398134 0.579188 0.577336
Si Si8 0.307805 0.843698 0.303931
O O1 0.401835 0.668872 0.926998
O O2 0.600785 0.553091 0.970120
O O3 0.567846 0.755654 0.968390
O O4 0.154739 0.480182 0.946040
O O5 0.119719 0.339451 0.857676
O O6 0.188094 0.541513 0.838573
O O7 0.000000 0.500000 0.876058
O O8 0.806722 0.316717 0.943536
O O9 0.964070 0.375446 0.008607
O O10 0.800538 0.360383 0.437741
O O11 0.698270 0.551678 0.433274
O O12 0.695064 0.442158 0.528714
O O13 0.234854 0.234564 0.656479
O O14 0.351833 0.555323 0.641671
O O15 0.203481 0.432464 0.696730
O O16 0.242326 0.624709 0.742120
O O17 0.500000 0.500000 0.566926
#
# Coordination Sequence:
#
# PCOD9542664 Si02
#       8
#     8   8   8   8   8   8   8   8
#     4   9  20  37  56  79 115 160 188 245 309 369
#     4   9  18  29  48  82 112 142 181 246 299 362
#     4  10  20  32  54  84 120 154 199 236 299 376
#     4  12  20  36  56  91 127 166 195 249 304 379
#     4  10  21  36  57  82 121 163 202 244 309 371
#     4  11  21  33  59  82 117 157 202 256 320 365
#     4  12  22  36  56  84 129 165 196 246 317 374
#     4  10  19  36  53  82 114 156 199 256 313 362
#
# _framework density 18.351783999999999
#
# number of rings (size 3 to 8) (size 9 to 14) (size 15 to 20)
#    0.000    1.625    3.750    3.000    3.500    0.000 
#    0.000    0.000    8.250    1.500    0.000    0.000 
#    0.000    0.000    0.000    0.000    0.000    0.000 
#
# Total GULP energy -178175.580376 kJ/mol
# GULP energy per Si atom -5567.986887 kJ/mol
# Density = 1.831001 g / cm^3
# Si number density = 18.351784 Si / 1000 Ang^3
#
#
#
# Elastic Constant Matrix: (Units=GPa)
#
#
# Indices 1 2 3 4 5 6 
#
# 1 78.7330 34.6174 42.7726 0.0000 0.0000 -4.0978
# 2 34.6174 78.7330 42.7726 0.0000 0.0000 4.0978
# 3 42.7726 42.7726 88.8207 0.0000 0.0000 0.0000
# 4 0.0000 0.0000 0.0000 25.9087 0.0000 0.0000
# 5 0.0000 0.0000 0.0000 0.0000 25.9087 0.0000
# 6 -4.0978 4.0978 0.0000 0.0000 0.0000 30.8516
#
#
#
# Elastic Compliance Matrix: (Units=1/GPa)
#
#
# Indices 1 2 3 4 5 6 
#
# 1 0.018550 -0.004691 -0.006674 0.000000 0.000000 0.003087
# 2 -0.004691 0.018550 -0.006674 0.000000 0.000000 -0.003087
# 3 -0.006674 -0.006674 0.017686 0.000000 0.000000 0.000000
# 4 0.000000 0.000000 0.000000 0.038597 0.000000 0.000000
# 5 0.000000 0.000000 0.000000 0.000000 0.038597 0.000000
# 6 0.003087 -0.003087 0.000000 0.000000 0.000000 0.033233
#
#
# Mechanical properties :
#
#
# Convention : Reuss Voigt Hill
#
# Bulk Modulus (GPa) = 53.45119 54.06799 53.75959
# Shear Modulus (GPa) = 24.09308 24.94206 24.51757
#
# Velocity S-wave (km/s) = 3.62725 3.69061 3.65907
# Velocity P-wave (km/s) = 6.83606 6.90556 6.87090
#
# Compressibility (1/GPa) = 0.01870866
#
# Stress axis : x y z
#
# Youngs Moduli (GPa) = 53.90801 53.90801 56.54036
#
# Poissons Ratio (x) = 0.25289 0.37735
# Poissons Ratio (y) = 0.25289 0.37735
# Poissons Ratio (z) = 0.35978 0.35978
#
# Static dielectric constant tensor:
#      x y z
#    x 1.703740 0.000000 0.000000 
#    y 0.000000 1.703740 0.000000 
#    z 0.000000 0.000000 1.670640 
# 
# From -- ./inp_files/3569.got.cif
#   From: 2010.05.17/outbox.cif.g08.bks.cpg/sg82_2_cif.got.tgz:3569.got - 2010.06.03 18:52:26.
