data_PCOD9542539
_publ_section_title
;
Structure prediction by ZEFSAII (Michael W. Deem and Ramdas Pophale) SiO2 
 PCOD9542539
Probable space group: P -4
;
_chemical_formula_sum "Si O2"
_cell_formula_units_Z 16
_cell_length_a 5.331613
_cell_length_b 5.331613
_cell_length_c 22.736047
_cell_angle_alpha 90.000000
_cell_angle_beta 90.000000
_cell_angle_gamma 90.000000
_cell_volume 646.297082
_symmetry_space_group_name_H-M "P -4"
_symmetry_group_IT_number 81
_symmetry_cell_setting 'tetragonal'
loop_
_space_group_symop_operation_xyz
x,y,z
y,-x,-z
-x,-y,z
-y,x,-z
loop_
_atom_site_type_symbol
_atom_site_label
_atom_site_fract_x
_atom_site_fract_y
_atom_site_fract_z
Si Si1 0.666557 0.247702 0.787416
Si Si2 0.000000 0.500000 0.434369
Si Si3 0.850278 0.245273 0.918728
Si Si4 0.500000 0.500000 0.000000
Si Si5 0.757639 0.349423 0.660800
Si Si6 0.000000 0.000000 0.500000
O O1 0.500000 0.500000 0.792029
O O2 0.809846 0.231940 0.848710
O O3 0.821295 0.253339 0.726523
O O4 0.500000 0.000000 0.782986
O O5 0.838695 0.670011 0.389207
O O6 0.893189 0.265512 0.472236
O O7 0.597793 0.285769 0.955757
O O8 0.000000 0.500000 0.929789
O O9 0.000000 0.000000 0.936158
O O10 0.500000 0.500000 0.669968
O O11 0.000000 0.500000 0.640133
#
# Coordination Sequence:
#
# PCOD9542539 Si02
#       6
#     4   2   4   1   4   1
#     4  11  23  48  77 119 161 208 265 345 417 497
#     4  12  28  54  76 126 156 234 270 350 402 500
#     4  12  29  50  82 115 158 217 275 343 421 501
#     4  12  32  52  76 112 172 204 296 338 420 492
#     4  11  25  47  83 119 165 212 275 343 418 494
#     4  12  32  48  88 108 184 212 288 330 416 484
#
# _framework density 24.756419999999999
#
# number of rings (size 3 to 8) (size 9 to 14) (size 15 to 20)
#    0.000    0.500    2.500    3.750    8.750    2.000 
#    2.250    0.000    0.000    0.000    0.000    0.000 
#    0.000    0.000    0.000    0.000    0.000    0.000 
#
# Total GULP energy -89448.200093 kJ/mol
# GULP energy per Si atom -5590.512506 kJ/mol
# Density = 2.470007 g / cm^3
# Si number density = 24.756420 Si / 1000 Ang^3
#
#
#
# Elastic Constant Matrix: (Units=GPa)
#
#
# Indices 1 2 3 4 5 6 
#
# 1 151.5540 58.9884 32.6025 0.0000 0.0000 6.1924
# 2 58.9884 151.5540 32.6025 0.0000 0.0000 -6.1924
# 3 32.6025 32.6025 97.4128 0.0000 0.0000 0.0000
# 4 0.0000 0.0000 0.0000 1294.3712 0.0000 0.0000
# 5 0.0000 0.0000 0.0000 0.0000 1294.3712 0.0000
# 6 6.1924 -6.1924 0.0000 0.0000 0.0000 66.5217
#
#
#
# Elastic Compliance Matrix: (Units=1/GPa)
#
#
# Indices 1 2 3 4 5 6 
#
# 1 0.008119 -0.002820 -0.001773 0.000000 0.000000 -0.001018
# 2 -0.002820 0.008119 -0.001773 0.000000 0.000000 0.001018
# 3 -0.001773 -0.001773 0.011453 0.000000 0.000000 0.000000
# 4 0.000000 0.000000 0.000000 0.000773 0.000000 0.000000
# 5 0.000000 0.000000 0.000000 0.000000 0.000773 0.000000
# 6 -0.001018 0.001018 0.000000 0.000000 0.000000 0.015222
#
#
# Mechanical properties :
#
#
# Convention : Reuss Voigt Hill
#
# Bulk Modulus (GPa) = 66.85997 72.10086 69.48042
# Shear Modulus (GPa) = 80.41398 549.47466 314.94432
#
# Velocity S-wave (km/s) = 5.70549 14.91423 11.29130
# Velocity P-wave (km/s) = 8.39459 18.04900 14.07543
#
# Compressibility (1/GPa) = 0.01495663
#
# Stress axis : x y z
#
# Youngs Moduli (GPa) = 123.16581 123.16581 87.31579
#
# Poissons Ratio (x) = 0.34736 0.15485
# Poissons Ratio (y) = 0.34736 0.15485
# Poissons Ratio (z) = 0.21843 0.21843
#
# Static dielectric constant tensor:
#      x y z
#    x 1.698610 0.000000 0.000000 
#    y 0.000000 1.698610 0.000000 
#    z 0.000000 0.000000 2.080300 
# 
# From -- ./inp_files/1845.got.cif
#   From: 2010.05.17/outbox.cif.g08.bks.cpg/sg81_cif.got.tgz:1845.got - 2010.06.03 18:51:07.
