data_PCOD9542913
_publ_section_title
;
Structure prediction by ZEFSAII (Michael W. Deem and Ramdas Pophale) SiO2 
 PCOD9542913
Probable space group: I -4 
;
_chemical_formula_sum "Si O2"
_cell_formula_units_Z 50
_cell_length_a 14.031143
_cell_length_b 14.031143
_cell_length_c 10.807105
_cell_angle_alpha 90.000000
_cell_angle_beta 90.000000
_cell_angle_gamma 90.000000
_cell_volume 2127.626900
_symmetry_space_group_name_H-M "I -4 "
_symmetry_group_IT_number 82
_symmetry_cell_setting 'tetragonal'
loop_
_space_group_symop_operation_xyz
x,y,z
y,-x,-z
-x,-y,z
-y,x,-z
1/2+x,1/2+y,1/2+z
1/2+y,1/2-x,1/2-z
1/2-x,1/2-y,1/2+z
1/2-y,1/2+x,1/2-z
loop_
_atom_site_type_symbol
_atom_site_label
_atom_site_fract_x
_atom_site_fract_y
_atom_site_fract_z
Si Si1 0.546135 0.793479 0.825003
Si Si2 0.444875 0.598179 0.758882
Si Si3 0.636290 0.655063 0.996009
Si Si4 0.500000 0.000000 0.750000
Si Si5 0.260488 0.910281 0.147344
Si Si6 0.892764 0.242685 0.746132
Si Si7 0.737825 0.169653 0.893780
O O1 0.492778 0.703895 0.758158
O O2 0.574651 0.747494 0.956347
O O3 0.639454 0.802762 0.738747
O O4 0.503514 0.899821 0.826319
O O5 0.500000 0.500000 0.726446
O O6 0.350893 0.603767 0.675362
O O7 0.411638 0.589647 0.902361
O O8 0.667720 0.605990 0.867215
O O9 0.734217 0.690063 0.058001
O O10 0.320140 0.824387 0.205312
O O11 0.285314 0.007008 0.216925
O O12 0.277131 0.907669 0.000495
O O13 0.848190 0.190891 0.865568
#
# Coordination Sequence:
#
# PCOD9542913 Si02
#       7
#     8   8   8   2   8   8   8
#     4  11  27  45  72 112 147 195 257 304 373 457
#     4  12  26  45  75 111 144 189 253 312 377 443
#     4  10  23  43  74  98 148 191 237 309 369 432
#     4  12  28  48  72 112 154 200 248 304 380 446
#     4  11  25  44  73 101 147 188 239 303 374 440
#     4  10  23  44  69 107 136 192 238 295 370 437
#     4  10  22  46  72  99 148 193 236 303 375 439
#
# _framework density 23.500359
#
# number of rings (size 3 to 8) (size 9 to 14) (size 15 to 20)
#    0.000    1.280    1.600    2.880   11.200    0.320 
#    0.000    0.000    0.000    0.000    0.000    0.000 
#    0.000    0.000    0.000    0.000    0.000    0.000 
#
# Total GULP energy -139731.491880 kJ/mol
# GULP energy per Si atom -5589.259675 kJ/mol
# Density = 2.344687 g / cm^3
# Si number density = 23.500359 Si / 1000 Ang^3
#
#
#
# Elastic Constant Matrix: (Units=GPa)
#
#
# Indices 1 2 3 4 5 6 
#
# 1 115.7933 34.2463 0.0282 0.0000 0.0000 0.3996
# 2 34.2463 115.7933 0.0282 0.0000 0.0000 -0.3996
# 3 0.0282 0.0282 55.1201 0.0000 0.0000 0.0000
# 4 0.0000 0.0000 0.0000 24.1463 0.0000 0.0000
# 5 0.0000 0.0000 0.0000 0.0000 24.1463 0.0000
# 6 0.3996 -0.3996 0.0000 0.0000 0.0000 43.2425
#
#
#
# Elastic Compliance Matrix: (Units=1/GPa)
#
#
# Indices 1 2 3 4 5 6 
#
# 1 0.009464 -0.002800 -0.000003 0.000000 0.000000 -0.000113
# 2 -0.002800 0.009464 -0.000003 0.000000 0.000000 0.000113
# 3 -0.000003 -0.000003 0.018142 0.000000 0.000000 0.000000
# 4 0.000000 0.000000 0.000000 0.041414 0.000000 0.000000
# 5 0.000000 0.000000 0.000000 0.000000 0.041414 0.000000
# 6 -0.000113 0.000113 0.000000 0.000000 0.000000 0.023128
#
#
# Mechanical properties :
#
#
# Convention : Reuss Voigt Hill
#
# Bulk Modulus (GPa) = 31.78805 39.47914 35.63359
# Shear Modulus (GPa) = 31.42168 35.13395 33.27781
#
# Velocity S-wave (km/s) = 3.66057 3.87077 3.76713
# Velocity P-wave (km/s) = 5.60556 6.06737 5.84103
#
# Compressibility (1/GPa) = 0.03145836
#
# Stress axis : x y z
#
# Youngs Moduli (GPa) = 105.65856 105.65856 55.12010
#
# Poissons Ratio (x) = 0.29580 0.00019
# Poissons Ratio (y) = 0.29580 0.00019
# Poissons Ratio (z) = 0.00036 0.00036
#
# Static dielectric constant tensor:
#      x y z
#    x 1.947250 0.000000 0.000000 
#    y 0.000000 1.947250 0.000000 
#    z 0.000000 0.000000 1.862090 
# 
# From -- ./inp_files/1813.got.cif
#   From: 2010.05.17/outbox.cif.g08.bks.cpg/sg82_1_cif.got.tgz:1813.got - 2010.06.03 18:52:26.
