data_PCOD9543746
_publ_section_title
;
Structure prediction by ZEFSAII (Michael W. Deem and Ramdas Pophale) SiO2 
 PCOD9543746
Probable space group: P 4/M
;
_chemical_formula_sum "Si O2"
_cell_formula_units_Z 40
_cell_length_a 7.589953
_cell_length_b 7.589953
_cell_length_c 28.854697
_cell_angle_alpha 90.000000
_cell_angle_beta 90.000000
_cell_angle_gamma 90.000000
_cell_volume 1662.243684
_symmetry_space_group_name_H-M "P 4/M"
_symmetry_group_IT_number 83
_symmetry_cell_setting 'tetragonal'
loop_
_space_group_symop_operation_xyz
x,y,z
-y,x,z
-x,-y,z
y,-x,z
-x,-y,-z
y,-x,-z
x,y,-z
-y,x,-z
loop_
_atom_site_type_symbol
_atom_site_label
_atom_site_fract_x
_atom_site_fract_y
_atom_site_fract_z
Si Si1 0.228400 0.627805 0.450470
Si Si2 0.104724 0.728474 0.251792
Si Si3 0.772278 0.380614 0.649008
Si Si4 0.374090 0.771192 0.000000
Si Si5 0.000000 0.500000 0.823463
Si Si6 0.620672 0.226704 0.899480
O O1 0.276666 0.419372 0.450461
O O2 0.139855 0.669143 0.500000
O O3 0.140335 0.664254 0.400785
O O4 0.128663 0.663127 0.304102
O O5 0.139494 0.589545 0.211370
O O6 0.902143 0.781655 0.246118
O O7 0.721888 0.586278 0.649904
O O8 0.277141 0.581792 0.000000
O O9 0.337868 0.855784 0.950090
O O10 0.906464 0.640896 0.857226
O O11 0.721244 0.412460 0.896952
#
# Coordination Sequence:
#
# PCOD9543746 Si02
#       6
#     8   8   8   4   4   8
#     4   7  10  19  40  73 107 131 155 196 248 296
#     4  11  24  39  52  69  99 138 175 216 268 312
#     4   9  17  31  54  81 105 133 172 212 248 298
#     4   7  12  27  50  76 106 134 158 192 244 301
#     4  12  22  35  54  76  99 130 176 220 252 296
#     4   9  18  33  54  79 106 134 164 202 249 299
#
# _framework density 24.063860999999999
#
# number of rings (size 3 to 8) (size 9 to 14) (size 15 to 20)
#    0.000    2.900    0.000    5.400    0.000    0.400 
#    0.000    2.000    0.000    1.200    0.000    7.700 
#    0.000   12.800    0.000    0.000    0.000    0.000 
#
# Total GULP energy -223398.517553 kJ/mol
# GULP energy per Si atom -5584.962939 kJ/mol
# Density = 2.400909 g / cm^3
# Si number density = 24.063861 Si / 1000 Ang^3
#
#
#
# Elastic Constant Matrix: (Units=GPa)
#
#
# Indices 1 2 3 4 5 6 
#
# 1 47.3783 -1.8260 26.6483 0.0000 0.0000 -5.0269
# 2 -1.8260 47.3783 26.6483 0.0000 0.0000 5.0269
# 3 26.6483 26.6483 259.3890 0.0000 0.0000 0.0000
# 4 0.0000 0.0000 0.0000 17.1915 0.0000 0.0000
# 5 0.0000 0.0000 0.0000 0.0000 17.1915 0.0000
# 6 -5.0269 5.0269 0.0000 0.0000 0.0000 14.7789
#
#
#
# Elastic Compliance Matrix: (Units=1/GPa)
#
#
# Indices 1 2 3 4 5 6 
#
# 1 0.023397 0.001555 -0.002563 0.000000 0.000000 0.007429
# 2 0.001555 0.023397 -0.002563 0.000000 0.000000 -0.007429
# 3 -0.002563 -0.002563 0.004382 0.000000 0.000000 0.000000
# 4 0.000000 0.000000 0.000000 0.058168 0.000000 0.000000
# 5 0.000000 0.000000 0.000000 0.000000 0.058168 0.000000
# 6 0.007429 -0.007429 0.000000 0.000000 0.000000 0.072718
#
#
# Mechanical properties :
#
#
# Convention : Reuss Voigt Hill
#
# Bulk Modulus (GPa) = 22.71065 50.78742 36.74904
# Shear Modulus (GPa) = 19.08031 30.01073 24.54552
#
# Velocity S-wave (km/s) = 2.81891 3.53530 3.19723
# Velocity P-wave (km/s) = 4.47807 6.14944 5.37907
#
# Compressibility (1/GPa) = 0.04403220
#
# Stress axis : x y z
#
# Youngs Moduli (GPa) = 42.74107 42.74107 228.21034
#
# Poissons Ratio (x) = -0.06648 0.58500
# Poissons Ratio (y) = -0.06648 0.58500
# Poissons Ratio (z) = 0.10956 0.10956
#
# Static dielectric constant tensor:
#      x y z
#    x 1.946960 0.000000 0.000000 
#    y 0.000000 1.946960 0.000000 
#    z 0.000000 0.000000 1.988410 
# 
# From -- ./inp_files/3279.got.cif
#   From: 2010.05.17/outbox.cif.g08.bks.cpg/sg83_2_cif.got.tgz:3279.got - 2010.06.03 18:55:12.
