data_PCOD9543310
_publ_section_title
;
Structure prediction by ZEFSAII (Michael W. Deem and Ramdas Pophale) SiO2 
 PCOD9543310
Probable space group: P 4/M
;
_chemical_formula_sum "Si O2"
_cell_formula_units_Z 64
_cell_length_a 20.482975
_cell_length_b 20.482975
_cell_length_c 8.447241
_cell_angle_alpha 90.000000
_cell_angle_beta 90.000000
_cell_angle_gamma 90.000000
_cell_volume 3544.059093
_symmetry_space_group_name_H-M "P 4/M"
_symmetry_group_IT_number 83
_symmetry_cell_setting 'tetragonal'
loop_
_space_group_symop_operation_xyz
x,y,z
-y,x,z
-x,-y,z
y,-x,z
-x,-y,-z
y,-x,-z
x,y,-z
-y,x,-z
loop_
_atom_site_type_symbol
_atom_site_label
_atom_site_fract_x
_atom_site_fract_y
_atom_site_fract_z
Si Si1 0.348929 0.072992 0.687312
Si Si2 0.796438 0.679149 0.192631
Si Si3 0.416596 0.569706 0.817297
Si Si4 0.755709 0.539053 0.183799
Si Si5 0.501168 0.892056 0.312315
Si Si6 0.628347 0.061367 0.811855
Si Si7 0.205166 0.705408 0.814606
Si Si8 0.710919 0.406637 0.321980
O O1 0.345254 0.063504 0.500000
O O2 0.424913 0.088984 0.726967
O O3 0.305579 0.135205 0.734879
O O4 0.333490 0.004713 0.771686
O O5 0.755590 0.614208 0.238930
O O6 0.871781 0.665477 0.238127
O O7 0.761906 0.745681 0.247686
O O8 0.794782 0.679954 0.000000
O O9 0.413039 0.491760 0.794878
O O10 0.365414 0.604863 0.706317
O O11 0.398814 0.583611 0.000000
O O12 0.831138 0.518554 0.203367
O O13 0.721030 0.482776 0.282570
O O14 0.735085 0.535846 0.000000
O O15 0.499563 0.875310 0.500000
O O16 0.441732 0.941309 0.277339
O O17 0.616865 0.065106 0.000000
O O18 0.245797 0.638405 0.790253
O O19 0.194522 0.716577 0.000000
O O20 0.731689 0.392642 0.500000
#
# Coordination Sequence:
#
# PCOD9543310 Si02
#       8
#     8   8   8   8   8   8   8   8
#     4  11  22  35  51  78 113 142 175 221 270 321
#     4   8  19  37  56  79 102 131 178 227 262 304
#     4   9  20  39  58  71  85 116 167 223 276 331
#     4  10  19  34  54  73  97 134 180 220 257 313
#     4  10  19  32  49  73 108 140 169 217 267 306
#     4  10  20  35  56  79 105 140 184 222 259 320
#     4  11  22  38  58  77 103 142 182 223 268 315
#     4  12  24  35  48  74 104 132 166 215 274 329
#
# _framework density 18.058389999999999
#
# number of rings (size 3 to 8) (size 9 to 14) (size 15 to 20)
#    0.000    1.875    1.250    4.500    1.750    3.500 
#    0.000    7.500    0.000    0.000    0.000    0.000 
#    0.000    0.500    0.000    5.750    0.000    2.250 
#
# Total GULP energy -357235.181391 kJ/mol
# GULP energy per Si atom -5581.799709 kJ/mol
# Density = 1.801729 g / cm^3
# Si number density = 18.058390 Si / 1000 Ang^3
#
#
#
# Elastic Constant Matrix: (Units=GPa)
#
#
# Indices 1 2 3 4 5 6 
#
# 1 123.7892 2.7097 14.6749 0.0000 0.0000 4.4478
# 2 2.7097 123.7892 14.6749 0.0000 0.0000 -4.4478
# 3 14.6749 14.6749 23.0198 0.0000 0.0000 0.0000
# 4 0.0000 0.0000 0.0000 -4.0621 0.0000 0.0000
# 5 0.0000 0.0000 0.0000 0.0000 -4.0621 0.0000
# 6 4.4478 -4.4478 0.0000 0.0000 0.0000 18.7407
#
#
#
# Elastic Compliance Matrix: (Units=1/GPa)
#
#
# Indices 1 2 3 4 5 6 
#
# 1 0.008842 0.000436 -0.005914 0.000000 0.000000 -0.001995
# 2 0.000436 0.008842 -0.005914 0.000000 0.000000 0.001995
# 3 -0.005914 -0.005914 0.050981 0.000000 0.000000 0.000000
# 4 0.000000 0.000000 0.000000 -0.246179 0.000000 0.000000
# 5 0.000000 0.000000 0.000000 0.000000 -0.246179 0.000000
# 6 -0.001995 0.001995 0.000000 0.000000 0.000000 0.054307
#
#
# Mechanical properties :
#
#
# Convention : Reuss Voigt Hill
#
# Bulk Modulus (GPa) = 21.79638 37.19081 29.49359
# Shear Modulus (GPa) = -15.09172 18.02587 1.46707
#
# Velocity S-wave (km/s) = -2.89402 3.16286 0.90231
# Velocity P-wave (km/s) = 0.96387 5.82904 4.17772
#
# Compressibility (1/GPa) = 0.04587918
#
# Stress axis : x y z
#
# Youngs Moduli (GPa) = 113.10282 113.10282 19.61498
#
# Poissons Ratio (x) = -0.04930 0.11601
# Poissons Ratio (y) = -0.04930 0.11601
# Poissons Ratio (z) = 0.66892 0.66892
#
# Static dielectric constant tensor:
#      x y z
#    x 1.653010 0.000000 0.000000 
#    y 0.000000 1.653010 0.000000 
#    z 0.000000 0.000000 1.616530 
# 
# From -- ./inp_files/1270.got.cif
#   From: 2010.05.17/outbox.cif.g08.bks.cpg/sg83_1_cif.got.tgz:1270.got - 2010.06.03 18:55:12.
