data_PCOD9543501
_publ_section_title
;
Structure prediction by ZEFSAII (Michael W. Deem and Ramdas Pophale) SiO2 
 PCOD9543501
Probable space group: P 4/M
;
_chemical_formula_sum "Si O2"
_cell_formula_units_Z 60
_cell_length_a 15.078624
_cell_length_b 15.078624
_cell_length_c 15.271874
_cell_angle_alpha 90.000000
_cell_angle_beta 90.000000
_cell_angle_gamma 90.000000
_cell_volume 3472.288131
_symmetry_space_group_name_H-M "P 4/M"
_symmetry_group_IT_number 83
_symmetry_cell_setting 'tetragonal'
loop_
_space_group_symop_operation_xyz
x,y,z
-y,x,z
-x,-y,z
y,-x,z
-x,-y,-z
y,-x,-z
x,y,-z
-y,x,-z
loop_
_atom_site_type_symbol
_atom_site_label
_atom_site_fract_x
_atom_site_fract_y
_atom_site_fract_z
Si Si1 0.353312 0.523456 0.000000
Si Si2 0.918846 0.566295 0.100070
Si Si3 0.741361 0.507626 0.823339
Si Si4 0.232429 0.984377 0.895723
Si Si5 0.323372 0.309129 0.753099
Si Si6 0.158060 0.818607 0.788580
Si Si7 0.403354 0.609908 0.396792
Si Si8 0.906163 0.117271 0.400720
O O1 0.402846 0.429088 0.000000
O O2 0.293758 0.528785 0.915175
O O3 0.840507 0.543195 0.165866
O O4 0.953708 0.665710 0.107718
O O5 0.000000 0.500000 0.112227
O O6 0.885240 0.555563 0.000000
O O7 0.734056 0.420074 0.765020
O O8 0.683563 0.594437 0.799657
O O9 0.180151 0.909627 0.840397
O O10 0.221974 0.077101 0.844816
O O11 0.207227 0.989458 0.000000
O O12 0.247769 0.242393 0.785608
O O13 0.321570 0.340241 0.652382
O O14 0.131519 0.836778 0.687000
O O15 0.380261 0.507512 0.374088
O O16 0.395689 0.618861 0.500000
O O17 0.881019 0.148816 0.500000
O O18 0.013306 0.120164 0.395996
#
# Coordination Sequence:
#
# PCOD9543501 Si02
#       8
#     4   8   8   8   8   8   8   8
#     4  11  22  34  51  78 112 148 186 241 299 340
#     4  10  21  39  58  76 111 160 201 237 286 344
#     4  12  22  37  54  83 115 149 194 245 290 338
#     4  11  24  41  59  86 120 157 201 245 290 349
#     4  12  24  35  60  86 116 151 201 243 293 350
#     4  12  23  40  61  89 115 157 198 246 296 353
#     4   9  18  35  59  84 115 153 190 236 298 360
#     4   9  18  36  64  90 113 142 182 239 306 362
#
# _framework density 17.279672000000001
#
# number of rings (size 3 to 8) (size 9 to 14) (size 15 to 20)
#    0.000    1.267    6.000    2.000    0.000    1.067 
#    3.600    0.667    0.000    0.000    0.000    0.000 
#    0.000    8.533    0.000    0.000    0.000    0.000 
#
# Total GULP energy -334348.758934 kJ/mol
# GULP energy per Si atom -5572.479316 kJ/mol
# Density = 1.724034 g / cm^3
# Si number density = 17.279672 Si / 1000 Ang^3
#
#
#
# Elastic Constant Matrix: (Units=GPa)
#
#
# Indices 1 2 3 4 5 6 
#
# 1 38.2734 -0.7158 14.9831 0.0000 0.0000 5.7019
# 2 -0.7158 38.2734 14.9831 0.0000 0.0000 -5.7019
# 3 14.9831 14.9831 98.2836 0.0000 0.0000 0.0000
# 4 0.0000 0.0000 0.0000 21.8338 0.0000 0.0000
# 5 0.0000 0.0000 0.0000 0.0000 21.8338 0.0000
# 6 5.7019 -5.7019 0.0000 0.0000 0.0000 10.7625
#
#
#
# Elastic Compliance Matrix: (Units=1/GPa)
#
#
# Indices 1 2 3 4 5 6 
#
# 1 0.030332 -0.000019 -0.004621 0.000000 0.000000 -0.016080
# 2 -0.000019 0.030332 -0.004621 0.000000 0.000000 0.016080
# 3 -0.004621 -0.004621 0.011584 0.000000 0.000000 0.000000
# 4 0.000000 0.000000 0.000000 0.045800 0.000000 0.000000
# 5 0.000000 0.000000 0.000000 0.000000 0.045800 0.000000
# 6 -0.016080 0.016080 0.000000 0.000000 0.000000 0.109953
#
#
# Mechanical properties :
#
#
# Convention : Reuss Voigt Hill
#
# Bulk Modulus (GPa) = 18.61340 25.92571 22.26955
# Shear Modulus (GPa) = 16.11693 20.59136 18.35415
#
# Velocity S-wave (km/s) = 3.05734 3.45578 3.26265
# Velocity P-wave (km/s) = 4.82269 5.56411 5.20662
#
# Compressibility (1/GPa) = 0.05372474
#
# Stress axis : x y z
#
# Youngs Moduli (GPa) = 32.96850 32.96850 86.32894
#
# Poissons Ratio (x) = 0.00063 0.39894
# Poissons Ratio (y) = 0.00063 0.39894
# Poissons Ratio (z) = 0.15235 0.15235
#
# Static dielectric constant tensor:
#      x y z
#    x 1.577640 0.000000 0.000000 
#    y 0.000000 1.577640 0.000000 
#    z 0.000000 0.000000 1.607570 
# 
# From -- ./inp_files/2455.got.cif
#   From: 2010.05.17/outbox.cif.g08.bks.cpg/sg83_2_cif.got.tgz:2455.got - 2010.06.03 18:55:12.
