data_PCOD9543902
_publ_section_title
;
Structure prediction by ZEFSAII (Michael W. Deem and Ramdas Pophale) SiO2 
 PCOD9543902
Probable space group: P 4/M
;
_chemical_formula_sum "Si O2"
_cell_formula_units_Z 36
_cell_length_a 10.789040
_cell_length_b 10.789040
_cell_length_c 16.357606
_cell_angle_alpha 90.000000
_cell_angle_beta 90.000000
_cell_angle_gamma 90.000000
_cell_volume 1904.080695
_symmetry_space_group_name_H-M "P 4/M"
_symmetry_group_IT_number 83
_symmetry_cell_setting 'tetragonal'
loop_
_space_group_symop_operation_xyz
x,y,z
-y,x,z
-x,-y,z
y,-x,z
-x,-y,-z
y,-x,-z
x,y,-z
-y,x,-z
loop_
_atom_site_type_symbol
_atom_site_label
_atom_site_fract_x
_atom_site_fract_y
_atom_site_fract_z
Si Si1 0.002244 0.209549 0.410076
Si Si2 0.993649 0.208954 0.090617
Si Si3 0.411859 0.309118 0.319174
Si Si4 0.363091 0.052796 0.749177
Si Si5 0.309042 0.585662 0.500000
O O1 0.004927 0.272177 0.500000
O O2 0.000288 0.293355 0.330425
O O3 0.119848 0.117438 0.407094
O O4 0.986935 0.297874 0.167456
O O5 0.114828 0.122361 0.095528
O O6 0.991829 0.267898 0.000000
O O7 0.558678 0.341904 0.311631
O O8 0.368842 0.202258 0.258707
O O9 0.389091 0.254370 0.411012
O O10 0.500000 0.000000 0.747289
O O11 0.343219 0.440374 0.500000
#
# Coordination Sequence:
#
# PCOD9543902 Si02
#       5
#     8   8   8   8   4
#     4   9  20  40  60  79 114 162 202 243 297 343
#     4   9  20  42  70  91 109 141 186 238 296 351
#     4   9  20  37  54  74 112 161 205 236 274 331
#     4  12  25  33  56  92 121 147 188 237 292 340
#     4   7  12  30  53  68  90 145 208 242 258 289
#
# _framework density 18.906762000000001
#
# number of rings (size 3 to 8) (size 9 to 14) (size 15 to 20)
#    0.000    2.556    0.000    4.000    7.778    2.667 
#    0.000    0.000    0.000    0.000    0.000    1.556 
#    0.000    0.000    0.000    0.000    0.000    0.000 
#
# Total GULP energy -200950.346664 kJ/mol
# GULP energy per Si atom -5581.954074 kJ/mol
# Density = 1.886373 g / cm^3
# Si number density = 18.906762 Si / 1000 Ang^3
#
#
#
# Elastic Constant Matrix: (Units=GPa)
#
#
# Indices 1 2 3 4 5 6 
#
# 1 55.5770 3.6846 52.6075 0.0000 0.0000 1.1694
# 2 3.6846 55.5770 52.6075 0.0000 0.0000 -1.1694
# 3 52.6075 52.6075 177.0327 0.0000 0.0000 0.0000
# 4 0.0000 0.0000 0.0000 9.9946 0.0000 0.0000
# 5 0.0000 0.0000 0.0000 0.0000 9.9946 0.0000
# 6 1.1694 -1.1694 0.0000 0.0000 0.0000 13.6148
#
#
#
# Elastic Compliance Matrix: (Units=1/GPa)
#
#
# Indices 1 2 3 4 5 6 
#
# 1 0.027533 0.008187 -0.010615 0.000000 0.000000 -0.001662
# 2 0.008187 0.027533 -0.010615 0.000000 0.000000 0.001662
# 3 -0.010615 -0.010615 0.011957 0.000000 0.000000 0.000000
# 4 0.000000 0.000000 0.000000 0.100054 0.000000 0.000000
# 5 0.000000 0.000000 0.000000 0.000000 0.100054 0.000000
# 6 -0.001662 0.001662 0.000000 0.000000 0.000000 0.073735
#
#
# Mechanical properties :
#
#
# Convention : Reuss Voigt Hill
#
# Bulk Modulus (GPa) = 24.42687 56.22063 40.32375
# Shear Modulus (GPa) = 13.13730 18.67329 15.90530
#
# Velocity S-wave (km/s) = 2.63885 3.14610 2.90358
# Velocity P-wave (km/s) = 4.71513 6.55725 5.71095
#
# Compressibility (1/GPa) = 0.04093852
#
# Stress axis : x y z
#
# Youngs Moduli (GPa) = 36.32045 36.32045 83.63169
#
# Poissons Ratio (x) = -0.29736 0.88772
# Poissons Ratio (y) = -0.29736 0.88772
# Poissons Ratio (z) = 0.38553 0.38553
#
# Static dielectric constant tensor:
#      x y z
#    x 1.660890 0.000000 0.000000 
#    y 0.000000 1.660890 0.000000 
#    z 0.000000 0.000000 1.656010 
# 
# From -- ./inp_files/2257.got.cif
#   From: 2010.05.17/outbox.cif.g08.bks.cpg/sg83_2_cif.got.tgz:2257.got - 2010.06.03 18:55:12.
