data_PCOD9543070
_publ_section_title
;
Structure prediction by ZEFSAII (Michael W. Deem and Ramdas Pophale) SiO2 
 PCOD9543070
Probable space group: I -4 
;
_chemical_formula_sum "Si O2"
_cell_formula_units_Z 52
_cell_length_a 16.054528
_cell_length_b 16.054528
_cell_length_c 9.823147
_cell_angle_alpha 90.000000
_cell_angle_beta 90.000000
_cell_angle_gamma 90.000000
_cell_volume 2531.895209
_symmetry_space_group_name_H-M "I -4 "
_symmetry_group_IT_number 82
_symmetry_cell_setting 'tetragonal'
loop_
_space_group_symop_operation_xyz
x,y,z
y,-x,-z
-x,-y,z
-y,x,-z
1/2+x,1/2+y,1/2+z
1/2+y,1/2-x,1/2-z
1/2-x,1/2-y,1/2+z
1/2-y,1/2+x,1/2-z
loop_
_atom_site_type_symbol
_atom_site_label
_atom_site_fract_x
_atom_site_fract_y
_atom_site_fract_z
Si Si1 0.607658 0.226228 0.707377
Si Si2 0.863385 0.743569 0.427796
Si Si3 0.053469 0.170758 0.174807
Si Si4 0.498061 0.309807 0.135823
Si Si5 0.500000 0.500000 0.186914
Si Si6 0.113577 0.208835 0.886648
Si Si7 0.148889 0.713751 0.513780
O O1 0.649345 0.154440 0.616896
O O2 0.517541 0.258626 0.665612
O O3 0.666689 0.307779 0.688780
O O4 0.610293 0.200059 0.865329
O O5 0.883748 0.794908 0.289762
O O6 0.935925 0.765709 0.530916
O O7 0.780245 0.776443 0.500144
O O8 0.096993 0.162921 0.029478
O O9 0.011229 0.084783 0.225233
O O10 0.497147 0.409953 0.111281
O O11 0.464914 0.299277 0.288111
O O12 0.583325 0.262143 0.107401
O O13 0.135437 0.304763 0.920624
#
# Coordination Sequence:
#
# PCOD9543070 Si02
#       7
#     8   8   8   8   4   8   8
#     4  11  23  42  65  90 133 180 224 260 335 409
#     4  11  23  40  64  92 126 176 224 262 326 402
#     4  12  24  40  65  96 141 169 213 283 327 406
#     4  12  25  41  68  98 136 171 218 282 329 407
#     4  12  26  40  64 110 140 174 208 270 370 396
#     4  11  26  40  62 100 132 177 224 267 331 399
#     4  11  22  42  66  92 132 179 221 268 329 410
#
# _framework density 20.537974999999999
#
# number of rings (size 3 to 8) (size 9 to 14) (size 15 to 20)
#    0.000    0.615    7.692    0.000    2.154    2.462 
#    0.000    0.000    0.000    5.538    0.000    0.000 
#    0.000    0.000    0.000    0.000    0.000    0.000 
#
# Total GULP energy -145230.933335 kJ/mol
# GULP energy per Si atom -5585.805128 kJ/mol
# Density = 2.049123 g / cm^3
# Si number density = 20.537975 Si / 1000 Ang^3
#
#
#
# Elastic Constant Matrix: (Units=GPa)
#
#
# Indices 1 2 3 4 5 6 
#
# 1 60.1551 30.3979 6.1249 0.0000 0.0000 -10.0930
# 2 30.3979 60.1551 6.1249 0.0000 0.0000 10.0930
# 3 6.1249 6.1249 65.2434 0.0000 0.0000 0.0000
# 4 0.0000 0.0000 0.0000 32.7777 0.0000 0.0000
# 5 0.0000 0.0000 0.0000 0.0000 32.7777 0.0000
# 6 -10.0930 10.0930 0.0000 0.0000 0.0000 44.2106
#
#
#
# Elastic Compliance Matrix: (Units=1/GPa)
#
#
# Indices 1 2 3 4 5 6 
#
# 1 0.025474 -0.014289 -0.001050 0.000000 0.000000 0.009078
# 2 -0.014289 0.025474 -0.001050 0.000000 0.000000 -0.009078
# 3 -0.001050 -0.001050 0.015524 0.000000 0.000000 0.000000
# 4 0.000000 0.000000 0.000000 0.030509 0.000000 0.000000
# 5 0.000000 0.000000 0.000000 0.000000 0.030509 0.000000
# 6 0.009078 -0.009078 0.000000 0.000000 0.000000 0.026764
#
#
# Mechanical properties :
#
#
# Convention : Reuss Voigt Hill
#
# Bulk Modulus (GPa) = 29.67818 30.09433 29.88625
# Shear Modulus (GPa) = 25.21897 31.48025 28.34961
#
# Velocity S-wave (km/s) = 3.50797 3.91932 3.71934
# Velocity P-wave (km/s) = 5.55784 5.93012 5.74699
#
# Compressibility (1/GPa) = 0.03369479
#
# Stress axis : x y z
#
# Youngs Moduli (GPa) = 39.25535 39.25535 64.41481
#
# Poissons Ratio (x) = 0.56092 0.06764
# Poissons Ratio (y) = 0.56092 0.06764
# Poissons Ratio (z) = 0.04122 0.04122
#
# Static dielectric constant tensor:
#      x y z
#    x 1.763500 0.000000 0.000000 
#    y 0.000000 1.763500 0.000000 
#    z 0.000000 0.000000 1.750210 
# 
# From -- ./inp_files/1091.got.cif
#   From: 2010.05.17/outbox.cif.g08.bks.cpg/sg82_1_cif.got.tgz:1091.got - 2010.06.03 18:52:26.
