data_PCOD9543551
_publ_section_title
;
Structure prediction by ZEFSAII (Michael W. Deem and Ramdas Pophale) SiO2 
 PCOD9543551
Probable space group: P 4/M
;
_chemical_formula_sum "Si O2"
_cell_formula_units_Z 32
_cell_length_a 8.170256
_cell_length_b 8.170256
_cell_length_c 22.772206
_cell_angle_alpha 90.000000
_cell_angle_beta 90.000000
_cell_angle_gamma 90.000000
_cell_volume 1520.114960
_symmetry_space_group_name_H-M "P 4/M"
_symmetry_group_IT_number 83
_symmetry_cell_setting 'tetragonal'
loop_
_space_group_symop_operation_xyz
x,y,z
-y,x,z
-x,-y,z
y,-x,z
-x,-y,-z
y,-x,-z
x,y,-z
-y,x,-z
loop_
_atom_site_type_symbol
_atom_site_label
_atom_site_fract_x
_atom_site_fract_y
_atom_site_fract_z
Si Si1 0.763589 0.417680 0.064296
Si Si2 0.000000 0.500000 0.399672
Si Si3 0.738103 0.909552 0.694363
Si Si4 0.080171 0.264187 0.500000
Si Si5 0.914829 0.262273 0.825132
O O1 0.696460 0.602006 0.066699
O O2 0.870256 0.373634 0.120218
O O3 0.841503 0.389514 0.000000
O O4 0.886787 0.392517 0.356692
O O5 0.095832 0.376865 0.442701
O O6 0.667365 0.886671 0.759897
O O7 0.901951 0.801232 0.689222
O O8 0.195667 0.106567 0.500000
O O9 0.099830 0.197562 0.828500
#
# Coordination Sequence:
#
# PCOD9543551 Si02
#       5
#     8   4   8   4   8
#     4   9  19  35  52  72 103 143 184 226 276 334
#     4  11  20  32  62  90 105 140 188 220 255 310
#     4   9  19  36  56  80 111 144 180 223 271 324
#     4  10  22  40  60  84 116 150 184 220 258 306
#     4   9  19  34  52  77 107 138 177 228 278 323
#
# _framework density 21.05104
#
# number of rings (size 3 to 8) (size 9 to 14) (size 15 to 20)
#    0.000    2.625    0.000    3.750    0.000    8.000 
#    0.000    3.750    0.000   30.750    0.000    0.000 
#    0.000    0.000    0.000    0.000    0.000    0.000 
#
# Total GULP energy -178788.246348 kJ/mol
# GULP energy per Si atom -5587.132698 kJ/mol
# Density = 2.100313 g / cm^3
# Si number density = 21.051040 Si / 1000 Ang^3
#
#
#
# Elastic Constant Matrix: (Units=GPa)
#
#
# Indices 1 2 3 4 5 6 
#
# 1 63.2927 20.8517 62.1833 0.0000 0.0000 -1.9681
# 2 20.8517 63.2927 62.1833 0.0000 0.0000 1.9681
# 3 62.1833 62.1833 220.4630 0.0000 0.0000 0.0000
# 4 0.0000 0.0000 0.0000 49.3509 0.0000 0.0000
# 5 0.0000 0.0000 0.0000 0.0000 49.3509 0.0000
# 6 -1.9681 1.9681 0.0000 0.0000 0.0000 23.4677
#
#
#
# Elastic Compliance Matrix: (Units=1/GPa)
#
#
# Indices 1 2 3 4 5 6 
#
# 1 0.022064 -0.001683 -0.005749 0.000000 0.000000 0.001992
# 2 -0.001683 0.022064 -0.005749 0.000000 0.000000 -0.001992
# 3 -0.005749 -0.005749 0.007779 0.000000 0.000000 0.000000
# 4 0.000000 0.000000 0.000000 0.020263 0.000000 0.000000
# 5 0.000000 0.000000 0.000000 0.000000 0.020263 0.000000
# 6 0.001992 -0.001992 0.000000 0.000000 0.000000 0.042946
#
#
# Mechanical properties :
#
#
# Convention : Reuss Voigt Hill
#
# Bulk Modulus (GPa) = 39.14496 70.83169 54.98833
# Shear Modulus (GPa) = 29.36789 37.88924 33.62856
#
# Velocity S-wave (km/s) = 3.73913 4.24710 4.00118
# Velocity P-wave (km/s) = 6.10550 7.60073 6.89377
#
# Compressibility (1/GPa) = 0.02554607
#
# Stress axis : x y z
#
# Youngs Moduli (GPa) = 45.32311 45.32311 128.55524
#
# Poissons Ratio (x) = 0.07628 0.73901
# Poissons Ratio (y) = 0.07628 0.73901
# Poissons Ratio (z) = 0.26054 0.26054
#
# Static dielectric constant tensor:
#      x y z
#    x 1.765970 0.000000 0.000000 
#    y 0.000000 1.765970 0.000000 
#    z 0.000000 0.000000 1.777420 
# 
# From -- ./inp_files/3068.got.cif
#   From: 2010.05.17/outbox.cif.g08.bks.cpg/sg83_2_cif.got.tgz:3068.got - 2010.06.03 18:55:12.
