data_PCOD9543137
_publ_section_title
;
Structure prediction by ZEFSAII (Michael W. Deem and Ramdas Pophale) SiO2 
 PCOD9543137
Probable space group: I -4 
;
_chemical_formula_sum "Si O2"
_cell_formula_units_Z 48
_cell_length_a 19.870077
_cell_length_b 19.870077
_cell_length_c 5.096632
_cell_angle_alpha 90.000000
_cell_angle_beta 90.000000
_cell_angle_gamma 90.000000
_cell_volume 2012.252042
_symmetry_space_group_name_H-M "I -4 "
_symmetry_group_IT_number 82
_symmetry_cell_setting 'tetragonal'
loop_
_space_group_symop_operation_xyz
x,y,z
y,-x,-z
-x,-y,z
-y,x,-z
1/2+x,1/2+y,1/2+z
1/2+y,1/2-x,1/2-z
1/2-x,1/2-y,1/2+z
1/2-y,1/2+x,1/2-z
loop_
_atom_site_type_symbol
_atom_site_label
_atom_site_fract_x
_atom_site_fract_y
_atom_site_fract_z
Si Si1 0.034849 0.393441 0.770050
Si Si2 0.671648 0.460646 0.460994
Si Si3 0.268431 0.208657 0.966647
Si Si4 0.419746 0.186886 0.782515
Si Si5 0.901884 0.167179 0.848721
Si Si6 0.948238 0.083972 0.419201
O O1 0.079670 0.458861 0.695769
O O2 0.039590 0.340490 0.532573
O O3 0.063665 0.360554 0.034937
O O4 0.737540 0.436532 0.308527
O O5 0.694137 0.521329 0.650234
O O6 0.627679 0.394697 0.532762
O O7 0.623475 0.505377 0.279827
O O8 0.230714 0.240077 0.713325
O O9 0.341936 0.188095 0.868446
O O10 0.228214 0.145537 0.080786
O O11 0.895266 0.131567 0.566241
O O12 0.007801 0.071985 0.645458
#
# Coordination Sequence:
#
# PCOD9543137 Si02
#       6
#     8   8   8   8   8   8
#     4  11  27  51  79 111 149 190 252 330 395 447
#     4  11  25  42  69 108 146 199 256 308 376 456
#     4  12  28  50  74 108 159 204 250 310 382 453
#     4  12  27  47  77 111 150 200 257 305 384 474
#     4  11  25  43  72 104 148 201 249 315 377 449
#     4   9  20  40  67 102 146 191 247 314 376 444
#
# _framework density 23.853871000000002
#
# number of rings (size 3 to 8) (size 9 to 14) (size 15 to 20)
#    0.000    1.000    1.667    3.000    9.333    3.000 
#    0.000    0.000    0.000    0.000    0.000    0.000 
#    0.000    0.000    0.000    0.000    0.000    0.000 
#
# Total GULP energy -134080.275270 kJ/mol
# GULP energy per Si atom -5586.678136 kJ/mol
# Density = 2.379958 g / cm^3
# Si number density = 23.853871 Si / 1000 Ang^3
#
#
#
# Elastic Constant Matrix: (Units=GPa)
#
#
# Indices 1 2 3 4 5 6 
#
# 1 115.0048 78.4370 24.4699 0.0000 0.0000 17.0487
# 2 78.4370 115.0048 24.4699 0.0000 0.0000 -17.0487
# 3 24.4699 24.4699 111.4586 0.0000 0.0000 0.0000
# 4 0.0000 0.0000 0.0000 31.7800 0.0000 0.0000
# 5 0.0000 0.0000 0.0000 0.0000 31.7800 0.0000
# 6 17.0487 -17.0487 0.0000 0.0000 0.0000 31.8211
#
#
#
# Elastic Compliance Matrix: (Units=1/GPa)
#
#
# Indices 1 2 3 4 5 6 
#
# 1 0.030060 -0.024586 -0.001202 0.000000 0.000000 -0.029277
# 2 -0.024586 0.030060 -0.001202 0.000000 0.000000 0.029277
# 3 -0.001202 -0.001202 0.009500 0.000000 0.000000 0.000000
# 4 0.000000 0.000000 0.000000 0.031466 0.000000 0.000000
# 5 0.000000 0.000000 0.000000 0.000000 0.031466 0.000000
# 6 -0.029277 0.029277 0.000000 0.000000 0.000000 0.062797
#
#
# Mechanical properties :
#
#
# Convention : Reuss Voigt Hill
#
# Bulk Modulus (GPa) = 63.93881 66.24684 65.09282
# Shear Modulus (GPa) = 19.64315 33.34898 26.49606
#
# Velocity S-wave (km/s) = 2.87274 3.74311 3.33643
# Velocity P-wave (km/s) = 6.15354 6.82007 6.49536
#
# Compressibility (1/GPa) = 0.01563995
#
# Stress axis : x y z
#
# Youngs Moduli (GPa) = 33.26706 33.26706 105.26788
#
# Poissons Ratio (x) = 0.81791 0.12650
# Poissons Ratio (y) = 0.81791 0.12650
# Poissons Ratio (z) = 0.03998 0.03998
#
# Static dielectric constant tensor:
#      x y z
#    x 1.991410 0.000000 0.000000 
#    y 0.000000 1.991410 0.000000 
#    z 0.000000 0.000000 2.202450 
# 
# From -- ./inp_files/356.got.cif
#   From: 2010.05.17/outbox.cif.g08.bks.cpg/sg82_1_cif.got.tgz:356.got - 2010.06.03 18:52:26.
