data_PCOD9543872
_publ_section_title
;
Structure prediction by ZEFSAII (Michael W. Deem and Ramdas Pophale) SiO2 
 PCOD9543872
Probable space group: P 4/M
;
_chemical_formula_sum "Si O2"
_cell_formula_units_Z 36
_cell_length_a 7.045219
_cell_length_b 7.045219
_cell_length_c 26.200028
_cell_angle_alpha 90.000000
_cell_angle_beta 90.000000
_cell_angle_gamma 90.000000
_cell_volume 1300.441292
_symmetry_space_group_name_H-M "P 4/M"
_symmetry_group_IT_number 83
_symmetry_cell_setting 'tetragonal'
loop_
_space_group_symop_operation_xyz
x,y,z
-y,x,z
-x,-y,z
y,-x,z
-x,-y,-z
y,-x,-z
x,y,-z
-y,x,-z
loop_
_atom_site_type_symbol
_atom_site_label
_atom_site_fract_x
_atom_site_fract_y
_atom_site_fract_z
Si Si1 0.500000 0.000000 0.640933
Si Si2 0.217079 0.651249 0.274299
Si Si3 0.852498 0.715890 0.444394
Si Si4 0.220206 0.660766 0.835907
Si Si5 0.221206 0.663379 0.054716
O O1 0.332573 0.084481 0.676700
O O2 0.415509 0.833887 0.604775
O O3 0.257757 0.424260 0.275707
O O4 0.130319 0.703615 0.219028
O O5 0.807180 0.629949 0.500000
O O6 0.758699 0.921369 0.442895
O O7 0.253384 0.432990 0.835924
O O8 0.130179 0.711214 0.890571
O O9 0.252655 0.435101 0.054709
O O10 0.131006 0.712512 0.000000
#
# Coordination Sequence:
#
# PCOD9543872 Si02
#       5
#     4   8   8   8   8
#     4  12  19  28  48  72  87 108 144 178 200 236
#     4   9  18  30  42  60  88 117 141 169 208 250
#     4   9  19  35  51  67  89 114 138 168 208 249
#     4   7  10  18  30  44  69 103 131 159 200 243
#     4   7   8  10  20  40  63  88 123 164 198 230
#
# _framework density 27.682912000000002
#
# number of rings (size 3 to 8) (size 9 to 14) (size 15 to 20)
#    0.000    3.556    0.000    5.667    0.000    0.000 
#    0.000    0.000    0.000    0.000    0.000   10.111 
#    0.000    0.000    0.000    0.000    0.000    0.444 
#
# Total GULP energy -201161.651900 kJ/mol
# GULP energy per Si atom -5587.823664 kJ/mol
# Density = 2.761990 g / cm^3
# Si number density = 27.682912 Si / 1000 Ang^3
#
#
#
# Elastic Constant Matrix: (Units=GPa)
#
#
# Indices 1 2 3 4 5 6 
#
# 1 85.6356 4.9378 13.8016 0.0000 0.0000 8.0901
# 2 4.9378 85.6356 13.8016 0.0000 0.0000 -8.0901
# 3 13.8016 13.8016 259.1624 0.0000 0.0000 0.0000
# 4 0.0000 0.0000 0.0000 6.1349 0.0000 0.0000
# 5 0.0000 0.0000 0.0000 0.0000 6.1349 0.0000
# 6 8.0901 -8.0901 0.0000 0.0000 0.0000 16.4034
#
#
#
# Elastic Compliance Matrix: (Units=1/GPa)
#
#
# Indices 1 2 3 4 5 6 
#
# 1 0.012487 -0.001264 -0.000598 0.000000 0.000000 -0.006782
# 2 -0.001264 0.012487 -0.000598 0.000000 0.000000 0.006782
# 3 -0.000598 -0.000598 0.003922 0.000000 0.000000 0.000000
# 4 0.000000 0.000000 0.000000 0.163002 0.000000 0.000000
# 5 0.000000 0.000000 0.000000 0.000000 0.163002 0.000000
# 6 -0.006782 0.006782 0.000000 0.000000 0.000000 0.067653
#
#
# Mechanical properties :
#
#
# Convention : Reuss Voigt Hill
#
# Bulk Modulus (GPa) = 41.70596 55.05729 48.38163
# Shear Modulus (GPa) = 11.48198 32.26082 21.87140
#
# Velocity S-wave (km/s) = 2.03879 3.41745 2.81387
# Velocity P-wave (km/s) = 4.54319 5.95850 5.29831
#
# Compressibility (1/GPa) = 0.02397739
#
# Stress axis : x y z
#
# Youngs Moduli (GPa) = 80.08104 80.08104 254.95618
#
# Poissons Ratio (x) = 0.10126 0.15238
# Poissons Ratio (y) = 0.10126 0.15238
# Poissons Ratio (z) = 0.04786 0.04786
#
# Static dielectric constant tensor:
#      x y z
#    x 2.124510 0.000000 0.000000 
#    y 0.000000 2.124510 0.000000 
#    z 0.000000 0.000000 2.289460 
# 
# From -- ./inp_files/3240.got.cif
#   From: 2010.05.17/outbox.cif.g08.bks.cpg/sg83_2_cif.got.tgz:3240.got - 2010.06.03 18:55:12.
