data_PCOD9543943
_publ_section_title
;
Structure prediction by ZEFSAII (Michael W. Deem and Ramdas Pophale) SiO2 
 PCOD9543943
Probable space group: P 42/M
;
_chemical_formula_sum "Si O2"
_cell_formula_units_Z 40
_cell_length_a 8.748181
_cell_length_b 8.748181
_cell_length_c 25.090430
_cell_angle_alpha 90.000000
_cell_angle_beta 90.000000
_cell_angle_gamma 90.000000
_cell_volume 1920.187439
_symmetry_space_group_name_H-M "P 42/M"
_symmetry_group_IT_number 84
_symmetry_cell_setting 'tetragonal'
loop_
_space_group_symop_operation_xyz
x,y,z
-y,x,1/2+z
-x,-y,z
y,-x,1/2+z
-x,-y,-z
y,-x,1/2-z
x,y,-z
-y,x,1/2-z
loop_
_atom_site_type_symbol
_atom_site_label
_atom_site_fract_x
_atom_site_fract_y
_atom_site_fract_z
Si Si1 0.671473 0.433076 0.500000
Si Si2 0.544728 0.266767 0.230051
Si Si3 0.042048 0.223447 0.226983
Si Si4 0.568479 0.672369 0.116473
Si Si5 0.934548 0.671747 0.000000
Si Si6 0.938516 0.673259 0.115468
O O1 0.500000 0.500000 0.500000
O O2 0.738587 0.475275 0.558036
O O3 0.661382 0.249191 0.500000
O O4 0.403091 0.330575 0.264353
O O5 0.620385 0.119237 0.255189
O O6 0.496257 0.247242 0.168993
O O7 0.995676 0.235985 0.165612
O O8 0.906586 0.170032 0.264945
O O9 0.500000 0.500000 0.118393
O O10 0.753325 0.668926 0.120570
O O11 0.979805 0.739785 0.942826
O O12 0.000000 0.500000 0.000000
O O13 0.000000 0.500000 0.117671
#
# Coordination Sequence:
#
# PCOD9543943 Si02
#       6
#     4   8   8   8   4   8
#     4   8  16  26  44  69 118 143 163 222 283 312
#     4  11  20  34  57  82 109 141 189 233 274 336
#     4  11  26  40  53  80 116 152 187 230 290 345
#     4  10  17  30  48  83 110 142 181 225 271 332
#     4   8  16  32  50  84 106 140 191 227 273 331
#     4  10  20  33  59  81 114 149 185 234 281 330
#
# _framework density 20.831299999999999
#
# number of rings (size 3 to 8) (size 9 to 14) (size 15 to 20)
#    0.000    2.000    4.000    0.000    5.600    0.000 
#    0.000    0.000    0.000    3.600    0.000    4.200 
#    0.000    0.000    0.000    0.000    0.000    0.000 
#
# Total GULP energy -223154.279831 kJ/mol
# GULP energy per Si atom -5578.856996 kJ/mol
# Density = 2.078389 g / cm^3
# Si number density = 20.831300 Si / 1000 Ang^3
#
#
#
# Elastic Constant Matrix: (Units=GPa)
#
#
# Indices 1 2 3 4 5 6 
#
# 1 23.8907 26.2947 18.6599 0.0000 0.0000 8.9674
# 2 26.2947 23.8907 18.6599 0.0000 0.0000 -8.9674
# 3 18.6599 18.6599 226.6922 0.0000 0.0000 0.0000
# 4 0.0000 0.0000 0.0000 12.7752 0.0000 0.0000
# 5 0.0000 0.0000 0.0000 0.0000 12.7752 0.0000
# 6 8.9674 -8.9674 0.0000 0.0000 0.0000 34.3538
#
#
#
# Elastic Compliance Matrix: (Units=1/GPa)
#
#
# Indices 1 2 3 4 5 6 
#
# 1 -0.059954 0.081179 -0.001747 0.000000 0.000000 0.036840
# 2 0.081179 -0.059954 -0.001747 0.000000 0.000000 -0.036840
# 3 -0.001747 -0.001747 0.004699 0.000000 0.000000 0.000000
# 4 0.000000 0.000000 0.000000 0.078277 0.000000 0.000000
# 5 0.000000 0.000000 0.000000 0.000000 0.078277 0.000000
# 6 0.036840 -0.036840 0.000000 0.000000 0.000000 0.009876
#
#
# Mechanical properties :
#
#
# Convention : Reuss Voigt Hill
#
# Bulk Modulus (GPa) = 24.89974 44.63361 34.76667
# Shear Modulus (GPa) = -55.08950 26.03812 -14.52569
#
# Velocity S-wave (km/s) = -5.14810 3.53930 -2.64351
# Velocity P-wave (km/s) = 4.83304 6.17859 2.72183
#
# Compressibility (1/GPa) = 0.04016107
#
# Stress axis : x y z
#
# Youngs Moduli (GPa) = -16.67955 -16.67955 212.81596
#
# Poissons Ratio (x) = 1.35403 0.37182
# Poissons Ratio (y) = 1.35403 0.37182
# Poissons Ratio (z) = -0.02914 -0.02914
#
# Static dielectric constant tensor:
#      x y z
#    x 1.764080 0.000000 0.000000 
#    y 0.000000 1.764080 0.000000 
#    z 0.000000 0.000000 1.815840 
# 
# From -- ./inp_files/5370.got.cif
#   From: 2010.05.17/outbox.cif.g08.bks.cpg/sg84_3_cif.got.tgz:5370.got - 2010.06.03 18:57:40.
