data_PCOD9543731
_publ_section_title
;
Structure prediction by ZEFSAII (Michael W. Deem and Ramdas Pophale) SiO2 
 PCOD9543731
Probable space group: P 4/M
;
_chemical_formula_sum "Si O2"
_cell_formula_units_Z 48
_cell_length_a 8.112607
_cell_length_b 8.112607
_cell_length_c 33.200351
_cell_angle_alpha 90.000000
_cell_angle_beta 90.000000
_cell_angle_gamma 90.000000
_cell_volume 2185.060926
_symmetry_space_group_name_H-M "P 4/M"
_symmetry_group_IT_number 83
_symmetry_cell_setting 'tetragonal'
loop_
_space_group_symop_operation_xyz
x,y,z
-y,x,z
-x,-y,z
y,-x,z
-x,-y,-z
y,-x,-z
x,y,-z
-y,x,-z
loop_
_atom_site_type_symbol
_atom_site_label
_atom_site_fract_x
_atom_site_fract_y
_atom_site_fract_z
Si Si1 0.911030 0.737901 0.623644
Si Si2 0.089137 0.736273 0.923119
Si Si3 0.586274 0.236679 0.702099
Si Si4 0.000000 0.500000 0.768353
Si Si5 0.760894 0.598198 0.455056
Si Si6 0.091899 0.737428 0.166677
Si Si7 0.422038 0.235365 0.000000
O O1 0.854193 0.623467 0.660279
O O2 0.876645 0.652428 0.581032
O O3 0.097966 0.798564 0.626485
O O4 0.116716 0.666466 0.878246
O O5 0.901919 0.800151 0.926044
O O6 0.136809 0.620541 0.959693
O O7 0.700285 0.398139 0.704211
O O8 0.610806 0.111004 0.738843
O O9 0.885870 0.392045 0.797842
O O10 0.591408 0.703311 0.451770
O O11 0.830055 0.625103 0.500000
O O12 0.901866 0.798832 0.169751
O O13 0.605851 0.302755 0.000000
#
# Coordination Sequence:
#
# PCOD9543731 Si02
#       7
#     8   8   8   4   8   8   4
#     4  11  24  40  59  86 120 157 200 251 301 347
#     4   9  19  37  60  85 113 149 194 236 277 335
#     4  11  24  41  61  87 119 155 196 242 294 356
#     4  12  22  38  64  91 117 150 192 240 296 352
#     4   9  19  37  61  89 121 158 199 242 292 352
#     4   9  20  38  60  88 120 152 190 237 287 343
#     4  11  24  37  52  82 120 153 190 237 286 334
#
# _framework density 21.967354
#
# number of rings (size 3 to 8) (size 9 to 14) (size 15 to 20)
#    0.000    1.917    0.000    5.000    0.000    8.667 
#    0.000    4.167    0.000    2.000    0.000    0.000 
#    0.000    0.000    0.000    0.000    0.000    0.000 
#
# Total GULP energy -268713.761411 kJ/mol
# GULP energy per Si atom -5598.203363 kJ/mol
# Density = 2.191735 g / cm^3
# Si number density = 21.967354 Si / 1000 Ang^3
#
#
#
# Elastic Constant Matrix: (Units=GPa)
#
#
# Indices 1 2 3 4 5 6 
#
# 1 66.6316 32.2189 58.0618 0.0000 0.0000 -4.7716
# 2 32.2189 66.6316 58.0618 0.0000 0.0000 4.7716
# 3 58.0618 58.0618 202.5999 0.0000 0.0000 0.0000
# 4 0.0000 0.0000 0.0000 -42.0193 0.0000 0.0000
# 5 0.0000 0.0000 0.0000 0.0000 -42.0193 0.0000
# 6 -4.7716 4.7716 0.0000 0.0000 0.0000 34.6695
#
#
#
# Elastic Compliance Matrix: (Units=1/GPa)
#
#
# Indices 1 2 3 4 5 6 
#
# 1 0.022731 -0.007481 -0.004371 0.000000 0.000000 0.004158
# 2 -0.007481 0.022731 -0.004371 0.000000 0.000000 -0.004158
# 3 -0.004371 -0.004371 0.007441 0.000000 0.000000 0.000000
# 4 0.000000 0.000000 0.000000 -0.023799 0.000000 0.000000
# 5 0.000000 0.000000 0.000000 0.000000 -0.023799 0.000000
# 6 0.004158 -0.004158 0.000000 0.000000 0.000000 0.029988
#
#
# Mechanical properties :
#
#
# Convention : Reuss Voigt Hill
#
# Bulk Modulus (GPa) = 48.87639 70.28311 59.57975
# Shear Modulus (GPa) = 67.06135 2.62756 34.84445
#
# Velocity S-wave (km/s) = 5.53118 1.09486 3.98702
# Velocity P-wave (km/s) = 7.94291 5.80190 6.95528
#
# Compressibility (1/GPa) = 0.02045977
#
# Stress axis : x y z
#
# Youngs Moduli (GPa) = 43.99205 43.99205 134.39237
#
# Poissons Ratio (x) = 0.32910 0.58737
# Poissons Ratio (y) = 0.32910 0.58737
# Poissons Ratio (z) = 0.19227 0.19227
#
# Static dielectric constant tensor:
#      x y z
#    x 1.799610 0.000000 0.000000 
#    y 0.000000 1.799610 0.000000 
#    z 0.000000 0.000000 1.771670 
# 
# From -- ./inp_files/3474.got.cif
#   From: 2010.05.17/outbox.cif.g08.bks.cpg/sg83_2_cif.got.tgz:3474.got - 2010.06.03 18:55:12.
