data_PCOD9543586
_publ_section_title
;
Structure prediction by ZEFSAII (Michael W. Deem and Ramdas Pophale) SiO2 
 PCOD9543586
Probable space group: P 4/M
;
_chemical_formula_sum "Si O2"
_cell_formula_units_Z 32
_cell_length_a 11.915311
_cell_length_b 11.915311
_cell_length_c 11.660349
_cell_angle_alpha 90.000000
_cell_angle_beta 90.000000
_cell_angle_gamma 90.000000
_cell_volume 1655.473808
_symmetry_space_group_name_H-M "P 4/M"
_symmetry_group_IT_number 83
_symmetry_cell_setting 'tetragonal'
loop_
_space_group_symop_operation_xyz
x,y,z
-y,x,z
-x,-y,z
y,-x,z
-x,-y,-z
y,-x,-z
x,y,-z
-y,x,-z
loop_
_atom_site_type_symbol
_atom_site_label
_atom_site_fract_x
_atom_site_fract_y
_atom_site_fract_z
Si Si1 0.087067 0.833701 0.000000
Si Si2 0.834205 0.371329 0.871853
Si Si3 0.277857 0.204796 0.500000
Si Si4 0.602066 0.656680 0.697423
Si Si5 0.500000 0.000000 0.700839
Si Si6 0.338247 0.945599 0.500000
O O1 0.145992 0.954051 0.000000
O O2 0.124086 0.756230 0.892800
O O3 0.709357 0.373890 0.821658
O O4 0.913798 0.435310 0.783070
O O5 0.840348 0.422320 0.000000
O O6 0.340488 0.259576 0.608239
O O7 0.290686 0.071648 0.500000
O O8 0.150173 0.245754 0.500000
O O9 0.468251 0.649027 0.681083
O O10 0.415577 0.937046 0.613616
#
# Coordination Sequence:
#
# PCOD9543586 Si02
#       6
#     4   8   4   8   4   4
#     4   9  22  43  62  91 128 173 224 269 324 394
#     4  10  23  41  66  96 128 177 220 273 334 396
#     4  12  24  46  64 104 130 181 220 279 342 401
#     4  11  24  43  68  97 136 177 223 281 340 401
#     4  11  21  46  64 100 129 175 220 286 322 403
#     4  11  26  41  72  94 138 171 228 276 339 406
#
# _framework density 19.329815
#
# number of rings (size 3 to 8) (size 9 to 14) (size 15 to 20)
#    0.750    0.625    2.500    2.625    3.500    6.250 
#    0.000    1.250    0.000    0.000    0.000    0.000 
#    0.000    0.000    0.000    0.000    0.000    0.000 
#
# Total GULP energy -178676.366014 kJ/mol
# GULP energy per Si atom -5583.636438 kJ/mol
# Density = 1.928582 g / cm^3
# Si number density = 19.329815 Si / 1000 Ang^3
#
#
#
# Elastic Constant Matrix: (Units=GPa)
#
#
# Indices 1 2 3 4 5 6 
#
# 1 127.1004 69.1752 40.5189 0.0000 0.0000 -3.8571
# 2 69.1752 127.1004 40.5189 0.0000 0.0000 3.8571
# 3 40.5189 40.5189 115.3257 0.0000 0.0000 0.0000
# 4 0.0000 0.0000 0.0000 163.1636 0.0000 0.0000
# 5 0.0000 0.0000 0.0000 0.0000 163.1636 0.0000
# 6 -3.8571 3.8571 0.0000 0.0000 0.0000 23.0402
#
#
#
# Elastic Compliance Matrix: (Units=1/GPa)
#
#
# Indices 1 2 3 4 5 6 
#
# 1 0.011808 -0.005849 -0.002094 0.000000 0.000000 0.002956
# 2 -0.005849 0.011808 -0.002094 0.000000 0.000000 -0.002956
# 3 -0.002094 -0.002094 0.010142 0.000000 0.000000 0.000000
# 4 0.000000 0.000000 0.000000 0.006129 0.000000 0.000000
# 5 0.000000 0.000000 0.000000 0.000000 0.006129 0.000000
# 6 0.002956 -0.002956 0.000000 0.000000 0.000000 0.044392
#
#
# Mechanical properties :
#
#
# Convention : Reuss Voigt Hill
#
# Bulk Modulus (GPa) = 73.06760 74.43916 73.75338
# Shear Modulus (GPa) = 43.46166 84.49439 63.97803
#
# Velocity S-wave (km/s) = 4.74690 6.61867 5.75934
# Velocity P-wave (km/s) = 8.24176 9.84900 9.08101
#
# Compressibility (1/GPa) = 0.01368596
#
# Stress axis : x y z
#
# Youngs Moduli (GPa) = 84.68593 84.68593 98.59638
#
# Poissons Ratio (x) = 0.49533 0.20644
# Poissons Ratio (y) = 0.49533 0.20644
# Poissons Ratio (z) = 0.17731 0.17731
#
# Static dielectric constant tensor:
#      x y z
#    x 1.666110 0.000000 0.000000 
#    y 0.000000 1.666110 0.000000 
#    z 0.000000 0.000000 1.695550 
# 
# From -- ./inp_files/1598.got.cif
#   From: 2010.05.17/outbox.cif.g08.bks.cpg/sg83_1_cif.got.tgz:1598.got - 2010.06.03 18:55:12.
