data_PCOD9543227
_publ_section_title
;
Structure prediction by ZEFSAII (Michael W. Deem and Ramdas Pophale) SiO2 
 PCOD9543227
Probable space group: P 4/M
;
_chemical_formula_sum "Si O2"
_cell_formula_units_Z 64
_cell_length_a 21.727660
_cell_length_b 21.727660
_cell_length_c 7.315487
_cell_angle_alpha 90.000000
_cell_angle_beta 90.000000
_cell_angle_gamma 90.000000
_cell_volume 3453.577103
_symmetry_space_group_name_H-M "P 4/M"
_symmetry_group_IT_number 83
_symmetry_cell_setting 'tetragonal'
loop_
_space_group_symop_operation_xyz
x,y,z
-y,x,z
-x,-y,z
y,-x,z
-x,-y,-z
y,-x,-z
x,y,-z
-y,x,-z
loop_
_atom_site_type_symbol
_atom_site_label
_atom_site_fract_x
_atom_site_fract_y
_atom_site_fract_z
Si Si1 0.132128 0.773977 0.221656
Si Si2 0.005820 0.592738 0.292083
Si Si3 0.421869 0.146890 0.278290
Si Si4 0.871371 0.560502 0.721956
Si Si5 0.212673 0.326102 0.713162
Si Si6 0.759742 0.319595 0.707990
Si Si7 0.122239 0.212295 0.219976
Si Si8 0.732055 0.000304 0.778163
O O1 0.184285 0.728948 0.294251
O O2 0.151439 0.842233 0.277151
O O3 0.066070 0.753164 0.283666
O O4 0.134086 0.769646 0.000000
O O5 0.012666 0.569747 0.500000
O O6 0.943411 0.561731 0.213849
O O7 0.986910 0.663966 0.290552
O O8 0.076007 0.592005 0.215010
O O9 0.413488 0.146010 0.500000
O O10 0.493597 0.155925 0.236833
O O11 0.378751 0.203370 0.211769
O O12 0.875598 0.566784 0.500000
O O13 0.825408 0.614820 0.786678
O O14 0.224830 0.339256 0.500000
O O15 0.277682 0.296941 0.786484
O O16 0.163870 0.270446 0.725618
O O17 0.741764 0.335796 0.500000
O O18 0.053696 0.222731 0.283452
O O19 0.121199 0.212546 0.000000
O O20 0.729169 0.000204 0.000000
#
# Coordination Sequence:
#
# PCOD9543227 Si02
#       8
#     8   8   8   8   8   8   8   8
#     4   9  17  28  41  56  75 100 127 157 197 238
#     4  10  17  26  40  58  77 105 136 158 182 221
#     4   9  16  25  38  57  81 107 132 157 188 227
#     4   9  16  25  38  57  81 107 132 157 188 227
#     4   9  16  26  41  60  78  96 126 166 196 220
#     4   9  16  26  41  60  78  96 126 166 196 220
#     4   9  17  28  41  56  75 100 127 157 197 238
#     4  10  18  27  41  58  78 100 127 162 196 232
#
# _framework density 18.531510000000001
#
# number of rings (size 3 to 8) (size 9 to 14) (size 15 to 20)
#    0.000    2.750    2.500    0.375    0.000    1.500 
#    0.000    0.000    0.000    4.125    0.000    2.625 
#    0.000    0.500    0.000   14.375    0.000    7.750 
#
# Total GULP energy -356299.189874 kJ/mol
# GULP energy per Si atom -5567.174842 kJ/mol
# Density = 1.848933 g / cm^3
# Si number density = 18.531510 Si / 1000 Ang^3
#
#
#
# Elastic Constant Matrix: (Units=GPa)
#
#
# Indices 1 2 3 4 5 6 
#
# 1 57.0154 18.8870 -1.7554 0.0000 0.0000 1.2395
# 2 18.8870 57.0154 -1.7554 0.0000 0.0000 -1.2395
# 3 -1.7554 -1.7554 74.0662 0.0000 0.0000 0.0000
# 4 0.0000 0.0000 0.0000 1.9950 0.0000 0.0000
# 5 0.0000 0.0000 0.0000 0.0000 1.9950 0.0000
# 6 1.2395 -1.2395 0.0000 0.0000 0.0000 21.7953
#
#
#
# Elastic Compliance Matrix: (Units=1/GPa)
#
#
# Indices 1 2 3 4 5 6 
#
# 1 0.019757 -0.006568 0.000313 0.000000 0.000000 -0.001497
# 2 -0.006568 0.019757 0.000313 0.000000 0.000000 0.001497
# 3 0.000313 0.000313 0.013516 0.000000 0.000000 0.000000
# 4 0.000000 0.000000 0.000000 0.501259 0.000000 0.000000
# 5 0.000000 0.000000 0.000000 0.000000 0.501259 0.000000
# 6 -0.001497 0.001497 0.000000 0.000000 0.000000 0.046052
#
#
# Mechanical properties :
#
#
# Convention : Reuss Voigt Hill
#
# Bulk Modulus (GPa) = 24.30417 24.31658 24.31037
# Shear Modulus (GPa) = 4.43577 16.67178 10.55378
#
# Velocity S-wave (km/s) = 1.54882 3.00266 2.38902
# Velocity P-wave (km/s) = 4.04252 5.01712 4.55596
#
# Compressibility (1/GPa) = 0.04114520
#
# Stress axis : x y z
#
# Youngs Moduli (GPa) = 50.61530 50.61530 73.98500
#
# Poissons Ratio (x) = 0.33242 -0.02313
# Poissons Ratio (y) = 0.33242 -0.02313
# Poissons Ratio (z) = -0.01582 -0.01582
#
# Static dielectric constant tensor:
#      x y z
#    x 1.648510 0.000000 0.000000 
#    y 0.000000 1.648510 0.000000 
#    z 0.000000 0.000000 1.712540 
# 
# From -- ./inp_files/2089.got.cif
#   From: 2010.05.17/outbox.cif.g08.bks.cpg/sg83_2_cif.got.tgz:2089.got - 2010.06.03 18:55:12.
