data_PCOD9543816
_publ_section_title
;
Structure prediction by ZEFSAII (Michael W. Deem and Ramdas Pophale) SiO2 
 PCOD9543816
Probable space group: P 4/M
;
_chemical_formula_sum "Si O2"
_cell_formula_units_Z 48
_cell_length_a 8.078721
_cell_length_b 8.078721
_cell_length_c 33.046617
_cell_angle_alpha 90.000000
_cell_angle_beta 90.000000
_cell_angle_gamma 90.000000
_cell_volume 2156.811682
_symmetry_space_group_name_H-M "P 4/M"
_symmetry_group_IT_number 83
_symmetry_cell_setting 'tetragonal'
loop_
_space_group_symop_operation_xyz
x,y,z
-y,x,z
-x,-y,z
y,-x,z
-x,-y,-z
y,-x,-z
x,y,-z
-y,x,-z
loop_
_atom_site_type_symbol
_atom_site_label
_atom_site_fract_x
_atom_site_fract_y
_atom_site_fract_z
Si Si1 0.735963 0.090570 0.740790
Si Si2 0.264176 0.910158 0.580147
Si Si3 0.410424 0.764243 0.500000
Si Si4 0.500000 0.000000 0.889444
Si Si5 0.762726 0.404878 0.954628
Si Si6 0.590469 0.235940 0.339600
Si Si7 0.413217 0.764781 0.179108
O O1 0.637343 0.134560 0.700273
O O2 0.631487 0.138410 0.780181
O O3 0.902142 0.202660 0.741209
O O4 0.364865 0.864907 0.540065
O O5 0.364827 0.864134 0.620185
O O6 0.098227 0.797849 0.580171
O O7 0.297954 0.598416 0.500000
O O8 0.615957 0.892883 0.919067
O O9 0.396953 0.880962 0.859799
O O10 0.702238 0.596149 0.951109
O O11 0.830319 0.379400 0.000000
O O12 0.702366 0.402218 0.339425
O O13 0.299615 0.601916 0.178203
#
# Coordination Sequence:
#
# PCOD9543816 Si02
#       7
#     8   8   4   4   8   8   8
#     4  11  24  42  64  92 125 160 202 255 314 374
#     4  11  24  41  62  91 124 160 205 256 311 372
#     4  11  24  41  62  90 124 161 204 253 308 376
#     4  12  21  34  60  92 122 158 206 261 314 364
#     4   9  19  37  61  90 124 163 209 259 312 373
#     4  11  24  41  63  92 124 161 208 256 305 368
#     4  11  24  41  61  87 120 161 209 257 311 377
#
# _framework density 22.25507
#
# number of rings (size 3 to 8) (size 9 to 14) (size 15 to 20)
#    0.000    1.250    0.000    6.250    0.000   12.667 
#    0.000    0.000    0.000    4.500    0.000    9.333 
#    0.000    0.000    0.000    0.000    0.000    0.000 
#
# Total GULP energy -269086.766750 kJ/mol
# GULP energy per Si atom -5605.974307 kJ/mol
# Density = 2.220442 g / cm^3
# Si number density = 22.255070 Si / 1000 Ang^3
#
#
#
# Elastic Constant Matrix: (Units=GPa)
#
#
# Indices 1 2 3 4 5 6 
#
# 1 106.8060 49.5216 67.4410 0.0000 0.0000 0.1488
# 2 49.5216 106.8060 67.4410 0.0000 0.0000 -0.1488
# 3 67.4410 67.4410 224.6696 0.0000 0.0000 0.0000
# 4 0.0000 0.0000 0.0000 103.4703 0.0000 0.0000
# 5 0.0000 0.0000 0.0000 0.0000 103.4703 0.0000
# 6 0.1488 -0.1488 0.0000 0.0000 0.0000 38.0518
#
#
#
# Elastic Compliance Matrix: (Units=1/GPa)
#
#
# Indices 1 2 3 4 5 6 
#
# 1 0.013045 -0.004412 -0.002591 0.000000 0.000000 -0.000068
# 2 -0.004412 0.013045 -0.002591 0.000000 0.000000 0.000068
# 3 -0.002591 -0.002591 0.006007 0.000000 0.000000 0.000000
# 4 0.000000 0.000000 0.000000 0.009665 0.000000 0.000000
# 5 0.000000 0.000000 0.000000 0.000000 0.009665 0.000000
# 6 -0.000068 0.000068 0.000000 0.000000 0.000000 0.026281
#
#
# Mechanical properties :
#
#
# Convention : Reuss Voigt Hill
#
# Bulk Modulus (GPa) = 77.47923 89.67656 83.57789
# Shear Modulus (GPa) = 49.40794 65.92365 57.66579
#
# Velocity S-wave (km/s) = 4.71688 5.44850 5.09584
# Velocity P-wave (km/s) = 8.03462 8.94225 8.50056
#
# Compressibility (1/GPa) = 0.01290669
#
# Stress axis : x y z
#
# Youngs Moduli (GPa) = 76.65832 76.65832 166.48039
#
# Poissons Ratio (x) = 0.33823 0.43141
# Poissons Ratio (y) = 0.33823 0.43141
# Poissons Ratio (z) = 0.19865 0.19865
#
# Static dielectric constant tensor:
#      x y z
#    x 1.819310 0.000000 0.000000 
#    y 0.000000 1.819310 0.000000 
#    z 0.000000 0.000000 1.765010 
# 
# From -- ./inp_files/3430.got.cif
#   From: 2010.05.17/outbox.cif.g08.bks.cpg/sg83_2_cif.got.tgz:3430.got - 2010.06.03 18:55:12.
