data_PCOD9543893
_publ_section_title
;
Structure prediction by ZEFSAII (Michael W. Deem and Ramdas Pophale) SiO2 
 PCOD9543893
Probable space group: P 4/M
;
_chemical_formula_sum "Si O2"
_cell_formula_units_Z 41
_cell_length_a 8.306730
_cell_length_b 8.306730
_cell_length_c 27.876485
_cell_angle_alpha 90.000000
_cell_angle_beta 90.000000
_cell_angle_gamma 90.000000
_cell_volume 1923.526619
_symmetry_space_group_name_H-M "P 4/M"
_symmetry_group_IT_number 83
_symmetry_cell_setting 'tetragonal'
loop_
_space_group_symop_operation_xyz
x,y,z
-y,x,z
-x,-y,z
y,-x,z
-x,-y,-z
y,-x,-z
x,y,-z
-y,x,-z
loop_
_atom_site_type_symbol
_atom_site_label
_atom_site_fract_x
_atom_site_fract_y
_atom_site_fract_z
Si Si1 0.089629 0.258267 0.500000
Si Si2 0.258275 0.912821 0.396086
Si Si3 0.592913 0.243519 0.306015
Si Si4 0.255921 0.379832 0.901087
Si Si5 0.921436 0.675031 0.000000
Si Si6 0.000000 0.000000 0.000000
Si Si7 0.607110 0.248083 0.797898
O O1 0.117630 0.338455 0.448367
O O2 0.905337 0.195474 0.500000
O O3 0.364022 0.865843 0.350854
O O4 0.096026 0.804272 0.393981
O O5 0.697693 0.408253 0.308293
O O6 0.631972 0.166857 0.253732
O O7 0.429716 0.293640 0.902366
O O8 0.171522 0.350434 0.849278
O O9 0.164157 0.327465 0.948076
O O10 0.000000 0.500000 0.000000
O O11 0.056544 0.814105 0.000000
O O12 0.701373 0.418807 0.797951
#
# Coordination Sequence:
#
# PCOD9543893 Si02
#       7
#     4   8   8   8   4   1   8
#     4   7  12  26  46  67  86 122 166 207 252 303
#     4   9  17  30  50  70  95 124 165 213 258 308
#     4   9  17  30  49  72  99 134 169 207 257 311
#     4   9  16  30  57  87 108 137 191 242 273 325
#     4  12  24  39  60  83 118 162 192 228 292 356
#     4  12  28  44  60  88 132 156 188 244 300 338
#     4   7  12  25  48  74  99 130 173 222 262 305
#
# _framework density 21.315016
#
# number of rings (size 3 to 8) (size 9 to 14) (size 15 to 20)
#    0.000    3.220    0.000    5.268    0.000    1.561 
#    0.000    0.976   17.171    4.683    0.000    0.000 
#    0.000    0.000    0.000    0.000    0.000    0.000 
#
# Total GULP energy -228258.051103 kJ/mol
# GULP energy per Si atom -5567.269539 kJ/mol
# Density = 2.126650 g / cm^3
# Si number density = 21.315016 Si / 1000 Ang^3
#
#
#
# Elastic Constant Matrix: (Units=GPa)
#
#
# Indices 1 2 3 4 5 6 
#
# 1 22.0142 17.2193 45.1870 0.0000 0.0000 2.4857
# 2 17.2193 22.0142 45.1870 0.0000 0.0000 -2.4857
# 3 45.1870 45.1870 274.6285 0.0000 0.0000 0.0000
# 4 0.0000 0.0000 0.0000 -281.4421 0.0000 0.0000
# 5 0.0000 0.0000 0.0000 0.0000 -281.4421 0.0000
# 6 2.4857 -2.4857 0.0000 0.0000 0.0000 17.1925
#
#
#
# Elastic Compliance Matrix: (Units=1/GPa)
#
#
# Indices 1 2 3 4 5 6 
#
# 1 0.143188 -0.102143 -0.006754 0.000000 0.000000 -0.035470
# 2 -0.102143 0.143188 -0.006754 0.000000 0.000000 0.035470
# 3 -0.006754 -0.006754 0.005864 0.000000 0.000000 0.000000
# 4 0.000000 0.000000 0.000000 -0.003553 0.000000 0.000000
# 5 0.000000 0.000000 0.000000 0.000000 -0.003553 0.000000
# 6 -0.035470 0.035470 0.000000 0.000000 0.000000 0.068421
#
#
# Mechanical properties :
#
#
# Convention : Reuss Voigt Hill
#
# Bulk Modulus (GPa) = 16.40960 59.31591 37.86275
# Shear Modulus (GPa) = 8.26219 -95.06743 -43.40262
#
# Velocity S-wave (km/s) = 1.97095 -6.68565 -4.51737
# Velocity P-wave (km/s) = 3.59094 5.63104 3.06707
#
# Compressibility (1/GPa) = 0.06093995
#
# Stress axis : x y z
#
# Youngs Moduli (GPa) = 6.98384 6.98384 170.54055
#
# Poissons Ratio (x) = 0.71335 1.15175
# Poissons Ratio (y) = 0.71335 1.15175
# Poissons Ratio (z) = 0.04717 0.04717
#
# Static dielectric constant tensor:
#      x y z
#    x 1.582370 0.000000 0.000000 
#    y 0.000000 1.582370 0.000000 
#    z 0.000000 0.000000 1.843370 
# 
# From -- ./inp_files/3305.got.cif
#   From: 2010.05.17/outbox.cif.g08.bks.cpg/sg83_2_cif.got.tgz:3305.got - 2010.06.03 18:55:12.
