data_PCOD9543086
_publ_section_title
;
Structure prediction by ZEFSAII (Michael W. Deem and Ramdas Pophale) SiO2 
 PCOD9543086
Probable space group: I -4 
;
_chemical_formula_sum "Si O2"
_cell_formula_units_Z 38
_cell_length_a 10.895931
_cell_length_b 10.895931
_cell_length_c 17.066990
_cell_angle_alpha 90.000000
_cell_angle_beta 90.000000
_cell_angle_gamma 90.000000
_cell_volume 2026.215451
_symmetry_space_group_name_H-M "I -4 "
_symmetry_group_IT_number 82
_symmetry_cell_setting 'tetragonal'
loop_
_space_group_symop_operation_xyz
x,y,z
y,-x,-z
-x,-y,z
-y,x,-z
1/2+x,1/2+y,1/2+z
1/2+y,1/2-x,1/2-z
1/2-x,1/2-y,1/2+z
1/2-y,1/2+x,1/2-z
loop_
_atom_site_type_symbol
_atom_site_label
_atom_site_fract_x
_atom_site_fract_y
_atom_site_fract_z
Si Si1 0.446536 0.805751 0.241938
Si Si2 0.010186 0.144261 0.887943
Si Si3 0.500000 0.500000 0.000000
Si Si4 0.864506 0.261236 0.035492
Si Si5 0.500000 0.000000 0.988815
Si Si6 0.255223 0.405966 0.933443
O O1 0.363126 0.918299 0.271597
O O2 0.460923 0.706950 0.310077
O O3 0.396209 0.755781 0.160278
O O4 0.155714 0.154796 0.900281
O O5 0.000000 0.000000 0.887687
O O6 0.936272 0.202538 0.961398
O O7 0.487232 0.624912 0.049694
O O8 0.721167 0.285454 0.021108
O O9 0.943385 0.382159 0.056175
O O10 0.545576 0.120214 0.038064
#
# Coordination Sequence:
#
# PCOD9543086 Si02
#       6
#     8   8   2   8   4   8
#     4  11  23  40  65  96 131 168 217 274 340 396
#     4  12  22  39  65  95 126 166 223 279 327 393
#     4  12  28  40  64  96 148 174 224 272 352 408
#     4  12  21  40  65  97 126 169 228 277 326 402
#     4  12  22  40  71  94 135 180 220 284 340 399
#     4  12  24  42  64 102 135 177 225 282 342 410
#
# _framework density 18.754173999999999
#
# number of rings (size 3 to 8) (size 9 to 14) (size 15 to 20)
#    0.000    0.211    8.421    2.526    1.474    0.000 
#    0.000    0.000    0.000    0.000    0.000    2.947 
#    0.000    0.000    0.000    0.000    0.000    0.000 
#
# Total GULP energy -105852.075908 kJ/mol
# GULP energy per Si atom -5571.161890 kJ/mol
# Density = 1.871149 g / cm^3
# Si number density = 18.754174 Si / 1000 Ang^3
#
#
#
# Elastic Constant Matrix: (Units=GPa)
#
#
# Indices 1 2 3 4 5 6 
#
# 1 110.6472 50.8288 37.5392 0.0000 0.0000 -5.7101
# 2 50.8288 110.6472 37.5392 0.0000 0.0000 5.7101
# 3 37.5392 37.5392 63.8467 0.0000 0.0000 0.0000
# 4 0.0000 0.0000 0.0000 -36.7174 0.0000 0.0000
# 5 0.0000 0.0000 0.0000 0.0000 -36.7174 0.0000
# 6 -5.7101 5.7101 0.0000 0.0000 0.0000 42.8532
#
#
#
# Elastic Compliance Matrix: (Units=1/GPa)
#
#
# Indices 1 2 3 4 5 6 
#
# 1 0.012838 -0.004315 -0.005011 0.000000 0.000000 0.002286
# 2 -0.004315 0.012838 -0.005011 0.000000 0.000000 -0.002286
# 3 -0.005011 -0.005011 0.021555 0.000000 0.000000 0.000000
# 4 0.000000 0.000000 0.000000 -0.027235 0.000000 0.000000
# 5 0.000000 0.000000 0.000000 0.000000 -0.027235 0.000000
# 6 0.002286 -0.002286 0.000000 0.000000 0.000000 0.023945
#
#
# Mechanical properties :
#
#
# Convention : Reuss Voigt Hill
#
# Bulk Modulus (GPa) = 53.88955 59.66173 56.77564
# Shear Modulus (GPa) = 96.96247 4.49928 50.73088
#
# Velocity S-wave (km/s) = 7.19820 1.55058 5.20665
# Velocity P-wave (km/s) = 9.89356 5.92345 8.15383
#
# Compressibility (1/GPa) = 0.01855647
#
# Stress axis : x y z
#
# Youngs Moduli (GPa) = 77.89263 77.89263 46.39286
#
# Poissons Ratio (x) = 0.33614 0.23248
# Poissons Ratio (y) = 0.33614 0.23248
# Poissons Ratio (z) = 0.39032 0.39032
#
# Static dielectric constant tensor:
#      x y z
#    x 3.474710 0.000000 0.000000 
#    y 0.000000 3.474710 0.000000 
#    z 0.000000 0.000000 1.642390 
# 
# From -- ./inp_files/2214.got.cif
#   From: 2010.05.17/outbox.cif.g08.bks.cpg/sg82_2_cif.got.tgz:2214.got - 2010.06.03 18:52:26.
