data_PCOD9543688
_publ_section_title
;
Structure prediction by ZEFSAII (Michael W. Deem and Ramdas Pophale) SiO2 
 PCOD9543688
Probable space group: P 4/M
;
_chemical_formula_sum "Si O2"
_cell_formula_units_Z 40
_cell_length_a 8.079431
_cell_length_b 8.079431
_cell_length_c 27.227570
_cell_angle_alpha 90.000000
_cell_angle_beta 90.000000
_cell_angle_gamma 90.000000
_cell_volume 1777.339676
_symmetry_space_group_name_H-M "P 4/M"
_symmetry_group_IT_number 83
_symmetry_cell_setting 'tetragonal'
loop_
_space_group_symop_operation_xyz
x,y,z
-y,x,z
-x,-y,z
y,-x,z
-x,-y,-z
y,-x,-z
x,y,-z
-y,x,-z
loop_
_atom_site_type_symbol
_atom_site_label
_atom_site_fract_x
_atom_site_fract_y
_atom_site_fract_z
Si Si1 0.735822 0.095674 0.308365
Si Si2 0.734150 0.082247 0.500000
Si Si3 0.908011 0.734945 0.095404
Si Si4 0.736572 0.097435 0.201743
Si Si5 0.584468 0.235211 0.595258
Si Si6 0.581437 0.235089 0.000000
O O1 0.655666 0.127926 0.254652
O O2 0.623756 0.144940 0.353816
O O3 0.905705 0.202937 0.311233
O O4 0.633558 0.125590 0.548771
O O5 0.896468 0.199069 0.500000
O O6 0.873547 0.654137 0.148928
O O7 0.096909 0.798465 0.092980
O O8 0.863207 0.624676 0.049217
O O9 0.906741 0.202793 0.201735
O O10 0.700213 0.398084 0.593057
O O11 0.699402 0.395911 0.000000
#
# Coordination Sequence:
#
# PCOD9543688 Si02
#       6
#     8   4   8   8   8   4
#     4   9  17  32  56  83 108 136 172 212 254 303
#     4  11  24  41  62  86 106 129 170 221 268 312
#     4   9  17  32  56  81 100 124 165 215 263 309
#     4   7  12  26  50  79 106 128 158 208 261 303
#     4  11  24  39  54  77 111 147 179 211 251 301
#     4  11  24  37  46  64 100 141 174 207 254 310
#
# _framework density 22.505548000000001
#
# number of rings (size 3 to 8) (size 9 to 14) (size 15 to 20)
#    0.000    2.600    0.000    4.800    0.000    8.800 
#    0.000    2.000    0.000    9.600    0.000    0.000 
#    0.000    0.000    0.000    0.000    0.000    0.000 
#
# Total GULP energy -223774.546372 kJ/mol
# GULP energy per Si atom -5594.363659 kJ/mol
# Density = 2.245432 g / cm^3
# Si number density = 22.505548 Si / 1000 Ang^3
#
#
#
# Elastic Constant Matrix: (Units=GPa)
#
#
# Indices 1 2 3 4 5 6 
#
# 1 68.2365 50.0046 61.3816 0.0000 0.0000 3.6519
# 2 50.0046 68.2365 61.3816 0.0000 0.0000 -3.6519
# 3 61.3816 61.3816 256.8592 0.0000 0.0000 0.0000
# 4 0.0000 0.0000 0.0000 -176.1451 0.0000 0.0000
# 5 0.0000 0.0000 0.0000 0.0000 -176.1451 0.0000
# 6 3.6519 -3.6519 0.0000 0.0000 0.0000 36.6672
#
#
#
# Elastic Compliance Matrix: (Units=1/GPa)
#
#
# Indices 1 2 3 4 5 6 
#
# 1 0.034188 -0.022940 -0.002688 0.000000 0.000000 -0.005690
# 2 -0.022940 0.034188 -0.002688 0.000000 0.000000 0.005690
# 3 -0.002688 -0.002688 0.005178 0.000000 0.000000 0.000000
# 4 0.000000 0.000000 0.000000 -0.005677 0.000000 0.000000
# 5 0.000000 0.000000 0.000000 0.000000 -0.005677 0.000000
# 6 -0.005690 0.005690 0.000000 0.000000 0.000000 0.028406
#
#
# Mechanical properties :
#
#
# Convention : Reuss Voigt Hill
#
# Bulk Modulus (GPa) = 59.09409 82.09641 70.59525
# Shear Modulus (GPa) = 32.70571 -48.42031 -7.85730
#
# Velocity S-wave (km/s) = 3.81626 -4.64344 -1.87052
# Velocity P-wave (km/s) = 6.76262 2.79442 5.17406
#
# Compressibility (1/GPa) = 0.01692217
#
# Stress axis : x y z
#
# Youngs Moduli (GPa) = 29.24985 29.24985 193.13006
#
# Poissons Ratio (x) = 0.67100 0.51912
# Poissons Ratio (y) = 0.67100 0.51912
# Poissons Ratio (z) = 0.07862 0.07862
#
# Static dielectric constant tensor:
#      x y z
#    x 1.803280 0.000000 0.000000 
#    y 0.000000 1.803280 0.000000 
#    z 0.000000 0.000000 1.833210 
# 
# From -- ./inp_files/3257.got.cif
#   From: 2010.05.17/outbox.cif.g08.bks.cpg/sg83_2_cif.got.tgz:3257.got - 2010.06.03 18:55:12.
