data_PCOD9543675
_publ_section_title
;
Structure prediction by ZEFSAII (Michael W. Deem and Ramdas Pophale) SiO2 
 PCOD9543675
Probable space group: P 4/M
;
_chemical_formula_sum "Si O2"
_cell_formula_units_Z 32
_cell_length_a 9.751958
_cell_length_b 9.751958
_cell_length_c 17.682520
_cell_angle_alpha 90.000000
_cell_angle_beta 90.000000
_cell_angle_gamma 90.000000
_cell_volume 1681.619762
_symmetry_space_group_name_H-M "P 4/M"
_symmetry_group_IT_number 83
_symmetry_cell_setting 'tetragonal'
loop_
_space_group_symop_operation_xyz
x,y,z
-y,x,z
-x,-y,z
y,-x,z
-x,-y,-z
y,-x,-z
x,y,-z
-y,x,-z
loop_
_atom_site_type_symbol
_atom_site_label
_atom_site_fract_x
_atom_site_fract_y
_atom_site_fract_z
Si Si1 0.648679 0.877318 0.413947
Si Si2 0.831783 0.644063 0.644706
Si Si3 0.701401 0.613178 0.190133
Si Si4 0.115294 0.194120 0.909207
O O1 0.649250 0.929211 0.500000
O O2 0.764260 0.766029 0.401624
O O3 0.502186 0.809953 0.395379
O O4 0.664698 0.004619 0.357004
O O5 0.763458 0.640320 0.726814
O O6 0.550368 0.680403 0.181798
O O7 0.804783 0.683877 0.131444
O O8 0.953918 0.182176 0.889082
O O9 0.123197 0.208036 0.000000
#
# Coordination Sequence:
#
# PCOD9543675 Si02
#       4
#     8   8   8   8
#     4  11  23  41  63  88 122 162 211 261 312 371
#     4  11  23  40  60  90 123 162 207 255 313 370
#     4  11  24  41  61  91 128 167 208 258 310 371
#     4   9  21  42  68  97 129 166 208 251 304 369
#
# _framework density 19.029271000000001
#
# number of rings (size 3 to 8) (size 9 to 14) (size 15 to 20)
#    0.000    1.500    2.500    3.750    3.500    3.000 
#    0.000    6.250    0.000    0.000    0.000    0.000 
#    0.000    0.000    0.000    0.000    0.000    0.000 
#
# Total GULP energy -178711.681919 kJ/mol
# GULP energy per Si atom -5584.740060 kJ/mol
# Density = 1.898596 g / cm^3
# Si number density = 19.029271 Si / 1000 Ang^3
#
#
#
# Elastic Constant Matrix: (Units=GPa)
#
#
# Indices 1 2 3 4 5 6 
#
# 1 61.9830 70.6108 24.6922 0.0000 0.0000 -0.1099
# 2 70.6108 61.9830 24.6922 0.0000 0.0000 0.1099
# 3 24.6922 24.6922 48.5973 0.0000 0.0000 0.0000
# 4 0.0000 0.0000 0.0000 33.0141 0.0000 0.0000
# 5 0.0000 0.0000 0.0000 0.0000 33.0141 0.0000
# 6 -0.1099 0.1099 0.0000 0.0000 0.0000 44.5709
#
#
#
# Elastic Compliance Matrix: (Units=1/GPa)
#
#
# Indices 1 2 3 4 5 6 
#
# 1 -0.053297 0.062600 -0.004726 0.000000 0.000000 -0.000286
# 2 0.062600 -0.053297 -0.004726 0.000000 0.000000 0.000286
# 3 -0.004726 -0.004726 0.025380 0.000000 0.000000 0.000000
# 4 0.000000 0.000000 0.000000 0.030290 0.000000 0.000000
# 5 0.000000 0.000000 0.000000 0.000000 0.030290 0.000000
# 6 -0.000286 0.000286 0.000000 0.000000 0.000000 0.022435
#
#
# Mechanical properties :
#
#
# Convention : Reuss Voigt Hill
#
# Bulk Modulus (GPa) = 39.87416 45.83933 42.85675
# Shear Modulus (GPa) = -52.01109 25.62437 -13.19336
#
# Velocity S-wave (km/s) = -5.23369 3.67355 -2.63595
# Velocity P-wave (km/s) = 3.93984 6.49111 3.64775
#
# Compressibility (1/GPa) = 0.02507890
#
# Stress axis : x y z
#
# Youngs Moduli (GPa) = -18.76266 -18.76266 39.40073
#
# Poissons Ratio (x) = 1.17453 0.18622
# Poissons Ratio (y) = 1.17453 0.18622
# Poissons Ratio (z) = -0.08868 -0.08868
#
# Static dielectric constant tensor:
#      x y z
#    x 1.648460 0.000000 0.000000 
#    y 0.000000 1.648460 0.000000 
#    z 0.000000 0.000000 1.641070 
# 
# From -- ./inp_files/2791.got.cif
#   From: 2010.05.17/outbox.cif.g08.bks.cpg/sg83_2_cif.got.tgz:2791.got - 2010.06.03 18:55:12.
