data_PCOD9543790
_publ_section_title
;
Structure prediction by ZEFSAII (Michael W. Deem and Ramdas Pophale) SiO2 
 PCOD9543790
Probable space group: P 4/M
;
_chemical_formula_sum "Si O2"
_cell_formula_units_Z 48
_cell_length_a 7.891825
_cell_length_b 7.891825
_cell_length_c 34.454278
_cell_angle_alpha 90.000000
_cell_angle_beta 90.000000
_cell_angle_gamma 90.000000
_cell_volume 2145.843506
_symmetry_space_group_name_H-M "P 4/M"
_symmetry_group_IT_number 83
_symmetry_cell_setting 'tetragonal'
loop_
_space_group_symop_operation_xyz
x,y,z
-y,x,z
-x,-y,z
y,-x,z
-x,-y,-z
y,-x,-z
x,y,-z
-y,x,-z
loop_
_atom_site_type_symbol
_atom_site_label
_atom_site_fract_x
_atom_site_fract_y
_atom_site_fract_z
Si Si1 0.500000 0.000000 0.314957
Si Si2 0.500000 0.000000 0.893879
Si Si3 0.733088 0.900231 0.749092
Si Si4 0.896123 0.733543 0.043264
Si Si5 0.406821 0.766510 0.378409
Si Si6 0.104327 0.266680 0.542600
Si Si7 0.766904 0.400143 0.170095
O O1 0.394841 0.122842 0.286599
O O2 0.623030 0.101887 0.343857
O O3 0.601636 0.126185 0.922256
O O4 0.623481 0.895324 0.865517
O O5 0.642987 0.856840 0.789480
O O6 0.903575 0.790124 0.747211
O O7 0.790238 0.906414 0.046087
O O8 0.866811 0.662110 0.000000
O O9 0.292272 0.600757 0.374888
O O10 0.375999 0.845075 0.420618
O O11 0.136635 0.344452 0.500000
O O12 0.908643 0.210112 0.544581
O O13 0.709938 0.596368 0.168191
#
# Coordination Sequence:
#
# PCOD9543790 Si02
#       7
#     4   4   8   8   8   8   8
#     4  12  23  42  63  87 122 159 193 242 301 356
#     4  12  20  34  58  87 116 153 202 250 298 366
#     4  11  24  43  68  94 119 155 205 252 296 359
#     4   9  19  35  54  79 113 154 200 250 303 355
#     4  11  24  39  58  88 122 156 195 240 293 353
#     4   9  19  38  63  88 116 154 198 243 294 351
#     4  11  24  41  61  88 124 161 197 248 315 376
#
# _framework density 22.368828000000001
#
# number of rings (size 3 to 8) (size 9 to 14) (size 15 to 20)
#    0.000    1.500    0.000    6.750    0.000    0.667 
#    0.000    7.917    0.000    0.000    0.000    7.000 
#    0.000    0.000    0.000    0.000    0.000    0.000 
#
# Total GULP energy -268626.928472 kJ/mol
# GULP energy per Si atom -5596.394343 kJ/mol
# Density = 2.231792 g / cm^3
# Si number density = 22.368828 Si / 1000 Ang^3
#
#
#
# Elastic Constant Matrix: (Units=GPa)
#
#
# Indices 1 2 3 4 5 6 
#
# 1 58.4740 0.8708 32.6941 0.0000 0.0000 0.3384
# 2 0.8708 58.4740 32.6941 0.0000 0.0000 -0.3384
# 3 32.6941 32.6941 190.9772 0.0000 0.0000 0.0000
# 4 0.0000 0.0000 0.0000 31.5621 0.0000 0.0000
# 5 0.0000 0.0000 0.0000 0.0000 31.5621 0.0000
# 6 0.3384 -0.3384 0.0000 0.0000 0.0000 30.5683
#
#
#
# Elastic Compliance Matrix: (Units=1/GPa)
#
#
# Indices 1 2 3 4 5 6 
#
# 1 0.019065 0.001703 -0.003555 0.000000 0.000000 -0.000192
# 2 0.001703 0.019065 -0.003555 0.000000 0.000000 0.000192
# 3 -0.003555 -0.003555 0.006454 0.000000 0.000000 0.000000
# 4 0.000000 0.000000 0.000000 0.031684 0.000000 0.000000
# 5 0.000000 0.000000 0.000000 0.000000 0.031684 0.000000
# 6 -0.000192 0.000192 0.000000 0.000000 0.000000 0.032718
#
#
# Mechanical properties :
#
#
# Convention : Reuss Voigt Hill
#
# Bulk Modulus (GPa) = 29.61359 48.93813 39.27586
# Shear Modulus (GPa) = 30.72369 34.84960 32.78664
#
# Velocity S-wave (km/s) = 3.71010 3.95137 3.83264
# Velocity P-wave (km/s) = 5.62323 6.53782 6.09770
#
# Compressibility (1/GPa) = 0.03376828
#
# Stress axis : x y z
#
# Youngs Moduli (GPa) = 52.45144 52.45144 154.95373
#
# Poissons Ratio (x) = -0.08932 0.55092
# Poissons Ratio (y) = -0.08932 0.55092
# Poissons Ratio (z) = 0.18648 0.18648
#
# Static dielectric constant tensor:
#      x y z
#    x 1.843980 0.000000 0.000000 
#    y 0.000000 1.843980 0.000000 
#    z 0.000000 0.000000 1.801930 
# 
# From -- ./inp_files/3460.got.cif
#   From: 2010.05.17/outbox.cif.g08.bks.cpg/sg83_2_cif.got.tgz:3460.got - 2010.06.03 18:55:12.
