data_PCOD9543828
_publ_section_title
;
Structure prediction by ZEFSAII (Michael W. Deem and Ramdas Pophale) SiO2 
 PCOD9543828
Probable space group: P 4/M
;
_chemical_formula_sum "Si O2"
_cell_formula_units_Z 38
_cell_length_a 8.295204
_cell_length_b 8.295204
_cell_length_c 25.383185
_cell_angle_alpha 90.000000
_cell_angle_beta 90.000000
_cell_angle_gamma 90.000000
_cell_volume 1746.627352
_symmetry_space_group_name_H-M "P 4/M"
_symmetry_group_IT_number 83
_symmetry_cell_setting 'tetragonal'
loop_
_space_group_symop_operation_xyz
x,y,z
-y,x,z
-x,-y,z
y,-x,z
-x,-y,-z
y,-x,-z
x,y,-z
-y,x,-z
loop_
_atom_site_type_symbol
_atom_site_label
_atom_site_fract_x
_atom_site_fract_y
_atom_site_fract_z
Si Si1 0.690859 0.190540 0.000000
Si Si2 0.500000 0.500000 0.000000
Si Si3 0.000000 0.000000 0.000000
Si Si4 0.241446 0.585724 0.170864
Si Si5 0.260184 0.082519 0.614156
Si Si6 0.000000 0.500000 0.087541
Si Si7 0.241319 0.583492 0.288934
Si Si8 0.086255 0.740287 0.500000
O O1 0.609791 0.112526 0.051528
O O2 0.657225 0.380897 0.000000
O O3 0.880823 0.157825 0.000000
O O4 0.305472 0.401172 0.165901
O O5 0.110822 0.608577 0.125911
O O6 0.174315 0.607995 0.229976
O O7 0.368311 0.126815 0.663600
O O8 0.340299 0.113042 0.556709
O O9 0.099641 0.194045 0.616472
O O10 0.305417 0.401279 0.292784
O O11 0.902580 0.805517 0.500000
#
# Coordination Sequence:
#
# PCOD9543828 Si02
#       8
#     4   1   1   8   8   4   8   4
#     4  11  28  45  78 102 152 180 244 274 352 396
#     4  12  28  56  76 116 140 224 244 260 316 490
#     4  12  28  56  68 124 156 184 220 332 356 370
#     4   9  21  39  62  86 123 168 219 263 322 405
#     4   9  17  30  53  78 107 142 191 251 317 384
#     4  11  24  42  66 108 126 185 218 292 324 409
#     4   9  19  36  53  77 110 156 201 247 300 374
#     4   7  12  26  46  73 102 140 186 241 308 387
#
# _framework density 21.756214
#
# number of rings (size 3 to 8) (size 9 to 14) (size 15 to 20)
#    0.000    2.632    0.000    3.789    5.895    4.211 
#    0.000    1.053    0.000    5.053    0.000    0.000 
#    0.000    0.000    0.000    0.000    0.000    0.000 
#
# Total GULP energy -211927.273895 kJ/mol
# GULP energy per Si atom -5577.033524 kJ/mol
# Density = 2.170670 g / cm^3
# Si number density = 21.756214 Si / 1000 Ang^3
#
#
#
# Elastic Constant Matrix: (Units=GPa)
#
#
# Indices 1 2 3 4 5 6 
#
# 1 62.9037 22.6388 48.5901 0.0000 0.0000 -0.7012
# 2 22.6388 62.9037 48.5901 0.0000 0.0000 0.7012
# 3 48.5901 48.5901 201.6887 0.0000 0.0000 0.0000
# 4 0.0000 0.0000 0.0000 28.0608 0.0000 0.0000
# 5 0.0000 0.0000 0.0000 0.0000 28.0608 0.0000
# 6 -0.7012 0.7012 0.0000 0.0000 0.0000 38.2107
#
#
#
# Elastic Compliance Matrix: (Units=1/GPa)
#
#
# Indices 1 2 3 4 5 6 
#
# 1 0.020473 -0.004378 -0.003878 0.000000 0.000000 0.000456
# 2 -0.004378 0.020473 -0.003878 0.000000 0.000000 -0.000456
# 3 -0.003878 -0.003878 0.006826 0.000000 0.000000 0.000000
# 4 0.000000 0.000000 0.000000 0.035637 0.000000 0.000000
# 5 0.000000 0.000000 0.000000 0.000000 0.035637 0.000000
# 6 0.000456 -0.000456 0.000000 0.000000 0.000000 0.026187
#
#
# Mechanical properties :
#
#
# Convention : Reuss Voigt Hill
#
# Bulk Modulus (GPa) = 42.54138 63.01490 52.77814
# Shear Modulus (GPa) = 28.19500 32.71161 30.45331
#
# Velocity S-wave (km/s) = 3.60384 3.88177 3.74539
# Velocity P-wave (km/s) = 6.07561 7.00841 6.55861
#
# Compressibility (1/GPa) = 0.02350653
#
# Stress axis : x y z
#
# Youngs Moduli (GPa) = 48.84410 48.84410 146.48822
#
# Poissons Ratio (x) = 0.21384 0.56802
# Poissons Ratio (y) = 0.21384 0.56802
# Poissons Ratio (z) = 0.18940 0.18940
#
# Static dielectric constant tensor:
#      x y z
#    x 1.796510 0.000000 0.000000 
#    y 0.000000 1.796510 0.000000 
#    z 0.000000 0.000000 1.828090 
# 
# From -- ./inp_files/3153.got.cif
#   From: 2010.05.17/outbox.cif.g08.bks.cpg/sg83_2_cif.got.tgz:3153.got - 2010.06.03 18:55:12.
