data_PCOD9543392
_publ_section_title
;
Structure prediction by ZEFSAII (Michael W. Deem and Ramdas Pophale) SiO2 
 PCOD9543392
Probable space group: P 4/M
;
_chemical_formula_sum "Si O2"
_cell_formula_units_Z 40
_cell_length_a 16.316532
_cell_length_b 16.316532
_cell_length_c 8.587860
_cell_angle_alpha 90.000000
_cell_angle_beta 90.000000
_cell_angle_gamma 90.000000
_cell_volume 2286.339239
_symmetry_space_group_name_H-M "P 4/M"
_symmetry_group_IT_number 83
_symmetry_cell_setting 'tetragonal'
loop_
_space_group_symop_operation_xyz
x,y,z
-y,x,z
-x,-y,z
y,-x,z
-x,-y,-z
y,-x,-z
x,y,-z
-y,x,-z
loop_
_atom_site_type_symbol
_atom_site_label
_atom_site_fract_x
_atom_site_fract_y
_atom_site_fract_z
Si Si1 0.339063 0.313818 0.188287
Si Si2 0.085584 0.538546 0.688062
Si Si3 0.143103 0.717987 0.313678
Si Si4 0.057187 0.879821 0.812068
Si Si5 0.482138 0.743885 0.811939
O O1 0.289432 0.235459 0.249730
O O2 0.433771 0.301335 0.236945
O O3 0.301202 0.399801 0.241228
O O4 0.336938 0.312203 0.000000
O O5 0.087476 0.535936 0.500000
O O6 0.097955 0.633456 0.735804
O O7 0.163649 0.489361 0.751238
O O8 0.000000 0.500000 0.741118
O O9 0.145727 0.719265 0.500000
O O10 0.096976 0.798105 0.254017
O O11 0.962443 0.894109 0.765167
O O12 0.058988 0.876199 0.000000
O O13 0.481368 0.745310 0.000000
#
# Coordination Sequence:
#
# PCOD9543392 Si02
#       5
#     8   8   8   8   8
#     4   9  18  33  51  73 101 131 165 204 246 292
#     4   9  19  35  51  69  98 132 164 202 246 289
#     4  10  20  33  51  75 101 131 166 204 247 293
#     4   9  19  36  55  74  99 131 164 201 247 295
#     4   9  18  32  51  74  99 128 163 203 245 292
#
# _framework density 17.495217
#
# number of rings (size 3 to 8) (size 9 to 14) (size 15 to 20)
#    0.000    2.800    0.000    1.200    0.000    4.800 
#    0.000    7.000    0.000    0.000    0.000    5.600 
#    0.000    0.000    0.000    0.000    0.000    0.000 
#
# Total GULP energy -223046.968514 kJ/mol
# GULP energy per Si atom -5576.174213 kJ/mol
# Density = 1.745540 g / cm^3
# Si number density = 17.495217 Si / 1000 Ang^3
#
#
#
# Elastic Constant Matrix: (Units=GPa)
#
#
# Indices 1 2 3 4 5 6 
#
# 1 158.4039 118.3417 25.5908 0.0000 0.0000 18.2689
# 2 118.3417 158.4039 25.5908 0.0000 0.0000 -18.2689
# 3 25.5908 25.5908 7.8266 0.0000 0.0000 0.0000
# 4 0.0000 0.0000 0.0000 18.8883 0.0000 0.0000
# 5 0.0000 0.0000 0.0000 0.0000 18.8883 0.0000
# 6 18.2689 -18.2689 0.0000 0.0000 0.0000 30.7707
#
#
#
# Elastic Compliance Matrix: (Units=1/GPa)
#
#
# Indices 1 2 3 4 5 6 
#
# 1 0.031790 -0.022649 -0.029889 0.000000 0.000000 -0.032321
# 2 -0.022649 0.031790 -0.029889 0.000000 0.000000 0.032321
# 3 -0.029889 -0.029889 0.323224 0.000000 0.000000 0.000000
# 4 0.000000 0.000000 0.000000 0.052943 0.000000 0.000000
# 5 0.000000 0.000000 0.000000 0.000000 0.052943 0.000000
# 6 -0.032321 0.032321 0.000000 0.000000 0.000000 0.070877
#
#
# Mechanical properties :
#
#
# Convention : Reuss Voigt Hill
#
# Bulk Modulus (GPa) = 4.50549 73.74235 39.12392
# Shear Modulus (GPa) = 6.23128 24.05019 15.14073
#
# Velocity S-wave (km/s) = 1.88930 3.71168 2.94500
# Velocity P-wave (km/s) = 2.70926 7.78526 5.82882
#
# Compressibility (1/GPa) = 0.22195136
#
# Stress axis : x y z
#
# Youngs Moduli (GPa) = 31.45641 31.45641 3.09383
#
# Poissons Ratio (x) = 0.71245 0.09247
# Poissons Ratio (y) = 0.71245 0.09247
# Poissons Ratio (z) = 0.94019 0.94019
#
# Static dielectric constant tensor:
#      x y z
#    x 1.578300 0.000000 0.000000 
#    y 0.000000 1.578300 0.000000 
#    z 0.000000 0.000000 1.595680 
# 
# From -- ./inp_files/650.got.cif
#   From: 2010.05.17/outbox.cif.g08.bks.cpg/sg83_1_cif.got.tgz:650.got - 2010.06.03 18:55:12.
