data_PCOD9543414
_publ_section_title
;
Structure prediction by ZEFSAII (Michael W. Deem and Ramdas Pophale) SiO2 
 PCOD9543414
Probable space group: P 4/M
;
_chemical_formula_sum "Si O2"
_cell_formula_units_Z 40
_cell_length_a 16.236301
_cell_length_b 16.236301
_cell_length_c 8.585094
_cell_angle_alpha 90.000000
_cell_angle_beta 90.000000
_cell_angle_gamma 90.000000
_cell_volume 2263.180761
_symmetry_space_group_name_H-M "P 4/M"
_symmetry_group_IT_number 83
_symmetry_cell_setting 'tetragonal'
loop_
_space_group_symop_operation_xyz
x,y,z
-y,x,z
-x,-y,z
y,-x,z
-x,-y,-z
y,-x,-z
x,y,-z
-y,x,-z
loop_
_atom_site_type_symbol
_atom_site_label
_atom_site_fract_x
_atom_site_fract_y
_atom_site_fract_z
Si Si1 0.583694 0.041696 0.189346
Si Si2 0.154353 0.182647 0.315060
Si Si3 0.762110 0.980752 0.813308
Si Si4 0.781521 0.648288 0.186690
Si Si5 0.618991 0.562308 0.312089
O O1 0.596818 0.136898 0.235150
O O2 0.500000 0.000000 0.246964
O O3 0.666586 0.993274 0.234938
O O4 0.581297 0.040614 0.000000
O O5 0.144758 0.185022 0.500000
O O6 0.197253 0.098590 0.262942
O O7 0.207352 0.261332 0.259538
O O8 0.064828 0.192666 0.236410
O O9 0.765021 0.973012 0.000000
O O10 0.698547 0.604050 0.239118
O O11 0.783356 0.656448 0.000000
O O12 0.533640 0.607626 0.267936
O O13 0.625066 0.565567 0.500000
#
# Coordination Sequence:
#
# PCOD9543414 Si02
#       5
#     8   8   8   8   8
#     4   8  16  32  53  77 105 135 169 215 268 316
#     4  11  22  37  56  79 109 144 181 220 268 325
#     4  10  20  36  57  81 109 140 178 225 274 320
#     4  10  20  34  54  80 108 141 181 225 271 319
#     4   9  19  36  55  76 107 145 181 223 278 332
#
# _framework density 17.674240000000001
#
# number of rings (size 3 to 8) (size 9 to 14) (size 15 to 20)
#    0.000    2.400    0.000    4.800    0.000    2.800 
#    0.000    5.000    0.000   20.400    0.000    0.000 
#    0.000    0.000    0.000    0.000    0.000    0.000 
#
# Total GULP energy -223215.414399 kJ/mol
# GULP energy per Si atom -5580.385360 kJ/mol
# Density = 1.763401 g / cm^3
# Si number density = 17.674240 Si / 1000 Ang^3
#
#
#
# Elastic Constant Matrix: (Units=GPa)
#
#
# Indices 1 2 3 4 5 6 
#
# 1 106.1323 68.8796 2.4556 0.0000 0.0000 18.0370
# 2 68.8796 106.1323 2.4556 0.0000 0.0000 -18.0370
# 3 2.4556 2.4556 28.3183 0.0000 0.0000 0.0000
# 4 0.0000 0.0000 0.0000 25.7731 0.0000 0.0000
# 5 0.0000 0.0000 0.0000 0.0000 25.7731 0.0000
# 6 18.0370 -18.0370 0.0000 0.0000 0.0000 29.6054
#
#
#
# Elastic Compliance Matrix: (Units=1/GPa)
#
#
# Indices 1 2 3 4 5 6 
#
# 1 0.035598 -0.029870 -0.000497 0.000000 0.000000 -0.039886
# 2 -0.029870 0.035598 -0.000497 0.000000 0.000000 0.039886
# 3 -0.000497 -0.000497 0.035399 0.000000 0.000000 0.000000
# 4 0.000000 0.000000 0.000000 0.038800 0.000000 0.000000
# 5 0.000000 0.000000 0.000000 0.000000 0.038800 0.000000
# 6 -0.039886 0.039886 0.000000 0.000000 0.000000 0.082379
#
#
# Mechanical properties :
#
#
# Convention : Reuss Voigt Hill
#
# Bulk Modulus (GPa) = 22.28763 43.12935 32.70849
# Shear Modulus (GPa) = 14.56635 27.34977 20.95806
#
# Velocity S-wave (km/s) = 2.87393 3.93802 3.44728
# Velocity P-wave (km/s) = 4.86315 6.71808 5.86442
#
# Compressibility (1/GPa) = 0.04486793
#
# Stress axis : x y z
#
# Youngs Moduli (GPa) = 28.09156 28.09156 28.24942
#
# Poissons Ratio (x) = 0.83910 0.01403
# Poissons Ratio (y) = 0.83910 0.01403
# Poissons Ratio (z) = 0.01395 0.01395
#
# Static dielectric constant tensor:
#      x y z
#    x 1.582530 0.000000 0.000000 
#    y 0.000000 1.582530 0.000000 
#    z 0.000000 0.000000 1.594960 
# 
# From -- ./inp_files/631.got.cif
#   From: 2010.05.17/outbox.cif.g08.bks.cpg/sg83_1_cif.got.tgz:631.got - 2010.06.03 18:55:12.
