data_PCOD9543061
_publ_section_title
;
Structure prediction by ZEFSAII (Michael W. Deem and Ramdas Pophale) SiO2 
 PCOD9543061
Probable space group: I -4 
;
_chemical_formula_sum "Si O2"
_cell_formula_units_Z 34
_cell_length_a 8.324035
_cell_length_b 8.324035
_cell_length_c 19.985935
_cell_angle_alpha 90.000000
_cell_angle_beta 90.000000
_cell_angle_gamma 90.000000
_cell_volume 1384.816616
_symmetry_space_group_name_H-M "I -4 "
_symmetry_group_IT_number 82
_symmetry_cell_setting 'tetragonal'
loop_
_space_group_symop_operation_xyz
x,y,z
y,-x,-z
-x,-y,z
-y,x,-z
1/2+x,1/2+y,1/2+z
1/2+y,1/2-x,1/2-z
1/2-x,1/2-y,1/2+z
1/2-y,1/2+x,1/2-z
loop_
_atom_site_type_symbol
_atom_site_label
_atom_site_fract_x
_atom_site_fract_y
_atom_site_fract_z
Si Si1 0.281588 0.645292 0.923348
Si Si2 0.455335 0.680485 0.679676
Si Si3 0.500000 0.000000 0.750000
Si Si4 0.144743 0.236908 0.428656
Si Si5 0.207875 0.605458 0.781009
O O1 0.451647 0.737896 0.918473
O O2 0.315868 0.453509 0.924883
O O3 0.181569 0.668601 0.855539
O O4 0.207550 0.682937 0.995382
O O5 0.500000 0.500000 0.654377
O O6 0.545334 0.844440 0.704395
O O7 0.337765 0.756103 0.624230
O O8 0.379968 0.634537 0.751487
O O9 0.179207 0.416571 0.771916
#
# Coordination Sequence:
#
# PCOD9543061 Si02
#       5
#     8   8   2   8   8
#     4   9  18  38  70 104 145 199 260 326 399 478
#     4  12  25  43  73 110 160 206 265 331 396 485
#     4  12  28  48  72 120 160 220 262 324 420 468
#     4   9  19  38  70 105 141 200 263 323 399 476
#     4  11  22  37  65 103 147 194 256 322 387 468
#
# _framework density 24.551985999999999
#
# number of rings (size 3 to 8) (size 9 to 14) (size 15 to 20)
#    0.000    1.647    2.353    4.235    3.294    0.000 
#    0.000    2.353   10.353    2.824    0.000    0.000 
#    0.000    0.000    0.000    0.000    0.000    0.000 
#
# Total GULP energy -94796.260134 kJ/mol
# GULP energy per Si atom -5576.250596 kJ/mol
# Density = 2.449610 g / cm^3
# Si number density = 24.551986 Si / 1000 Ang^3
#
#
#
# Elastic Constant Matrix: (Units=GPa)
#
#
# Indices 1 2 3 4 5 6 
#
# 1 70.7511 63.0608 52.0108 0.0000 0.0000 14.6969
# 2 63.0608 70.7511 52.0108 0.0000 0.0000 -14.6969
# 3 52.0108 52.0108 183.0702 0.0000 0.0000 0.0000
# 4 0.0000 0.0000 0.0000 32.5182 0.0000 0.0000
# 5 0.0000 0.0000 0.0000 0.0000 32.5182 0.0000
# 6 14.6969 -14.6969 0.0000 0.0000 0.0000 31.1704
#
#
#
# Elastic Compliance Matrix: (Units=1/GPa)
#
#
# Indices 1 2 3 4 5 6 
#
# 1 -0.076256 0.085847 -0.002725 0.000000 0.000000 0.076432
# 2 0.085847 -0.076256 -0.002725 0.000000 0.000000 -0.076432
# 3 -0.002725 -0.002725 0.007011 0.000000 0.000000 0.000000
# 4 0.000000 0.000000 0.000000 0.030752 0.000000 0.000000
# 5 0.000000 0.000000 0.000000 0.000000 0.030752 0.000000
# 6 0.076432 -0.076432 0.000000 0.000000 0.000000 -0.039994
#
#
# Mechanical properties :
#
#
# Convention : Reuss Voigt Hill
#
# Bulk Modulus (GPa) = 65.38584 73.19300 69.28942
# Shear Modulus (GPa) = -17.87713 29.74068 5.93177
#
# Velocity S-wave (km/s) = -2.70132 3.48420 1.55604
# Velocity P-wave (km/s) = 4.11824 6.78693 5.61348
#
# Compressibility (1/GPa) = 0.01529383
#
# Stress axis : x y z
#
# Youngs Moduli (GPa) = -13.11378 -13.11378 142.63853
#
# Poissons Ratio (x) = 1.12578 0.38869
# Poissons Ratio (y) = 1.12578 0.38869
# Poissons Ratio (z) = -0.03573 -0.03573
#
# Static dielectric constant tensor:
#      x y z
#    x 2.061950 0.000000 0.000000 
#    y 0.000000 2.061950 0.000000 
#    z 0.000000 0.000000 1.939050 
# 
# From -- ./inp_files/3272.got.cif
#   From: 2010.05.17/outbox.cif.g08.bks.cpg/sg82_2_cif.got.tgz:3272.got - 2010.06.03 18:52:26.
