data_PCOD9543975
_publ_section_title
;
Structure prediction by ZEFSAII (Michael W. Deem and Ramdas Pophale) SiO2 
 PCOD9543975
Probable space group: P 42/M
;
_chemical_formula_sum "Si O2"
_cell_formula_units_Z 48
_cell_length_a 17.341824
_cell_length_b 17.341824
_cell_length_c 7.936679
_cell_angle_alpha 90.000000
_cell_angle_beta 90.000000
_cell_angle_gamma 90.000000
_cell_volume 2386.867792
_symmetry_space_group_name_H-M "P 42/M"
_symmetry_group_IT_number 84
_symmetry_cell_setting 'tetragonal'
loop_
_space_group_symop_operation_xyz
x,y,z
-y,x,1/2+z
-x,-y,z
y,-x,1/2+z
-x,-y,-z
y,-x,1/2-z
x,y,-z
-y,x,1/2-z
loop_
_atom_site_type_symbol
_atom_site_label
_atom_site_fract_x
_atom_site_fract_y
_atom_site_fract_z
Si Si1 0.614736 0.000969 0.691975
Si Si2 0.151340 0.865391 0.692167
Si Si3 0.247418 0.723534 0.799772
Si Si4 0.566698 0.835056 0.704982
Si Si5 0.605602 0.178183 0.295971
Si Si6 0.987416 0.221962 0.691204
O O1 0.587259 0.009928 0.500000
O O2 0.573074 0.924879 0.765986
O O3 0.703887 0.975920 0.695482
O O4 0.802884 0.075219 0.803411
O O5 0.155238 0.893377 0.500000
O O6 0.384516 0.911662 0.764313
O O7 0.064102 0.850166 0.745167
O O8 0.220345 0.637762 0.744907
O O9 0.332483 0.759360 0.767783
O O10 0.191645 0.783073 0.706587
O O11 0.233755 0.727852 0.000000
O O12 0.569520 0.840461 0.500000
O O13 0.482674 0.802623 0.748680
O O14 0.614622 0.176538 0.500000
O O15 0.964786 0.241751 0.500000
#
# Coordination Sequence:
#
# PCOD9543975 Si02
#       6
#     8   8   8   8   8   8
#     4  10  18  32  56  83 111 145 181 221 272 328
#     4  11  23  38  55  77 107 148 191 229 275 326
#     4  11  21  35  57  83 112 145 182 224 275 329
#     4   9  19  35  56  83 113 148 185 223 269 331
#     4  10  20  35  57  84 113 146 187 225 270 330
#     4  11  23  36  54  79 109 144 188 235 275 319
#
# _framework density 20.110036999999998
#
# number of rings (size 3 to 8) (size 9 to 14) (size 15 to 20)
#    0.000    1.667    3.333    2.000    0.000    4.333 
#    0.000    4.167    0.000    2.500    0.000    3.500 
#    0.000    0.000    0.000    0.000    0.000    0.000 
#
# Total GULP energy -267633.866617 kJ/mol
# GULP energy per Si atom -5575.705555 kJ/mol
# Density = 2.006427 g / cm^3
# Si number density = 20.110037 Si / 1000 Ang^3
#
#
#
# Elastic Constant Matrix: (Units=GPa)
#
#
# Indices 1 2 3 4 5 6 
#
# 1 99.9841 44.1981 8.1742 0.0000 0.0000 -5.7124
# 2 44.1981 99.9841 8.1742 0.0000 0.0000 5.7124
# 3 8.1742 8.1742 33.4236 0.0000 0.0000 0.0000
# 4 0.0000 0.0000 0.0000 -33.0584 0.0000 0.0000
# 5 0.0000 0.0000 0.0000 0.0000 -33.0584 0.0000
# 6 -5.7124 5.7124 0.0000 0.0000 0.0000 19.9816
#
#
#
# Elastic Compliance Matrix: (Units=1/GPa)
#
#
# Indices 1 2 3 4 5 6 
#
# 1 0.013087 -0.005953 -0.001745 0.000000 0.000000 0.005443
# 2 -0.005953 0.013087 -0.001745 0.000000 0.000000 -0.005443
# 3 -0.001745 -0.001745 0.030772 0.000000 0.000000 0.000000
# 4 0.000000 0.000000 0.000000 -0.030249 0.000000 0.000000
# 5 0.000000 0.000000 0.000000 0.000000 -0.030249 0.000000
# 6 0.005443 -0.005443 0.000000 0.000000 0.000000 0.053158
#
#
# Mechanical properties :
#
#
# Convention : Reuss Voigt Hill
#
# Bulk Modulus (GPa) = 26.27367 39.38720 32.83044
# Shear Modulus (GPa) = 61.59316 2.29598 31.94457
#
# Velocity S-wave (km/s) = 5.54027 1.06967 3.98991
# Velocity P-wave (km/s) = 7.34979 4.59934 6.13080
#
# Compressibility (1/GPa) = 0.03806092
#
# Stress axis : x y z
#
# Youngs Moduli (GPa) = 76.41193 76.41193 32.49673
#
# Poissons Ratio (x) = 0.45492 0.05669
# Poissons Ratio (y) = 0.45492 0.05669
# Poissons Ratio (z) = 0.13331 0.13331
#
# Static dielectric constant tensor:
#      x y z
#    x 1.735970 0.000000 0.000000 
#    y 0.000000 1.735970 0.000000 
#    z 0.000000 0.000000 1.761600 
# 
# From -- ./inp_files/1007.got.cif
#   From: 2010.05.17/outbox.cif.g08.bks.cpg/sg84_1_cif.got.tgz:1007.got - 2010.06.03 18:57:40.
