data_PCOD9543455
_publ_section_title
;
Structure prediction by ZEFSAII (Michael W. Deem and Ramdas Pophale) SiO2 
 PCOD9543455
Probable space group: P 4/M
;
_chemical_formula_sum "Si O2"
_cell_formula_units_Z 58
_cell_length_a 18.367168
_cell_length_b 18.367168
_cell_length_c 7.776487
_cell_angle_alpha 90.000000
_cell_angle_beta 90.000000
_cell_angle_gamma 90.000000
_cell_volume 2623.420133
_symmetry_space_group_name_H-M "P 4/M"
_symmetry_group_IT_number 83
_symmetry_cell_setting 'tetragonal'
loop_
_space_group_symop_operation_xyz
x,y,z
-y,x,z
-x,-y,z
y,-x,z
-x,-y,-z
y,-x,-z
x,y,-z
-y,x,-z
loop_
_atom_site_type_symbol
_atom_site_label
_atom_site_fract_x
_atom_site_fract_y
_atom_site_fract_z
Si Si1 0.616727 0.144974 0.790842
Si Si2 0.884935 0.997505 0.293849
Si Si3 0.327137 0.636856 0.299797
Si Si4 0.248427 0.084679 0.795534
Si Si5 0.404078 0.025623 0.206105
Si Si6 0.775285 0.758484 0.200303
Si Si7 0.283076 0.473895 0.795217
Si Si8 0.500000 0.000000 0.500000
O O1 0.694468 0.174803 0.725419
O O2 0.556649 0.204314 0.732848
O O3 0.608800 0.060081 0.751114
O O4 0.616445 0.148947 0.000000
O O5 0.889120 0.999223 0.500000
O O6 0.802669 0.983260 0.246417
O O7 0.931692 0.927692 0.230507
O O8 0.321226 0.653740 0.500000
O O9 0.271769 0.692594 0.207487
O O10 0.408877 0.659527 0.243292
O O11 0.307569 0.552472 0.272373
O O12 0.330827 0.068099 0.751864
O O13 0.221074 0.161290 0.719900
O O14 0.247208 0.092316 0.000000
O O15 0.462761 0.049206 0.344893
O O16 0.420866 0.033158 0.000000
O O17 0.796630 0.764323 0.000000
O O18 0.278104 0.481454 0.000000
#
# Coordination Sequence:
#
# PCOD9543455 Si02
#       8
#     8   8   8   8   8   8   8   2
#     4   8  17  37  63  84 114 157 202 251 303 365
#     4   9  20  38  58  86 129 174 211 258 321 382
#     4  11  22  37  56  88 120 149 187 250 302 356
#     4  10  22  37  62  94 124 160 208 265 315 368
#     4  10  23  44  64  92 128 163 211 269 319 373
#     4   9  19  38  59  84 118 160 203 245 308 373
#     4  10  20  38  62  85 113 157 201 235 294 369
#     4  12  26  44  64  90 116 166 210 262 324 390
#
# _framework density 22.108543999999998
#
# number of rings (size 3 to 8) (size 9 to 14) (size 15 to 20)
#    0.000    2.345    0.000    3.103    2.897    2.483 
#    8.690    6.207    0.000    0.000    0.000    0.000 
#    0.000    0.000    0.000    0.000    0.000    0.000 
#
# Total GULP energy -323138.040993 kJ/mol
# GULP energy per Si atom -5571.345534 kJ/mol
# Density = 2.205822 g / cm^3
# Si number density = 22.108544 Si / 1000 Ang^3
#
#
#
# Elastic Constant Matrix: (Units=GPa)
#
#
# Indices 1 2 3 4 5 6 
#
# 1 55.6899 -9.1603 12.0147 0.0000 0.0000 -3.6199
# 2 -9.1603 55.6899 12.0147 0.0000 0.0000 3.6199
# 3 12.0147 12.0147 40.8741 0.0000 0.0000 0.0000
# 4 0.0000 0.0000 0.0000 5.1670 0.0000 0.0000
# 5 0.0000 0.0000 0.0000 0.0000 5.1670 0.0000
# 6 -3.6199 3.6199 0.0000 0.0000 0.0000 -2.3475
#
#
#
# Elastic Compliance Matrix: (Units=1/GPa)
#
#
# Indices 1 2 3 4 5 6 
#
# 1 0.019247 0.006091 -0.007448 0.000000 0.000000 -0.020286
# 2 0.006091 0.019247 -0.007448 0.000000 0.000000 0.020286
# 3 -0.007448 -0.007448 0.028844 0.000000 0.000000 0.000000
# 4 0.000000 0.000000 0.000000 0.193535 0.000000 0.000000
# 5 0.000000 0.000000 0.000000 0.000000 0.193535 0.000000
# 6 -0.020286 0.020286 0.000000 0.000000 0.000000 -0.363419
#
#
# Mechanical properties :
#
#
# Convention : Reuss Voigt Hill
#
# Bulk Modulus (GPa) = 20.10934 20.22136 20.16535
# Shear Modulus (GPa) = 39.94437 10.75629 25.35033
#
# Velocity S-wave (km/s) = 4.25519 2.20812 3.38987
# Velocity P-wave (km/s) = 5.76694 3.95819 4.94595
#
# Compressibility (1/GPa) = 0.04972815
#
# Stress axis : x y z
#
# Youngs Moduli (GPa) = 51.95679 51.95679 34.66927
#
# Poissons Ratio (x) = -0.31649 0.25822
# Poissons Ratio (y) = -0.31649 0.25822
# Poissons Ratio (z) = 0.38697 0.38697
#
# Static dielectric constant tensor:
#      x y z
#    x 1.861780 0.000000 0.000000 
#    y 0.000000 1.861780 0.000000 
#    z 0.000000 0.000000 1.804910 
# 
# From -- ./inp_files/1132.got.cif
#   From: 2010.05.17/outbox.cif.g08.bks.cpg/sg83_1_cif.got.tgz:1132.got - 2010.06.03 18:55:12.
