data_PCOD9543554
_publ_section_title
;
Structure prediction by ZEFSAII (Michael W. Deem and Ramdas Pophale) SiO2 
 PCOD9543554
Probable space group: P 4/M
;
_chemical_formula_sum "Si O2"
_cell_formula_units_Z 48
_cell_length_a 7.955287
_cell_length_b 7.955287
_cell_length_c 34.464658
_cell_angle_alpha 90.000000
_cell_angle_beta 90.000000
_cell_angle_gamma 90.000000
_cell_volume 2181.150723
_symmetry_space_group_name_H-M "P 4/M"
_symmetry_group_IT_number 83
_symmetry_cell_setting 'tetragonal'
loop_
_space_group_symop_operation_xyz
x,y,z
-y,x,z
-x,-y,z
y,-x,z
-x,-y,-z
y,-x,-z
x,y,-z
-y,x,-z
loop_
_atom_site_type_symbol
_atom_site_label
_atom_site_fract_x
_atom_site_fract_y
_atom_site_fract_z
Si Si1 0.765380 0.600634 0.207974
Si Si2 0.000000 0.500000 0.356871
Si Si3 0.235052 0.599938 0.500000
Si Si4 0.765545 0.600752 0.705949
Si Si5 0.500000 0.000000 0.066058
Si Si6 0.767979 0.407255 0.000000
Si Si7 0.095222 0.734306 0.420550
Si Si8 0.910663 0.734289 0.869735
O O1 0.592786 0.707523 0.205579
O O2 0.838631 0.630171 0.250960
O O3 0.877627 0.651516 0.171867
O O4 0.896533 0.622834 0.328505
O O5 0.879599 0.394562 0.385340
O O6 0.291258 0.406687 0.500000
O O7 0.134391 0.647609 0.461424
O O8 0.594721 0.707390 0.703203
O O9 0.392289 0.883719 0.094860
O O10 0.612167 0.885195 0.037689
O O11 0.706017 0.602296 0.000000
O O12 0.901622 0.793081 0.418228
O O13 0.102359 0.795011 0.872615
#
# Coordination Sequence:
#
# PCOD9543554 Si02
#       8
#     8   4   4   8   4   4   8   8
#     4   9  19  37  60  85 116 156 200 244 293 347
#     4  12  22  36  60  87 118 157 200 244 284 338
#     4  11  24  43  68  93 114 144 190 239 288 351
#     4   9  20  38  59  85 117 157 203 246 290 338
#     4  11  22  39  60  83 118 155 186 235 298 351
#     4  10  22  40  62  86 110 146 198 243 282 340
#     4  11  24  41  61  88 122 156 189 233 294 354
#     4  11  23  37  57  88 121 153 192 239 294 354
#
# _framework density 22.006730000000001
#
# number of rings (size 3 to 8) (size 9 to 14) (size 15 to 20)
#    0.000    1.667    0.000    5.500    0.000    5.000 
#    0.000    3.333    0.000    6.000    0.000    0.000 
#    0.000    0.000    0.000    0.000    0.000    0.000 
#
# Total GULP energy -268595.321130 kJ/mol
# GULP energy per Si atom -5595.735857 kJ/mol
# Density = 2.195664 g / cm^3
# Si number density = 22.006730 Si / 1000 Ang^3
#
#
#
# Elastic Constant Matrix: (Units=GPa)
#
#
# Indices 1 2 3 4 5 6 
#
# 1 58.6887 3.9495 37.6141 0.0000 0.0000 -2.1361
# 2 3.9495 58.6887 37.6141 0.0000 0.0000 2.1361
# 3 37.6141 37.6141 195.8517 0.0000 0.0000 0.0000
# 4 0.0000 0.0000 0.0000 27.5476 0.0000 0.0000
# 5 0.0000 0.0000 0.0000 0.0000 27.5476 0.0000
# 6 -2.1361 2.1361 0.0000 0.0000 0.0000 29.2006
#
#
#
# Elastic Compliance Matrix: (Units=1/GPa)
#
#
# Indices 1 2 3 4 5 6 
#
# 1 0.019562 0.001189 -0.003985 0.000000 0.000000 0.001344
# 2 0.001189 0.019562 -0.003985 0.000000 0.000000 -0.001344
# 3 -0.003985 -0.003985 0.006637 0.000000 0.000000 0.000000
# 4 0.000000 0.000000 0.000000 0.036301 0.000000 0.000000
# 5 0.000000 0.000000 0.000000 0.000000 0.036301 0.000000
# 6 0.001344 -0.001344 0.000000 0.000000 0.000000 0.034442
#
#
# Mechanical properties :
#
#
# Convention : Reuss Voigt Hill
#
# Bulk Modulus (GPa) = 31.05828 52.39827 41.72827
# Shear Modulus (GPa) = 28.23241 32.46257 30.34749
#
# Velocity S-wave (km/s) = 3.58564 3.84490 3.71753
# Velocity P-wave (km/s) = 5.59340 6.60097 6.11796
#
# Compressibility (1/GPa) = 0.03219753
#
# Stress axis : x y z
#
# Youngs Moduli (GPa) = 51.11897 51.11897 150.67736
#
# Poissons Ratio (x) = -0.06077 0.60050
# Poissons Ratio (y) = -0.06077 0.60050
# Poissons Ratio (z) = 0.20373 0.20373
#
# Static dielectric constant tensor:
#      x y z
#    x 1.821240 0.000000 0.000000 
#    y 0.000000 1.821240 0.000000 
#    z 0.000000 0.000000 1.781070 
# 
# From -- ./inp_files/3516.got.cif
#   From: 2010.05.17/outbox.cif.g08.bks.cpg/sg83_2_cif.got.tgz:3516.got - 2010.06.03 18:55:12.
