data_PCOD9543447
_publ_section_title
;
Structure prediction by ZEFSAII (Michael W. Deem and Ramdas Pophale) SiO2 
 PCOD9543447
Probable space group: P 4/M
;
_chemical_formula_sum "Si O2"
_cell_formula_units_Z 60
_cell_length_a 11.833710
_cell_length_b 11.833710
_cell_length_c 20.566336
_cell_angle_alpha 90.000000
_cell_angle_beta 90.000000
_cell_angle_gamma 90.000000
_cell_volume 2880.041667
_symmetry_space_group_name_H-M "P 4/M"
_symmetry_group_IT_number 83
_symmetry_cell_setting 'tetragonal'
loop_
_space_group_symop_operation_xyz
x,y,z
-y,x,z
-x,-y,z
y,-x,z
-x,-y,-z
y,-x,-z
x,y,-z
-y,x,-z
loop_
_atom_site_type_symbol
_atom_site_label
_atom_site_fract_x
_atom_site_fract_y
_atom_site_fract_z
Si Si1 0.542323 0.313944 0.500000
Si Si2 0.776991 0.655244 0.376047
Si Si3 0.603857 0.087265 0.074942
Si Si4 0.983281 0.660405 0.276620
Si Si5 0.872099 0.876918 0.577744
Si Si6 0.212462 0.415418 0.194281
Si Si7 0.816327 0.022294 0.161730
Si Si8 0.637251 0.747597 0.265495
O O1 0.631346 0.418450 0.500000
O O2 0.568137 0.243593 0.434263
O O3 0.896629 0.641702 0.337263
O O4 0.786594 0.780533 0.405019
O O5 0.672083 0.669452 0.326714
O O6 0.570952 0.196714 0.117948
O O7 0.711759 0.036475 0.112882
O O8 0.500000 0.000000 0.077034
O O9 0.629624 0.111849 0.000000
O O10 0.914360 0.584978 0.224073
O O11 0.975363 0.778952 0.237829
O O12 0.118311 0.642537 0.283948
O O13 0.877353 0.882679 0.500000
O O14 0.997854 0.845990 0.601824
O O15 0.272866 0.517474 0.231554
O O16 0.269738 0.296486 0.213657
O O17 0.905079 0.121150 0.149829
#
# Coordination Sequence:
#
# PCOD9543447 Si02
#       8
#     4   8   8   8   8   8   8   8
#     4  11  28  50  66  85 128 168 212 266 326 390
#     4  11  22  38  66  91 118 159 207 258 317 380
#     4  10  21  37  59  87 125 176 223 264 324 394
#     4  10  20  37  60  92 125 161 206 260 319 376
#     4   9  17  31  52  81 118 157 193 235 295 370
#     4  10  22  40  62  90 129 165 208 269 325 374
#     4  10  20  36  60  92 133 171 210 267 326 383
#     4  11  23  39  64  95 125 162 214 264 321 384
#
# _framework density 20.833033
#
# number of rings (size 3 to 8) (size 9 to 14) (size 15 to 20)
#    0.000    1.800    0.667    5.600    3.733    0.800 
#    0.000    4.000    0.000    3.200    0.000    0.933 
#    0.000    0.000    0.000    0.000    0.000    0.000 
#
# Total GULP energy -334250.684334 kJ/mol
# GULP energy per Si atom -5570.844739 kJ/mol
# Density = 2.078562 g / cm^3
# Si number density = 20.833033 Si / 1000 Ang^3
#
#
#
# Elastic Constant Matrix: (Units=GPa)
#
#
# Indices 1 2 3 4 5 6 
#
# 1 82.8481 26.7144 35.5064 0.0000 0.0000 -4.3087
# 2 26.7144 82.8481 35.5064 0.0000 0.0000 4.3087
# 3 35.5064 35.5064 132.5418 0.0000 0.0000 0.0000
# 4 0.0000 0.0000 0.0000 24.7585 0.0000 0.0000
# 5 0.0000 0.0000 0.0000 0.0000 24.7585 0.0000
# 6 -4.3087 4.3087 0.0000 0.0000 0.0000 20.8618
#
#
#
# Elastic Compliance Matrix: (Units=1/GPa)
#
#
# Indices 1 2 3 4 5 6 
#
# 1 0.014721 -0.003676 -0.002959 0.000000 0.000000 0.003800
# 2 -0.003676 0.014721 -0.002959 0.000000 0.000000 -0.003800
# 3 -0.002959 -0.002959 0.009130 0.000000 0.000000 0.000000
# 4 0.000000 0.000000 0.000000 0.040390 0.000000 0.000000
# 5 0.000000 0.000000 0.000000 0.000000 0.040390 0.000000
# 6 0.003800 -0.003800 0.000000 0.000000 0.000000 0.049504
#
#
# Mechanical properties :
#
#
# Convention : Reuss Voigt Hill
#
# Bulk Modulus (GPa) = 51.58707 54.85474 53.22090
# Shear Modulus (GPa) = 25.70597 27.44313 26.57455
#
# Velocity S-wave (km/s) = 3.51651 3.63339 3.57542
# Velocity P-wave (km/s) = 6.42679 6.63248 6.53045
#
# Compressibility (1/GPa) = 0.01938470
#
# Stress axis : x y z
#
# Youngs Moduli (GPa) = 67.92808 67.92808 109.52839
#
# Poissons Ratio (x) = 0.24974 0.32407
# Poissons Ratio (y) = 0.24974 0.32407
# Poissons Ratio (z) = 0.20099 0.20099
#
# Static dielectric constant tensor:
#      x y z
#    x 1.772760 0.000000 0.000000 
#    y 0.000000 1.772760 0.000000 
#    z 0.000000 0.000000 1.812440 
# 
# From -- ./inp_files/3048.got.cif
#   From: 2010.05.17/outbox.cif.g08.bks.cpg/sg83_2_cif.got.tgz:3048.got - 2010.06.03 18:55:12.
