data_PCOD9543624
_publ_section_title
;
Structure prediction by ZEFSAII (Michael W. Deem and Ramdas Pophale) SiO2 
 PCOD9543624
Probable space group: P 4/M
;
_chemical_formula_sum "Si O2"
_cell_formula_units_Z 34
_cell_length_a 8.456602
_cell_length_b 8.456602
_cell_length_c 21.396607
_cell_angle_alpha 90.000000
_cell_angle_beta 90.000000
_cell_angle_gamma 90.000000
_cell_volume 1530.159465
_symmetry_space_group_name_H-M "P 4/M"
_symmetry_group_IT_number 83
_symmetry_cell_setting 'tetragonal'
loop_
_space_group_symop_operation_xyz
x,y,z
-y,x,z
-x,-y,z
y,-x,z
-x,-y,-z
y,-x,-z
x,y,-z
-y,x,-z
loop_
_atom_site_type_symbol
_atom_site_label
_atom_site_fract_x
_atom_site_fract_y
_atom_site_fract_z
Si Si1 0.921343 0.256659 0.500000
Si Si2 0.162852 0.783887 0.000000
Si Si3 0.075195 0.743228 0.635418
Si Si4 0.747069 0.418053 0.258626
Si Si5 0.649459 0.891152 0.125493
Si Si6 0.000000 0.000000 0.146885
O O1 0.896817 0.336005 0.567312
O O2 0.099996 0.188574 0.500000
O O3 0.207151 0.697587 0.063779
O O4 0.968575 0.789571 0.000000
O O5 0.118293 0.636857 0.693912
O O6 0.898694 0.812763 0.638302
O O7 0.692545 0.595784 0.270416
O O8 0.796226 0.397750 0.187030
O O9 0.500000 0.000000 0.108927
O O10 0.805098 0.992924 0.143687
#
# Coordination Sequence:
#
# PCOD9543624 Si02
#       6
#     4   4   8   8   8   2
#     4   7  12  30  54  93 128 154 201 270 328 389
#     4  11  21  42  70 102 134 165 212 277 332 407
#     4   9  19  34  65  95 124 163 214 269 330 398
#     4  11  27  45  58  88 133 175 222 276 330 402
#     4  12  25  43  71 102 131 177 218 276 343 403
#     4  12  24  45  72 100 136 165 232 282 332 401
#
# _framework density 22.219906000000002
#
# number of rings (size 3 to 8) (size 9 to 14) (size 15 to 20)
#    0.000    1.647    2.353    3.176    6.588    0.000 
#    0.000    1.176    0.000    7.059    0.000    0.000 
#    0.000    0.000    0.000    0.000    0.000    0.000 
#
# Total GULP energy -189549.250552 kJ/mol
# GULP energy per Si atom -5574.977957 kJ/mol
# Density = 2.216933 g / cm^3
# Si number density = 22.219906 Si / 1000 Ang^3
#
#
#
# Elastic Constant Matrix: (Units=GPa)
#
#
# Indices 1 2 3 4 5 6 
#
# 1 77.4060 6.5850 16.7575 0.0000 0.0000 -11.8037
# 2 6.5850 77.4060 16.7575 0.0000 0.0000 11.8037
# 3 16.7575 16.7575 148.9531 0.0000 0.0000 0.0000
# 4 0.0000 0.0000 0.0000 966.5787 0.0000 0.0000
# 5 0.0000 0.0000 0.0000 0.0000 966.5787 0.0000
# 6 -11.8037 11.8037 0.0000 0.0000 0.0000 17.7852
#
#
#
# Elastic Compliance Matrix: (Units=1/GPa)
#
#
# Indices 1 2 3 4 5 6 
#
# 1 0.015298 -0.002833 -0.001402 0.000000 0.000000 0.012033
# 2 -0.002833 0.015298 -0.001402 0.000000 0.000000 -0.012033
# 3 -0.001402 -0.001402 0.007029 0.000000 0.000000 0.000000
# 4 0.000000 0.000000 0.000000 0.001035 0.000000 0.000000
# 5 0.000000 0.000000 0.000000 0.000000 0.001035 0.000000
# 6 0.012033 -0.012033 0.000000 0.000000 0.000000 0.072199
#
#
# Mechanical properties :
#
#
# Convention : Reuss Voigt Hill
#
# Bulk Modulus (GPa) = 37.94961 42.66277 40.30619
# Shear Modulus (GPa) = 37.89220 407.76619 222.82919
#
# Velocity S-wave (km/s) = 4.13404 13.56143 10.02503
# Velocity P-wave (km/s) = 6.31690 16.26218 12.33616
#
# Compressibility (1/GPa) = 0.02635073
#
# Stress axis : x y z
#
# Youngs Moduli (GPa) = 65.36593 65.36593 142.26632
#
# Poissons Ratio (x) = 0.18517 0.19952
# Poissons Ratio (y) = 0.18517 0.19952
# Poissons Ratio (z) = 0.09167 0.09167
#
# Static dielectric constant tensor:
#      x y z
#    x 1.798470 0.000000 0.000000 
#    y 0.000000 1.798470 0.000000 
#    z 0.000000 0.000000 1.868860 
# 
# From -- ./inp_files/2897.got.cif
#   From: 2010.05.17/outbox.cif.g08.bks.cpg/sg83_2_cif.got.tgz:2897.got - 2010.06.03 18:55:12.
