data_PCOD9543197
_publ_section_title
;
Structure prediction by ZEFSAII (Michael W. Deem and Ramdas Pophale) SiO2 
 PCOD9543197
Probable space group: I -4 
;
_chemical_formula_sum "Si O2"
_cell_formula_units_Z 34
_cell_length_a 8.938065
_cell_length_b 8.938065
_cell_length_c 15.730607
_cell_angle_alpha 90.000000
_cell_angle_beta 90.000000
_cell_angle_gamma 90.000000
_cell_volume 1256.702556
_symmetry_space_group_name_H-M "I -4 "
_symmetry_group_IT_number 82
_symmetry_cell_setting 'tetragonal'
loop_
_space_group_symop_operation_xyz
x,y,z
y,-x,-z
-x,-y,z
-y,x,-z
1/2+x,1/2+y,1/2+z
1/2+y,1/2-x,1/2-z
1/2-x,1/2-y,1/2+z
1/2-y,1/2+x,1/2-z
loop_
_atom_site_type_symbol
_atom_site_label
_atom_site_fract_x
_atom_site_fract_y
_atom_site_fract_z
Si Si1 0.458358 0.669627 0.596785
Si Si2 0.626112 0.112000 0.045196
Si Si3 0.500000 0.000000 0.750000
Si Si4 0.769720 0.180269 0.756946
Si Si5 0.173678 0.966968 0.363260
O O1 0.500000 0.500000 0.574400
O O2 0.279103 0.662427 0.591936
O O3 0.529583 0.800068 0.536728
O O4 0.543364 0.677144 0.685404
O O5 0.518619 0.256872 0.046212
O O6 0.500000 0.000000 0.083462
O O7 0.365651 0.905575 0.705715
O O8 0.912706 0.235250 0.705597
O O9 0.713684 0.305890 0.824015
O O10 0.000000 0.000000 0.365443
#
# Coordination Sequence:
#
# PCOD9543197 Si02
#       5
#     8   8   2   8   8
#     4  12  26  53  80 110 154 214 263 321 403 479
#     4  12  28  50  79 115 154 208 264 328 399 473
#     4  12  24  48  80 116 156 216 256 338 404 484
#     4  12  28  50  81 116 161 209 267 330 404 481
#     4  12  29  49  76 122 158 206 267 333 399 478
#
# _framework density 27.054931
#
# number of rings (size 3 to 8) (size 9 to 14) (size 15 to 20)
#    0.000    0.000    4.706    3.529    8.235    0.000 
#    0.000    0.000    0.000    0.000    0.000    0.000 
#    0.000    0.000    0.000    0.000    0.000    0.000 
#
# Total GULP energy -94729.504237 kJ/mol
# GULP energy per Si atom -5572.323779 kJ/mol
# Density = 2.699335 g / cm^3
# Si number density = 27.054931 Si / 1000 Ang^3
#
#
#
# Elastic Constant Matrix: (Units=GPa)
#
#
# Indices 1 2 3 4 5 6 
#
# 1 132.4103 48.9843 41.8562 0.0000 0.0000 9.9577
# 2 48.9843 132.4103 41.8562 0.0000 0.0000 -9.9577
# 3 41.8562 41.8562 54.3976 0.0000 0.0000 0.0000
# 4 0.0000 0.0000 0.0000 39.8974 0.0000 0.0000
# 5 0.0000 0.0000 0.0000 0.0000 39.8974 0.0000
# 6 9.9577 -9.9577 0.0000 0.0000 0.0000 68.9924
#
#
#
# Elastic Compliance Matrix: (Units=1/GPa)
#
#
# Indices 1 2 3 4 5 6 
#
# 1 0.010481 -0.001933 -0.006578 0.000000 0.000000 -0.001792
# 2 -0.001933 0.010481 -0.006578 0.000000 0.000000 0.001792
# 3 -0.006578 -0.006578 0.028505 0.000000 0.000000 0.000000
# 4 0.000000 0.000000 0.000000 0.025064 0.000000 0.000000
# 5 0.000000 0.000000 0.000000 0.000000 0.025064 0.000000
# 6 -0.001792 0.001792 0.000000 0.000000 0.000000 0.015012
#
#
# Mechanical properties :
#
#
# Convention : Reuss Voigt Hill
#
# Bulk Modulus (GPa) = 51.83521 64.95687 58.39604
# Shear Modulus (GPa) = 33.06552 42.19221 37.62886
#
# Velocity S-wave (km/s) = 3.49974 3.95334 3.73343
# Velocity P-wave (km/s) = 5.96085 6.70074 6.34159
#
# Compressibility (1/GPa) = 0.01929191
#
# Stress axis : x y z
#
# Youngs Moduli (GPa) = 95.40744 95.40744 35.08119
#
# Poissons Ratio (x) = 0.18443 0.23075
# Poissons Ratio (y) = 0.18443 0.23075
# Poissons Ratio (z) = 0.62754 0.62754
#
# Static dielectric constant tensor:
#      x y z
#    x 1.984010 0.000000 0.000000 
#    y 0.000000 1.984010 0.000000 
#    z 0.000000 0.000000 2.238670 
# 
# From -- ./inp_files/2966.got.cif
#   From: 2010.05.17/outbox.cif.g08.bks.cpg/sg82_2_cif.got.tgz:2966.got - 2010.06.03 18:52:26.
