data_PCOD9543092
_publ_section_title
;
Structure prediction by ZEFSAII (Michael W. Deem and Ramdas Pophale) SiO2 
 PCOD9543092
Probable space group: I -4 
;
_chemical_formula_sum "Si O2"
_cell_formula_units_Z 58
_cell_length_a 16.473229
_cell_length_b 16.473229
_cell_length_c 9.056271
_cell_angle_alpha 90.000000
_cell_angle_beta 90.000000
_cell_angle_gamma 90.000000
_cell_volume 2457.575571
_symmetry_space_group_name_H-M "I -4 "
_symmetry_group_IT_number 82
_symmetry_cell_setting 'tetragonal'
loop_
_space_group_symop_operation_xyz
x,y,z
y,-x,-z
-x,-y,z
-y,x,-z
1/2+x,1/2+y,1/2+z
1/2+y,1/2-x,1/2-z
1/2-x,1/2-y,1/2+z
1/2-y,1/2+x,1/2-z
loop_
_atom_site_type_symbol
_atom_site_label
_atom_site_fract_x
_atom_site_fract_y
_atom_site_fract_z
Si Si1 0.141341 0.378758 0.672629
Si Si2 0.231464 0.290731 0.425137
Si Si3 0.342832 0.092494 0.671096
Si Si4 0.903468 0.229454 0.585829
Si Si5 0.000000 0.500000 0.250000
Si Si6 0.083295 0.029249 0.250821
Si Si7 0.341323 0.582017 0.510763
Si Si8 0.829684 0.464522 0.559963
O O1 0.184446 0.312351 0.574735
O O2 0.207501 0.418795 0.781011
O O3 0.117076 0.453567 0.565944
O O4 0.075700 0.341766 0.780194
O O5 0.191513 0.347927 0.298575
O O6 0.221036 0.194479 0.405515
O O7 0.326659 0.312078 0.450157
O O8 0.266287 0.067970 0.569532
O O9 0.397705 0.141825 0.555155
O O10 0.403893 0.018805 0.708392
O O11 0.949742 0.148846 0.627532
O O12 0.106906 0.954581 0.143611
O O13 0.079887 0.106854 0.138976
O O14 0.000000 0.000000 0.317756
O O15 0.262922 0.522387 0.511809
#
# Coordination Sequence:
#
# PCOD9543092 Si02
#       8
#     8   8   8   8   2   8   8   8
#     4  11  23  41  70 107 141 193 247 315 375 454
#     4  12  23  44  76 108 146 203 256 313 382 459
#     4  11  26  47  72 107 153 203 245 328 373 465
#     4  11  23  44  74 112 151 193 264 312 388 447
#     4  12  28  52  72 118 160 208 268 302 412 464
#     4  12  24  43  74 115 153 201 250 326 376 465
#     4  12  20  39  74 109 152 189 263 302 385 454
#     4  11  24  41  71 106 148 196 256 312 386 452
#
# _framework density 23.600493
#
# number of rings (size 3 to 8) (size 9 to 14) (size 15 to 20)
#    0.000    0.552    6.897    2.483    0.000    4.690 
#    2.483    0.000    0.000    0.828    0.000    0.000 
#    0.000    0.000    0.000    0.000    0.000    0.000 
#
# Total GULP energy -162042.930160 kJ/mol
# GULP energy per Si atom -5587.687247 kJ/mol
# Density = 2.354678 g / cm^3
# Si number density = 23.600493 Si / 1000 Ang^3
#
#
#
# Elastic Constant Matrix: (Units=GPa)
#
#
# Indices 1 2 3 4 5 6 
#
# 1 112.5549 22.6321 41.3120 0.0000 0.0000 16.4376
# 2 22.6321 112.5549 41.3120 0.0000 0.0000 -16.4376
# 3 41.3120 41.3120 89.6427 0.0000 0.0000 0.0000
# 4 0.0000 0.0000 0.0000 23.6052 0.0000 0.0000
# 5 0.0000 0.0000 0.0000 0.0000 23.6052 0.0000
# 6 16.4376 -16.4376 0.0000 0.0000 0.0000 26.8793
#
#
#
# Elastic Compliance Matrix: (Units=1/GPa)
#
#
# Indices 1 2 3 4 5 6 
#
# 1 0.012310 -0.002013 -0.004746 0.000000 0.000000 -0.008759
# 2 -0.002013 0.012310 -0.004746 0.000000 0.000000 0.008759
# 3 -0.004746 -0.004746 0.015530 0.000000 0.000000 0.000000
# 4 0.000000 0.000000 0.000000 0.042364 0.000000 0.000000
# 5 0.000000 0.000000 0.000000 0.000000 0.042364 0.000000
# 6 -0.008759 0.008759 0.000000 0.000000 0.000000 0.047916
#
#
# Mechanical properties :
#
#
# Convention : Reuss Voigt Hill
#
# Bulk Modulus (GPa) = 58.33610 58.36277 58.34944
# Shear Modulus (GPa) = 24.81204 28.78437 26.79820
#
# Velocity S-wave (km/s) = 3.24595 3.49614 3.37336
# Velocity P-wave (km/s) = 6.23058 6.40941 6.32062
#
# Compressibility (1/GPa) = 0.01714204
#
# Stress axis : x y z
#
# Youngs Moduli (GPa) = 81.23318 81.23318 64.39341
#
# Poissons Ratio (x) = 0.16349 0.30559
# Poissons Ratio (y) = 0.16349 0.30559
# Poissons Ratio (z) = 0.38551 0.38551
#
# Static dielectric constant tensor:
#      x y z
#    x 1.969670 0.000000 0.000000 
#    y 0.000000 1.969670 0.000000 
#    z 0.000000 0.000000 1.916780 
# 
# From -- ./inp_files/1193.got.cif
#   From: 2010.05.17/outbox.cif.g08.bks.cpg/sg82_1_cif.got.tgz:1193.got - 2010.06.03 18:52:26.
