data_PCOD9543656
_publ_section_title
;
Structure prediction by ZEFSAII (Michael W. Deem and Ramdas Pophale) SiO2 
 PCOD9543656
Probable space group: P 4/M
;
_chemical_formula_sum "Si O2"
_cell_formula_units_Z 26
_cell_length_a 7.851236
_cell_length_b 7.851236
_cell_length_c 16.716784
_cell_angle_alpha 90.000000
_cell_angle_beta 90.000000
_cell_angle_gamma 90.000000
_cell_volume 1030.454440
_symmetry_space_group_name_H-M "P 4/M"
_symmetry_group_IT_number 83
_symmetry_cell_setting 'tetragonal'
loop_
_space_group_symop_operation_xyz
x,y,z
-y,x,z
-x,-y,z
y,-x,z
-x,-y,-z
y,-x,-z
x,y,-z
-y,x,-z
loop_
_atom_site_type_symbol
_atom_site_label
_atom_site_fract_x
_atom_site_fract_y
_atom_site_fract_z
Si Si1 0.500000 0.500000 0.500000
Si Si2 0.267789 0.109435 0.000000
Si Si3 0.000000 0.000000 0.500000
Si Si4 0.134495 0.699288 0.500000
Si Si5 0.408877 0.227774 0.336918
Si Si6 0.894704 0.268779 0.172894
O O1 0.311506 0.589458 0.500000
O O2 0.351731 0.142487 0.914038
O O3 0.088912 0.211621 0.000000
O O4 0.091105 0.182434 0.500000
O O5 0.099017 0.654505 0.405495
O O6 0.601413 0.293615 0.343503
O O7 0.377945 0.153075 0.249242
O O8 0.091615 0.210874 0.176788
#
# Coordination Sequence:
#
# PCOD9543656 Si02
#       6
#     1   4   1   4   8   8
#     4  12  20  56  84  84 132 218 236 244 340 488
#     4   7  12  30  54  79 112 160 194 239 326 417
#     4  12  36  40  68 116 148 154 236 340 332 352
#     4  12  24  50  68  98 132 186 228 282 340 406
#     4  11  22  41  63  85 116 171 225 255 312 417
#     4   9  19  34  58  87 120 151 200 264 331 389
#
# _framework density 25.231587999999999
#
# number of rings (size 3 to 8) (size 9 to 14) (size 15 to 20)
#    0.000    2.000    3.077    1.846    4.308    1.846 
#    0.000    1.538    0.000    7.385    0.000    0.000 
#    0.000    0.000    0.000    0.000    0.000    0.000 
#
# Total GULP energy -144737.680874 kJ/mol
# GULP energy per Si atom -5566.833880 kJ/mol
# Density = 2.517416 g / cm^3
# Si number density = 25.231588 Si / 1000 Ang^3
#
#
#
# Elastic Constant Matrix: (Units=GPa)
#
#
# Indices 1 2 3 4 5 6 
#
# 1 71.0953 17.3369 51.1145 0.0000 0.0000 10.9762
# 2 17.3369 71.0953 51.1145 0.0000 0.0000 -10.9762
# 3 51.1145 51.1145 278.2680 0.0000 0.0000 0.0000
# 4 0.0000 0.0000 0.0000 -70.2468 0.0000 0.0000
# 5 0.0000 0.0000 0.0000 0.0000 -70.2468 0.0000
# 6 10.9762 -10.9762 0.0000 0.0000 0.0000 52.1807
#
#
#
# Elastic Compliance Matrix: (Units=1/GPa)
#
#
# Indices 1 2 3 4 5 6 
#
# 1 0.017353 -0.002997 -0.002637 0.000000 0.000000 -0.004281
# 2 -0.002997 0.017353 -0.002637 0.000000 0.000000 0.004281
# 3 -0.002637 -0.002637 0.004562 0.000000 0.000000 0.000000
# 4 0.000000 0.000000 0.000000 -0.014236 0.000000 0.000000
# 5 0.000000 0.000000 0.000000 0.000000 -0.014236 0.000000
# 6 -0.004281 0.004281 0.000000 0.000000 0.000000 0.020965
#
#
# Mechanical properties :
#
#
# Convention : Reuss Voigt Hill
#
# Bulk Modulus (GPa) = 44.00003 73.28784 58.64393
# Shear Modulus (GPa) = 89.47698 2.39691 45.93695
#
# Velocity S-wave (km/s) = 5.96148 0.97572 4.27149
# Velocity P-wave (km/s) = 8.05370 5.51167 6.90074
#
# Compressibility (1/GPa) = 0.02272726
#
# Stress axis : x y z
#
# Youngs Moduli (GPa) = 57.62621 57.62621 219.17878
#
# Poissons Ratio (x) = 0.17268 0.57801
# Poissons Ratio (y) = 0.17268 0.57801
# Poissons Ratio (z) = 0.15197 0.15197
#
# Static dielectric constant tensor:
#      x y z
#    x 2.158740 0.000000 0.000000 
#    y 0.000000 2.158740 0.000000 
#    z 0.000000 0.000000 2.201520 
# 
# From -- ./inp_files/2501.got.cif
#   From: 2010.05.17/outbox.cif.g08.bks.cpg/sg83_2_cif.got.tgz:2501.got - 2010.06.03 18:55:12.
