data_PCOD9543465
_publ_section_title
;
Structure prediction by ZEFSAII (Michael W. Deem and Ramdas Pophale) SiO2 
 PCOD9543465
Probable space group: P 4/M
;
_chemical_formula_sum "Si O2"
_cell_formula_units_Z 40
_cell_length_a 13.962870
_cell_length_b 13.962870
_cell_length_c 11.269711
_cell_angle_alpha 90.000000
_cell_angle_beta 90.000000
_cell_angle_gamma 90.000000
_cell_volume 2197.162450
_symmetry_space_group_name_H-M "P 4/M"
_symmetry_group_IT_number 83
_symmetry_cell_setting 'tetragonal'
loop_
_space_group_symop_operation_xyz
x,y,z
-y,x,z
-x,-y,z
y,-x,z
-x,-y,-z
y,-x,-z
x,y,-z
-y,x,-z
loop_
_atom_site_type_symbol
_atom_site_label
_atom_site_fract_x
_atom_site_fract_y
_atom_site_fract_z
Si Si1 0.236880 0.233605 0.750638
Si Si2 0.618935 0.916851 0.139132
Si Si3 0.086833 0.134061 0.128819
Si Si4 0.543575 0.202490 0.500000
Si Si5 0.325627 0.272693 0.500000
Si Si6 0.413467 0.877314 0.242205
O O1 0.305406 0.165926 0.828262
O O2 0.132734 0.186404 0.761343
O O3 0.278746 0.232776 0.619598
O O4 0.210121 0.341743 0.790187
O O5 0.513717 0.877240 0.172452
O O6 0.629267 0.017162 0.211298
O O7 0.625058 0.939521 0.000000
O O8 0.973552 0.126421 0.130836
O O9 0.113956 0.177817 0.000000
O O10 0.436548 0.244267 0.500000
O O11 0.616189 0.293031 0.500000
O O12 0.563981 0.139985 0.381747
#
# Coordination Sequence:
#
# PCOD9543465 Si02
#       6
#     8   8   8   4   4   8
#     4  11  21  36  57  82 113 148 191 242 285 340
#     4  11  23  37  58  87 118 158 195 232 291 350
#     4   9  18  33  54  80 111 150 192 231 279 339
#     4  10  20  41  63  86 113 150 189 247 300 340
#     4  10  22  38  60  84 108 145 198 236 294 351
#     4  10  22  38  58  86 118 149 196 242 287 344
#
# _framework density 18.205299
#
# number of rings (size 3 to 8) (size 9 to 14) (size 15 to 20)
#    0.000    1.800    2.000    3.600    0.000    7.400 
#    0.000    3.000    0.000    1.800    0.000    1.400 
#    0.000    0.000    0.000    0.000    0.000    0.000 
#
# Total GULP energy -222894.497384 kJ/mol
# GULP energy per Si atom -5572.362435 kJ/mol
# Density = 1.816386 g / cm^3
# Si number density = 18.205299 Si / 1000 Ang^3
#
#
#
# Elastic Constant Matrix: (Units=GPa)
#
#
# Indices 1 2 3 4 5 6 
#
# 1 82.0603 66.3051 57.1951 0.0000 0.0000 -0.0145
# 2 66.3051 82.0603 57.1951 0.0000 0.0000 0.0145
# 3 57.1951 57.1951 108.5406 0.0000 0.0000 0.0000
# 4 0.0000 0.0000 0.0000 21.9957 0.0000 0.0000
# 5 0.0000 0.0000 0.0000 0.0000 21.9957 0.0000
# 6 -0.0145 0.0145 0.0000 0.0000 0.0000 31.0644
#
#
#
# Elastic Compliance Matrix: (Units=1/GPa)
#
#
# Indices 1 2 3 4 5 6 
#
# 1 0.037412 -0.026060 -0.005982 0.000000 0.000000 0.000030
# 2 -0.026060 0.037412 -0.005982 0.000000 0.000000 -0.000030
# 3 -0.005982 -0.005982 0.015518 0.000000 0.000000 0.000000
# 4 0.000000 0.000000 0.000000 0.045463 0.000000 0.000000
# 5 0.000000 0.000000 0.000000 0.000000 0.045463 0.000000
# 6 0.000030 -0.000030 0.000000 0.000000 0.000000 0.032191
#
#
# Mechanical properties :
#
#
# Convention : Reuss Voigt Hill
#
# Bulk Modulus (GPa) = 69.95958 70.45019 70.20488
# Shear Modulus (GPa) = 16.99111 21.14219 19.06665
#
# Velocity S-wave (km/s) = 3.05832 3.41151 3.23973
# Velocity P-wave (km/s) = 7.14021 7.36882 7.25542
#
# Compressibility (1/GPa) = 0.01429397
#
# Stress axis : x y z
#
# Youngs Moduli (GPa) = 26.72949 26.72949 64.44293
#
# Poissons Ratio (x) = 0.69656 0.38550
# Poissons Ratio (y) = 0.69656 0.38550
# Poissons Ratio (z) = 0.15990 0.15990
#
# Static dielectric constant tensor:
#      x y z
#    x 1.657730 0.000000 0.000000 
#    y 0.000000 1.657730 0.000000 
#    z 0.000000 0.000000 1.624890 
# 
# From -- ./inp_files/761.got.cif
#   From: 2010.05.17/outbox.cif.g08.bks.cpg/sg83_1_cif.got.tgz:761.got - 2010.06.03 18:55:12.
