data_PCOD9543408
_publ_section_title
;
Structure prediction by ZEFSAII (Michael W. Deem and Ramdas Pophale) SiO2 
 PCOD9543408
Probable space group: P 4/M
;
_chemical_formula_sum "Si O2"
_cell_formula_units_Z 64
_cell_length_a 19.594686
_cell_length_b 19.594686
_cell_length_c 9.309437
_cell_angle_alpha 90.000000
_cell_angle_beta 90.000000
_cell_angle_gamma 90.000000
_cell_volume 3574.374343
_symmetry_space_group_name_H-M "P 4/M"
_symmetry_group_IT_number 83
_symmetry_cell_setting 'tetragonal'
loop_
_space_group_symop_operation_xyz
x,y,z
-y,x,z
-x,-y,z
y,-x,z
-x,-y,-z
y,-x,-z
x,y,-z
-y,x,-z
loop_
_atom_site_type_symbol
_atom_site_label
_atom_site_fract_x
_atom_site_fract_y
_atom_site_fract_z
Si Si1 0.800100 0.086970 0.835346
Si Si2 0.790626 0.423429 0.171886
Si Si3 0.293883 0.292564 0.171803
Si Si4 0.060985 0.360166 0.830123
Si Si5 0.648361 0.918083 0.327918
Si Si6 0.204770 0.421569 0.826014
Si Si7 0.003618 0.114474 0.343814
Si Si8 0.832566 0.221340 0.329302
O O1 0.718941 0.083312 0.818325
O O2 0.832729 0.016560 0.781292
O O3 0.831594 0.147791 0.742578
O O4 0.816379 0.099345 0.000000
O O5 0.725689 0.373508 0.194720
O O6 0.856583 0.394750 0.255971
O O7 0.777638 0.501361 0.215619
O O8 0.805462 0.421460 0.000000
O O9 0.260768 0.364679 0.215904
O O10 0.256404 0.233797 0.260417
O O11 0.280643 0.283988 0.000000
O O12 0.127539 0.402313 0.779663
O O13 0.990908 0.368962 0.742842
O O14 0.048736 0.374528 0.000000
O O15 0.638303 0.919714 0.500000
O O16 0.727275 0.895418 0.300701
O O17 0.202858 0.419315 0.000000
O O18 0.004002 0.149545 0.500000
O O19 0.938736 0.066171 0.337381
O O20 0.826415 0.214521 0.500000
#
# Coordination Sequence:
#
# PCOD9543408 Si02
#       8
#     8   8   8   8   8   8   8   8
#     4  11  22  34  51  75  98 128 170 220 267 310
#     4   9  18  33  58  82 103 144 184 213 260 314
#     4   9  16  32  55  79 106 135 176 221 254 302
#     4  10  21  36  52  73 105 140 176 219 264 316
#     4  10  22  37  52  75 108 139 174 219 262 311
#     4   9  17  33  55  80 109 139 177 220 262 312
#     4   9  20  38  54  68  93 130 168 210 267 330
#     4  10  20  34  52  73  99 134 171 214 266 314
#
# _framework density 17.905232000000002
#
# number of rings (size 3 to 8) (size 9 to 14) (size 15 to 20)
#    0.000    2.375    1.250    1.500    1.750    3.500 
#    0.000    4.375    0.000    0.375    0.000    2.625 
#    0.000    0.000    0.000    6.250    0.000    6.500 
#
# Total GULP energy -356789.521290 kJ/mol
# GULP energy per Si atom -5574.836270 kJ/mol
# Density = 1.786448 g / cm^3
# Si number density = 17.905232 Si / 1000 Ang^3
#
#
#
# Elastic Constant Matrix: (Units=GPa)
#
#
# Indices 1 2 3 4 5 6 
#
# 1 -158.2959 330.0052 41.7278 0.0000 0.0000 -252.8169
# 2 330.0052 -158.2959 41.7278 0.0000 0.0000 252.8169
# 3 41.7278 41.7278 44.1890 0.0000 0.0000 0.0000
# 4 0.0000 0.0000 0.0000 1.9788 0.0000 0.0000
# 5 0.0000 0.0000 0.0000 0.0000 1.9788 0.0000
# 6 -252.8169 252.8169 0.0000 0.0000 0.0000 -212.5860
#
#
#
# Elastic Compliance Matrix: (Units=1/GPa)
#
#
# Indices 1 2 3 4 5 6 
#
# 1 0.009806 0.000958 -0.010165 0.000000 0.000000 -0.010522
# 2 0.000958 0.009806 -0.010165 0.000000 0.000000 0.010522
# 3 -0.010165 -0.010165 0.041827 0.000000 0.000000 0.000000
# 4 0.000000 0.000000 0.000000 0.505351 0.000000 0.000000
# 5 0.000000 0.000000 0.000000 0.000000 0.505351 0.000000
# 6 -0.010522 0.010522 0.000000 0.000000 0.000000 0.020323
#
#
# Mechanical properties :
#
#
# Convention : Reuss Voigt Hill
#
# Bulk Modulus (GPa) = 44.05898 61.61320 52.83609
# Shear Modulus (GPa) = 4.39070 -87.44991 -41.52961
#
# Velocity S-wave (km/s) = 1.56764 -6.99617 -4.82125
# Velocity P-wave (km/s) = 5.28553 5.54766 1.19156
#
# Compressibility (1/GPa) = 0.02269685
#
# Stress axis : x y z
#
# Youngs Moduli (GPa) = 101.97890 101.97890 23.90810
#
# Poissons Ratio (x) = -0.09771 0.24301
# Poissons Ratio (y) = -0.09771 0.24301
# Poissons Ratio (z) = 1.03657 1.03657
#
# Static dielectric constant tensor:
#      x y z
#    x 1.632750 0.000000 0.000000 
#    y 0.000000 1.632750 0.000000 
#    z 0.000000 0.000000 1.605880 
# 
# From -- ./inp_files/1279.got.cif
#   From: 2010.05.17/outbox.cif.g08.bks.cpg/sg83_1_cif.got.tgz:1279.got - 2010.06.03 18:55:12.
