data_PCOD9543214
_publ_section_title
;
Structure prediction by ZEFSAII (Michael W. Deem and Ramdas Pophale) SiO2 
 PCOD9543214
Probable space group: I -4 
;
_chemical_formula_sum "Si O2"
_cell_formula_units_Z 25
_cell_length_a 9.000000
_cell_length_b 9.000000
_cell_length_c 30.000000
_cell_angle_alpha 90.000000
_cell_angle_beta 90.000000
_cell_angle_gamma 90.000000
_cell_volume 2430.000000
_symmetry_space_group_name_H-M "I -4 "
_symmetry_group_IT_number 82
_symmetry_cell_setting 'tetragonal'
loop_
_space_group_symop_operation_xyz
x,y,z
y,-x,-z
-x,-y,z
-y,x,-z
1/2+x,1/2+y,1/2+z
1/2+y,1/2-x,1/2-z
1/2-x,1/2-y,1/2+z
1/2-y,1/2+x,1/2-z
loop_
_atom_site_type_symbol
_atom_site_label
_atom_site_fract_x
_atom_site_fract_y
_atom_site_fract_z
Si Si1 0.205343 0.662972 0.402810
Si Si2 0.500000 0.000000 0.250000
Si Si3 0.222045 0.588307 0.247009
Si Si4 0.336729 0.687899 0.498574
Si Si5 0.153755 0.317534 0.408712
Si Si6 0.691919 0.850242 0.182289
Si Si7 0.142927 0.083159 0.338472
O O1 0.254099 0.715049 0.452030
O O2 0.214834 0.483246 0.398324
O O3 0.316568 0.741840 0.367375
O O4 0.025606 0.687771 0.400217
O O5 0.636497 0.987386 0.214287
O O6 0.175533 0.428032 0.264457
O O7 0.290606 0.677292 0.287219
O O8 0.323191 0.583446 0.203528
O O9 0.514603 0.697438 0.490413
O O10 0.293662 0.794312 0.540002
O O11 0.214178 0.192675 0.374909
O O12 0.541871 0.752949 0.179751
O O13 0.000000 0.000000 0.358891
#
# Coordination Sequence:
#
# PCOD9543214 Si02
#       7
#     8   2   8   8   8   8   8
#     4  10  21  40  65  93 124 167 216 265 319 386
#     4  12  28  44  60  92 136 176 212 276 336 380
#     4  11  22  38  64  92 121 167 219 264 317 381
#     4   9  20  40  64  92 130 165 205 257 318 388
#     4  10  21  39  65  95 127 163 216 267 317 380
#     4  12  24  41  61  88 130 169 213 269 323 385
#     4  12  22  38  60  89 126 168 209 265 316 379
#
# _framework density 10.288066000000001
#
# number of rings (size 3 to 8) (size 9 to 14) (size 15 to 20)
#    0.000    1.280    4.800    0.960    0.000    5.120 
#    0.000    1.600    3.520    0.000    0.000    0.000 
#    0.000    0.000    0.000    0.000    0.000    0.000 
#
# Total GULP energy -139329.955983 kJ/mol
# GULP energy per Si atom -5573.198239 kJ/mol
# Density = 1.026465 g / cm^3
# Si number density = 10.288066 Si / 1000 Ang^3
#
#
#
# Elastic Constant Matrix: (Units=GPa)
#
#
# Indices 1 2 3 4 5 6 
#
# 1 8.5160 -28.8042 22.6410 0.0000 0.0000 8.4190
# 2 -28.8042 8.5160 22.6409 0.0000 0.0000 -8.4190
# 3 22.6410 22.6409 115.3581 0.0000 0.0000 0.0000
# 4 0.0000 0.0000 0.0000 29.4280 0.0000 0.0000
# 5 0.0000 0.0000 0.0000 0.0000 29.4280 0.0000
# 6 8.4190 -8.4190 0.0000 0.0000 0.0000 21.0369
#
#
#
# Elastic Compliance Matrix: (Units=1/GPa)
#
#
# Indices 1 2 3 4 5 6 
#
# 1 -0.000788 -0.033487 0.006727 0.000000 0.000000 -0.013086
# 2 -0.033487 -0.000788 0.006727 0.000000 0.000000 0.013086
# 3 0.006727 0.006727 0.006028 0.000000 0.000000 0.000000
# 4 0.000000 0.000000 0.000000 0.033981 0.000000 0.000000
# 5 0.000000 0.000000 0.000000 0.000000 0.033981 0.000000
# 6 -0.013086 0.013086 0.000000 0.000000 0.000000 0.058010
#
#
# Mechanical properties :
#
#
# Convention : Reuss Voigt Hill
#
# Bulk Modulus (GPa) = -28.07877 18.37172 -4.85352
# Shear Modulus (GPa) = 31.52193 23.70608 27.61400
#
# Velocity S-wave (km/s) = 3.91828 3.39796 3.66736
# Velocity P-wave (km/s) = 2.60665 4.93385 3.94573
#
# Compressibility (1/GPa) = -0.03561410
#
# Stress axis : x y z
#
# Youngs Moduli (GPa) = -1269.23214 -1269.19897 165.89110
#
# Poissons Ratio (x) = -42.50213 -1.11596
# Poissons Ratio (y) = -42.50324 -1.11596
# Poissons Ratio (z) = 8.53824 8.53802
#
# Static dielectric constant tensor:
#      x y z
#    x 1.792940 0.000000 0.000000 
#    y 0.000000 1.792940 0.000000 
#    z 0.000000 0.000000 1.711160 
# 
# From -- ./inp_files/4071.got.cif
#   From: 2010.05.17/outbox.ucp.g08.bks.cvg/sg82_3_cif.got.tgz:4071.got - 2010.06.11 10:34:38.
