data_PCOD9543873
_publ_section_title
;
Structure prediction by ZEFSAII (Michael W. Deem and Ramdas Pophale) SiO2 
 PCOD9543873
Probable space group: P 4/M
;
_chemical_formula_sum "Si O2"
_cell_formula_units_Z 44
_cell_length_a 8.102940
_cell_length_b 8.102940
_cell_length_c 31.422335
_cell_angle_alpha 90.000000
_cell_angle_beta 90.000000
_cell_angle_gamma 90.000000
_cell_volume 2063.116254
_symmetry_space_group_name_H-M "P 4/M"
_symmetry_group_IT_number 83
_symmetry_cell_setting 'tetragonal'
loop_
_space_group_symop_operation_xyz
x,y,z
-y,x,z
-x,-y,z
y,-x,z
-x,-y,-z
y,-x,-z
x,y,-z
-y,x,-z
loop_
_atom_site_type_symbol
_atom_site_label
_atom_site_fract_x
_atom_site_fract_y
_atom_site_fract_z
Si Si1 0.590146 0.763924 0.686818
Si Si2 0.736133 0.903652 0.954497
Si Si3 0.412934 0.235893 0.780723
Si Si4 0.000000 0.500000 0.616774
Si Si5 0.735493 0.911852 0.137331
Si Si6 0.592289 0.237298 0.452419
O O1 0.400563 0.699898 0.683838
O O2 0.616267 0.838959 0.733852
O O3 0.609103 0.888084 0.648184
O O4 0.652830 0.875951 0.908749
O O5 0.906125 0.798103 0.954505
O O6 0.650550 0.870702 0.000000
O O7 0.599795 0.300363 0.782573
O O8 0.368823 0.128975 0.821351
O O9 0.890159 0.611744 0.585471
O O10 0.900840 0.800002 0.138639
O O11 0.700713 0.402262 0.448930
O O12 0.617695 0.168361 0.500000
#
# Coordination Sequence:
#
# PCOD9543873 Si02
#       6
#     8   8   8   4   8   8
#     4   9  20  37  53  72  99 131 169 210 249 297
#     4   7  10  19  37  62  92 123 153 188 235 291
#     4   9  19  35  51  66  90 128 171 207 242 294
#     4  12  19  28  56  86 102 126 169 216 252 284
#     4   9  17  28  46  74 101 123 154 201 252 299
#     4   9  19  36  56  79 109 143 177 210 242 284
#
# _framework density 21.326958999999999
#
# number of rings (size 3 to 8) (size 9 to 14) (size 15 to 20)
#    0.000    3.091    0.000    4.636    0.000    5.091 
#    0.000    0.000    0.000    9.818    0.000   16.545 
#    0.000    0.000    0.000    0.000    0.000    0.000 
#
# Total GULP energy -245528.750987 kJ/mol
# GULP energy per Si atom -5580.198886 kJ/mol
# Density = 2.127842 g / cm^3
# Si number density = 21.326959 Si / 1000 Ang^3
#
#
#
# Elastic Constant Matrix: (Units=GPa)
#
#
# Indices 1 2 3 4 5 6 
#
# 1 42.2446 4.2061 51.8675 0.0000 0.0000 -1.1368
# 2 4.2061 42.2446 51.8675 0.0000 0.0000 1.1368
# 3 51.8675 51.8675 251.6061 0.0000 0.0000 0.0000
# 4 0.0000 0.0000 0.0000 76.8851 0.0000 0.0000
# 5 0.0000 0.0000 0.0000 0.0000 76.8851 0.0000
# 6 -1.1368 1.1368 0.0000 0.0000 0.0000 16.4617
#
#
#
# Elastic Compliance Matrix: (Units=1/GPa)
#
#
# Indices 1 2 3 4 5 6 
#
# 1 0.033146 0.006748 -0.008224 0.000000 0.000000 0.001823
# 2 0.006748 0.033146 -0.008224 0.000000 0.000000 -0.001823
# 3 -0.008224 -0.008224 0.007365 0.000000 0.000000 0.000000
# 4 0.000000 0.000000 0.000000 0.013006 0.000000 0.000000
# 5 0.000000 0.000000 0.000000 0.000000 0.013006 0.000000
# 6 0.001823 -0.001823 0.000000 0.000000 0.000000 0.060999
#
#
# Mechanical properties :
#
#
# Convention : Reuss Voigt Hill
#
# Bulk Modulus (GPa) = 18.43056 61.33085 39.88070
# Shear Modulus (GPa) = 25.23274 49.25667 37.24471
#
# Velocity S-wave (km/s) = 3.44341 4.81104 4.18349
# Velocity P-wave (km/s) = 4.94673 7.72537 6.48658
#
# Compressibility (1/GPa) = 0.05425772
#
# Stress axis : x y z
#
# Youngs Moduli (GPa) = 30.16933 30.16933 135.77409
#
# Poissons Ratio (x) = -0.20359 1.11661
# Poissons Ratio (y) = -0.20359 1.11661
# Poissons Ratio (z) = 0.24811 0.24811
#
# Static dielectric constant tensor:
#      x y z
#    x 1.794340 0.000000 0.000000 
#    y 0.000000 1.794340 0.000000 
#    z 0.000000 0.000000 1.827420 
# 
# From -- ./inp_files/3369.got.cif
#   From: 2010.05.17/outbox.cif.g08.bks.cpg/sg83_2_cif.got.tgz:3369.got - 2010.06.03 18:55:12.
