data_PCOD9543160
_publ_section_title
;
Structure prediction by ZEFSAII (Michael W. Deem and Ramdas Pophale) SiO2 
 PCOD9543160
Probable space group: I -4 
;
_chemical_formula_sum "Si O2"
_cell_formula_units_Z 24
_cell_length_a 10.764567
_cell_length_b 10.764567
_cell_length_c 7.658823
_cell_angle_alpha 90.000000
_cell_angle_beta 90.000000
_cell_angle_gamma 90.000000
_cell_volume 887.473029
_symmetry_space_group_name_H-M "I -4 "
_symmetry_group_IT_number 82
_symmetry_cell_setting 'tetragonal'
loop_
_space_group_symop_operation_xyz
x,y,z
y,-x,-z
-x,-y,z
-y,x,-z
1/2+x,1/2+y,1/2+z
1/2+y,1/2-x,1/2-z
1/2-x,1/2-y,1/2+z
1/2-y,1/2+x,1/2-z
loop_
_atom_site_type_symbol
_atom_site_label
_atom_site_fract_x
_atom_site_fract_y
_atom_site_fract_z
Si Si1 0.393393 0.341834 0.488321
Si Si2 0.651923 0.765034 0.840911
Si Si3 0.962141 0.326376 0.646044
O O1 0.363321 0.472273 0.587645
O O2 0.387473 0.240507 0.640633
O O3 0.279802 0.340556 0.355909
O O4 0.706890 0.627554 0.885786
O O5 0.552853 0.819890 0.976891
O O6 0.861324 0.436000 0.698609
#
# Coordination Sequence:
#
# PCOD9543160 Si02
#       3
#     8   8   8
#     4  11  28  50  78 119 165 224 298 362 447 543
#     4  12  26  49  85 117 169 232 284 371 456 527
#     4  11  26  50  81 125 171 228 291 366 444 538
#
# _framework density 27.043073
#
# number of rings (size 3 to 8) (size 9 to 14) (size 15 to 20)
#    0.000    0.667    3.333    2.000    9.333    3.333 
#    0.000    0.000    0.000    0.000    0.000    0.000 
#    0.000    0.000    0.000    0.000    0.000    0.000 
#
# Total GULP energy -66809.200280 kJ/mol
# GULP energy per Si atom -5567.433357 kJ/mol
# Density = 2.698152 g / cm^3
# Si number density = 27.043073 Si / 1000 Ang^3
#
#
#
# Elastic Constant Matrix: (Units=GPa)
#
#
# Indices 1 2 3 4 5 6 
#
# 1 81.5289 -2.3822 23.6329 0.0000 0.0000 -10.6450
# 2 -2.3822 81.5289 23.6329 0.0000 0.0000 10.6450
# 3 23.6329 23.6329 156.2740 0.0000 0.0000 0.0000
# 4 0.0000 0.0000 0.0000 35.3979 0.0000 0.0000
# 5 0.0000 0.0000 0.0000 0.0000 35.3979 0.0000
# 6 -10.6450 10.6450 0.0000 0.0000 0.0000 49.6850
#
#
#
# Elastic Compliance Matrix: (Units=1/GPa)
#
#
# Indices 1 2 3 4 5 6 
#
# 1 0.013246 0.000643 -0.002100 0.000000 0.000000 0.002700
# 2 0.000643 0.013246 -0.002100 0.000000 0.000000 -0.002700
# 3 -0.002100 -0.002100 0.007034 0.000000 0.000000 0.000000
# 4 0.000000 0.000000 0.000000 0.028250 0.000000 0.000000
# 5 0.000000 0.000000 0.000000 0.000000 0.028250 0.000000
# 6 0.002700 -0.002700 0.000000 0.000000 0.000000 0.021284
#
#
# Mechanical properties :
#
#
# Convention : Reuss Voigt Hill
#
# Bulk Modulus (GPa) = 37.86319 45.45545 41.65932
# Shear Modulus (GPa) = 39.29928 42.39269 40.84599
#
# Velocity S-wave (km/s) = 3.81624 3.96359 3.89061
# Velocity P-wave (km/s) = 5.78357 6.14750 5.96831
#
# Compressibility (1/GPa) = 0.02641087
#
# Stress axis : x y z
#
# Youngs Moduli (GPa) = 75.49570 75.49570 142.16058
#
# Poissons Ratio (x) = -0.04857 0.29860
# Poissons Ratio (y) = -0.04857 0.29860
# Poissons Ratio (z) = 0.15857 0.15857
#
# Static dielectric constant tensor:
#      x y z
#    x 2.268920 0.000000 0.000000 
#    y 0.000000 2.268920 0.000000 
#    z 0.000000 0.000000 2.330500 
# 
# From -- ./inp_files/594.got.cif
#   From: 2010.05.17/outbox.cif.g08.bks.cpg/sg82_1_cif.got.tgz:594.got - 2010.06.03 18:52:26.
