data_PCOD9543541
_publ_section_title
;
Structure prediction by ZEFSAII (Michael W. Deem and Ramdas Pophale) SiO2 
 PCOD9543541
Probable space group: P 4/M
;
_chemical_formula_sum "Si O2"
_cell_formula_units_Z 40
_cell_length_a 15.060624
_cell_length_b 15.060624
_cell_length_c 9.583898
_cell_angle_alpha 90.000000
_cell_angle_beta 90.000000
_cell_angle_gamma 90.000000
_cell_volume 2173.842700
_symmetry_space_group_name_H-M "P 4/M"
_symmetry_group_IT_number 83
_symmetry_cell_setting 'tetragonal'
loop_
_space_group_symop_operation_xyz
x,y,z
-y,x,z
-x,-y,z
y,-x,z
-x,-y,-z
y,-x,-z
x,y,-z
-y,x,-z
loop_
_atom_site_type_symbol
_atom_site_label
_atom_site_fract_x
_atom_site_fract_y
_atom_site_fract_z
Si Si1 0.860399 0.950349 0.500000
Si Si2 0.095396 0.881941 0.000000
Si Si3 0.929061 0.434581 0.159554
Si Si4 0.755700 0.865025 0.745208
Si Si5 0.730729 0.505064 0.836164
Si Si6 0.677119 0.329068 0.331907
O O1 0.802541 0.924068 0.630553
O O2 0.948899 0.891215 0.500000
O O3 0.133826 0.826325 0.129519
O O4 0.986708 0.879472 0.000000
O O5 0.911435 0.337705 0.219475
O O6 0.835245 0.484522 0.158454
O O7 0.000000 0.500000 0.229411
O O8 0.958563 0.419011 0.000000
O O9 0.729204 0.766005 0.695522
O O10 0.690267 0.423523 0.746845
O O11 0.713258 0.594051 0.749268
O O12 0.700005 0.508578 0.000000
O O13 0.664463 0.338109 0.500000
#
# Coordination Sequence:
#
# PCOD9543541 Si02
#       6
#     4   4   8   8   8   8
#     4  11  24  42  61  86 128 171 209 256 312 372
#     4  11  24  40  63  94 124 163 219 274 312 360
#     4   9  19  38  61  91 123 156 201 264 319 361
#     4  11  22  41  63  91 127 168 211 258 314 374
#     4  10  22  38  66  94 125 162 211 265 312 370
#     4  11  23  42  63  91 130 169 206 253 317 385
#
# _framework density 18.400594999999999
#
# number of rings (size 3 to 8) (size 9 to 14) (size 15 to 20)
#    0.000    1.600    2.000    2.400    2.800    5.200 
#    0.000    2.500    0.000    0.000    0.000    0.000 
#    0.000    0.000    0.000    0.000    0.000    0.000 
#
# Total GULP energy -223061.949482 kJ/mol
# GULP energy per Si atom -5576.548737 kJ/mol
# Density = 1.835871 g / cm^3
# Si number density = 18.400595 Si / 1000 Ang^3
#
#
#
# Elastic Constant Matrix: (Units=GPa)
#
#
# Indices 1 2 3 4 5 6 
#
# 1 95.0320 58.4905 42.9832 0.0000 0.0000 18.0838
# 2 58.4905 95.0320 42.9832 0.0000 0.0000 -18.0838
# 3 42.9832 42.9832 139.6795 0.0000 0.0000 0.0000
# 4 0.0000 0.0000 0.0000 46.1912 0.0000 0.0000
# 5 0.0000 0.0000 0.0000 0.0000 46.1912 0.0000
# 6 18.0838 -18.0838 0.0000 0.0000 0.0000 29.0263
#
#
#
# Elastic Compliance Matrix: (Units=1/GPa)
#
#
# Indices 1 2 3 4 5 6 
#
# 1 0.039627 -0.031758 -0.002422 0.000000 0.000000 -0.044474
# 2 -0.031758 0.039627 -0.002422 0.000000 0.000000 0.044474
# 3 -0.002422 -0.002422 0.008650 0.000000 0.000000 0.000000
# 4 0.000000 0.000000 0.000000 0.021649 0.000000 0.000000
# 5 0.000000 0.000000 0.000000 0.000000 0.021649 0.000000
# 6 -0.044474 0.044474 0.000000 0.000000 0.000000 0.089867
#
#
# Mechanical properties :
#
#
# Convention : Reuss Voigt Hill
#
# Bulk Modulus (GPa) = 68.01655 68.73968 68.37812
# Shear Modulus (GPa) = 16.71274 36.63420 26.67347
#
# Velocity S-wave (km/s) = 3.01702 4.46682 3.81149
# Velocity P-wave (km/s) = 7.01293 8.00261 7.52406
#
# Compressibility (1/GPa) = 0.01470230
#
# Stress axis : x y z
#
# Youngs Moduli (GPa) = 25.23508 25.23508 115.61068
#
# Poissons Ratio (x) = 0.80141 0.27998
# Poissons Ratio (y) = 0.80141 0.27998
# Poissons Ratio (z) = 0.06111 0.06111
#
# Static dielectric constant tensor:
#      x y z
#    x 1.623180 0.000000 0.000000 
#    y 0.000000 1.623180 0.000000 
#    z 0.000000 0.000000 1.606370 
# 
# From -- ./inp_files/755.got.cif
#   From: 2010.05.17/outbox.cif.g08.bks.cpg/sg83_1_cif.got.tgz:755.got - 2010.06.03 18:55:12.
