data_PCOD9543908
_publ_section_title
;
Structure prediction by ZEFSAII (Michael W. Deem and Ramdas Pophale) SiO2 
 PCOD9543908
Probable space group: P 4/M
;
_chemical_formula_sum "Si O2"
_cell_formula_units_Z 36
_cell_length_a 7.422112
_cell_length_b 7.422112
_cell_length_c 25.785358
_cell_angle_alpha 90.000000
_cell_angle_beta 90.000000
_cell_angle_gamma 90.000000
_cell_volume 1420.457266
_symmetry_space_group_name_H-M "P 4/M"
_symmetry_group_IT_number 83
_symmetry_cell_setting 'tetragonal'
loop_
_space_group_symop_operation_xyz
x,y,z
-y,x,z
-x,-y,z
y,-x,z
-x,-y,-z
y,-x,-z
x,y,-z
-y,x,-z
loop_
_atom_site_type_symbol
_atom_site_label
_atom_site_fract_x
_atom_site_fract_y
_atom_site_fract_z
Si Si1 0.723759 0.134610 0.110898
Si Si2 0.777354 0.632075 0.444561
Si Si3 0.725950 0.138524 0.000000
Si Si4 0.277921 0.883571 0.221032
Si Si5 0.221876 0.384225 0.334391
O O1 0.629132 0.169574 0.166326
O O2 0.920696 0.229137 0.110662
O O3 0.635419 0.180393 0.055449
O O4 0.581358 0.728349 0.444762
O O5 0.867259 0.675299 0.500000
O O6 0.871548 0.667846 0.389115
O O7 0.923910 0.230682 0.000000
O O8 0.356791 0.856486 0.277689
O O9 0.092163 0.774113 0.219471
O O10 0.407313 0.274290 0.335963
#
# Coordination Sequence:
#
# PCOD9543908 Si02
#       5
#     8   8   4   8   8
#     4   7  10  17  30  50  75 100 126 158 196 235
#     4   7  10  19  37  59  79  97 121 160 207 243
#     4   7   8  12  26  48  72  95 120 156 200 235
#     4   9  17  28  41  59  85 114 139 162 194 240
#     4   9  17  28  43  64  85 104 132 169 204 239
#
# _framework density 25.343951000000001
#
# number of rings (size 3 to 8) (size 9 to 14) (size 15 to 20)
#    0.000    4.111    0.000    4.667    0.000    0.889 
#    0.000    0.000    0.000    1.333    0.000    9.333 
#    0.000   10.667    0.000    0.000    0.000    0.000 
#
# Total GULP energy -200695.835258 kJ/mol
# GULP energy per Si atom -5574.884313 kJ/mol
# Density = 2.528627 g / cm^3
# Si number density = 25.343951 Si / 1000 Ang^3
#
#
#
# Elastic Constant Matrix: (Units=GPa)
#
#
# Indices 1 2 3 4 5 6 
#
# 1 89.0412 -54.4727 41.5238 0.0000 0.0000 1.0478
# 2 -54.4727 89.0412 41.5238 0.0000 0.0000 -1.0478
# 3 41.5238 41.5238 390.8644 0.0000 0.0000 0.0000
# 4 0.0000 0.0000 0.0000 56.9631 0.0000 0.0000
# 5 0.0000 0.0000 0.0000 0.0000 56.9631 0.0000
# 6 1.0478 -1.0478 0.0000 0.0000 0.0000 27.4284
#
#
#
# Elastic Compliance Matrix: (Units=1/GPa)
#
#
# Indices 1 2 3 4 5 6 
#
# 1 0.022906 0.015935 -0.004126 0.000000 0.000000 -0.000266
# 2 0.015935 0.022906 -0.004126 0.000000 0.000000 0.000266
# 3 -0.004126 -0.004126 0.003435 0.000000 0.000000 0.000000
# 4 0.000000 0.000000 0.000000 0.017555 0.000000 0.000000
# 5 0.000000 0.000000 0.000000 0.000000 0.017555 0.000000
# 6 -0.000266 0.000266 0.000000 0.000000 0.000000 0.036479
#
#
# Mechanical properties :
#
#
# Convention : Reuss Voigt Hill
#
# Bulk Modulus (GPa) = 15.47700 69.56629 42.52165
# Shear Modulus (GPa) = 39.36675 64.29573 51.83124
#
# Velocity S-wave (km/s) = 3.94547 5.04226 4.52720
# Velocity P-wave (km/s) = 5.18417 7.83630 6.64392
#
# Compressibility (1/GPa) = 0.06461201
#
# Stress axis : x y z
#
# Youngs Moduli (GPa) = 43.65583 43.65583 291.10765
#
# Poissons Ratio (x) = -0.69564 1.20120
# Poissons Ratio (y) = -0.69564 1.20120
# Poissons Ratio (z) = 0.18014 0.18014
#
# Static dielectric constant tensor:
#      x y z
#    x 2.003180 0.000000 0.000000 
#    y 0.000000 2.003180 0.000000 
#    z 0.000000 0.000000 2.133210 
# 
# From -- ./inp_files/3098.got.cif
#   From: 2010.05.17/outbox.cif.g08.bks.cpg/sg83_2_cif.got.tgz:3098.got - 2010.06.03 18:55:12.
