data_PCOD9543124
_publ_section_title
;
Structure prediction by ZEFSAII (Michael W. Deem and Ramdas Pophale) SiO2 
 PCOD9543124
Probable space group: I -4 
;
_chemical_formula_sum "Si O2"
_cell_formula_units_Z 36
_cell_length_a 14.514105
_cell_length_b 14.514105
_cell_length_c 6.889211
_cell_angle_alpha 90.000000
_cell_angle_beta 90.000000
_cell_angle_gamma 90.000000
_cell_volume 1451.275981
_symmetry_space_group_name_H-M "I -4 "
_symmetry_group_IT_number 82
_symmetry_cell_setting 'tetragonal'
loop_
_space_group_symop_operation_xyz
x,y,z
y,-x,-z
-x,-y,z
-y,x,-z
1/2+x,1/2+y,1/2+z
1/2+y,1/2-x,1/2-z
1/2-x,1/2-y,1/2+z
1/2-y,1/2+x,1/2-z
loop_
_atom_site_type_symbol
_atom_site_label
_atom_site_fract_x
_atom_site_fract_y
_atom_site_fract_z
Si Si1 0.500000 0.000000 0.250000
Si Si2 0.714843 0.408955 0.666321
Si Si3 0.699411 0.468878 0.103448
Si Si4 0.000000 0.000000 0.500000
Si Si5 0.885406 0.183558 0.873999
Si Si6 0.158386 0.406790 0.939497
O O1 0.486340 0.912163 0.116785
O O2 0.662938 0.505332 0.613516
O O3 0.658708 0.322030 0.585143
O O4 0.813419 0.401250 0.556089
O O5 0.722471 0.417561 0.898361
O O6 0.677051 0.390011 0.257699
O O7 0.599110 0.517704 0.095547
O O8 0.777446 0.548459 0.105971
O O9 0.885654 0.274439 0.743324
#
# Coordination Sequence:
#
# PCOD9543124 Si02
#       6
#     2   8   8   2   8   8
#     4  12  20  48  76 102 148 208 250 304 388 454
#     4  11  26  43  69 109 147 188 253 308 376 461
#     4  11  24  45  71 103 147 191 244 313 382 448
#     4  12  20  40  70 104 140 186 240 304 382 428
#     4  11  26  43  72 107 142 196 243 318 378 459
#     4  11  24  45  70 107 144 197 250 305 379 462
#
# _framework density 24.805755999999999
#
# number of rings (size 3 to 8) (size 9 to 14) (size 15 to 20)
#    0.000    0.889    8.889    0.000    6.222    0.444 
#    0.000    0.000    0.000    0.000    0.000    0.000 
#    0.000    0.000    0.000    0.000    0.000    0.000 
#
# Total GULP energy -100351.477970 kJ/mol
# GULP energy per Si atom -5575.082109 kJ/mol
# Density = 2.474930 g / cm^3
# Si number density = 24.805756 Si / 1000 Ang^3
#
#
#
# Elastic Constant Matrix: (Units=GPa)
#
#
# Indices 1 2 3 4 5 6 
#
# 1 104.9351 44.4787 33.3748 0.0000 0.0000 -7.0503
# 2 44.4787 104.9351 33.3748 0.0000 0.0000 7.0503
# 3 33.3748 33.3748 44.9663 0.0000 0.0000 0.0000
# 4 0.0000 0.0000 0.0000 26.8638 0.0000 0.0000
# 5 0.0000 0.0000 0.0000 0.0000 26.8638 0.0000
# 6 -7.0503 7.0503 0.0000 0.0000 0.0000 45.3667
#
#
#
# Elastic Compliance Matrix: (Units=1/GPa)
#
#
# Indices 1 2 3 4 5 6 
#
# 1 0.013588 -0.003575 -0.007432 0.000000 0.000000 0.002667
# 2 -0.003575 0.013588 -0.007432 0.000000 0.000000 -0.002667
# 3 -0.007432 -0.007432 0.033271 0.000000 0.000000 0.000000
# 4 0.000000 0.000000 0.000000 0.037225 0.000000 0.000000
# 5 0.000000 0.000000 0.000000 0.000000 0.037225 0.000000
# 6 0.002667 -0.002667 0.000000 0.000000 0.000000 0.022872
#
#
# Mechanical properties :
#
#
# Convention : Reuss Voigt Hill
#
# Bulk Modulus (GPa) = 42.42749 53.03258 47.73003
# Shear Modulus (GPa) = 24.69117 29.39276 27.04197
#
# Velocity S-wave (km/s) = 3.15839 3.44600 3.30532
# Velocity P-wave (km/s) = 5.51739 6.10399 5.81809
#
# Compressibility (1/GPa) = 0.02356962
#
# Stress axis : x y z
#
# Youngs Moduli (GPa) = 73.59474 73.59474 30.05632
#
# Poissons Ratio (x) = 0.26310 0.22337
# Poissons Ratio (y) = 0.26310 0.22337
# Poissons Ratio (z) = 0.54694 0.54694
#
# Static dielectric constant tensor:
#      x y z
#    x 2.025970 0.000000 0.000000 
#    y 0.000000 2.025970 0.000000 
#    z 0.000000 0.000000 2.148600 
# 
# From -- ./inp_files/893.got.cif
#   From: 2010.05.17/outbox.cif.g08.bks.cpg/sg82_1_cif.got.tgz:893.got - 2010.06.03 18:52:26.
