data_PCOD9543294
_publ_section_title
;
Structure prediction by ZEFSAII (Michael W. Deem and Ramdas Pophale) SiO2 
 PCOD9543294
Probable space group: P 4/M
;
_chemical_formula_sum "Si O2"
_cell_formula_units_Z 64
_cell_length_a 20.451417
_cell_length_b 20.451417
_cell_length_c 9.144694
_cell_angle_alpha 90.000000
_cell_angle_beta 90.000000
_cell_angle_gamma 90.000000
_cell_volume 3824.863894
_symmetry_space_group_name_H-M "P 4/M"
_symmetry_group_IT_number 83
_symmetry_cell_setting 'tetragonal'
loop_
_space_group_symop_operation_xyz
x,y,z
-y,x,z
-x,-y,z
y,-x,z
-x,-y,-z
y,-x,-z
x,y,-z
-y,x,-z
loop_
_atom_site_type_symbol
_atom_site_label
_atom_site_fract_x
_atom_site_fract_y
_atom_site_fract_z
Si Si1 0.928014 0.355036 0.676081
Si Si2 0.231511 0.460409 0.673504
Si Si3 0.419924 0.425182 0.160085
Si Si4 0.492921 0.101427 0.173076
Si Si5 0.209938 0.700963 0.321887
Si Si6 0.939298 0.638922 0.174574
Si Si7 0.805211 0.683530 0.674948
Si Si8 0.305202 0.588092 0.672491
O O1 0.932918 0.356124 0.500000
O O2 0.914972 0.428556 0.734857
O O3 0.865590 0.310176 0.718922
O O4 0.995968 0.333585 0.748809
O O5 0.214699 0.468467 0.500000
O O6 0.173092 0.484805 0.775863
O O7 0.237626 0.382827 0.697253
O O8 0.288280 0.512430 0.705559
O O9 0.497822 0.413585 0.170392
O O10 0.391064 0.376742 0.277095
O O11 0.396711 0.404308 0.000000
O O12 0.559836 0.060947 0.200681
O O13 0.478457 0.097460 0.000000
O O14 0.211000 0.701077 0.500000
O O15 0.252501 0.764309 0.277472
O O16 0.250039 0.637079 0.268945
O O17 0.873448 0.669612 0.243283
O O18 0.939870 0.648170 0.000000
O O19 0.817300 0.688294 0.500000
O O20 0.303088 0.593824 0.500000
#
# Coordination Sequence:
#
# PCOD9543294 Si02
#       8
#     8   8   8   8   8   8   8   8
#     4  11  20  33  52  74 101 135 171 207 251 303
#     4   9  17  30  48  68  93 125 163 200 243 298
#     4   9  20  37  49  59  82 116 157 208 263 317
#     4  10  19  31  47  69 100 132 163 205 249 288
#     4   9  19  34  51  73 103 130 162 208 252 295
#     4  10  21  35  50  73 103 132 168 213 251 293
#     4   9  18  34  54  72  95 133 169 201 248 301
#     4  10  19  31  49  72  94 118 156 209 254 296
#
# _framework density 16.732621000000002
#
# number of rings (size 3 to 8) (size 9 to 14) (size 15 to 20)
#    0.000    2.375    1.250    1.875    1.750    4.000 
#    0.000    2.500    0.000    0.000    0.000    0.000 
#    0.000    0.500    0.000    5.750    0.000    2.250 
#
# Total GULP energy -356522.283159 kJ/mol
# GULP energy per Si atom -5570.660674 kJ/mol
# Density = 1.669454 g / cm^3
# Si number density = 16.732621 Si / 1000 Ang^3
#
#
#
# Elastic Constant Matrix: (Units=GPa)
#
#
# Indices 1 2 3 4 5 6 
#
# 1 69.3223 55.7511 38.6239 0.0000 0.0000 2.3320
# 2 55.7511 69.3223 38.6239 0.0000 0.0000 -2.3320
# 3 38.6239 38.6239 29.4144 0.0000 0.0000 0.0000
# 4 0.0000 0.0000 0.0000 0.5608 0.0000 0.0000
# 5 0.0000 0.0000 0.0000 0.0000 0.5608 0.0000
# 6 2.3320 -2.3320 0.0000 0.0000 0.0000 18.6551
#
#
#
# Elastic Compliance Matrix: (Units=1/GPa)
#
#
# Indices 1 2 3 4 5 6 
#
# 1 0.059648 -0.017346 -0.055547 0.000000 0.000000 -0.009625
# 2 -0.017346 0.059648 -0.055547 0.000000 0.000000 0.009625
# 3 -0.055547 -0.055547 0.179875 0.000000 0.000000 0.000000
# 4 0.000000 0.000000 0.000000 1.783024 0.000000 0.000000
# 5 0.000000 0.000000 0.000000 0.000000 1.783024 0.000000
# 6 -0.009625 0.009625 0.000000 0.000000 0.000000 0.056011
#
#
# Mechanical properties :
#
#
# Convention : Reuss Voigt Hill
#
# Bulk Modulus (GPa) = 23.64580 48.22854 35.93717
# Shear Modulus (GPa) = 1.19269 6.29268 3.74268
#
# Velocity S-wave (km/s) = 0.84519 1.94136 1.49720
# Velocity P-wave (km/s) = 3.88776 5.82330 4.95104
#
# Compressibility (1/GPa) = 0.04229081
#
# Stress axis : x y z
#
# Youngs Moduli (GPa) = 16.76506 16.76506 5.55943
#
# Poissons Ratio (x) = 0.29080 0.30881
# Poissons Ratio (y) = 0.29080 0.30881
# Poissons Ratio (z) = 0.93125 0.93125
#
# Static dielectric constant tensor:
#      x y z
#    x 1.585800 0.000000 0.000000 
#    y 0.000000 1.585800 0.000000 
#    z 0.000000 0.000000 1.563720 
# 
# From -- ./inp_files/1322.got.cif
#   From: 2010.05.17/outbox.cif.g08.bks.cpg/sg83_1_cif.got.tgz:1322.got - 2010.06.03 18:55:12.
