data_PCOD9543644
_publ_section_title
;
Structure prediction by ZEFSAII (Michael W. Deem and Ramdas Pophale) SiO2 
 PCOD9543644
Probable space group: P 4/M
;
_chemical_formula_sum "Si O2"
_cell_formula_units_Z 40
_cell_length_a 15.109821
_cell_length_b 15.109821
_cell_length_c 8.311629
_cell_angle_alpha 90.000000
_cell_angle_beta 90.000000
_cell_angle_gamma 90.000000
_cell_volume 1897.600511
_symmetry_space_group_name_H-M "P 4/M"
_symmetry_group_IT_number 83
_symmetry_cell_setting 'tetragonal'
loop_
_space_group_symop_operation_xyz
x,y,z
-y,x,z
-x,-y,z
y,-x,z
-x,-y,-z
y,-x,-z
x,y,-z
-y,x,-z
loop_
_atom_site_type_symbol
_atom_site_label
_atom_site_fract_x
_atom_site_fract_y
_atom_site_fract_z
Si Si1 0.888708 0.304380 0.688879
Si Si2 0.053774 0.412458 0.304856
Si Si3 0.744080 0.591033 0.687830
Si Si4 0.081797 0.881026 0.193403
Si Si5 0.277437 0.597089 0.816129
O O1 0.877188 0.324124 0.500000
O O2 0.872939 0.201587 0.722858
O O3 0.819669 0.363129 0.785430
O O4 0.988823 0.331349 0.734611
O O5 0.060035 0.418811 0.500000
O O6 0.154641 0.404493 0.247339
O O7 0.000000 0.500000 0.251160
O O8 0.745312 0.616076 0.500000
O O9 0.713286 0.489771 0.707629
O O10 0.675076 0.654609 0.774829
O O11 0.977573 0.881965 0.236503
O O12 0.088286 0.871760 0.000000
O O13 0.287922 0.569301 0.000000
#
# Coordination Sequence:
#
# PCOD9543644 Si02
#       5
#     8   8   8   8   8
#     4  11  22  38  62  92 123 164 213 264 314 374
#     4   9  18  37  64  92 122 154 199 257 307 356
#     4  11  23  44  71  97 126 168 215 265 320 380
#     4   9  20  39  58  81 121 168 209 258 322 382
#     4  12  26  44  64  95 133 168 210 265 325 387
#
# _framework density 21.079253000000001
#
# number of rings (size 3 to 8) (size 9 to 14) (size 15 to 20)
#    0.000    1.600    2.000    3.600    2.800    1.200 
#    0.000    7.000    0.000    0.000    0.000    0.000 
#    0.000    0.000    0.000    0.000    0.000    0.000 
#
# Total GULP energy -223562.070577 kJ/mol
# GULP energy per Si atom -5589.051764 kJ/mol
# Density = 2.103128 g / cm^3
# Si number density = 21.079253 Si / 1000 Ang^3
#
#
#
# Elastic Constant Matrix: (Units=GPa)
#
#
# Indices 1 2 3 4 5 6 
#
# 1 72.3385 19.9708 -4.4581 0.0000 0.0000 10.9762
# 2 19.9708 72.3385 -4.4581 0.0000 0.0000 -10.9762
# 3 -4.4581 -4.4581 21.8988 0.0000 0.0000 0.0000
# 4 0.0000 0.0000 0.0000 11.2852 0.0000 0.0000
# 5 0.0000 0.0000 0.0000 0.0000 11.2852 0.0000
# 6 10.9762 -10.9762 0.0000 0.0000 0.0000 29.7203
#
#
#
# Elastic Compliance Matrix: (Units=1/GPa)
#
#
# Indices 1 2 3 4 5 6 
#
# 1 0.016822 -0.005772 0.002250 0.000000 0.000000 -0.008344
# 2 -0.005772 0.016822 0.002250 0.000000 0.000000 0.008344
# 3 0.002250 0.002250 0.046581 0.000000 0.000000 0.000000
# 4 0.000000 0.000000 0.000000 0.088612 0.000000 0.000000
# 5 0.000000 0.000000 0.000000 0.000000 0.088612 0.000000
# 6 -0.008344 0.008344 0.000000 0.000000 0.000000 0.039810
#
#
# Mechanical properties :
#
#
# Convention : Reuss Voigt Hill
#
# Bulk Modulus (GPa) = 12.87333 20.96501 16.91917
# Shear Modulus (GPa) = 15.35172 20.82623 18.08897
#
# Velocity S-wave (km/s) = 2.70161 3.14665 2.93258
# Velocity P-wave (km/s) = 3.98145 4.81345 4.41708
#
# Compressibility (1/GPa) = 0.07767996
#
# Stress axis : x y z
#
# Youngs Moduli (GPa) = 59.44595 59.44595 21.46816
#
# Poissons Ratio (x) = 0.34310 -0.04830
# Poissons Ratio (y) = 0.34310 -0.04830
# Poissons Ratio (z) = -0.13373 -0.13373
#
# Static dielectric constant tensor:
#      x y z
#    x 1.750310 0.000000 0.000000 
#    y 0.000000 1.750310 0.000000 
#    z 0.000000 0.000000 1.725130 
# 
# From -- ./inp_files/662.got.cif
#   From: 2010.05.17/outbox.cif.g08.bks.cpg/sg83_1_cif.got.tgz:662.got - 2010.06.03 18:55:12.
