data_PCOD9543491
_publ_section_title
;
Structure prediction by ZEFSAII (Michael W. Deem and Ramdas Pophale) SiO2 
 PCOD9543491
Probable space group: P 4/M
;
_chemical_formula_sum "Si O2"
_cell_formula_units_Z 56
_cell_length_a 14.993861
_cell_length_b 14.993861
_cell_length_c 13.381993
_cell_angle_alpha 90.000000
_cell_angle_beta 90.000000
_cell_angle_gamma 90.000000
_cell_volume 3008.484368
_symmetry_space_group_name_H-M "P 4/M"
_symmetry_group_IT_number 83
_symmetry_cell_setting 'tetragonal'
loop_
_space_group_symop_operation_xyz
x,y,z
-y,x,z
-x,-y,z
y,-x,z
-x,-y,-z
y,-x,-z
x,y,-z
-y,x,-z
loop_
_atom_site_type_symbol
_atom_site_label
_atom_site_fract_x
_atom_site_fract_y
_atom_site_fract_z
Si Si1 0.723512 0.163131 0.382123
Si Si2 0.068438 0.417585 0.114475
Si Si3 0.139655 0.055130 0.891007
Si Si4 0.829630 0.346178 0.618893
Si Si5 0.992603 0.270801 0.265997
Si Si6 0.361207 0.446878 0.391541
Si Si7 0.459477 0.802060 0.716655
O O1 0.735837 0.150522 0.500000
O O2 0.763855 0.261732 0.357938
O O3 0.766250 0.080893 0.320786
O O4 0.618668 0.154928 0.352064
O O5 0.025948 0.338837 0.180216
O O6 0.155540 0.449252 0.175012
O O7 0.000000 0.500000 0.114977
O O8 0.085578 0.391219 0.000000
O O9 0.048768 0.110834 0.888255
O O10 0.200185 0.066555 0.795013
O O11 0.182695 0.072389 0.000000
O O12 0.824228 0.360539 0.500000
O O13 0.811362 0.440633 0.673452
O O14 0.928237 0.317102 0.653858
O O15 0.450410 0.390291 0.391476
O O16 0.315772 0.428861 0.500000
O O17 0.300872 0.433824 0.296078
#
# Coordination Sequence:
#
# PCOD9543491 Si02
#       7
#     8   8   8   8   8   8   8
#     4  10  22  35  51  78 111 143 176 217 258 309
#     4  10  21  38  54  74 101 132 174 220 266 316
#     4   9  18  33  54  79 103 129 169 221 268 307
#     4  11  22  35  53  80 109 141 180 215 257 317
#     4  11  20  35  55  77 105 143 173 214 261 321
#     4   9  17  30  52  82 113 146 183 222 264 312
#     4  11  20  34  56  78 104 143 178 219 270 314
#
# _framework density 18.614024000000001
#
# number of rings (size 3 to 8) (size 9 to 14) (size 15 to 20)
#    0.000    1.857    1.429    4.714    0.000    2.286 
#    0.000    2.143    0.000    8.571    0.000    7.000 
#    0.000    0.000    0.000    0.000    0.000    0.000 
#
# Total GULP energy -312113.512058 kJ/mol
# GULP energy per Si atom -5573.455572 kJ/mol
# Density = 1.857166 g / cm^3
# Si number density = 18.614024 Si / 1000 Ang^3
#
#
#
# Elastic Constant Matrix: (Units=GPa)
#
#
# Indices 1 2 3 4 5 6 
#
# 1 64.2354 -6.8571 28.2464 0.0000 0.0000 -1.8574
# 2 -6.8571 64.2354 28.2464 0.0000 0.0000 1.8574
# 3 28.2464 28.2464 87.7287 0.0000 0.0000 0.0000
# 4 0.0000 0.0000 0.0000 25.2207 0.0000 0.0000
# 5 0.0000 0.0000 0.0000 0.0000 25.2207 0.0000
# 6 -1.8574 1.8574 0.0000 0.0000 0.0000 17.3002
#
#
#
# Elastic Compliance Matrix: (Units=1/GPa)
#
#
# Indices 1 2 3 4 5 6 
#
# 1 0.019831 0.005686 -0.008216 0.000000 0.000000 0.001519
# 2 0.005686 0.019831 -0.008216 0.000000 0.000000 -0.001519
# 3 -0.008216 -0.008216 0.016689 0.000000 0.000000 0.000000
# 4 0.000000 0.000000 0.000000 0.039650 0.000000 0.000000
# 5 0.000000 0.000000 0.000000 0.000000 0.039650 0.000000
# 6 0.001519 -0.001519 0.000000 0.000000 0.000000 0.058129
#
#
# Mechanical properties :
#
#
# Convention : Reuss Voigt Hill
#
# Bulk Modulus (GPa) = 28.68587 35.05234 31.86910
# Shear Modulus (GPa) = 22.03679 24.65256 23.34467
#
# Velocity S-wave (km/s) = 3.44449 3.64319 3.54523
# Velocity P-wave (km/s) = 5.59139 6.04724 5.82378
#
# Compressibility (1/GPa) = 0.03486037
#
# Stress axis : x y z
#
# Youngs Moduli (GPa) = 50.42494 50.42494 59.91815
#
# Poissons Ratio (x) = -0.28671 0.49228
# Poissons Ratio (y) = -0.28671 0.49228
# Poissons Ratio (z) = 0.41429 0.41429
#
# Static dielectric constant tensor:
#      x y z
#    x 1.681860 0.000000 0.000000 
#    y 0.000000 1.681860 0.000000 
#    z 0.000000 0.000000 1.633540 
# 
# From -- ./inp_files/1951.got.cif
#   From: 2010.05.17/outbox.cif.g08.bks.cpg/sg83_1_cif.got.tgz:1951.got - 2010.06.03 18:55:12.
