data_PCOD9543726
_publ_section_title
;
Structure prediction by ZEFSAII (Michael W. Deem and Ramdas Pophale) SiO2 
 PCOD9543726
Probable space group: P 4/M
;
_chemical_formula_sum "Si O2"
_cell_formula_units_Z 32
_cell_length_a 8.270018
_cell_length_b 8.270018
_cell_length_c 22.502581
_cell_angle_alpha 90.000000
_cell_angle_beta 90.000000
_cell_angle_gamma 90.000000
_cell_volume 1539.023472
_symmetry_space_group_name_H-M "P 4/M"
_symmetry_group_IT_number 83
_symmetry_cell_setting 'tetragonal'
loop_
_space_group_symop_operation_xyz
x,y,z
-y,x,z
-x,-y,z
y,-x,z
-x,-y,-z
y,-x,-z
x,y,-z
-y,x,-z
loop_
_atom_site_type_symbol
_atom_site_label
_atom_site_fract_x
_atom_site_fract_y
_atom_site_fract_z
Si Si1 0.586617 0.758447 0.067178
Si Si2 0.739535 0.076813 0.500000
Si Si3 0.758590 0.586359 0.256096
Si Si4 0.759026 0.586836 0.390167
Si Si5 0.000000 0.500000 0.161549
O O1 0.401382 0.695426 0.073260
O O2 0.607079 0.889484 0.118001
O O3 0.608468 0.821365 0.000000
O O4 0.639220 0.120251 0.441346
O O5 0.896268 0.193526 0.500000
O O6 0.598815 0.695373 0.250138
O O7 0.822621 0.608960 0.323076
O O8 0.889170 0.606743 0.205091
O O9 0.596754 0.696006 0.396021
#
# Coordination Sequence:
#
# PCOD9543726 Si02
#       5
#     8   4   8   8   4
#     4   9  19  36  56  79 109 144 183 226 266 310
#     4  11  24  37  52  80 116 147 176 219 276 332
#     4   9  20  37  55  79 110 141 179 226 269 317
#     4   9  19  37  59  80 103 137 185 232 269 316
#     4  12  19  28  56  87 108 136 178 222 272 321
#
# _framework density 20.792407999999998
#
# number of rings (size 3 to 8) (size 9 to 14) (size 15 to 20)
#    0.000    2.375    0.000    4.875    0.000    9.000 
#    0.000    0.000    0.000   12.000    0.000   14.000 
#    0.000    0.000    0.000    0.000    0.000    0.000 
#
# Total GULP energy -178871.420851 kJ/mol
# GULP energy per Si atom -5589.731902 kJ/mol
# Density = 2.074508 g / cm^3
# Si number density = 20.792408 Si / 1000 Ang^3
#
#
#
# Elastic Constant Matrix: (Units=GPa)
#
#
# Indices 1 2 3 4 5 6 
#
# 1 66.1702 15.1995 66.7698 0.0000 0.0000 -0.2028
# 2 15.1995 66.1702 66.7698 0.0000 0.0000 0.2028
# 3 66.7698 66.7698 198.9231 0.0000 0.0000 0.0000
# 4 0.0000 0.0000 0.0000 8.6040 0.0000 0.0000
# 5 0.0000 0.0000 0.0000 0.0000 8.6040 0.0000
# 6 -0.2028 0.2028 0.0000 0.0000 0.0000 19.5988
#
#
#
# Elastic Compliance Matrix: (Units=1/GPa)
#
#
# Indices 1 2 3 4 5 6 
#
# 1 0.023492 0.003871 -0.009184 0.000000 0.000000 0.000203
# 2 0.003871 0.023492 -0.009184 0.000000 0.000000 -0.000203
# 3 -0.009184 -0.009184 0.011193 0.000000 0.000000 0.000000
# 4 0.000000 0.000000 0.000000 0.116225 0.000000 0.000000
# 5 0.000000 0.000000 0.000000 0.000000 0.116225 0.000000
# 6 0.000203 -0.000203 0.000000 0.000000 0.000000 0.051028
#
#
# Mechanical properties :
#
#
# Convention : Reuss Voigt Hill
#
# Bulk Modulus (GPa) = 34.26982 69.86020 52.06501
# Shear Modulus (GPa) = 13.14486 19.52965 16.33725
#
# Velocity S-wave (km/s) = 2.51708 3.06807 2.80613
# Velocity P-wave (km/s) = 4.99652 6.79872 5.96606
#
# Compressibility (1/GPa) = 0.02918019
#
# Stress axis : x y z
#
# Youngs Moduli (GPa) = 42.56826 42.56826 89.34390
#
# Poissons Ratio (x) = -0.16478 0.82057
# Poissons Ratio (y) = -0.16478 0.82057
# Poissons Ratio (z) = 0.39097 0.39097
#
# Static dielectric constant tensor:
#      x y z
#    x 1.748680 0.000000 0.000000 
#    y 0.000000 1.748680 0.000000 
#    z 0.000000 0.000000 1.755520 
# 
# From -- ./inp_files/3073.got.cif
#   From: 2010.05.17/outbox.cif.g08.bks.cpg/sg83_2_cif.got.tgz:3073.got - 2010.06.03 18:55:12.
