data_PCOD9543052
_publ_section_title
;
Structure prediction by ZEFSAII (Michael W. Deem and Ramdas Pophale) SiO2 
 PCOD9543052
Probable space group: I -4 
;
_chemical_formula_sum "Si O2"
_cell_formula_units_Z 56
_cell_length_a 15.497483
_cell_length_b 15.497483
_cell_length_c 12.007646
_cell_angle_alpha 90.000000
_cell_angle_beta 90.000000
_cell_angle_gamma 90.000000
_cell_volume 2883.900107
_symmetry_space_group_name_H-M "I -4 "
_symmetry_group_IT_number 82
_symmetry_cell_setting 'tetragonal'
loop_
_space_group_symop_operation_xyz
x,y,z
y,-x,-z
-x,-y,z
-y,x,-z
1/2+x,1/2+y,1/2+z
1/2+y,1/2-x,1/2-z
1/2-x,1/2-y,1/2+z
1/2-y,1/2+x,1/2-z
loop_
_atom_site_type_symbol
_atom_site_label
_atom_site_fract_x
_atom_site_fract_y
_atom_site_fract_z
Si Si1 0.593270 0.121612 0.433237
Si Si2 0.403224 0.080746 0.462514
Si Si3 0.856320 0.285376 0.722194
Si Si4 0.324273 0.783163 0.642964
Si Si5 0.127350 0.063074 0.138903
Si Si6 0.127752 0.062846 0.870080
Si Si7 0.611636 0.081076 0.785447
O O1 0.488982 0.131450 0.417805
O O2 0.641472 0.140807 0.317858
O O3 0.640958 0.180574 0.524913
O O4 0.590412 0.022762 0.473890
O O5 0.324681 0.090318 0.378967
O O6 0.393467 0.115709 0.586585
O O7 0.766209 0.263660 0.662423
O O8 0.897217 0.203703 0.787479
O O9 0.394534 0.712290 0.681438
O O10 0.317507 0.867786 0.718699
O O11 0.036670 0.111664 0.159841
O O12 0.112311 0.961003 0.159665
O O13 0.139768 0.069792 0.004734
O O14 0.520953 0.111582 0.731293
#
# Coordination Sequence:
#
# PCOD9543052 Si02
#       7
#     8   8   8   8   8   8   8
#     4  11  23  46  63  95 133 170 224 267 347 409
#     4  11  24  43  69  92 129 184 212 277 352 402
#     4  12  27  37  64 101 137 165 222 284 336 406
#     4  12  25  37  66  96 125 168 218 282 320 400
#     4   9  20  40  62  91 125 169 222 269 330 398
#     4   9  20  39  65  87 123 177 216 267 334 393
#     4  11  21  42  65  93 123 167 221 270 329 397
#
# _framework density 19.418147999999999
#
# number of rings (size 3 to 8) (size 9 to 14) (size 15 to 20)
#    0.000    1.286    4.286    2.571    8.000    1.143 
#    0.000    0.000    0.000    0.000    0.000    2.000 
#    0.000    0.000    0.000    0.000    0.000    0.000 
#
# Total GULP energy -156061.654500 kJ/mol
# GULP energy per Si atom -5573.630518 kJ/mol
# Density = 1.937395 g / cm^3
# Si number density = 19.418148 Si / 1000 Ang^3
#
#
#
# Elastic Constant Matrix: (Units=GPa)
#
#
# Indices 1 2 3 4 5 6 
#
# 1 49.6742 18.6302 20.8231 0.0000 0.0000 5.9611
# 2 18.6302 49.6742 20.8231 0.0000 0.0000 -5.9611
# 3 20.8231 20.8231 72.6676 0.0000 0.0000 0.0000
# 4 0.0000 0.0000 0.0000 28.4618 0.0000 0.0000
# 5 0.0000 0.0000 0.0000 0.0000 28.4618 0.0000
# 6 5.9611 -5.9611 0.0000 0.0000 0.0000 30.7436
#
#
#
# Elastic Compliance Matrix: (Units=1/GPa)
#
#
# Indices 1 2 3 4 5 6 
#
# 1 0.026272 -0.008532 -0.005083 0.000000 0.000000 -0.006748
# 2 -0.008532 0.026272 -0.005083 0.000000 0.000000 0.006748
# 3 -0.005083 -0.005083 0.016675 0.000000 0.000000 0.000000
# 4 0.000000 0.000000 0.000000 0.035135 0.000000 0.000000
# 5 0.000000 0.000000 0.000000 0.000000 0.035135 0.000000
# 6 -0.006748 0.006748 0.000000 0.000000 0.000000 0.035144
#
#
# Mechanical properties :
#
#
# Convention : Reuss Voigt Hill
#
# Bulk Modulus (GPa) = 31.42617 32.50764 31.96690
# Shear Modulus (GPa) = 22.45808 24.98273 23.72040
#
# Velocity S-wave (km/s) = 3.40450 3.59076 3.49887
# Velocity P-wave (km/s) = 5.62790 5.82826 5.72896
#
# Compressibility (1/GPa) = 0.03182062
#
# Stress axis : x y z
#
# Youngs Moduli (GPa) = 38.06344 38.06344 59.97147
#
# Poissons Ratio (x) = 0.32476 0.30486
# Poissons Ratio (y) = 0.32476 0.30486
# Poissons Ratio (z) = 0.19349 0.19349
#
# Static dielectric constant tensor:
#      x y z
#    x 1.779810 0.000000 0.000000 
#    y 0.000000 1.779810 0.000000 
#    z 0.000000 0.000000 1.666410 
# 
# From -- ./inp_files/1833.got.cif
#   From: 2010.05.17/outbox.cif.g08.bks.cpg/sg82_1_cif.got.tgz:1833.got - 2010.06.03 18:52:26.
