data_PCOD9543175
_publ_section_title
;
Structure prediction by ZEFSAII (Michael W. Deem and Ramdas Pophale) SiO2 
 PCOD9543175
Probable space group: I -4 
;
_chemical_formula_sum "Si O2"
_cell_formula_units_Z 36
_cell_length_a 8.482160
_cell_length_b 8.482160
_cell_length_c 18.684418
_cell_angle_alpha 90.000000
_cell_angle_beta 90.000000
_cell_angle_gamma 90.000000
_cell_volume 1344.288537
_symmetry_space_group_name_H-M "I -4 "
_symmetry_group_IT_number 82
_symmetry_cell_setting 'tetragonal'
loop_
_space_group_symop_operation_xyz
x,y,z
y,-x,-z
-x,-y,z
-y,x,-z
1/2+x,1/2+y,1/2+z
1/2+y,1/2-x,1/2-z
1/2-x,1/2-y,1/2+z
1/2-y,1/2+x,1/2-z
loop_
_atom_site_type_symbol
_atom_site_label
_atom_site_fract_x
_atom_site_fract_y
_atom_site_fract_z
Si Si1 0.740838 0.228040 0.827233
Si Si2 0.500000 0.500000 0.500000
Si Si3 0.000000 0.500000 0.250000
Si Si4 0.436555 0.667866 0.206446
Si Si5 0.664718 0.942557 0.540383
Si Si6 0.746057 0.277650 0.579724
O O1 0.587706 0.140233 0.793110
O O2 0.768781 0.407498 0.804130
O O3 0.885108 0.143168 0.788343
O O4 0.703187 0.221076 0.910878
O O5 0.592749 0.373477 0.551497
O O6 0.500000 0.500000 0.176927
O O7 0.291108 0.743223 0.161747
O O8 0.634959 0.886499 0.460525
O O9 0.500000 0.000000 0.572550
O O10 0.762885 0.101310 0.546389
#
# Coordination Sequence:
#
# PCOD9543175 Si02
#       6
#     8   2   2   8   8   8
#     4  12  26  48  78 119 162 212 272 340 410 496
#     4  12  28  52  80 120 168 224 280 350 408 516
#     4  12  20  40  84 112 156 208 280 322 412 488
#     4  12  27  51  80 121 163 219 275 346 414 493
#     4  12  25  47  82 119 158 208 280 340 414 497
#     4  12  27  51  79 123 162 223 274 344 422 489
#
# _framework density 26.779966000000002
#
# number of rings (size 3 to 8) (size 9 to 14) (size 15 to 20)
#    0.000    0.000    7.778    1.333    0.000    2.222 
#    8.000    0.000    0.000    0.000    0.000    0.000 
#    0.000    0.000    0.000    0.000    0.000    0.000 
#
# Total GULP energy -100565.581951 kJ/mol
# GULP energy per Si atom -5586.976775 kJ/mol
# Density = 2.671901 g / cm^3
# Si number density = 26.779966 Si / 1000 Ang^3
#
#
#
# Elastic Constant Matrix: (Units=GPa)
#
#
# Indices 1 2 3 4 5 6 
#
# 1 105.2032 26.8445 36.6681 0.0000 0.0000 2.7868
# 2 26.8445 105.2032 36.6681 0.0000 0.0000 -2.7868
# 3 36.6681 36.6681 128.8982 0.0000 0.0000 0.0000
# 4 0.0000 0.0000 0.0000 50.2444 0.0000 0.0000
# 5 0.0000 0.0000 0.0000 0.0000 50.2444 0.0000
# 6 2.7868 -2.7868 0.0000 0.0000 0.0000 39.2367
#
#
#
# Elastic Compliance Matrix: (Units=1/GPa)
#
#
# Indices 1 2 3 4 5 6 
#
# 1 0.010910 -0.001916 -0.002559 0.000000 0.000000 -0.000911
# 2 -0.001916 0.010910 -0.002559 0.000000 0.000000 0.000911
# 3 -0.002559 -0.002559 0.009214 0.000000 0.000000 0.000000
# 4 0.000000 0.000000 0.000000 0.019903 0.000000 0.000000
# 5 0.000000 0.000000 0.000000 0.000000 0.019903 0.000000
# 6 -0.000911 0.000911 0.000000 0.000000 0.000000 0.025616
#
#
# Mechanical properties :
#
#
# Convention : Reuss Voigt Hill
#
# Bulk Modulus (GPa) = 58.93619 59.96289 59.44954
# Shear Modulus (GPa) = 43.03735 43.88671 43.46203
#
# Velocity S-wave (km/s) = 4.01318 4.05259 4.03293
# Velocity P-wave (km/s) = 6.59769 6.65864 6.62824
#
# Compressibility (1/GPa) = 0.01696750
#
# Stress axis : x y z
#
# Youngs Moduli (GPa) = 91.65656 91.65656 108.53357
#
# Poissons Ratio (x) = 0.17564 0.27769
# Poissons Ratio (y) = 0.17564 0.27769
# Poissons Ratio (z) = 0.23451 0.23451
#
# Static dielectric constant tensor:
#      x y z
#    x 1.903810 0.000000 0.000000 
#    y 0.000000 1.903810 0.000000 
#    z 0.000000 0.000000 2.039110 
# 
# From -- ./inp_files/2998.got.cif
#   From: 2010.05.17/outbox.cif.g08.bks.cpg/sg82_2_cif.got.tgz:2998.got - 2010.06.03 18:52:26.
