data_PCOD9543250
_publ_section_title
;
Structure prediction by ZEFSAII (Michael W. Deem and Ramdas Pophale) SiO2 
 PCOD9543250
Probable space group: P 4/M
;
_chemical_formula_sum "Si O2"
_cell_formula_units_Z 48
_cell_length_a 17.594808
_cell_length_b 17.594808
_cell_length_c 7.704024
_cell_angle_alpha 90.000000
_cell_angle_beta 90.000000
_cell_angle_gamma 90.000000
_cell_volume 2384.990707
_symmetry_space_group_name_H-M "P 4/M"
_symmetry_group_IT_number 83
_symmetry_cell_setting 'tetragonal'
loop_
_space_group_symop_operation_xyz
x,y,z
-y,x,z
-x,-y,z
y,-x,z
-x,-y,-z
y,-x,-z
x,y,-z
-y,x,-z
loop_
_atom_site_type_symbol
_atom_site_label
_atom_site_fract_x
_atom_site_fract_y
_atom_site_fract_z
Si Si1 0.001246 0.385782 0.300391
Si Si2 0.997815 0.781115 0.789507
Si Si3 0.286240 0.744999 0.794196
Si Si4 0.152635 0.848463 0.788640
Si Si5 0.174608 0.605597 0.291053
Si Si6 0.164890 0.436896 0.707179
O O1 0.993221 0.411483 0.500000
O O2 0.077171 0.426277 0.223943
O O3 0.025178 0.298227 0.290878
O O4 0.914049 0.384599 0.227387
O O5 0.079916 0.804342 0.725671
O O6 0.936432 0.844587 0.745624
O O7 0.998256 0.772036 0.000000
O O8 0.228136 0.808167 0.723895
O O9 0.240223 0.666184 0.758812
O O10 0.369906 0.773977 0.739681
O O11 0.288806 0.750648 0.000000
O O12 0.151801 0.843282 0.000000
O O13 0.170911 0.610664 0.500000
O O14 0.194565 0.519569 0.237053
O O15 0.155223 0.439054 0.500000
#
# Coordination Sequence:
#
# PCOD9543250 Si02
#       6
#     8   8   8   8   8   8
#     4  10  19  32  53  81 108 140 180 224 269 316
#     4  10  18  32  49  71 103 142 186 229 270 313
#     4  11  21  35  56  82 110 142 180 223 270 325
#     4   9  18  30  49  72 100 140 185 226 265 313
#     4  10  21  37  57  82 112 145 181 221 269 325
#     4  10  21  37  57  82 112 145 181 221 269 325
#
# _framework density 20.125865000000001
#
# number of rings (size 3 to 8) (size 9 to 14) (size 15 to 20)
#    0.000    2.000    3.333    1.000    0.000    3.000 
#    0.000    2.500    0.000    3.500    0.000    4.667 
#    0.000    0.000    0.000    0.000    0.000    0.000 
#
# Total GULP energy -267259.540459 kJ/mol
# GULP energy per Si atom -5567.907093 kJ/mol
# Density = 2.008006 g / cm^3
# Si number density = 20.125865 Si / 1000 Ang^3
#
#
#
# Elastic Constant Matrix: (Units=GPa)
#
#
# Indices 1 2 3 4 5 6 
#
# 1 109.3793 61.8302 2.7625 0.0000 0.0000 15.3444
# 2 61.8302 109.3793 2.7625 0.0000 0.0000 -15.3444
# 3 2.7625 2.7625 37.6855 0.0000 0.0000 0.0000
# 4 0.0000 0.0000 0.0000 8.4756 0.0000 0.0000
# 5 0.0000 0.0000 0.0000 0.0000 8.4756 0.0000
# 6 15.3444 -15.3444 0.0000 0.0000 0.0000 9.2152
#
#
#
# Elastic Compliance Matrix: (Units=1/GPa)
#
#
# Indices 1 2 3 4 5 6 
#
# 1 -0.137863 0.143717 -0.000429 0.000000 0.000000 0.468864
# 2 0.143717 -0.137863 -0.000429 0.000000 0.000000 -0.468864
# 3 -0.000429 -0.000429 0.026598 0.000000 0.000000 0.000000
# 4 0.000000 0.000000 0.000000 0.117986 0.000000 0.000000
# 5 0.000000 0.000000 0.000000 0.000000 0.117986 0.000000
# 6 0.468864 -0.468864 0.000000 0.000000 0.000000 -1.452912
#
#
# Mechanical properties :
#
#
# Convention : Reuss Voigt Hill
#
# Bulk Modulus (GPa) = 27.32920 43.46164 35.39542
# Shear Modulus (GPa) = -2.87424 17.83920 7.48248
#
# Velocity S-wave (km/s) = -1.19634 2.98045 1.93026
# Velocity P-wave (km/s) = 3.42057 5.78670 4.75322
#
# Compressibility (1/GPa) = 0.03659089
#
# Stress axis : x y z
#
# Youngs Moduli (GPa) = -7.25359 -7.25359 37.59640
#
# Poissons Ratio (x) = 1.04247 0.01614
# Poissons Ratio (y) = 1.04247 0.01614
# Poissons Ratio (z) = -0.00311 -0.00311
#
# Static dielectric constant tensor:
#      x y z
#    x 1.723860 0.000000 0.000000 
#    y 0.000000 1.723860 0.000000 
#    z 0.000000 0.000000 1.750770 
# 
# From -- ./inp_files/932.got.cif
#   From: 2010.05.17/outbox.cif.g08.bks.cpg/sg83_1_cif.got.tgz:932.got - 2010.06.03 18:55:12.
