data_PCOD9543359
_publ_section_title
;
Structure prediction by ZEFSAII (Michael W. Deem and Ramdas Pophale) SiO2 
 PCOD9543359
Probable space group: P 4/M
;
_chemical_formula_sum "Si O2"
_cell_formula_units_Z 40
_cell_length_a 15.714116
_cell_length_b 15.714116
_cell_length_c 7.802249
_cell_angle_alpha 90.000000
_cell_angle_beta 90.000000
_cell_angle_gamma 90.000000
_cell_volume 1926.636198
_symmetry_space_group_name_H-M "P 4/M"
_symmetry_group_IT_number 83
_symmetry_cell_setting 'tetragonal'
loop_
_space_group_symop_operation_xyz
x,y,z
-y,x,z
-x,-y,z
y,-x,z
-x,-y,-z
y,-x,-z
x,y,-z
-y,x,-z
loop_
_atom_site_type_symbol
_atom_site_label
_atom_site_fract_x
_atom_site_fract_y
_atom_site_fract_z
Si Si1 0.754070 0.010100 0.801101
Si Si2 0.828058 0.184028 0.698554
Si Si3 0.332925 0.300702 0.710842
Si Si4 0.069870 0.430368 0.792565
Si Si5 0.521921 0.259441 0.700698
O O1 0.812084 0.093804 0.787580
O O2 0.661986 0.038988 0.733537
O O3 0.788659 0.925966 0.711960
O O4 0.743895 0.986681 0.000000
O O5 0.805526 0.171053 0.500000
O O6 0.766259 0.259638 0.765253
O O7 0.332188 0.298592 0.500000
O O8 0.427597 0.276481 0.771016
O O9 0.309420 0.395904 0.769837
O O10 0.160637 0.455509 0.719209
O O11 0.000000 0.500000 0.746657
O O12 0.077933 0.428074 0.000000
O O13 0.517407 0.281887 0.500000
#
# Coordination Sequence:
#
# PCOD9543359 Si02
#       5
#     8   8   8   8   8
#     4  11  23  39  60  86 117 156 196 241 296 353
#     4  11  22  39  60  87 119 154 197 246 295 350
#     4   9  19  34  57  87 119 154 197 244 293 345
#     4  10  21  37  57  85 117 151 197 245 293 347
#     4  10  19  35  57  84 118 156 197 242 292 346
#
# _framework density 20.761572999999999
#
# number of rings (size 3 to 8) (size 9 to 14) (size 15 to 20)
#    0.000    1.800    2.000    2.400    0.000    2.000 
#    0.000    6.000    0.000    0.000    0.000    1.400 
#    0.000    0.000    0.000    0.000    0.000    0.000 
#
# Total GULP energy -223470.501535 kJ/mol
# GULP energy per Si atom -5586.762538 kJ/mol
# Density = 2.071432 g / cm^3
# Si number density = 20.761573 Si / 1000 Ang^3
#
#
#
# Elastic Constant Matrix: (Units=GPa)
#
#
# Indices 1 2 3 4 5 6 
#
# 1 133.4912 54.8106 -5.7060 0.0000 0.0000 -0.8508
# 2 54.8106 133.4912 -5.7060 0.0000 0.0000 0.8508
# 3 -5.7060 -5.7060 28.3767 0.0000 0.0000 0.0000
# 4 0.0000 0.0000 0.0000 2.6804 0.0000 0.0000
# 5 0.0000 0.0000 0.0000 0.0000 2.6804 0.0000
# 6 -0.8508 0.8508 0.0000 0.0000 0.0000 43.1032
#
#
#
# Elastic Compliance Matrix: (Units=1/GPa)
#
#
# Indices 1 2 3 4 5 6 
#
# 1 0.009046 -0.003669 0.001081 0.000000 0.000000 0.000251
# 2 -0.003669 0.009046 0.001081 0.000000 0.000000 -0.000251
# 3 0.001081 0.001081 0.035675 0.000000 0.000000 0.000000
# 4 0.000000 0.000000 0.000000 0.373080 0.000000 0.000000
# 5 0.000000 0.000000 0.000000 0.000000 0.373080 0.000000
# 6 0.000251 -0.000251 0.000000 0.000000 0.000000 0.023210
#
#
# Mechanical properties :
#
#
# Convention : Reuss Voigt Hill
#
# Bulk Modulus (GPa) = 19.70394 42.46182 31.08288
# Shear Modulus (GPa) = 5.93072 26.49016 16.21044
#
# Velocity S-wave (km/s) = 1.69198 3.57588 2.79729
# Velocity P-wave (km/s) = 3.65079 6.12746 5.04351
#
# Compressibility (1/GPa) = 0.05075127
#
# Stress axis : x y z
#
# Youngs Moduli (GPa) = 110.55115 110.55115 28.03094
#
# Poissons Ratio (x) = 0.40566 -0.03030
# Poissons Ratio (y) = 0.40566 -0.03030
# Poissons Ratio (z) = -0.11951 -0.11951
#
# Static dielectric constant tensor:
#      x y z
#    x 1.713510 0.000000 0.000000 
#    y 0.000000 1.713510 0.000000 
#    z 0.000000 0.000000 1.758730 
# 
# From -- ./inp_files/627.got.cif
#   From: 2010.05.17/outbox.cif.g08.bks.cpg/sg83_1_cif.got.tgz:627.got - 2010.06.03 18:55:12.
