data_PCOD9543415
_publ_section_title
;
Structure prediction by ZEFSAII (Michael W. Deem and Ramdas Pophale) SiO2 
 PCOD9543415
Probable space group: P 4/M
;
_chemical_formula_sum "Si O2"
_cell_formula_units_Z 48
_cell_length_a 13.681308
_cell_length_b 13.681308
_cell_length_c 12.767651
_cell_angle_alpha 90.000000
_cell_angle_beta 90.000000
_cell_angle_gamma 90.000000
_cell_volume 2389.825787
_symmetry_space_group_name_H-M "P 4/M"
_symmetry_group_IT_number 83
_symmetry_cell_setting 'tetragonal'
loop_
_space_group_symop_operation_xyz
x,y,z
-y,x,z
-x,-y,z
y,-x,z
-x,-y,-z
y,-x,-z
x,y,-z
-y,x,-z
loop_
_atom_site_type_symbol
_atom_site_label
_atom_site_fract_x
_atom_site_fract_y
_atom_site_fract_z
Si Si1 0.646188 0.827155 0.279107
Si Si2 0.349319 0.542303 0.670082
Si Si3 0.948606 0.851854 0.125633
Si Si4 0.025621 0.385374 0.379777
Si Si5 0.488853 0.251423 0.121965
Si Si6 0.685667 0.176885 0.218320
O O1 0.579738 0.758771 0.356608
O O2 0.666198 0.931799 0.327114
O O3 0.582251 0.832005 0.171722
O O4 0.738955 0.759984 0.254087
O O5 0.383413 0.434595 0.637394
O O6 0.339413 0.536964 0.797724
O O7 0.904993 0.750415 0.162113
O O8 0.058073 0.879182 0.160561
O O9 0.949542 0.852909 0.000000
O O10 0.035657 0.356169 0.500000
O O11 0.000000 0.500000 0.373905
O O12 0.123581 0.364104 0.316174
O O13 0.600216 0.220718 0.145853
O O14 0.472043 0.269174 0.000000
#
# Coordination Sequence:
#
# PCOD9543415 Si02
#       6
#     8   8   8   8   8   8
#     4  10  21  39  59  86 120 158 200 244 302 363
#     4   9  17  32  54  81 117 160 200 237 279 339
#     4   9  19  36  58  85 117 158 203 242 291 357
#     4  11  24  43  65  86 113 151 200 255 310 368
#     4  10  20  34  54  86 124 163 204 238 283 351
#     4  12  21  38  61  88 122 157 199 249 306 359
#
# _framework density 20.085144
#
# number of rings (size 3 to 8) (size 9 to 14) (size 15 to 20)
#    1.000    0.833    3.333    2.000    0.000    4.000 
#    0.000    3.333    0.000    0.000    0.000    4.667 
#    0.000    0.000    0.000    0.000    0.000    0.000 
#
# Total GULP energy -267561.259823 kJ/mol
# GULP energy per Si atom -5574.192913 kJ/mol
# Density = 2.003943 g / cm^3
# Si number density = 20.085144 Si / 1000 Ang^3
#
#
#
# Elastic Constant Matrix: (Units=GPa)
#
#
# Indices 1 2 3 4 5 6 
#
# 1 63.6866 -0.1395 12.6686 0.0000 0.0000 -11.1814
# 2 -0.1395 63.6866 12.6686 0.0000 0.0000 11.1814
# 3 12.6686 12.6686 49.6766 0.0000 0.0000 0.0000
# 4 0.0000 0.0000 0.0000 7.6319 0.0000 0.0000
# 5 0.0000 0.0000 0.0000 0.0000 7.6319 0.0000
# 6 -11.1814 11.1814 0.0000 0.0000 0.0000 30.9550
#
#
#
# Elastic Compliance Matrix: (Units=1/GPa)
#
#
# Indices 1 2 3 4 5 6 
#
# 1 0.017728 -0.000210 -0.004467 0.000000 0.000000 0.006479
# 2 -0.000210 0.017728 -0.004467 0.000000 0.000000 -0.006479
# 3 -0.004467 -0.004467 0.022409 0.000000 0.000000 0.000000
# 4 0.000000 0.000000 0.000000 0.131029 0.000000 0.000000
# 5 0.000000 0.000000 0.000000 0.000000 0.131029 0.000000
# 6 0.006479 -0.006479 0.000000 0.000000 0.000000 0.036986
#
#
# Mechanical properties :
#
#
# Convention : Reuss Voigt Hill
#
# Bulk Modulus (GPa) = 25.26883 25.27169 25.27026
# Shear Modulus (GPa) = 12.87368 19.36723 16.12046
#
# Velocity S-wave (km/s) = 2.53446 3.10862 2.83610
# Velocity P-wave (km/s) = 4.60139 5.04918 4.83048
#
# Compressibility (1/GPa) = 0.03957445
#
# Stress axis : x y z
#
# Youngs Moduli (GPa) = 56.40898 56.40898 44.62538
#
# Poissons Ratio (x) = 0.01185 0.19936
# Poissons Ratio (y) = 0.01185 0.19936
# Poissons Ratio (z) = 0.25200 0.25200
#
# Static dielectric constant tensor:
#      x y z
#    x 1.738860 0.000000 0.000000 
#    y 0.000000 1.738860 0.000000 
#    z 0.000000 0.000000 1.701320 
# 
# From -- ./inp_files/1851.got.cif
#   From: 2010.05.17/outbox.cif.g08.bks.cpg/sg83_1_cif.got.tgz:1851.got - 2010.06.03 18:55:12.
