data_PCOD9543642
_publ_section_title
;
Structure prediction by ZEFSAII (Michael W. Deem and Ramdas Pophale) SiO2 
 PCOD9543642
Probable space group: P 4/M
;
_chemical_formula_sum "Si O2"
_cell_formula_units_Z 36
_cell_length_a 9.704858
_cell_length_b 9.704858
_cell_length_c 21.217729
_cell_angle_alpha 90.000000
_cell_angle_beta 90.000000
_cell_angle_gamma 90.000000
_cell_volume 1998.376291
_symmetry_space_group_name_H-M "P 4/M"
_symmetry_group_IT_number 83
_symmetry_cell_setting 'tetragonal'
loop_
_space_group_symop_operation_xyz
x,y,z
-y,x,z
-x,-y,z
y,-x,z
-x,-y,-z
y,-x,-z
x,y,-z
-y,x,-z
loop_
_atom_site_type_symbol
_atom_site_label
_atom_site_fract_x
_atom_site_fract_y
_atom_site_fract_z
Si Si1 0.500000 0.000000 0.656947
Si Si2 0.122450 0.661796 0.879309
Si Si3 0.625115 0.163796 0.071194
Si Si4 0.769496 0.967456 0.743024
Si Si5 0.478244 0.727520 0.424895
O O1 0.635912 0.966415 0.698301
O O2 0.469287 0.866763 0.614159
O O3 0.246853 0.754275 0.902039
O O4 0.174522 0.504509 0.881871
O O5 0.059473 0.712130 0.813453
O O6 0.996752 0.664557 0.928166
O O7 0.589068 0.207445 0.000000
O O8 0.886826 0.849535 0.734297
O O9 0.354930 0.620061 0.411055
O O10 0.475612 0.754715 0.500000
#
# Coordination Sequence:
#
# PCOD9543642 Si02
#       5
#     4   8   8   8   8
#     4  12  21  36  64  90 117 160 206 238 286 338
#     4  11  22  40  58  82 115 148 187 238 296 352
#     4  11  22  38  61  87 111 142 187 239 296 359
#     4  11  24  41  58  83 118 156 195 243 291 345
#     4   9  19  37  60  91 128 160 196 242 286 335
#
# _framework density 18.014627000000001
#
# number of rings (size 3 to 8) (size 9 to 14) (size 15 to 20)
#    0.000    1.333    2.222    6.333    0.000    0.889 
#    0.000    2.222    0.000    0.000    0.000    9.333 
#    0.000    0.000    0.000    0.000    0.000    0.000 
#
# Total GULP energy -200886.445125 kJ/mol
# GULP energy per Si atom -5580.179031 kJ/mol
# Density = 1.797362 g / cm^3
# Si number density = 18.014627 Si / 1000 Ang^3
#
#
#
# Elastic Constant Matrix: (Units=GPa)
#
#
# Indices 1 2 3 4 5 6 
#
# 1 109.7972 43.2897 37.9086 0.0000 0.0000 10.8228
# 2 43.2897 109.7972 37.9086 0.0000 0.0000 -10.8228
# 3 37.9086 37.9086 71.9723 0.0000 0.0000 0.0000
# 4 0.0000 0.0000 0.0000 15.6804 0.0000 0.0000
# 5 0.0000 0.0000 0.0000 0.0000 15.6804 0.0000
# 6 10.8228 -10.8228 0.0000 0.0000 0.0000 31.0792
#
#
#
# Elastic Compliance Matrix: (Units=1/GPa)
#
#
# Indices 1 2 3 4 5 6 
#
# 1 0.012898 -0.004060 -0.004655 0.000000 0.000000 -0.005905
# 2 -0.004060 0.012898 -0.004655 0.000000 0.000000 0.005905
# 3 -0.004655 -0.004655 0.018798 0.000000 0.000000 0.000000
# 4 0.000000 0.000000 0.000000 0.063774 0.000000 0.000000
# 5 0.000000 0.000000 0.000000 0.000000 0.063774 0.000000
# 6 -0.005905 0.005905 0.000000 0.000000 0.000000 0.036289
#
#
# Mechanical properties :
#
#
# Convention : Reuss Voigt Hill
#
# Bulk Modulus (GPa) = 56.01141 58.86453 57.43797
# Shear Modulus (GPa) = 20.73654 23.98533 22.36094
#
# Velocity S-wave (km/s) = 3.39646 3.65284 3.52698
# Velocity P-wave (km/s) = 6.82209 7.10900 6.96702
#
# Compressibility (1/GPa) = 0.01785351
#
# Stress axis : x y z
#
# Youngs Moduli (GPa) = 77.53315 77.53315 53.19783
#
# Poissons Ratio (x) = 0.31479 0.24763
# Poissons Ratio (y) = 0.31479 0.24763
# Poissons Ratio (z) = 0.36091 0.36091
#
# Static dielectric constant tensor:
#      x y z
#    x 1.619660 0.000000 0.000000 
#    y 0.000000 1.619660 0.000000 
#    z 0.000000 0.000000 1.600690 
# 
# From -- ./inp_files/2857.got.cif
#   From: 2010.05.17/outbox.cif.g08.bks.cpg/sg83_2_cif.got.tgz:2857.got - 2010.06.03 18:55:12.
