data_PCOD9543406
_publ_section_title
;
Structure prediction by ZEFSAII (Michael W. Deem and Ramdas Pophale) SiO2 
 PCOD9543406
Probable space group: P 4/M
;
_chemical_formula_sum "Si O2"
_cell_formula_units_Z 52
_cell_length_a 18.859581
_cell_length_b 18.859581
_cell_length_c 8.502302
_cell_angle_alpha 90.000000
_cell_angle_beta 90.000000
_cell_angle_gamma 90.000000
_cell_volume 3024.131046
_symmetry_space_group_name_H-M "P 4/M"
_symmetry_group_IT_number 83
_symmetry_cell_setting 'tetragonal'
loop_
_space_group_symop_operation_xyz
x,y,z
-y,x,z
-x,-y,z
y,-x,z
-x,-y,-z
y,-x,-z
x,y,-z
-y,x,-z
loop_
_atom_site_type_symbol
_atom_site_label
_atom_site_fract_x
_atom_site_fract_y
_atom_site_fract_z
Si Si1 0.362273 0.866195 0.809069
Si Si2 0.571254 0.594498 0.500000
Si Si3 0.834270 0.367996 0.313553
Si Si4 0.582082 0.988822 0.309572
Si Si5 0.768395 0.507344 0.815542
Si Si6 0.245958 0.255060 0.821983
Si Si7 0.356040 0.385790 0.175622
O O1 0.432466 0.822967 0.753823
O O2 0.291543 0.824879 0.753126
O O3 0.371866 0.946100 0.754138
O O4 0.361742 0.861989 0.000000
O O5 0.487160 0.595458 0.500000
O O6 0.599556 0.623916 0.334219
O O7 0.836680 0.368427 0.500000
O O8 0.912761 0.388768 0.254400
O O9 0.782671 0.432024 0.261770
O O10 0.805357 0.291811 0.260317
O O11 0.583268 0.990218 0.500000
O O12 0.500000 0.000000 0.260112
O O13 0.691189 0.543033 0.804899
O O14 0.782840 0.497485 0.000000
O O15 0.299589 0.322075 0.829915
O O16 0.230772 0.231738 0.000000
O O17 0.390861 0.387706 0.000000
#
# Coordination Sequence:
#
# PCOD9543406 Si02
#       7
#     8   4   8   8   8   8   8
#     4   9  18  34  53  71  97 137 177 207 255 314
#     4  11  26  40  50  68  90 119 169 221 271 327
#     4  11  22  31  49  79 105 133 172 211 254 311
#     4  10  20  34  48  74 112 141 167 209 259 309
#     4   9  18  32  49  72  98 127 166 213 258 305
#     4   9  20  37  52  73 101 129 169 218 259 303
#     4   9  21  38  55  72  94 126 166 215 271 321
#
# _framework density 17.195022000000002
#
# number of rings (size 3 to 8) (size 9 to 14) (size 15 to 20)
#    0.000    2.385    1.538    2.308    4.308    2.769 
#    2.769    0.769    0.000    0.000    0.000    0.000 
#    0.000    0.615    0.000    6.769    0.000    4.923 
#
# Total GULP energy -289966.036124 kJ/mol
# GULP energy per Si atom -5576.269925 kJ/mol
# Density = 1.715589 g / cm^3
# Si number density = 17.195022 Si / 1000 Ang^3
#
#
#
# Elastic Constant Matrix: (Units=GPa)
#
#
# Indices 1 2 3 4 5 6 
#
# 1 -2.7043 134.3235 25.1730 0.0000 0.0000 2.9162
# 2 134.3235 -2.7043 25.1730 0.0000 0.0000 -2.9162
# 3 25.1730 25.1730 51.1843 0.0000 0.0000 0.0000
# 4 0.0000 0.0000 0.0000 12.3735 0.0000 0.0000
# 5 0.0000 0.0000 0.0000 0.0000 12.3735 0.0000
# 6 2.9162 -2.9162 0.0000 0.0000 0.0000 25.1604
#
#
#
# Elastic Compliance Matrix: (Units=1/GPa)
#
#
# Indices 1 2 3 4 5 6 
#
# 1 0.001048 0.008310 -0.004602 0.000000 0.000000 0.000842
# 2 0.008310 0.001048 -0.004602 0.000000 0.000000 -0.000842
# 3 -0.004602 -0.004602 0.024064 0.000000 0.000000 0.000000
# 4 0.000000 0.000000 0.000000 0.080818 0.000000 0.000000
# 5 0.000000 0.000000 0.000000 0.000000 0.080818 0.000000
# 6 0.000842 -0.000842 0.000000 0.000000 0.000000 0.039550
#
#
# Mechanical properties :
#
#
# Convention : Reuss Voigt Hill
#
# Bulk Modulus (GPa) = 41.03262 46.12384 43.57823
# Shear Modulus (GPa) = 21.07404 0.72192 10.89798
#
# Velocity S-wave (km/s) = 3.50464 0.64866 2.52024
# Velocity P-wave (km/s) = 6.34756 5.23862 5.81957
#
# Compressibility (1/GPa) = 0.02437085
#
# Stress axis : x y z
#
# Youngs Moduli (GPa) = 954.10697 954.10697 41.55539
#
# Poissons Ratio (x) = -7.92869 0.19126
# Poissons Ratio (y) = -7.92869 0.19126
# Poissons Ratio (z) = 4.39122 4.39122
#
# Static dielectric constant tensor:
#      x y z
#    x 1.594850 0.000000 0.000000 
#    y 0.000000 1.594850 0.000000 
#    z 0.000000 0.000000 1.618370 
# 
# From -- ./inp_files/998.got.cif
#   From: 2010.05.17/outbox.cif.g08.bks.cpg/sg83_1_cif.got.tgz:998.got - 2010.06.03 18:55:12.
