data_PCOD9543627
_publ_section_title
;
Structure prediction by ZEFSAII (Michael W. Deem and Ramdas Pophale) SiO2 
 PCOD9543627
Probable space group: P 4/M
;
_chemical_formula_sum "Si O2"
_cell_formula_units_Z 40
_cell_length_a 16.344086
_cell_length_b 16.344086
_cell_length_c 8.483483
_cell_angle_alpha 90.000000
_cell_angle_beta 90.000000
_cell_angle_gamma 90.000000
_cell_volume 2266.185579
_symmetry_space_group_name_H-M "P 4/M"
_symmetry_group_IT_number 83
_symmetry_cell_setting 'tetragonal'
loop_
_space_group_symop_operation_xyz
x,y,z
-y,x,z
-x,-y,z
y,-x,z
-x,-y,-z
y,-x,-z
x,y,-z
-y,x,-z
loop_
_atom_site_type_symbol
_atom_site_label
_atom_site_fract_x
_atom_site_fract_y
_atom_site_fract_z
Si Si1 0.858251 0.283524 0.687066
Si Si2 0.082021 0.545248 0.190746
Si Si3 0.741640 0.516768 0.808091
Si Si4 0.059852 0.881213 0.190380
Si Si5 0.315213 0.660549 0.809131
O O1 0.855408 0.286926 0.500000
O O2 0.907954 0.362316 0.749846
O O3 0.899520 0.199616 0.741791
O O4 0.766203 0.293344 0.752954
O O5 0.164111 0.496717 0.239536
O O6 0.000000 0.500000 0.244258
O O7 0.081342 0.547879 0.000000
O O8 0.693930 0.434383 0.759906
O O9 0.701771 0.601014 0.752674
O O10 0.740309 0.518696 0.000000
O O11 0.964867 0.893521 0.236857
O O12 0.062052 0.876850 0.000000
O O13 0.314876 0.661906 0.000000
#
# Coordination Sequence:
#
# PCOD9543627 Si02
#       5
#     8   8   8   8   8
#     4  11  22  34  50  76 109 140 167 201 252 309
#     4   9  18  34  54  75 100 133 175 217 254 296
#     4   8  15  28  49  74  97 125 164 214 260 295
#     4   9  19  37  59  79  99 129 171 214 253 296
#     4   9  17  32  51  72  99 131 172 216 258 303
#
# _framework density 17.650804999999998
#
# number of rings (size 3 to 8) (size 9 to 14) (size 15 to 20)
#    0.000    2.800    0.000    3.600    0.000    3.200 
#    0.000   11.000    0.000    0.000    0.000    5.600 
#    0.000    0.000    0.000    0.000    0.000    0.000 
#
# Total GULP energy -223037.697714 kJ/mol
# GULP energy per Si atom -5575.942443 kJ/mol
# Density = 1.761063 g / cm^3
# Si number density = 17.650805 Si / 1000 Ang^3
#
#
#
# Elastic Constant Matrix: (Units=GPa)
#
#
# Indices 1 2 3 4 5 6 
#
# 1 170.8568 131.2936 28.8524 0.0000 0.0000 18.6861
# 2 131.2936 170.8568 28.8524 0.0000 0.0000 -18.6861
# 3 28.8524 28.8524 20.1782 0.0000 0.0000 0.0000
# 4 0.0000 0.0000 0.0000 -5.3567 0.0000 0.0000
# 5 0.0000 0.0000 0.0000 0.0000 -5.3567 0.0000
# 6 18.6861 -18.6861 0.0000 0.0000 0.0000 30.7905
#
#
#
# Elastic Compliance Matrix: (Units=1/GPa)
#
#
# Indices 1 2 3 4 5 6 
#
# 1 0.031892 -0.027339 -0.006510 0.000000 0.000000 -0.035946
# 2 -0.027339 0.031892 -0.006510 0.000000 0.000000 0.035946
# 3 -0.006510 -0.006510 0.068176 0.000000 0.000000 0.000000
# 4 0.000000 0.000000 0.000000 -0.186682 0.000000 0.000000
# 5 0.000000 0.000000 0.000000 0.000000 -0.186682 0.000000
# 6 -0.035946 0.035946 0.000000 0.000000 0.000000 0.076108
#
#
# Mechanical properties :
#
#
# Convention : Reuss Voigt Hill
#
# Bulk Modulus (GPa) = 19.51555 82.20986 50.86271
# Shear Modulus (GPa) = -74.07802 15.54165 -29.26819
#
# Velocity S-wave (km/s) = -6.48535 2.97055 -4.07649
# Velocity P-wave (km/s) = 6.70814 7.64476 2.59260
#
# Compressibility (1/GPa) = 0.05124120
#
# Stress axis : x y z
#
# Youngs Moduli (GPa) = 31.35550 31.35550 14.66794
#
# Poissons Ratio (x) = 0.85724 0.09549
# Poissons Ratio (y) = 0.85724 0.09549
# Poissons Ratio (z) = 0.20413 0.20413
#
# Static dielectric constant tensor:
#      x y z
#    x 1.587010 0.000000 0.000000 
#    y 0.000000 1.587010 0.000000 
#    z 0.000000 0.000000 1.589500 
# 
# From -- ./inp_files/672.got.cif
#   From: 2010.05.17/outbox.cif.g08.bks.cpg/sg83_1_cif.got.tgz:672.got - 2010.06.03 18:55:12.
