data_PCOD9543397
_publ_section_title
;
Structure prediction by ZEFSAII (Michael W. Deem and Ramdas Pophale) SiO2 
 PCOD9543397
Probable space group: P 4/M
;
_chemical_formula_sum "Si O2"
_cell_formula_units_Z 24
_cell_length_a 10.416395
_cell_length_b 10.416395
_cell_length_c 12.088432
_cell_angle_alpha 90.000000
_cell_angle_beta 90.000000
_cell_angle_gamma 90.000000
_cell_volume 1311.610403
_symmetry_space_group_name_H-M "P 4/M"
_symmetry_group_IT_number 83
_symmetry_cell_setting 'tetragonal'
loop_
_space_group_symop_operation_xyz
x,y,z
-y,x,z
-x,-y,z
y,-x,z
-x,-y,-z
y,-x,-z
x,y,-z
-y,x,-z
loop_
_atom_site_type_symbol
_atom_site_label
_atom_site_fract_x
_atom_site_fract_y
_atom_site_fract_z
Si Si1 0.490387 0.285036 0.000000
Si Si2 0.588980 0.112868 0.188802
Si Si3 0.212358 0.961575 0.000000
Si Si4 0.690473 0.601135 0.372136
O O1 0.619025 0.371680 0.000000
O O2 0.498526 0.197804 0.108020
O O3 0.698257 0.058711 0.107317
O O4 0.642902 0.203990 0.284277
O O5 0.500000 0.000000 0.235382
O O6 0.099881 0.855271 0.000000
O O7 0.551693 0.666402 0.355672
O O8 0.727802 0.621322 0.500000
#
# Coordination Sequence:
#
# PCOD9543397 Si02
#       4
#     4   8   4   8
#     4  10  20  33  53  79 110 142 177 230 290 333
#     4  11  23  32  57  83 111 142 185 227 273 322
#     4  10  24  41  55  73 110 156 191 220 264 321
#     4   9  19  37  60  85 113 143 176 226 289 338
#
# _framework density 18.298117999999999
#
# number of rings (size 3 to 8) (size 9 to 14) (size 15 to 20)
#    0.000    2.000    0.000    5.000   14.000    3.333 
#    0.000    0.000    0.000    0.000    0.000    2.333 
#    0.000    0.000    0.000    0.000    0.000    0.000 
#
# Total GULP energy -134071.643944 kJ/mol
# GULP energy per Si atom -5586.318498 kJ/mol
# Density = 1.825647 g / cm^3
# Si number density = 18.298118 Si / 1000 Ang^3
#
#
#
# Elastic Constant Matrix: (Units=GPa)
#
#
# Indices 1 2 3 4 5 6 
#
# 1 55.4096 10.6155 12.8694 0.0000 0.0000 -1.3250
# 2 10.6155 55.4096 12.8694 0.0000 0.0000 1.3250
# 3 12.8694 12.8694 63.8649 0.0000 0.0000 0.0000
# 4 0.0000 0.0000 0.0000 -21.7235 0.0000 0.0000
# 5 0.0000 0.0000 0.0000 0.0000 -21.7235 0.0000
# 6 -1.3250 1.3250 0.0000 0.0000 0.0000 18.6037
#
#
#
# Elastic Compliance Matrix: (Units=1/GPa)
#
#
# Indices 1 2 3 4 5 6 
#
# 1 0.019428 -0.002991 -0.003312 0.000000 0.000000 0.001597
# 2 -0.002991 0.019428 -0.003312 0.000000 0.000000 -0.001597
# 3 -0.003312 -0.003312 0.016993 0.000000 0.000000 0.000000
# 4 0.000000 0.000000 0.000000 -0.046033 0.000000 0.000000
# 5 0.000000 0.000000 0.000000 0.000000 -0.046033 0.000000
# 6 0.001597 -0.001597 0.000000 0.000000 0.000000 0.053980
#
#
# Mechanical properties :
#
#
# Convention : Reuss Voigt Hill
#
# Bulk Modulus (GPa) = 27.30895 27.48807 27.39851
# Shear Modulus (GPa) = 101.62712 4.25333 52.94022
#
# Velocity S-wave (km/s) = 7.46058 1.52627 5.38469
# Velocity P-wave (km/s) = 9.44301 4.26157 7.32569
#
# Compressibility (1/GPa) = 0.03661803
#
# Stress axis : x y z
#
# Youngs Moduli (GPa) = 51.47240 51.47240 58.84800
#
# Poissons Ratio (x) = 0.15395 0.19492
# Poissons Ratio (y) = 0.15395 0.19492
# Poissons Ratio (z) = 0.17049 0.17049
#
# Static dielectric constant tensor:
#      x y z
#    x 1.628190 0.000000 0.000000 
#    y 0.000000 1.628190 0.000000 
#    z 0.000000 0.000000 1.616390 
# 
# From -- ./inp_files/1448.got.cif
#   From: 2010.05.17/outbox.cif.g08.bks.cpg/sg83_1_cif.got.tgz:1448.got - 2010.06.03 18:55:12.
