data_PCOD9543918
_publ_section_title
;
Structure prediction by ZEFSAII (Michael W. Deem and Ramdas Pophale) SiO2 
 PCOD9543918
Probable space group: P 4/M
;
_chemical_formula_sum "Si O2"
_cell_formula_units_Z 64
_cell_length_a 19.443248
_cell_length_b 19.443248
_cell_length_c 7.298986
_cell_angle_alpha 90.000000
_cell_angle_beta 90.000000
_cell_angle_gamma 90.000000
_cell_volume 2759.307885
_symmetry_space_group_name_H-M "P 4/M"
_symmetry_group_IT_number 83
_symmetry_cell_setting 'tetragonal'
loop_
_space_group_symop_operation_xyz
x,y,z
-y,x,z
-x,-y,z
y,-x,z
-x,-y,-z
y,-x,-z
x,y,-z
-y,x,-z
loop_
_atom_site_type_symbol
_atom_site_label
_atom_site_fract_x
_atom_site_fract_y
_atom_site_fract_z
Si Si1 0.392347 0.524334 0.722752
Si Si2 0.122483 0.227813 0.283045
Si Si3 0.012277 0.333044 0.277187
Si Si4 0.552697 0.123504 0.277482
Si Si5 0.605063 0.872488 0.723791
Si Si6 0.661638 0.233154 0.276575
Si Si7 0.623312 0.718528 0.723486
Si Si8 0.073132 0.081211 0.781369
O O1 0.420317 0.450386 0.779318
O O2 0.391811 0.522065 0.500000
O O3 0.319078 0.553226 0.780883
O O4 0.123060 0.238344 0.500000
O O5 0.186683 0.273048 0.217041
O O6 0.120547 0.146535 0.256180
O O7 0.052690 0.264965 0.214610
O O8 0.010524 0.331339 0.500000
O O9 0.935115 0.347063 0.215211
O O10 0.060053 0.398149 0.225741
O O11 0.551323 0.124089 0.500000
O O12 0.474209 0.117156 0.218365
O O13 0.592965 0.192663 0.220073
O O14 0.605307 0.873136 0.500000
O O15 0.628298 0.797060 0.782325
O O16 0.660093 0.234272 0.500000
O O17 0.674445 0.310785 0.218212
O O18 0.623233 0.719110 0.500000
O O19 0.994661 0.094502 0.714543
O O20 0.070207 0.076254 0.000000
#
# Coordination Sequence:
#
# PCOD9543918 Si02
#       8
#     8   8   8   8   8   8   8   8
#     4   8  14  22  29  37  53  84 134 187 216 238
#     4   9  17  29  46  66  88 117 143 171 216 260
#     4   8  14  24  35  52  77 100 130 169 207 250
#     4   8  13  21  33  44  62  98 134 166 206 256
#     4   9  15  20  29  46  67  96 132 168 211 256
#     4   8  15  25  34  50  78 105 134 172 215 257
#     4   9  16  21  28  43  65  94 130 173 217 257
#     4   9  19  35  51  67  88 113 143 178 210 244
#
# _framework density 23.194223000000001
#
# number of rings (size 3 to 8) (size 9 to 14) (size 15 to 20)
#    0.000    3.500    0.000    2.625    1.750    3.000 
#    0.000    3.125    0.000    0.000    0.000    0.000 
#    0.000    8.000    0.000    1.000    0.000    0.000 
#
# Total GULP energy -357197.052796 kJ/mol
# GULP energy per Si atom -5581.203950 kJ/mol
# Density = 2.314143 g / cm^3
# Si number density = 23.194223 Si / 1000 Ang^3
#
#
#
# Elastic Constant Matrix: (Units=GPa)
#
#
# Indices 1 2 3 4 5 6 
#
# 1 42.5399 -4.7667 -3.5472 0.0000 0.0000 -7.7960
# 2 -4.7667 42.5399 -3.5472 0.0000 0.0000 7.7960
# 3 -3.5472 -3.5472 93.1191 0.0000 0.0000 0.0000
# 4 0.0000 0.0000 0.0000 -4.6809 0.0000 0.0000
# 5 0.0000 0.0000 0.0000 0.0000 -4.6809 0.0000
# 6 -7.7960 7.7960 0.0000 0.0000 0.0000 19.4131
#
#
#
# Elastic Compliance Matrix: (Units=1/GPa)
#
#
# Indices 1 2 3 4 5 6 
#
# 1 0.025514 0.001151 0.001016 0.000000 0.000000 0.009784
# 2 0.001151 0.025514 0.001016 0.000000 0.000000 -0.009784
# 3 0.001016 0.001016 0.010816 0.000000 0.000000 0.000000
# 4 0.000000 0.000000 0.000000 -0.213635 0.000000 0.000000
# 5 0.000000 0.000000 0.000000 0.000000 -0.213635 0.000000
# 6 0.009784 -0.009784 0.000000 0.000000 0.000000 0.059370
#
#
# Mechanical properties :
#
#
# Convention : Reuss Voigt Hill
#
# Bulk Modulus (GPa) = 14.66097 17.16410 15.91253
# Shear Modulus (GPa) = -17.26016 14.68093 -1.28961
#
# Velocity S-wave (km/s) = -2.73088 2.51859 -0.74647
# Velocity P-wave (km/s) = 1.89973 3.98421 2.47639
#
# Compressibility (1/GPa) = 0.06820832
#
# Stress axis : x y z
#
# Youngs Moduli (GPa) = 39.19414 39.19414 92.45287
#
# Poissons Ratio (x) = -0.04509 -0.09391
# Poissons Ratio (y) = -0.04509 -0.09391
# Poissons Ratio (z) = -0.03981 -0.03981
#
# Static dielectric constant tensor:
#      x y z
#    x 1.837180 0.000000 0.000000 
#    y 0.000000 1.837180 0.000000 
#    z 0.000000 0.000000 1.929230 
# 
# From -- ./inp_files/2034.got.cif
#   From: 2010.05.17/outbox.cif.g08.bks.cpg/sg83_2_cif.got.tgz:2034.got - 2010.06.03 18:55:12.
