data_PCOD9543929
_publ_section_title
;
Structure prediction by ZEFSAII (Michael W. Deem and Ramdas Pophale) SiO2 
 PCOD9543929
Probable space group: P 4/M
;
_chemical_formula_sum "Si O2"
_cell_formula_units_Z 48
_cell_length_a 9.000000
_cell_length_b 9.000000
_cell_length_c 30.000000
_cell_angle_alpha 90.000000
_cell_angle_beta 90.000000
_cell_angle_gamma 90.000000
_cell_volume 2430.000000
_symmetry_space_group_name_H-M "P 4/M"
_symmetry_group_IT_number 83
_symmetry_cell_setting 'tetragonal'
loop_
_space_group_symop_operation_xyz
x,y,z
-y,x,z
-x,-y,z
y,-x,z
-x,-y,-z
y,-x,-z
x,y,-z
-y,x,-z
loop_
_atom_site_type_symbol
_atom_site_label
_atom_site_fract_x
_atom_site_fract_y
_atom_site_fract_z
Si Si1 0.260539 0.575686 0.000000
Si Si2 0.409988 0.270313 0.568088
Si Si3 0.259234 0.577145 0.902489
Si Si4 0.576827 0.732844 0.326292
Si Si5 0.072920 0.764117 0.267405
Si Si6 0.921146 0.235468 0.837148
Si Si7 0.763493 0.914531 0.500000
O O1 0.322140 0.407703 0.000000
O O2 0.189097 0.599123 0.951893
O O3 0.580341 0.314528 0.557355
O O4 0.407966 0.242228 0.620889
O O5 0.337393 0.135033 0.541737
O O6 0.320757 0.408755 0.898648
O O7 0.142189 0.631047 0.866261
O O8 0.410249 0.680219 0.316151
O O9 0.632615 0.870873 0.298157
O O10 0.087140 0.727780 0.215194
O O11 0.907116 0.821771 0.275879
O O12 0.089418 0.181292 0.845916
O O13 0.915460 0.816799 0.500000
#
# Coordination Sequence:
#
# PCOD9543929 Si02
#       7
#     4   8   8   8   8   8   4
#     4   7  12  26  46  67  94 124 152 189 240 293
#     4   9  19  37  58  77 100 133 169 203 244 294
#     4   9  17  30  50  74  96 121 157 200 244 290
#     4   9  19  35  54  78 105 129 159 203 249 292
#     4   9  19  35  52  70  96 132 169 202 240 288
#     4   9  19  35  50  66  95 133 167 199 239 288
#     4  11  24  37  50  76 110 137 166 207 248 286
#
# _framework density 19.753086
#
# number of rings (size 3 to 8) (size 9 to 14) (size 15 to 20)
#    0.000    3.000    0.000    3.500    0.000    6.000 
#    0.000   10.833    0.000    4.000    0.000    0.000 
#    0.000    0.000    0.000    0.000    0.000    0.000 
#
# Total GULP energy -267862.708720 kJ/mol
# GULP energy per Si atom -5580.473098 kJ/mol
# Density = 1.970813 g / cm^3
# Si number density = 19.753086 Si / 1000 Ang^3
#
#
#
# Elastic Constant Matrix: (Units=GPa)
#
#
# Indices 1 2 3 4 5 6 
#
# 1 17.8008 21.5264 32.2315 0.0000 0.0000 -0.4128
# 2 21.5264 17.8008 32.2315 0.0000 0.0000 0.4128
# 3 32.2315 32.2315 50.1209 0.0000 0.0000 0.0000
# 4 0.0000 0.0000 0.0000 -123.1739 0.0000 0.0000
# 5 0.0000 0.0000 0.0000 0.0000 -123.1739 0.0000
# 6 -0.4128 0.4128 0.0000 0.0000 0.0000 42.0739
#
#
#
# Elastic Compliance Matrix: (Units=1/GPa)
#
#
# Indices 1 2 3 4 5 6 
#
# 1 -0.368961 -0.101128 0.302302 0.000000 0.000000 -0.002628
# 2 -0.101128 -0.368961 0.302302 0.000000 0.000000 0.002628
# 3 0.302302 0.302302 -0.368854 0.000000 0.000000 0.000000
# 4 0.000000 0.000000 0.000000 -0.008119 0.000000 0.000000
# 5 0.000000 0.000000 0.000000 0.000000 -0.008119 0.000000
# 6 -0.002628 0.002628 0.000000 0.000000 0.000000 0.023716
#
#
# Mechanical properties :
#
#
# Convention : Reuss Voigt Hill
#
# Bulk Modulus (GPa) = -10.01775 28.63346 9.30786
# Shear Modulus (GPa) = -2.33697 -40.87256 -21.60477
#
# Velocity S-wave (km/s) = -1.08888 -4.55375 -3.31076
# Velocity P-wave (km/s) = 2.58135 3.62239 3.14524
#
# Compressibility (1/GPa) = -0.09982285
#
# Stress axis : x y z
#
# Youngs Moduli (GPa) = -2.71031 -2.71031 -2.71110
#
# Poissons Ratio (x) = -0.27409 0.81957
# Poissons Ratio (y) = -0.27409 0.81957
# Poissons Ratio (z) = 0.81933 0.81933
#
# Static dielectric constant tensor:
#      x y z
#    x 1.680620 0.000000 0.000000 
#    y 0.000000 1.680620 0.000000 
#    z 0.000000 0.000000 1.693360 
# 
# From -- ./inp_files/3487.got.cif
#   From: 2010.05.17/outbox.ucp.g08.bks.cvg/sg83_2_cif.got.tgz:3487.got - 2010.06.11 10:34:49.
