data_PCOD9543682
_publ_section_title
;
Structure prediction by ZEFSAII (Michael W. Deem and Ramdas Pophale) SiO2 
 PCOD9543682
Probable space group: P 4/M
;
_chemical_formula_sum "Si O2"
_cell_formula_units_Z 28
_cell_length_a 7.709137
_cell_length_b 7.709137
_cell_length_c 19.807138
_cell_angle_alpha 90.000000
_cell_angle_beta 90.000000
_cell_angle_gamma 90.000000
_cell_volume 1177.153924
_symmetry_space_group_name_H-M "P 4/M"
_symmetry_group_IT_number 83
_symmetry_cell_setting 'tetragonal'
loop_
_space_group_symop_operation_xyz
x,y,z
-y,x,z
-x,-y,z
y,-x,z
-x,-y,-z
y,-x,-z
x,y,-z
-y,x,-z
loop_
_atom_site_type_symbol
_atom_site_label
_atom_site_fract_x
_atom_site_fract_y
_atom_site_fract_z
Si Si1 0.725733 0.086474 0.500000
Si Si2 0.225765 0.399346 0.361017
Si Si3 0.617018 0.228641 0.216534
Si Si4 0.769200 0.622353 0.927792
O O1 0.634257 0.126725 0.429715
O O2 0.892077 0.209944 0.500000
O O3 0.402157 0.287468 0.361704
O O4 0.138704 0.352902 0.288785
O O5 0.717142 0.413539 0.216487
O O6 0.658858 0.141820 0.144392
O O7 0.582310 0.719039 0.927803
O O8 0.856706 0.661879 0.000000
#
# Coordination Sequence:
#
# PCOD9543682 Si02
#       4
#     4   8   8   8
#     4  11  24  37  46  60  84 111 140 177 220 262
#     4   9  17  30  49  70  89 111 141 175 211 253
#     4   7  10  17  30  51  79 107 134 164 195 231
#     4   7   8  10  19  39  71 109 138 155 180 224
#
# _framework density 23.786183999999999
#
# number of rings (size 3 to 8) (size 9 to 14) (size 15 to 20)
#    0.000    3.857    0.000    5.143    0.000    3.429 
#    0.000    0.000    0.000    0.000    0.000    0.000 
#    0.000    2.286    0.000   25.429    0.000   22.857 
#
# Total GULP energy -156163.722896 kJ/mol
# GULP energy per Si atom -5577.275818 kJ/mol
# Density = 2.373205 g / cm^3
# Si number density = 23.786184 Si / 1000 Ang^3
#
#
#
# Elastic Constant Matrix: (Units=GPa)
#
#
# Indices 1 2 3 4 5 6 
#
# 1 56.1653 -8.7959 44.2647 0.0000 0.0000 18.0866
# 2 -8.7959 56.1653 44.2647 0.0000 0.0000 -18.0866
# 3 44.2647 44.2647 344.8681 0.0000 0.0000 0.0000
# 4 0.0000 0.0000 0.0000 -52.1405 0.0000 0.0000
# 5 0.0000 0.0000 0.0000 0.0000 -52.1405 0.0000
# 6 18.0866 -18.0866 0.0000 0.0000 0.0000 44.2861
#
#
#
# Elastic Compliance Matrix: (Units=1/GPa)
#
#
# Indices 1 2 3 4 5 6 
#
# 1 0.023849 0.003924 -0.003565 0.000000 0.000000 -0.008137
# 2 0.003924 0.023849 -0.003565 0.000000 0.000000 0.008137
# 3 -0.003565 -0.003565 0.003815 0.000000 0.000000 0.000000
# 4 0.000000 0.000000 0.000000 -0.019179 0.000000 0.000000
# 5 0.000000 0.000000 0.000000 0.000000 -0.019179 0.000000
# 6 -0.008137 0.008137 0.000000 0.000000 0.000000 0.029227
#
#
# Mechanical properties :
#
#
# Convention : Reuss Voigt Hill
#
# Bulk Modulus (GPa) = 22.17220 68.51843 45.34532
# Shear Modulus (GPa) = 78.33694 13.16537 45.75116
#
# Velocity S-wave (km/s) = 5.74502 2.35519 4.39046
# Velocity P-wave (km/s) = 7.30402 6.02199 6.69377
#
# Compressibility (1/GPa) = 0.04510151
#
# Stress axis : x y z
#
# Youngs Moduli (GPa) = 41.93059 41.93059 262.14106
#
# Poissons Ratio (x) = -0.16453 0.93446
# Poissons Ratio (y) = -0.16453 0.93446
# Poissons Ratio (z) = 0.14947 0.14947
#
# Static dielectric constant tensor:
#      x y z
#    x 1.861970 0.000000 0.000000 
#    y 0.000000 1.861970 0.000000 
#    z 0.000000 0.000000 2.017110 
# 
# From -- ./inp_files/2762.got.cif
#   From: 2010.05.17/outbox.cif.g08.bks.cpg/sg83_2_cif.got.tgz:2762.got - 2010.06.03 18:55:12.
