data_PCOD9543030
_publ_section_title
;
Structure prediction by ZEFSAII (Michael W. Deem and Ramdas Pophale) SiO2 
 PCOD9543030
Probable space group: I -4 
;
_chemical_formula_sum "Si O2"
_cell_formula_units_Z 56
_cell_length_a 15.361612
_cell_length_b 15.361612
_cell_length_c 11.331436
_cell_angle_alpha 90.000000
_cell_angle_beta 90.000000
_cell_angle_gamma 90.000000
_cell_volume 2673.982332
_symmetry_space_group_name_H-M "I -4 "
_symmetry_group_IT_number 82
_symmetry_cell_setting 'tetragonal'
loop_
_space_group_symop_operation_xyz
x,y,z
y,-x,-z
-x,-y,z
-y,x,-z
1/2+x,1/2+y,1/2+z
1/2+y,1/2-x,1/2-z
1/2-x,1/2-y,1/2+z
1/2-y,1/2+x,1/2-z
loop_
_atom_site_type_symbol
_atom_site_label
_atom_site_fract_x
_atom_site_fract_y
_atom_site_fract_z
Si Si1 0.468240 0.278435 0.952753
Si Si2 0.876896 0.970409 0.067306
Si Si3 0.648098 0.581901 0.832376
Si Si4 0.854002 0.503746 0.243230
Si Si5 0.073851 0.370665 0.593636
Si Si6 0.127365 0.656726 0.651680
Si Si7 0.694217 0.014230 0.999318
O O1 0.423531 0.349739 0.872262
O O2 0.519262 0.210756 0.866415
O O3 0.517670 0.328998 0.058174
O O4 0.400287 0.212898 0.015999
O O5 0.883389 0.962258 0.209690
O O6 0.937602 0.904458 0.993033
O O7 0.775125 0.959800 0.046302
O O8 0.740977 0.631718 0.821955
O O9 0.919284 0.583597 0.270111
O O10 0.799842 0.483450 0.359860
O O11 0.108421 0.361725 0.725008
O O12 0.109016 0.459626 0.538522
O O13 0.969930 0.363458 0.604739
O O14 0.189983 0.609048 0.558894
#
# Coordination Sequence:
#
# PCOD9543030 Si02
#       7
#     8   8   8   8   8   8   8
#     4  11  25  45  66 101 137 185 240 285 357 419
#     4  11  26  48  72  98 132 179 243 295 351 419
#     4  11  25  47  69 100 138 178 242 294 347 433
#     4  11  23  40  63  98 140 182 228 279 348 432
#     4  11  20  38  64  97 134 174 225 281 347 430
#     4  11  22  39  67 103 135 180 228 286 354 427
#     4  12  22  39  67  99 137 182 226 283 353 415
#
# _framework density 20.942547000000001
#
# number of rings (size 3 to 8) (size 9 to 14) (size 15 to 20)
#    0.000    0.857    4.286    3.857    2.000    4.857 
#    5.143    0.000    0.000    0.000    0.000    0.000 
#    0.000    0.000    0.000    0.000    0.000    0.000 
#
# Total GULP energy -156211.433286 kJ/mol
# GULP energy per Si atom -5578.979760 kJ/mol
# Density = 2.089488 g / cm^3
# Si number density = 20.942547 Si / 1000 Ang^3
#
#
#
# Elastic Constant Matrix: (Units=GPa)
#
#
# Indices 1 2 3 4 5 6 
#
# 1 44.1969 16.9113 28.4521 0.0000 0.0000 -6.6852
# 2 16.9113 44.1969 28.4521 0.0000 0.0000 6.6852
# 3 28.4521 28.4521 166.5065 0.0000 0.0000 0.0000
# 4 0.0000 0.0000 0.0000 37.0461 0.0000 0.0000
# 5 0.0000 0.0000 0.0000 0.0000 37.0461 0.0000
# 6 -6.6852 6.6852 0.0000 0.0000 0.0000 10.7272
#
#
#
# Elastic Compliance Matrix: (Units=1/GPa)
#
#
# Indices 1 2 3 4 5 6 
#
# 1 0.036112 -0.016650 -0.003325 0.000000 0.000000 0.032881
# 2 -0.016650 0.036112 -0.003325 0.000000 0.000000 -0.032881
# 3 -0.003325 -0.003325 0.007142 0.000000 0.000000 0.000000
# 4 0.000000 0.000000 0.000000 0.026993 0.000000 0.000000
# 5 0.000000 0.000000 0.000000 0.000000 0.026993 0.000000
# 6 0.032881 -0.032881 0.000000 0.000000 0.000000 0.134204
#
#
# Mechanical properties :
#
#
# Convention : Reuss Voigt Hill
#
# Bulk Modulus (GPa) = 30.52257 44.72570 37.62414
# Shear Modulus (GPa) = 15.38083 29.03618 22.20851
#
# Velocity S-wave (km/s) = 2.71298 3.72757 3.25999
# Velocity P-wave (km/s) = 4.94163 6.31895 5.67225
#
# Compressibility (1/GPa) = 0.03276264
#
# Stress axis : x y z
#
# Youngs Moduli (GPa) = 27.69199 27.69199 140.01172
#
# Poissons Ratio (x) = 0.46108 0.46560
# Poissons Ratio (y) = 0.46108 0.46560
# Poissons Ratio (z) = 0.09209 0.09209
#
# Static dielectric constant tensor:
#      x y z
#    x 1.790140 0.000000 0.000000 
#    y 0.000000 1.790140 0.000000 
#    z 0.000000 0.000000 1.776490 
# 
# From -- ./inp_files/1825.got.cif
#   From: 2010.05.17/outbox.cif.g08.bks.cpg/sg82_1_cif.got.tgz:1825.got - 2010.06.03 18:52:26.
