data_PCOD9543784
_publ_section_title
;
Structure prediction by ZEFSAII (Michael W. Deem and Ramdas Pophale) SiO2 
 PCOD9543784
Probable space group: P 4/M
;
_chemical_formula_sum "Si O2"
_cell_formula_units_Z 48
_cell_length_a 8.144560
_cell_length_b 8.144560
_cell_length_c 33.173060
_cell_angle_alpha 90.000000
_cell_angle_beta 90.000000
_cell_angle_gamma 90.000000
_cell_volume 2200.497038
_symmetry_space_group_name_H-M "P 4/M"
_symmetry_group_IT_number 83
_symmetry_cell_setting 'tetragonal'
loop_
_space_group_symop_operation_xyz
x,y,z
-y,x,z
-x,-y,z
y,-x,z
-x,-y,-z
y,-x,-z
x,y,-z
-y,x,-z
loop_
_atom_site_type_symbol
_atom_site_label
_atom_site_fract_x
_atom_site_fract_y
_atom_site_fract_z
Si Si1 0.236652 0.414568 0.921574
Si Si2 0.591480 0.238587 0.324286
Si Si3 0.086269 0.263338 0.000000
Si Si4 0.262463 0.914787 0.156244
Si Si5 0.405716 0.761159 0.233974
Si Si6 0.500000 0.000000 0.610541
Si Si7 0.409715 0.238172 0.454864
O O1 0.399879 0.300985 0.922482
O O2 0.131256 0.365119 0.960331
O O3 0.139110 0.374558 0.880955
O O4 0.699625 0.402536 0.327761
O O5 0.617925 0.171130 0.279174
O O6 0.610506 0.110277 0.359870
O O7 0.900384 0.199386 0.000000
O O8 0.350899 0.878825 0.198393
O O9 0.100054 0.800868 0.153791
O O10 0.298765 0.593744 0.230417
O O11 0.609674 0.889340 0.580861
O O12 0.598374 0.300851 0.451449
O O13 0.385094 0.170093 0.500000
#
# Coordination Sequence:
#
# PCOD9543784 Si02
#       7
#     8   8   4   8   8   4   8
#     4  11  24  41  62  89 118 152 198 244 285 340
#     4   9  20  37  55  79 111 145 185 232 280 337
#     4  11  24  41  62  90 124 157 192 237 292 352
#     4  11  24  39  57  85 119 152 189 235 288 345
#     4   9  19  37  59  81 107 143 189 236 280 334
#     4  12  19  28  56  88 110 140 186 235 284 336
#     4   9  19  36  56  79 110 148 191 238 283 332
#
# _framework density 21.813255000000002
#
# number of rings (size 3 to 8) (size 9 to 14) (size 15 to 20)
#    0.000    1.917    0.000    5.250    0.000   12.667 
#    0.000    0.000    0.000    8.000    0.000    9.333 
#    0.000    0.000    0.000    0.000    0.000    0.000 
#
# Total GULP energy -268731.818844 kJ/mol
# GULP energy per Si atom -5598.579559 kJ/mol
# Density = 2.176361 g / cm^3
# Si number density = 21.813255 Si / 1000 Ang^3
#
#
#
# Elastic Constant Matrix: (Units=GPa)
#
#
# Indices 1 2 3 4 5 6 
#
# 1 79.7618 28.8017 57.8879 0.0000 0.0000 -0.3133
# 2 28.8017 79.7618 57.8879 0.0000 0.0000 0.3133
# 3 57.8879 57.8879 197.7372 0.0000 0.0000 0.0000
# 4 0.0000 0.0000 0.0000 74.1762 0.0000 0.0000
# 5 0.0000 0.0000 0.0000 0.0000 74.1762 0.0000
# 6 -0.3133 0.3133 0.0000 0.0000 0.0000 29.2426
#
#
#
# Elastic Compliance Matrix: (Units=1/GPa)
#
#
# Indices 1 2 3 4 5 6 
#
# 1 0.016509 -0.003117 -0.003921 0.000000 0.000000 0.000210
# 2 -0.003117 0.016509 -0.003921 0.000000 0.000000 -0.000210
# 3 -0.003921 -0.003921 0.007353 0.000000 0.000000 0.000000
# 4 0.000000 0.000000 0.000000 0.013481 0.000000 0.000000
# 5 0.000000 0.000000 0.000000 0.000000 0.013481 0.000000
# 6 0.000210 -0.000210 0.000000 0.000000 0.000000 0.034201
#
#
# Mechanical properties :
#
#
# Convention : Reuss Voigt Hill
#
# Bulk Modulus (GPa) = 54.18626 71.82394 63.00510
# Shear Modulus (GPa) = 38.57956 49.69790 44.13873
#
# Velocity S-wave (km/s) = 4.21007 4.77837 4.50319
# Velocity P-wave (km/s) = 6.96619 7.96505 7.48231
#
# Compressibility (1/GPa) = 0.01845486
#
# Stress axis : x y z
#
# Youngs Moduli (GPa) = 60.57292 60.57292 136.00367
#
# Poissons Ratio (x) = 0.18879 0.53322
# Poissons Ratio (y) = 0.18879 0.53322
# Poissons Ratio (z) = 0.23748 0.23748
#
# Static dielectric constant tensor:
#      x y z
#    x 1.797580 0.000000 0.000000 
#    y 0.000000 1.797580 0.000000 
#    z 0.000000 0.000000 1.774480 
# 
# From -- ./inp_files/3506.got.cif
#   From: 2010.05.17/outbox.cif.g08.bks.cpg/sg83_2_cif.got.tgz:3506.got - 2010.06.03 18:55:12.
