data_PCOD9543389
_publ_section_title
;
Structure prediction by ZEFSAII (Michael W. Deem and Ramdas Pophale) SiO2 
 PCOD9543389
Probable space group: P 4/M
;
_chemical_formula_sum "Si O2"
_cell_formula_units_Z 64
_cell_length_a 21.071809
_cell_length_b 21.071809
_cell_length_c 8.836962
_cell_angle_alpha 90.000000
_cell_angle_beta 90.000000
_cell_angle_gamma 90.000000
_cell_volume 3923.797893
_symmetry_space_group_name_H-M "P 4/M"
_symmetry_group_IT_number 83
_symmetry_cell_setting 'tetragonal'
loop_
_space_group_symop_operation_xyz
x,y,z
-y,x,z
-x,-y,z
y,-x,z
-x,-y,-z
y,-x,-z
x,y,-z
-y,x,-z
loop_
_atom_site_type_symbol
_atom_site_label
_atom_site_fract_x
_atom_site_fract_y
_atom_site_fract_z
Si Si1 0.187883 0.262898 0.673909
Si Si2 0.501902 0.763894 0.171882
Si Si3 0.811312 0.297511 0.181331
Si Si4 0.370802 0.058429 0.818844
Si Si5 0.389662 0.294848 0.323193
Si Si6 0.615233 0.279807 0.331766
Si Si7 0.352831 0.924833 0.683293
Si Si8 0.103808 0.499418 0.679056
O O1 0.177163 0.242028 0.500000
O O2 0.226840 0.208189 0.761627
O O3 0.235877 0.322724 0.668204
O O4 0.124005 0.297434 0.734113
O O5 0.547466 0.707993 0.225258
O O6 0.430762 0.742458 0.201512
O O7 0.514098 0.823517 0.280071
O O8 0.514298 0.782823 0.000000
O O9 0.880379 0.326954 0.219016
O O10 0.760784 0.344832 0.258105
O O11 0.804230 0.299673 0.000000
O O12 0.443208 0.066012 0.757980
O O13 0.342640 0.995080 0.745394
O O14 0.373206 0.053238 0.000000
O O15 0.401986 0.283259 0.500000
O O16 0.350549 0.359611 0.311533
O O17 0.585486 0.272444 0.500000
O O18 0.352273 0.922943 0.500000
O O19 0.425893 0.906917 0.728478
O O20 0.091637 0.502499 0.500000
#
# Coordination Sequence:
#
# PCOD9543389 Si02
#       8
#     8   8   8   8   8   8   8   8
#     4   9  18  34  53  73  96 127 170 211 245 291
#     4  12  22  31  49  75 101 126 158 204 255 302
#     4  10  20  33  49  73 102 129 163 208 252 295
#     4  11  23  35  48  73 106 137 171 210 251 299
#     4  10  20  34  53  71  92 126 164 205 249 298
#     4   9  18  34  52  71  93 122 161 202 248 300
#     4  10  21  36  52  72  99 136 178 211 244 295
#     4  11  21  35  51  68  97 139 177 209 243 289
#
# _framework density 16.310727
#
# number of rings (size 3 to 8) (size 9 to 14) (size 15 to 20)
#    0.000    1.750    2.500    3.750    0.000    7.000 
#    0.000    0.000    0.000    0.375    0.000    2.625 
#    0.000    0.500    0.000    5.500    0.000    4.000 
#
# Total GULP energy -356730.868662 kJ/mol
# GULP energy per Si atom -5573.919823 kJ/mol
# Density = 1.627360 g / cm^3
# Si number density = 16.310727 Si / 1000 Ang^3
#
#
#
# Elastic Constant Matrix: (Units=GPa)
#
#
# Indices 1 2 3 4 5 6 
#
# 1 48.7676 27.3281 16.2455 0.0000 0.0000 0.6542
# 2 27.3281 48.7676 16.2455 0.0000 0.0000 -0.6542
# 3 16.2455 16.2455 22.4210 0.0000 0.0000 0.0000
# 4 0.0000 0.0000 0.0000 15.1047 0.0000 0.0000
# 5 0.0000 0.0000 0.0000 0.0000 15.1047 0.0000
# 6 0.6542 -0.6542 0.0000 0.0000 0.0000 19.2602
#
#
#
# Elastic Compliance Matrix: (Units=1/GPa)
#
#
# Indices 1 2 3 4 5 6 
#
# 1 0.032884 -0.013856 -0.013787 0.000000 0.000000 -0.001587
# 2 -0.013856 0.032884 -0.013787 0.000000 0.000000 0.001587
# 3 -0.013787 -0.013787 0.064580 0.000000 0.000000 0.000000
# 4 0.000000 0.000000 0.000000 0.066204 0.000000 0.000000
# 5 0.000000 0.000000 0.000000 0.000000 0.066204 0.000000
# 6 -0.001587 0.001587 0.000000 0.000000 0.000000 0.052028
#
#
# Mechanical properties :
#
#
# Convention : Reuss Voigt Hill
#
# Bulk Modulus (GPa) = 21.05792 26.62162 23.83977
# Shear Modulus (GPa) = 12.09262 13.90306 12.99784
#
# Velocity S-wave (km/s) = 2.72580 2.92273 2.82598
# Velocity P-wave (km/s) = 4.77966 5.26752 5.02951
#
# Compressibility (1/GPa) = 0.04748806
#
# Stress axis : x y z
#
# Youngs Moduli (GPa) = 30.40999 30.40999 15.48456
#
# Poissons Ratio (x) = 0.42135 0.21349
# Poissons Ratio (y) = 0.42135 0.21349
# Poissons Ratio (z) = 0.41927 0.41927
#
# Static dielectric constant tensor:
#      x y z
#    x 1.570410 0.000000 0.000000 
#    y 0.000000 1.570410 0.000000 
#    z 0.000000 0.000000 1.556130 
# 
# From -- ./inp_files/1313.got.cif
#   From: 2010.05.17/outbox.cif.g08.bks.cpg/sg83_1_cif.got.tgz:1313.got - 2010.06.03 18:55:12.
