data_PCOD9543722
_publ_section_title
;
Structure prediction by ZEFSAII (Michael W. Deem and Ramdas Pophale) SiO2 
 PCOD9543722
Probable space group: P 4/M
;
_chemical_formula_sum "Si O2"
_cell_formula_units_Z 40
_cell_length_a 8.095301
_cell_length_b 8.095301
_cell_length_c 27.945297
_cell_angle_alpha 90.000000
_cell_angle_beta 90.000000
_cell_angle_gamma 90.000000
_cell_volume 1831.364251
_symmetry_space_group_name_H-M "P 4/M"
_symmetry_group_IT_number 83
_symmetry_cell_setting 'tetragonal'
loop_
_space_group_symop_operation_xyz
x,y,z
-y,x,z
-x,-y,z
y,-x,z
-x,-y,-z
y,-x,-z
x,y,-z
-y,x,-z
loop_
_atom_site_type_symbol
_atom_site_label
_atom_site_fract_x
_atom_site_fract_y
_atom_site_fract_z
Si Si1 0.500000 0.000000 0.630230
Si Si2 0.263903 0.090524 0.091839
Si Si3 0.762816 0.413065 0.708190
Si Si4 0.421251 0.235103 0.000000
Si Si5 0.262417 0.096417 0.198136
Si Si6 0.262022 0.905239 0.553715
O O1 0.386418 0.107992 0.665475
O O2 0.605831 0.116944 0.595261
O O3 0.334828 0.120738 0.144930
O O4 0.097389 0.200740 0.088615
O O5 0.378605 0.137044 0.047988
O O6 0.701180 0.601610 0.704703
O O7 0.848103 0.377902 0.758905
O O8 0.605608 0.302058 0.000000
O O9 0.093311 0.203202 0.201769
O O10 0.329427 0.879592 0.500000
O O11 0.096300 0.797434 0.557736
#
# Coordination Sequence:
#
# PCOD9543722 Si02
#       6
#     4   8   8   4   8   8
#     4  12  21  36  58  82 112 153 192 228 280 344
#     4   9  19  37  61  85 108 138 182 233 281 334
#     4  11  24  38  53  79 115 151 189 236 286 336
#     4  11  24  37  50  78 118 153 186 227 278 336
#     4   9  19  38  62  85 109 143 188 235 285 344
#     4   9  19  36  58  85 114 145 187 237 283 328
#
# _framework density 21.841643000000001
#
# number of rings (size 3 to 8) (size 9 to 14) (size 15 to 20)
#    0.000    2.100    0.000    5.100    0.000    4.000 
#    0.000    8.000    0.000    0.000    0.000    8.400 
#    0.000    0.000    0.000    0.000    0.000    0.000 
#
# Total GULP energy -223794.773125 kJ/mol
# GULP energy per Si atom -5594.869328 kJ/mol
# Density = 2.179193 g / cm^3
# Si number density = 21.841643 Si / 1000 Ang^3
#
#
#
# Elastic Constant Matrix: (Units=GPa)
#
#
# Indices 1 2 3 4 5 6 
#
# 1 52.3841 15.7518 47.2256 0.0000 0.0000 2.5723
# 2 15.7518 52.3841 47.2256 0.0000 0.0000 -2.5723
# 3 47.2256 47.2256 196.1932 0.0000 0.0000 0.0000
# 4 0.0000 0.0000 0.0000 54.8419 0.0000 0.0000
# 5 0.0000 0.0000 0.0000 0.0000 54.8419 0.0000
# 6 2.5723 -2.5723 0.0000 0.0000 0.0000 32.0334
#
#
#
# Elastic Compliance Matrix: (Units=1/GPa)
#
#
# Indices 1 2 3 4 5 6 
#
# 1 0.024818 -0.002792 -0.005302 0.000000 0.000000 -0.002217
# 2 -0.002792 0.024818 -0.005302 0.000000 0.000000 0.002217
# 3 -0.005302 -0.005302 0.007649 0.000000 0.000000 0.000000
# 4 0.000000 0.000000 0.000000 0.018234 0.000000 0.000000
# 5 0.000000 0.000000 0.000000 0.000000 0.018234 0.000000
# 6 -0.002217 0.002217 0.000000 0.000000 0.000000 0.031573
#
#
# Mechanical properties :
#
#
# Convention : Reuss Voigt Hill
#
# Bulk Modulus (GPa) = 32.79320 57.92972 45.36146
# Shear Modulus (GPa) = 30.81035 41.06066 35.93550
#
# Velocity S-wave (km/s) = 3.75990 4.34051 4.06060
# Velocity P-wave (km/s) = 5.82201 7.19029 6.54202
#
# Compressibility (1/GPa) = 0.03049413
#
# Stress axis : x y z
#
# Youngs Moduli (GPa) = 40.29347 40.29347 130.72819
#
# Poissons Ratio (x) = 0.11249 0.69311
# Poissons Ratio (y) = 0.11249 0.69311
# Poissons Ratio (z) = 0.21363 0.21363
#
# Static dielectric constant tensor:
#      x y z
#    x 1.806020 0.000000 0.000000 
#    y 0.000000 1.806020 0.000000 
#    z 0.000000 0.000000 1.775440 
# 
# From -- ./inp_files/3264.got.cif
#   From: 2010.05.17/outbox.cif.g08.bks.cpg/sg83_2_cif.got.tgz:3264.got - 2010.06.03 18:55:12.
