data_PCOD9543026
_publ_section_title
;
Structure prediction by ZEFSAII (Michael W. Deem and Ramdas Pophale) SiO2 
 PCOD9543026
Probable space group: I -4 
;
_chemical_formula_sum "Si O2"
_cell_formula_units_Z 52
_cell_length_a 16.587855
_cell_length_b 16.587855
_cell_length_c 8.339070
_cell_angle_alpha 90.000000
_cell_angle_beta 90.000000
_cell_angle_gamma 90.000000
_cell_volume 2294.552929
_symmetry_space_group_name_H-M "I -4 "
_symmetry_group_IT_number 82
_symmetry_cell_setting 'tetragonal'
loop_
_space_group_symop_operation_xyz
x,y,z
y,-x,-z
-x,-y,z
-y,x,-z
1/2+x,1/2+y,1/2+z
1/2+y,1/2-x,1/2-z
1/2-x,1/2-y,1/2+z
1/2-y,1/2+x,1/2-z
loop_
_atom_site_type_symbol
_atom_site_label
_atom_site_fract_x
_atom_site_fract_y
_atom_site_fract_z
Si Si1 0.725089 0.342553 0.721706
Si Si2 0.267668 0.596873 0.040877
Si Si3 0.310201 0.095193 0.986068
Si Si4 0.448762 0.822618 0.858818
Si Si5 0.183861 0.812542 0.848681
Si Si6 0.500000 0.000000 0.250000
Si Si7 0.000000 0.500000 0.250000
Si Si8 0.575341 0.871259 0.414214
O O1 0.754433 0.254543 0.778221
O O2 0.696449 0.340506 0.535250
O O3 0.803387 0.400380 0.707722
O O4 0.682806 0.378041 0.881548
O O5 0.180975 0.644815 0.031271
O O6 0.238802 0.504943 0.048103
O O7 0.310947 0.620963 0.209055
O O8 0.280923 0.075181 0.807147
O O9 0.242102 0.104077 0.121984
O O10 0.361318 0.015331 0.023789
O O11 0.493552 0.909453 0.825324
O O12 0.371137 0.855567 0.951869
O O13 0.426350 0.039163 0.343648
#
# Coordination Sequence:
#
# PCOD9543026 Si02
#       8
#     8   8   8   8   8   2   2   8
#     4  11  22  37  57  81 112 160 219 263 302 367
#     4  11  22  37  57  84 115 168 217 260 306 366
#     4  11  20  34  55  80 113 163 211 264 305 358
#     4  12  20  34  56  83 124 163 206 254 316 383
#     4  11  22  38  56  77 112 166 224 258 305 366
#     4  12  22  32  42  80 124 170 196 242 302 368
#     4  12  18  28  48  82 120 162 202 240 310 382
#     4  12  23  34  55  85 128 164 213 259 311 386
#
# _framework density 22.662365999999999
#
# number of rings (size 3 to 8) (size 9 to 14) (size 15 to 20)
#    0.000    0.615    6.154    6.000    0.000    0.000 
#    0.000    0.000    0.000    0.000    0.000    0.000 
#    0.000    9.846    0.000   14.154    1.231    0.000 
#
# Total GULP energy -144814.708193 kJ/mol
# GULP energy per Si atom -5569.796469 kJ/mol
# Density = 2.261079 g / cm^3
# Si number density = 22.662366 Si / 1000 Ang^3
#
#
#
# Elastic Constant Matrix: (Units=GPa)
#
#
# Indices 1 2 3 4 5 6 
#
# 1 26.3785 22.2750 19.4467 0.0000 0.0000 -3.0690
# 2 22.2750 26.3785 19.4467 0.0000 0.0000 3.0690
# 3 19.4467 19.4467 171.0238 0.0000 0.0000 0.0000
# 4 0.0000 0.0000 0.0000 32.9802 0.0000 0.0000
# 5 0.0000 0.0000 0.0000 0.0000 32.9802 0.0000
# 6 -3.0690 3.0690 0.0000 0.0000 0.0000 33.0138
#
#
#
# Elastic Compliance Matrix: (Units=1/GPa)
#
#
# Indices 1 2 3 4 5 6 
#
# 1 0.152831 -0.130222 -0.002571 0.000000 0.000000 0.026313
# 2 -0.130222 0.152831 -0.002571 0.000000 0.000000 -0.026313
# 3 -0.002571 -0.002571 0.006432 0.000000 0.000000 0.000000
# 4 0.000000 0.000000 0.000000 0.030321 0.000000 0.000000
# 5 0.000000 0.000000 0.000000 0.000000 0.030321 0.000000
# 6 0.026313 -0.026313 0.000000 0.000000 0.000000 0.035183
#
#
# Mechanical properties :
#
#
# Convention : Reuss Voigt Hill
#
# Bulk Modulus (GPa) = 24.17453 38.45749 31.31601
# Shear Modulus (GPa) = 7.22090 30.63568 18.92829
#
# Velocity S-wave (km/s) = 1.78696 3.68071 2.89317
# Velocity P-wave (km/s) = 3.86627 5.92200 5.00091
#
# Compressibility (1/GPa) = 0.04136586
#
# Stress axis : x y z
#
# Youngs Moduli (GPa) = 6.54318 6.54318 155.47819
#
# Poissons Ratio (x) = 0.85207 0.39970
# Poissons Ratio (y) = 0.85207 0.39970
# Poissons Ratio (z) = 0.01682 0.01682
#
# Static dielectric constant tensor:
#      x y z
#    x 1.897880 0.000000 0.000000 
#    y 0.000000 1.897880 0.000000 
#    z 0.000000 0.000000 2.101360 
# 
# From -- ./inp_files/1173.got.cif
#   From: 2010.05.17/outbox.cif.g08.bks.cpg/sg82_1_cif.got.tgz:1173.got - 2010.06.03 18:52:26.
