data_PCOD9543276
_publ_section_title
;
Structure prediction by ZEFSAII (Michael W. Deem and Ramdas Pophale) SiO2 
 PCOD9543276
Probable space group: P 4/M
;
_chemical_formula_sum "Si O2"
_cell_formula_units_Z 44
_cell_length_a 14.647943
_cell_length_b 14.647943
_cell_length_c 13.006844
_cell_angle_alpha 90.000000
_cell_angle_beta 90.000000
_cell_angle_gamma 90.000000
_cell_volume 2790.777508
_symmetry_space_group_name_H-M "P 4/M"
_symmetry_group_IT_number 83
_symmetry_cell_setting 'tetragonal'
loop_
_space_group_symop_operation_xyz
x,y,z
-y,x,z
-x,-y,z
y,-x,z
-x,-y,-z
y,-x,-z
x,y,-z
-y,x,-z
loop_
_atom_site_type_symbol
_atom_site_label
_atom_site_fract_x
_atom_site_fract_y
_atom_site_fract_z
Si Si1 0.338116 0.802758 0.875479
Si Si2 0.075728 0.867512 0.620145
Si Si3 0.141702 0.750351 0.806382
Si Si4 0.642526 0.536870 0.124687
Si Si5 0.607464 0.993169 0.123200
Si Si6 0.930804 0.135920 0.000000
O O1 0.249129 0.756114 0.827382
O O2 0.425951 0.741752 0.845791
O O3 0.347639 0.909316 0.847985
O O4 0.329299 0.799154 0.000000
O O5 0.088648 0.844927 0.500000
O O6 0.116882 0.795523 0.698345
O O7 0.967359 0.880263 0.638416
O O8 0.097648 0.810993 0.897917
O O9 0.091770 0.653860 0.820356
O O10 0.563293 0.608504 0.157182
O O11 0.641893 0.534844 0.000000
O O12 0.500000 0.000000 0.142317
O O13 0.620050 0.980811 0.000000
O O14 0.038491 0.118773 0.000000
#
# Coordination Sequence:
#
# PCOD9543276 Si02
#       6
#     8   8   8   8   8   4
#     4  10  19  29  45  65  94 130 166 196 237 292
#     4   9  18  32  50  71  94 122 160 204 243 279
#     4  12  20  31  48  67  98 128 162 197 234 293
#     4   8  15  27  43  61  85 118 162 207 243 279
#     4  10  21  33  44  65 100 135 164 197 240 294
#     4  11  20  28  43  66  96 125 155 190 230 274
#
# _framework density 15.766216
#
# number of rings (size 3 to 8) (size 9 to 14) (size 15 to 20)
#    0.000    2.091    1.818    4.364    2.545    1.455 
#    0.000    0.000    0.000    0.545    0.000    0.000 
#    0.000    0.000    0.000    2.000    0.000    0.909 
#
# Total GULP energy -245388.836029 kJ/mol
# GULP energy per Si atom -5577.019001 kJ/mol
# Density = 1.573033 g / cm^3
# Si number density = 15.766216 Si / 1000 Ang^3
#
#
#
# Elastic Constant Matrix: (Units=GPa)
#
#
# Indices 1 2 3 4 5 6 
#
# 1 454.2900 -402.8183 3.8212 0.0000 0.0000 -337.0791
# 2 -402.8183 454.2900 3.8212 0.0000 0.0000 337.0791
# 3 3.8212 3.8212 26.5629 0.0000 0.0000 0.0000
# 4 0.0000 0.0000 0.0000 10.3234 0.0000 0.0000
# 5 0.0000 0.0000 0.0000 0.0000 10.3234 0.0000
# 6 -337.0791 337.0791 0.0000 0.0000 0.0000 309.9083
#
#
#
# Elastic Compliance Matrix: (Units=1/GPa)
#
#
# Indices 1 2 3 4 5 6 
#
# 1 0.013963 0.005889 -0.002856 0.000000 0.000000 0.008783
# 2 0.005889 0.013963 -0.002856 0.000000 0.000000 -0.008783
# 3 -0.002856 -0.002856 0.038468 0.000000 0.000000 0.000000
# 4 0.000000 0.000000 0.000000 0.096868 0.000000 0.000000
# 5 0.000000 0.000000 0.000000 0.000000 0.096868 0.000000
# 6 0.008783 -0.008783 0.000000 0.000000 0.000000 0.022332
#
#
# Mechanical properties :
#
#
# Convention : Reuss Voigt Hill
#
# Bulk Modulus (GPa) = 14.98146 16.08790 15.53468
# Shear Modulus (GPa) = 16.42803 154.79893 85.61348
#
# Velocity S-wave (km/s) = 3.23147 9.91953 7.37697
# Velocity P-wave (km/s) = 4.84211 11.89211 9.07933
#
# Compressibility (1/GPa) = 0.06674917
#
# Stress axis : x y z
#
# Youngs Moduli (GPa) = 71.61571 71.61571 25.99551
#
# Poissons Ratio (x) = -0.42173 0.07424
# Poissons Ratio (y) = -0.42173 0.07424
# Poissons Ratio (z) = 0.20452 0.20452
#
# Static dielectric constant tensor:
#      x y z
#    x 1.552090 0.000000 0.000000 
#    y 0.000000 1.552090 0.000000 
#    z 0.000000 0.000000 1.479760 
# 
# From -- ./inp_files/1742.got.cif
#   From: 2010.05.17/outbox.cif.g08.bks.cpg/sg83_1_cif.got.tgz:1742.got - 2010.06.03 18:55:12.
