data_PCOD9543565
_publ_section_title
;
Structure prediction by ZEFSAII (Michael W. Deem and Ramdas Pophale) SiO2 
 PCOD9543565
Probable space group: P 4/M
;
_chemical_formula_sum "Si O2"
_cell_formula_units_Z 21
_cell_length_a 8.435125
_cell_length_b 8.435125
_cell_length_c 14.119080
_cell_angle_alpha 90.000000
_cell_angle_beta 90.000000
_cell_angle_gamma 90.000000
_cell_volume 1004.591374
_symmetry_space_group_name_H-M "P 4/M"
_symmetry_group_IT_number 83
_symmetry_cell_setting 'tetragonal'
loop_
_space_group_symop_operation_xyz
x,y,z
-y,x,z
-x,-y,z
y,-x,z
-x,-y,-z
y,-x,-z
x,y,-z
-y,x,-z
loop_
_atom_site_type_symbol
_atom_site_label
_atom_site_fract_x
_atom_site_fract_y
_atom_site_fract_z
Si Si1 0.073515 0.259795 0.000000
Si Si2 0.652139 0.890238 0.500000
Si Si3 0.500000 0.000000 0.841582
Si Si4 0.403754 0.255705 0.703630
Si Si5 0.000000 0.000000 0.500000
O O1 0.091633 0.377181 0.089697
O O2 0.892582 0.189287 0.000000
O O3 0.637682 0.792539 0.596734
O O4 0.806137 0.000304 0.500000
O O5 0.500000 0.000000 0.500000
O O6 0.389182 0.109318 0.775007
O O7 0.586990 0.302916 0.719217
#
# Coordination Sequence:
#
# PCOD9543565 Si02
#       5
#     4   4   4   8   1
#     4  10  22  42  62  90 126 166 216 285 356 424
#     4  12  24  45  64 100 144 180 236 286 331 417
#     4  11  22  39  66  92 124 171 226 281 352 438
#     4  11  23  40  63  94 132 178 223 283 350 411
#     4  12  28  44  76 104 136 214 248 280 360 408
#
# _framework density 20.904022999999999
#
# number of rings (size 3 to 8) (size 9 to 14) (size 15 to 20)
#    0.000    0.952    1.905    5.714    0.000    1.524 
#    0.000    0.000    0.000    9.143    0.000    0.000 
#    0.000    0.000    0.000    0.000    0.000    0.000 
#
# Total GULP energy -117037.134932 kJ/mol
# GULP energy per Si atom -5573.196902 kJ/mol
# Density = 2.085644 g / cm^3
# Si number density = 20.904023 Si / 1000 Ang^3
#
#
#
# Elastic Constant Matrix: (Units=GPa)
#
#
# Indices 1 2 3 4 5 6 
#
# 1 61.0474 -15.1549 15.2268 0.0000 0.0000 -1.1361
# 2 -15.1549 61.0474 15.2268 0.0000 0.0000 1.1361
# 3 15.2268 15.2268 139.9426 0.0000 0.0000 0.0000
# 4 0.0000 0.0000 0.0000 12.5121 0.0000 0.0000
# 5 0.0000 0.0000 0.0000 0.0000 12.5121 0.0000
# 6 -1.1361 1.1361 0.0000 0.0000 0.0000 15.7244
#
#
#
# Elastic Compliance Matrix: (Units=1/GPa)
#
#
# Indices 1 2 3 4 5 6 
#
# 1 0.018319 0.005167 -0.002555 0.000000 0.000000 0.000950
# 2 0.005167 0.018319 -0.002555 0.000000 0.000000 -0.000950
# 3 -0.002555 -0.002555 0.007702 0.000000 0.000000 0.000000
# 4 0.000000 0.000000 0.000000 0.079923 0.000000 0.000000
# 5 0.000000 0.000000 0.000000 0.000000 0.079923 0.000000
# 6 0.000950 -0.000950 0.000000 0.000000 0.000000 0.063733
#
#
# Mechanical properties :
#
#
# Convention : Reuss Voigt Hill
#
# Bulk Modulus (GPa) = 22.49629 32.51498 27.50563
# Shear Modulus (GPa) = 17.69150 24.59896 21.14523
#
# Velocity S-wave (km/s) = 2.91231 3.43411 3.18392
# Velocity P-wave (km/s) = 4.70041 5.59574 5.16750
#
# Compressibility (1/GPa) = 0.04445177
#
# Stress axis : x y z
#
# Youngs Moduli (GPa) = 54.58947 54.58947 129.83835
#
# Poissons Ratio (x) = -0.28208 0.33179
# Poissons Ratio (y) = -0.28208 0.33179
# Poissons Ratio (z) = 0.13950 0.13950
#
# Static dielectric constant tensor:
#      x y z
#    x 1.687350 0.000000 0.000000 
#    y 0.000000 1.687350 0.000000 
#    z 0.000000 0.000000 2.202470 
# 
# From -- ./inp_files/2133.got.cif
#   From: 2010.05.17/outbox.cif.g08.bks.cpg/sg83_2_cif.got.tgz:2133.got - 2010.06.03 18:55:12.
