data_PCOD9543736
_publ_section_title
;
Structure prediction by ZEFSAII (Michael W. Deem and Ramdas Pophale) SiO2 
 PCOD9543736
Probable space group: P 4/M
;
_chemical_formula_sum "Si O2"
_cell_formula_units_Z 36
_cell_length_a 7.702168
_cell_length_b 7.702168
_cell_length_c 25.902886
_cell_angle_alpha 90.000000
_cell_angle_beta 90.000000
_cell_angle_gamma 90.000000
_cell_volume 1536.647058
_symmetry_space_group_name_H-M "P 4/M"
_symmetry_group_IT_number 83
_symmetry_cell_setting 'tetragonal'
loop_
_space_group_symop_operation_xyz
x,y,z
-y,x,z
-x,-y,z
y,-x,z
-x,-y,-z
y,-x,-z
x,y,-z
-y,x,-z
loop_
_atom_site_type_symbol
_atom_site_label
_atom_site_fract_x
_atom_site_fract_y
_atom_site_fract_z
Si Si1 0.113206 0.729590 0.942556
Si Si2 0.000000 0.500000 0.858726
Si Si3 0.884706 0.730167 0.666283
Si Si4 0.269319 0.877906 0.555165
Si Si5 0.600993 0.230593 0.224891
O O1 0.909475 0.783248 0.938870
O O2 0.136152 0.594785 0.896555
O O3 0.145267 0.656661 0.000000
O O4 0.907351 0.634506 0.819995
O O5 0.842653 0.644529 0.610578
O O6 0.838483 0.627485 0.717424
O O7 0.087043 0.782054 0.667804
O O8 0.357240 0.838190 0.500000
O O9 0.082545 0.780972 0.555190
O O10 0.714631 0.401489 0.218913
#
# Coordination Sequence:
#
# PCOD9543736 Si02
#       5
#     8   4   8   8   8
#     4   9  19  36  58  85 113 137 165 207 258 306
#     4  12  21  36  58  80 103 140 182 216 248 306
#     4   9  17  31  53  79 105 137 178 218 259 314
#     4   7  10  19  40  72 104 129 160 209 262 308
#     4  11  24  38  51  72 105 143 180 222 269 309
#
# _framework density 23.427631000000002
#
# number of rings (size 3 to 8) (size 9 to 14) (size 15 to 20)
#    0.000    2.667    0.000    5.667    0.000    0.000 
#    0.000    2.222    0.000    1.333    0.000   17.889 
#    0.000    0.000    0.000    0.000    0.000    0.000 
#
# Total GULP energy -201127.327492 kJ/mol
# GULP energy per Si atom -5586.870208 kJ/mol
# Density = 2.337431 g / cm^3
# Si number density = 23.427631 Si / 1000 Ang^3
#
#
#
# Elastic Constant Matrix: (Units=GPa)
#
#
# Indices 1 2 3 4 5 6 
#
# 1 47.3453 -1.5505 28.6763 0.0000 0.0000 -4.1417
# 2 -1.5505 47.3453 28.6763 0.0000 0.0000 4.1417
# 3 28.6763 28.6763 236.1934 0.0000 0.0000 0.0000
# 4 0.0000 0.0000 0.0000 15.2721 0.0000 0.0000
# 5 0.0000 0.0000 0.0000 0.0000 15.2721 0.0000
# 6 -4.1417 4.1417 0.0000 0.0000 0.0000 19.4029
#
#
#
# Elastic Compliance Matrix: (Units=1/GPa)
#
#
# Indices 1 2 3 4 5 6 
#
# 1 0.023486 0.002267 -0.003127 0.000000 0.000000 0.004529
# 2 0.002267 0.023486 -0.003127 0.000000 0.000000 -0.004529
# 3 -0.003127 -0.003127 0.004993 0.000000 0.000000 0.000000
# 4 0.000000 0.000000 0.000000 0.065479 0.000000 0.000000
# 5 0.000000 0.000000 0.000000 0.000000 0.065479 0.000000
# 6 0.004529 -0.004529 0.000000 0.000000 0.000000 0.053472
#
#
# Mechanical properties :
#
#
# Convention : Reuss Voigt Hill
#
# Bulk Modulus (GPa) = 22.73187 49.16536 35.94862
# Shear Modulus (GPa) = 19.30270 28.32821 23.81545
#
# Velocity S-wave (km/s) = 2.87353 3.48110 3.19180
# Velocity P-wave (km/s) = 4.55342 6.09828 5.38157
#
# Compressibility (1/GPa) = 0.04399109
#
# Stress axis : x y z
#
# Youngs Moduli (GPa) = 42.57932 42.57932 200.27972
#
# Poissons Ratio (x) = -0.09651 0.62619
# Poissons Ratio (y) = -0.09651 0.62619
# Poissons Ratio (z) = 0.13313 0.13313
#
# Static dielectric constant tensor:
#      x y z
#    x 1.912120 0.000000 0.000000 
#    y 0.000000 1.912120 0.000000 
#    z 0.000000 0.000000 1.927940 
# 
# From -- ./inp_files/2834.got.cif
#   From: 2010.05.17/outbox.cif.g08.bks.cpg/sg83_2_cif.got.tgz:2834.got - 2010.06.03 18:55:12.
