data_PCOD9543263
_publ_section_title
;
Structure prediction by ZEFSAII (Michael W. Deem and Ramdas Pophale) SiO2 
 PCOD9543263
Probable space group: P 4/M
;
_chemical_formula_sum "Si O2"
_cell_formula_units_Z 52
_cell_length_a 18.736865
_cell_length_b 18.736865
_cell_length_c 8.588816
_cell_angle_alpha 90.000000
_cell_angle_beta 90.000000
_cell_angle_gamma 90.000000
_cell_volume 3015.276578
_symmetry_space_group_name_H-M "P 4/M"
_symmetry_group_IT_number 83
_symmetry_cell_setting 'tetragonal'
loop_
_space_group_symop_operation_xyz
x,y,z
-y,x,z
-x,-y,z
y,-x,z
-x,-y,-z
y,-x,-z
x,y,-z
-y,x,-z
loop_
_atom_site_type_symbol
_atom_site_label
_atom_site_fract_x
_atom_site_fract_y
_atom_site_fract_z
Si Si1 0.356683 0.862423 0.685148
Si Si2 0.571133 0.595496 0.500000
Si Si3 0.831046 0.372897 0.314668
Si Si4 0.582108 0.989376 0.310215
Si Si5 0.769327 0.515156 0.819572
Si Si6 0.248807 0.253637 0.825194
Si Si7 0.384806 0.640270 0.173101
O O1 0.348953 0.862628 0.500000
O O2 0.371311 0.942893 0.741175
O O3 0.428369 0.817580 0.725374
O O4 0.288246 0.822518 0.755501
O O5 0.486445 0.596155 0.500000
O O6 0.598754 0.625035 0.334944
O O7 0.826358 0.381744 0.500000
O O8 0.783442 0.435349 0.237885
O O9 0.804034 0.294411 0.269363
O O10 0.912391 0.388120 0.263610
O O11 0.581364 0.990444 0.500000
O O12 0.500000 0.000000 0.259494
O O13 0.688370 0.543655 0.811069
O O14 0.790522 0.520171 0.000000
O O15 0.302451 0.321233 0.832916
O O16 0.236235 0.227756 0.000000
O O17 0.386299 0.604278 0.000000
#
# Coordination Sequence:
#
# PCOD9543263 Si02
#       7
#     8   4   8   8   8   8   8
#     4  10  18  33  55  73 101 143 180 209 256 319
#     4  11  26  40  52  70  88 115 171 223 269 333
#     4  11  21  32  54  80 103 136 177 217 258 312
#     4   9  17  32  51  80 112 137 171 219 262 309
#     4  10  20  32  47  74 104 131 167 214 261 310
#     4  10  22  37  50  74 106 132 170 220 261 307
#     4   9  22  38  54  71  96 128 164 216 274 319
#
# _framework density 17.245514
#
# number of rings (size 3 to 8) (size 9 to 14) (size 15 to 20)
#    0.000    2.077    1.538    2.769    8.615    0.615 
#    0.000    4.615    0.000    0.000    0.000    0.000 
#    0.000    0.615    0.000    7.077    0.000    2.769 
#
# Total GULP energy -290121.528363 kJ/mol
# GULP energy per Si atom -5579.260161 kJ/mol
# Density = 1.720626 g / cm^3
# Si number density = 17.245514 Si / 1000 Ang^3
#
#
#
# Elastic Constant Matrix: (Units=GPa)
#
#
# Indices 1 2 3 4 5 6 
#
# 1 141.3331 -34.7100 15.8996 0.0000 0.0000 -6.0099
# 2 -34.7100 141.3331 15.8996 0.0000 0.0000 6.0099
# 3 15.8996 15.8996 71.6050 0.0000 0.0000 0.0000
# 4 0.0000 0.0000 0.0000 3.9120 0.0000 0.0000
# 5 0.0000 0.0000 0.0000 0.0000 3.9120 0.0000
# 6 -6.0099 6.0099 0.0000 0.0000 0.0000 23.4202
#
#
#
# Elastic Compliance Matrix: (Units=1/GPa)
#
#
# Indices 1 2 3 4 5 6 
#
# 1 0.007913 0.002131 -0.002230 0.000000 0.000000 0.001484
# 2 0.002131 0.007913 -0.002230 0.000000 0.000000 -0.001484
# 3 -0.002230 -0.002230 0.014956 0.000000 0.000000 0.000000
# 4 0.000000 0.000000 0.000000 0.255624 0.000000 0.000000
# 5 0.000000 0.000000 0.000000 0.000000 0.255624 0.000000
# 6 0.001484 -0.001484 0.000000 0.000000 0.000000 0.043460
#
#
# Mechanical properties :
#
#
# Convention : Reuss Voigt Hill
#
# Bulk Modulus (GPa) = 38.28050 38.71665 38.49858
# Shear Modulus (GPa) = 8.34926 30.06097 19.20512
#
# Velocity S-wave (km/s) = 2.20271 4.17960 3.34073
# Velocity P-wave (km/s) = 5.35862 6.76691 6.10352
#
# Compressibility (1/GPa) = 0.02612296
#
# Stress axis : x y z
#
# Youngs Moduli (GPa) = 126.37677 126.37677 66.86305
#
# Poissons Ratio (x) = -0.26932 0.14912
# Poissons Ratio (y) = -0.26932 0.14912
# Poissons Ratio (z) = 0.28185 0.28185
#
# Static dielectric constant tensor:
#      x y z
#    x 1.594190 0.000000 0.000000 
#    y 0.000000 1.594190 0.000000 
#    z 0.000000 0.000000 1.622090 
# 
# From -- ./inp_files/1040.got.cif
#   From: 2010.05.17/outbox.cif.g08.bks.cpg/sg83_1_cif.got.tgz:1040.got - 2010.06.03 18:55:12.
