data_PCOD9543972
_publ_section_title
;
Structure prediction by ZEFSAII (Michael W. Deem and Ramdas Pophale) SiO2 
 PCOD9543972
Probable space group: P 42/M
;
_chemical_formula_sum "Si O2"
_cell_formula_units_Z 34
_cell_length_a 8.831005
_cell_length_b 8.831005
_cell_length_c 20.227844
_cell_angle_alpha 90.000000
_cell_angle_beta 90.000000
_cell_angle_gamma 90.000000
_cell_volume 1577.501776
_symmetry_space_group_name_H-M "P 42/M"
_symmetry_group_IT_number 84
_symmetry_cell_setting 'tetragonal'
loop_
_space_group_symop_operation_xyz
x,y,z
-y,x,1/2+z
-x,-y,z
y,-x,1/2+z
-x,-y,-z
y,-x,1/2-z
x,y,-z
-y,x,1/2-z
loop_
_atom_site_type_symbol
_atom_site_label
_atom_site_fract_x
_atom_site_fract_y
_atom_site_fract_z
Si Si1 0.205946 0.955791 0.373924
Si Si2 0.247944 0.933933 0.924656
Si Si3 0.433685 0.743698 0.673279
Si Si4 0.000000 0.000000 0.750000
Si Si5 0.431344 0.743227 0.172118
O O1 0.368922 0.881676 0.368305
O O2 0.090685 0.828484 0.401690
O O3 0.141970 0.994524 0.300025
O O4 0.181446 0.105449 0.416627
O O5 0.376680 0.874984 0.875640
O O6 0.298391 0.941130 0.000000
O O7 0.324076 0.598740 0.661589
O O8 0.601785 0.683098 0.661390
O O9 0.422760 0.785016 0.750789
#
# Coordination Sequence:
#
# PCOD9543972 Si02
#       5
#     8   8   8   2   8
#     4  10  18  32  53  75 101 134 174 214 252 299
#     4  10  21  37  51  72 105 141 171 207 252 304
#     4   9  18  35  56  80 101 131 169 214 261 299
#     4   8  16  28  50  80 100 124 168 222 260 288
#     4   9  19  35  55  77 108 133 164 211 260 307
#
# _framework density 21.553066999999999
#
# number of rings (size 3 to 8) (size 9 to 14) (size 15 to 20)
#    0.000    2.824    0.000    5.647    0.000    1.882 
#    0.000   14.118    0.000    0.000    0.000    0.000 
#    0.000    0.000    0.000    0.000    0.000    0.000 
#
# Total GULP energy -189955.774643 kJ/mol
# GULP energy per Si atom -5586.934548 kJ/mol
# Density = 2.150401 g / cm^3
# Si number density = 21.553067 Si / 1000 Ang^3
#
#
#
# Elastic Constant Matrix: (Units=GPa)
#
#
# Indices 1 2 3 4 5 6 
#
# 1 32.2085 58.0601 31.3421 0.0000 0.0000 2.7725
# 2 58.0601 32.2085 31.3421 0.0000 0.0000 -2.7725
# 3 31.3421 31.3421 88.0397 0.0000 0.0000 0.0000
# 4 0.0000 0.0000 0.0000 18.5836 0.0000 0.0000
# 5 0.0000 0.0000 0.0000 0.0000 18.5836 0.0000
# 6 2.7725 -2.7725 0.0000 0.0000 0.0000 52.6917
#
#
#
# Elastic Compliance Matrix: (Units=1/GPa)
#
#
# Indices 1 2 3 4 5 6 
#
# 1 -0.011767 0.026483 -0.005239 0.000000 0.000000 0.002013
# 2 0.026483 -0.011767 -0.005239 0.000000 0.000000 -0.002013
# 3 -0.005239 -0.005239 0.015089 0.000000 0.000000 0.000000
# 4 0.000000 0.000000 0.000000 0.053811 0.000000 0.000000
# 5 0.000000 0.000000 0.000000 0.000000 0.053811 0.000000
# 6 0.002013 -0.002013 0.000000 0.000000 0.000000 0.018767
#
#
# Mechanical properties :
#
#
# Convention : Reuss Voigt Hill
#
# Bulk Modulus (GPa) = 42.43568 43.77168 43.10368
# Shear Modulus (GPa) = 53.31258 20.08592 36.69925
#
# Velocity S-wave (km/s) = 4.97887 3.05606 4.13090
# Velocity P-wave (km/s) = 7.26526 5.72762 6.54177
#
# Compressibility (1/GPa) = 0.02356508
#
# Stress axis : x y z
#
# Youngs Moduli (GPa) = -84.98132 -84.98132 66.27517
#
# Poissons Ratio (x) = 2.25059 0.34721
# Poissons Ratio (y) = 2.25059 0.34721
# Poissons Ratio (z) = -0.44521 -0.44521
#
# Static dielectric constant tensor:
#      x y z
#    x 1.815130 0.000000 0.000000 
#    y 0.000000 1.815130 0.000000 
#    z 0.000000 0.000000 1.721380 
# 
# From -- ./inp_files/4257.got.cif
#   From: 2010.05.17/outbox.cif.g08.bks.cpg/sg84_3_cif.got.tgz:4257.got - 2010.06.03 18:57:40.
