data_PCOD9543130
_publ_section_title
;
Structure prediction by ZEFSAII (Michael W. Deem and Ramdas Pophale) SiO2 
 PCOD9543130
Probable space group: I -4 
;
_chemical_formula_sum "Si O2"
_cell_formula_units_Z 36
_cell_length_a 11.214461
_cell_length_b 11.214461
_cell_length_c 11.093742
_cell_angle_alpha 90.000000
_cell_angle_beta 90.000000
_cell_angle_gamma 90.000000
_cell_volume 1395.194872
_symmetry_space_group_name_H-M "I -4 "
_symmetry_group_IT_number 82
_symmetry_cell_setting 'tetragonal'
loop_
_space_group_symop_operation_xyz
x,y,z
y,-x,-z
-x,-y,z
-y,x,-z
1/2+x,1/2+y,1/2+z
1/2+y,1/2-x,1/2-z
1/2-x,1/2-y,1/2+z
1/2-y,1/2+x,1/2-z
loop_
_atom_site_type_symbol
_atom_site_label
_atom_site_fract_x
_atom_site_fract_y
_atom_site_fract_z
Si Si1 0.883626 0.233400 0.371302
Si Si2 0.000000 0.000000 0.000000
Si Si3 0.500000 0.000000 0.250000
Si Si4 0.722190 0.105211 0.221819
Si Si5 0.974525 0.736880 0.056723
Si Si6 0.747836 0.160728 0.611424
O O1 0.848283 0.124041 0.282053
O O2 0.833873 0.371353 0.371390
O O3 0.823512 0.187849 0.493095
O O4 0.023296 0.244744 0.363570
O O5 0.879637 0.036086 0.929517
O O6 0.374664 0.959628 0.306158
O O7 0.695563 0.246650 0.206843
O O8 0.717258 0.050151 0.087996
O O9 0.108557 0.696905 0.090183
#
# Coordination Sequence:
#
# PCOD9543130 Si02
#       6
#     8   2   2   8   8   8
#     4  11  26  47  73 109 152 196 253 314 401 466
#     4  12  20  44  76 100 144 182 272 304 356 448
#     4  12  28  48  72 108 148 190 268 320 384 492
#     4  11  27  45  78 105 142 205 253 313 398 464
#     4  11  24  46  75 107 153 198 255 327 378 465
#     4  11  26  48  73 111 149 199 250 324 397 471
#
# _framework density 25.802845999999999
#
# number of rings (size 3 to 8) (size 9 to 14) (size 15 to 20)
#    0.000    0.889    4.444    2.000   15.556    0.444 
#    0.000    0.000    0.000    0.000    0.000    0.000 
#    0.000    0.000    0.000    0.000    0.000    0.000 
#
# Total GULP energy -100478.658540 kJ/mol
# GULP energy per Si atom -5582.147697 kJ/mol
# Density = 2.574412 g / cm^3
# Si number density = 25.802846 Si / 1000 Ang^3
#
#
#
# Elastic Constant Matrix: (Units=GPa)
#
#
# Indices 1 2 3 4 5 6 
#
# 1 172.7425 69.9629 1.0763 0.0000 0.0000 2.4320
# 2 69.9629 172.7425 1.0763 0.0000 0.0000 -2.4320
# 3 1.0763 1.0763 30.4320 0.0000 0.0000 0.0000
# 4 0.0000 0.0000 0.0000 29.0201 0.0000 0.0000
# 5 0.0000 0.0000 0.0000 0.0000 29.0201 0.0000
# 6 2.4320 -2.4320 0.0000 0.0000 0.0000 52.2125
#
#
#
# Elastic Compliance Matrix: (Units=1/GPa)
#
#
# Indices 1 2 3 4 5 6 
#
# 1 0.006936 -0.002815 -0.000146 0.000000 0.000000 -0.000454
# 2 -0.002815 0.006936 -0.000146 0.000000 0.000000 0.000454
# 3 -0.000146 -0.000146 0.032870 0.000000 0.000000 0.000000
# 4 0.000000 0.000000 0.000000 0.034459 0.000000 0.000000
# 5 0.000000 0.000000 0.000000 0.000000 0.034459 0.000000
# 6 -0.000454 0.000454 0.000000 0.000000 0.000000 0.019195
#
#
# Mechanical properties :
#
#
# Convention : Reuss Voigt Hill
#
# Bulk Modulus (GPa) = 24.67284 57.79424 41.23354
# Shear Modulus (GPa) = 32.34606 42.30397 37.32501
#
# Velocity S-wave (km/s) = 3.54444 4.05348 3.80748
# Velocity P-wave (km/s) = 5.13162 6.65992 5.94509
#
# Compressibility (1/GPa) = 0.04053040
#
# Stress axis : x y z
#
# Youngs Moduli (GPa) = 144.16941 144.16941 30.42246
#
# Poissons Ratio (x) = 0.40580 0.00443
# Poissons Ratio (y) = 0.40580 0.00443
# Poissons Ratio (z) = 0.02102 0.02102
#
# Static dielectric constant tensor:
#      x y z
#    x 2.057170 0.000000 0.000000 
#    y 0.000000 2.057170 0.000000 
#    z 0.000000 0.000000 2.335040 
# 
# From -- ./inp_files/1625.got.cif
#   From: 2010.05.17/outbox.cif.g08.bks.cpg/sg82_1_cif.got.tgz:1625.got - 2010.06.03 18:52:26.
