data_PCOD9543101
_publ_section_title
;
Structure prediction by ZEFSAII (Michael W. Deem and Ramdas Pophale) SiO2 
 PCOD9543101
Probable space group: I -4 
;
_chemical_formula_sum "Si O2"
_cell_formula_units_Z 48
_cell_length_a 9.535774
_cell_length_b 9.535774
_cell_length_c 25.163654
_cell_angle_alpha 90.000000
_cell_angle_beta 90.000000
_cell_angle_gamma 90.000000
_cell_volume 2288.155864
_symmetry_space_group_name_H-M "I -4 "
_symmetry_group_IT_number 82
_symmetry_cell_setting 'tetragonal'
loop_
_space_group_symop_operation_xyz
x,y,z
y,-x,-z
-x,-y,z
-y,x,-z
1/2+x,1/2+y,1/2+z
1/2+y,1/2-x,1/2-z
1/2-x,1/2-y,1/2+z
1/2-y,1/2+x,1/2-z
loop_
_atom_site_type_symbol
_atom_site_label
_atom_site_fract_x
_atom_site_fract_y
_atom_site_fract_z
Si Si1 0.500000 0.500000 0.500000
Si Si2 0.268994 0.318666 0.489147
Si Si3 0.500000 0.000000 0.250000
Si Si4 0.599098 0.222312 0.162948
Si Si5 0.500000 0.500000 0.784957
Si Si6 0.972597 0.281710 0.229238
Si Si7 0.159917 0.483643 0.951674
Si Si8 0.850797 0.914335 0.872222
O O1 0.365786 0.420002 0.525594
O O2 0.322320 0.161116 0.482939
O O3 0.290371 0.391450 0.431574
O O4 0.113962 0.306115 0.511140
O O5 0.531968 0.127435 0.209404
O O6 0.581207 0.380882 0.182759
O O7 0.523671 0.231240 0.105534
O O8 0.753522 0.156050 0.150723
O O9 0.437961 0.626021 0.749778
O O10 0.849398 0.388848 0.244810
O O11 0.992782 0.259208 0.166322
O O12 0.000000 0.500000 0.936474
O O13 0.000000 0.000000 0.870960
#
# Coordination Sequence:
#
# PCOD9543101 Si02
#       8
#     2   8   2   8   4   8   8   8
#     4  12  20  42  68 100 132 176 234 276 352 436
#     4  11  25  44  74 101 137 189 237 301 366 432
#     4  12  24  44  68 104 136 196 252 284 374 440
#     4  11  26  43  74 106 144 194 246 308 378 441
#     4  12  24  45  68 107 152 191 247 310 378 460
#     4  11  24  45  67 101 151 193 247 306 371 447
#     4  11  24  48  68 105 147 179 245 304 361 444
#     4  11  23  44  73 106 144 193 254 304 368 449
#
# _framework density 20.977592999999999
#
# number of rings (size 3 to 8) (size 9 to 14) (size 15 to 20)
#    0.000    0.833    5.833    1.000    0.000    3.000 
#    6.000    0.000    0.000    0.000    0.000    0.000 
#    0.000    0.000    0.000    0.000    0.000    0.000 
#
# Total GULP energy -133728.786599 kJ/mol
# GULP energy per Si atom -5572.032775 kJ/mol
# Density = 2.092985 g / cm^3
# Si number density = 20.977593 Si / 1000 Ang^3
#
#
#
# Elastic Constant Matrix: (Units=GPa)
#
#
# Indices 1 2 3 4 5 6 
#
# 1 139.5286 25.5829 54.9317 0.0000 0.0000 8.0702
# 2 25.5829 139.5286 54.9317 0.0000 0.0000 -8.0702
# 3 54.9317 54.9317 107.7571 0.0000 0.0000 0.0000
# 4 0.0000 0.0000 0.0000 1.4218 0.0000 0.0000
# 5 0.0000 0.0000 0.0000 0.0000 1.4218 0.0000
# 6 8.0702 -8.0702 0.0000 0.0000 0.0000 30.6694
#
#
#
# Elastic Compliance Matrix: (Units=1/GPa)
#
#
# Indices 1 2 3 4 5 6 
#
# 1 0.009141 0.000025 -0.004672 0.000000 0.000000 -0.002399
# 2 0.000025 0.009141 -0.004672 0.000000 0.000000 0.002399
# 3 -0.004672 -0.004672 0.014044 0.000000 0.000000 0.000000
# 4 0.000000 0.000000 0.000000 0.703334 0.000001 0.000000
# 5 0.000000 0.000000 0.000000 0.000001 0.703332 0.000000
# 6 -0.002399 0.002399 0.000000 0.000000 0.000000 0.033868
#
#
# Mechanical properties :
#
#
# Convention : Reuss Voigt Hill
#
# Bulk Modulus (GPa) = 73.07045 73.07856 73.07450
# Shear Modulus (GPa) = 3.34211 23.46048 13.40129
#
# Velocity S-wave (km/s) = 1.26358 3.34782 2.53027
# Velocity P-wave (km/s) = 6.08581 7.06087 6.59140
#
# Compressibility (1/GPa) = 0.01368542
#
# Stress axis : x y z
#
# Youngs Moduli (GPa) = 109.40156 109.40156 71.20617
#
# Poissons Ratio (x) = -0.00271 0.33269
# Poissons Ratio (y) = -0.00271 0.33269
# Poissons Ratio (z) = 0.51115 0.51115
#
# Static dielectric constant tensor:
#      x y z
#    x 1.812240 0.000000 0.000000 
#    y 0.000000 1.812240 0.000000 
#    z 0.000000 0.000000 1.613980 
# 
# From -- ./inp_files/4127.got.cif
#   From: 2010.05.17/outbox.cif.g08.bks.cpg/sg82_3_cif.got.tgz:4127.got - 2010.06.03 18:52:26.
