data_PCOD9543966
_publ_section_title
;
Structure prediction by ZEFSAII (Michael W. Deem and Ramdas Pophale) SiO2 
 PCOD9543966
Probable space group: P 42/M
;
_chemical_formula_sum "Si O2"
_cell_formula_units_Z 56
_cell_length_a 11.205858
_cell_length_b 11.205858
_cell_length_c 25.495948
_cell_angle_alpha 90.000000
_cell_angle_beta 90.000000
_cell_angle_gamma 90.000000
_cell_volume 3201.558150
_symmetry_space_group_name_H-M "P 42/M"
_symmetry_group_IT_number 84
_symmetry_cell_setting 'tetragonal'
loop_
_space_group_symop_operation_xyz
x,y,z
-y,x,1/2+z
-x,-y,z
y,-x,1/2+z
-x,-y,-z
y,-x,1/2-z
x,y,-z
-y,x,1/2-z
loop_
_atom_site_type_symbol
_atom_site_label
_atom_site_fract_x
_atom_site_fract_y
_atom_site_fract_z
Si Si1 0.730202 0.387176 0.606688
Si Si2 0.359773 0.471985 0.179616
Si Si3 0.486107 0.193302 0.000000
Si Si4 0.840454 0.928131 0.224653
Si Si5 0.291797 0.974313 0.000000
Si Si6 0.754480 0.963547 0.110295
Si Si7 0.702697 0.718008 0.269248
Si Si8 0.567249 0.109404 0.170851
O O1 0.601839 0.344789 0.626138
O O2 0.732849 0.457337 0.552176
O O3 0.824905 0.279835 0.603705
O O4 0.791094 0.476915 0.649130
O O5 0.500000 0.500000 0.183265
O O6 0.328586 0.378569 0.225082
O O7 0.285701 0.592018 0.190452
O O8 0.619328 0.139267 0.000000
O O9 0.388891 0.084024 0.000000
O O10 0.830351 0.968612 0.164016
O O11 0.731809 0.843148 0.241737
O O12 0.960387 0.853407 0.236177
O O13 0.213925 0.986400 0.053027
O O14 0.634065 0.038303 0.124250
O O15 0.820410 0.666777 0.297191
O O16 0.500000 0.000000 0.199627
#
# Coordination Sequence:
#
# PCOD9543966 Si02
#       8
#     8   8   4   8   4   8   8   8
#     4  10  18  31  49  75 113 143 183 222 271 324
#     4  12  21  31  48  76 109 146 181 213 263 325
#     4   9  16  28  47  78 111 145 180 233 273 320
#     4  11  24  39  56  80 109 140 176 231 291 336
#     4   9  16  28  52  83 109 139 188 233 277 329
#     4  10  18  33  53  80 108 143 183 229 278 328
#     4  12  21  35  51  75 110 147 182 220 268 337
#     4  10  19  29  52  79 107 141 178 219 270 326
#
# _framework density 17.491482999999999
#
# number of rings (size 3 to 8) (size 9 to 14) (size 15 to 20)
#    0.000    1.429    7.143    0.000    2.000    0.000 
#    0.000    0.357    0.000    1.714    0.000    0.000 
#    0.000    3.429    0.000    0.000    0.000    0.286 
#
# Total GULP energy -312014.349201 kJ/mol
# GULP energy per Si atom -5571.684807 kJ/mol
# Density = 1.745167 g / cm^3
# Si number density = 17.491483 Si / 1000 Ang^3
#
#
#
# Elastic Constant Matrix: (Units=GPa)
#
#
# Indices 1 2 3 4 5 6 
#
# 1 56.4156 24.0299 33.0084 0.0000 0.0000 -6.1643
# 2 24.0299 56.4156 33.0084 0.0000 0.0000 6.1643
# 3 33.0084 33.0084 117.1977 0.0000 0.0000 0.0000
# 4 0.0000 0.0000 0.0000 15.1358 0.0000 0.0000
# 5 0.0000 0.0000 0.0000 0.0000 15.1358 0.0000
# 6 -6.1643 6.1643 0.0000 0.0000 0.0000 29.9102
#
#
#
# Elastic Compliance Matrix: (Units=1/GPa)
#
#
# Indices 1 2 3 4 5 6 
#
# 1 0.024837 -0.008670 -0.004554 0.000000 0.000000 0.006906
# 2 -0.008670 0.024837 -0.004554 0.000000 0.000000 -0.006906
# 3 -0.004554 -0.004554 0.011098 0.000000 0.000000 0.000000
# 4 0.000000 0.000000 0.000000 0.066069 0.000000 0.000000
# 5 0.000000 0.000000 0.000000 0.000000 0.066069 0.000000
# 6 0.006906 -0.006906 0.000000 0.000000 0.000000 0.036280
#
#
# Mechanical properties :
#
#
# Convention : Reuss Voigt Hill
#
# Bulk Modulus (GPa) = 39.65334 45.56915 42.61125
# Shear Modulus (GPa) = 18.30505 21.36849 19.83677
#
# Velocity S-wave (km/s) = 3.23849 3.49900 3.37127
# Velocity P-wave (km/s) = 6.05831 6.51405 6.29031
#
# Compressibility (1/GPa) = 0.02521856
#
# Stress axis : x y z
#
# Youngs Moduli (GPa) = 40.26225 40.26225 90.10962
#
# Poissons Ratio (x) = 0.34906 0.41032
# Poissons Ratio (y) = 0.34906 0.41032
# Poissons Ratio (z) = 0.18334 0.18334
#
# Static dielectric constant tensor:
#      x y z
#    x 1.628910 0.000000 0.000000 
#    y 0.000000 1.628910 0.000000 
#    z 0.000000 0.000000 1.643580 
# 
# From -- ./inp_files/5057.got.cif
#   From: 2010.05.17/outbox.cif.g08.bks.cpg/sg84_3_cif.got.tgz:5057.got - 2010.06.03 18:57:40.
