data_PCOD9543576
_publ_section_title
;
Structure prediction by ZEFSAII (Michael W. Deem and Ramdas Pophale) SiO2 
 PCOD9543576
Probable space group: P 4/M
;
_chemical_formula_sum "Si O2"
_cell_formula_units_Z 56
_cell_length_a 12.050922
_cell_length_b 12.050922
_cell_length_c 25.241384
_cell_angle_alpha 90.000000
_cell_angle_beta 90.000000
_cell_angle_gamma 90.000000
_cell_volume 3665.672950
_symmetry_space_group_name_H-M "P 4/M"
_symmetry_group_IT_number 83
_symmetry_cell_setting 'tetragonal'
loop_
_space_group_symop_operation_xyz
x,y,z
-y,x,z
-x,-y,z
y,-x,z
-x,-y,-z
y,-x,-z
x,y,-z
-y,x,-z
loop_
_atom_site_type_symbol
_atom_site_label
_atom_site_fract_x
_atom_site_fract_y
_atom_site_fract_z
Si Si1 0.313656 0.532209 0.173742
Si Si2 0.011663 0.624212 0.356684
Si Si3 0.641789 0.239946 0.334199
Si Si4 0.354640 0.381248 0.442232
Si Si5 0.314438 0.531824 0.056949
Si Si6 0.960151 0.182479 0.438090
Si Si7 0.586923 0.788104 0.281580
O O1 0.377032 0.413544 0.178406
O O2 0.261148 0.541086 0.114928
O O3 0.227688 0.551029 0.221097
O O4 0.890680 0.659213 0.336910
O O5 0.000000 0.500000 0.381061
O O6 0.054399 0.714352 0.398665
O O7 0.091883 0.609338 0.306376
O O8 0.663344 0.289482 0.392249
O O9 0.514541 0.260488 0.316751
O O10 0.717524 0.303794 0.292945
O O11 0.484510 0.350386 0.439811
O O12 0.311127 0.345862 0.500000
O O13 0.377672 0.413500 0.056817
O O14 0.254352 0.542172 0.000000
O O15 0.953240 0.215602 0.500000
O O16 0.082135 0.127166 0.429612
#
# Coordination Sequence:
#
# PCOD9543576 Si02
#       7
#     8   8   8   8   8   8   8
#     4   9  15  23  40  66  89 117 154 185 211 250
#     4  10  23  35  44  65  94 121 139 168 226 275
#     4  11  20  32  49  64  89 116 144 182 221 263
#     4   9  17  29  46  67  85 103 134 174 217 262
#     4   7  10  17  30  53  89 122 143 173 218 254
#     4   9  18  36  60  74  78  97 142 191 226 266
#     4  11  20  31  46  66  88 118 151 182 214 261
#
# _framework density 15.276868
#
# number of rings (size 3 to 8) (size 9 to 14) (size 15 to 20)
#    0.000    2.571    2.857    3.000    0.000    1.143 
#    0.000    2.857    0.000    0.000    0.000    0.000 
#    0.000    6.286    0.000    0.000    0.000    0.000 
#
# Total GULP energy -311877.029453 kJ/mol
# GULP energy per Si atom -5569.232669 kJ/mol
# Density = 1.524210 g / cm^3
# Si number density = 15.276868 Si / 1000 Ang^3
#
#
#
# Elastic Constant Matrix: (Units=GPa)
#
#
# Indices 1 2 3 4 5 6 
#
# 1 33.2916 15.0714 22.9323 0.0000 0.0000 -4.7513
# 2 15.0714 33.2916 22.9323 0.0000 0.0000 4.7513
# 3 22.9323 22.9323 135.0947 0.0000 0.0000 0.0000
# 4 0.0000 0.0000 0.0000 11.2450 0.0000 0.0000
# 5 0.0000 0.0000 0.0000 0.0000 11.2450 0.0000
# 6 -4.7513 4.7513 0.0000 0.0000 0.0000 9.3347
#
#
#
# Elastic Compliance Matrix: (Units=1/GPa)
#
#
# Indices 1 2 3 4 5 6 
#
# 1 0.049682 -0.025038 -0.004183 0.000000 0.000000 0.038032
# 2 -0.025038 0.049682 -0.004183 0.000000 0.000000 -0.038032
# 3 -0.004183 -0.004183 0.008822 0.000000 0.000000 0.000000
# 4 0.000000 0.000000 0.000000 0.088929 0.000000 0.000000
# 5 0.000000 0.000000 0.000000 0.000000 0.088929 0.000000
# 6 0.038032 -0.038032 0.000000 0.000000 0.000000 0.145843
#
#
# Mechanical properties :
#
#
# Convention : Reuss Voigt Hill
#
# Bulk Modulus (GPa) = 24.16770 35.94999 30.05885
# Shear Modulus (GPa) = 9.75633 15.74772 12.75203
#
# Velocity S-wave (km/s) = 2.52986 3.21412 2.89230
# Velocity P-wave (km/s) = 4.93840 6.11208 5.55631
#
# Compressibility (1/GPa) = 0.04137754
#
# Stress axis : x y z
#
# Youngs Moduli (GPa) = 20.12805 20.12805 113.34692
#
# Poissons Ratio (x) = 0.50396 0.47417
# Poissons Ratio (y) = 0.50396 0.47417
# Poissons Ratio (z) = 0.08420 0.08420
#
# Static dielectric constant tensor:
#      x y z
#    x 1.518810 0.000000 0.000000 
#    y 0.000000 1.518810 0.000000 
#    z 0.000000 0.000000 1.534580 
# 
# From -- ./inp_files/3178.got.cif
#   From: 2010.05.17/outbox.cif.g08.bks.cpg/sg83_2_cif.got.tgz:3178.got - 2010.06.03 18:55:12.
