data_PCOD9543434
_publ_section_title
;
Structure prediction by ZEFSAII (Michael W. Deem and Ramdas Pophale) SiO2 
 PCOD9543434
Probable space group: P 4/M
;
_chemical_formula_sum "Si O2"
_cell_formula_units_Z 52
_cell_length_a 16.842233
_cell_length_b 16.842233
_cell_length_c 10.632711
_cell_angle_alpha 90.000000
_cell_angle_beta 90.000000
_cell_angle_gamma 90.000000
_cell_volume 3016.083441
_symmetry_space_group_name_H-M "P 4/M"
_symmetry_group_IT_number 83
_symmetry_cell_setting 'tetragonal'
loop_
_space_group_symop_operation_xyz
x,y,z
-y,x,z
-x,-y,z
y,-x,z
-x,-y,-z
y,-x,-z
x,y,-z
-y,x,-z
loop_
_atom_site_type_symbol
_atom_site_label
_atom_site_fract_x
_atom_site_fract_y
_atom_site_fract_z
Si Si1 0.778525 0.324827 0.650716
Si Si2 0.503107 0.738159 0.253835
Si Si3 0.646074 0.192035 0.649741
Si Si4 0.917615 0.107087 0.000000
Si Si5 0.500538 0.365259 0.000000
Si Si6 0.513017 0.368459 0.500000
Si Si7 0.219614 0.933030 0.643859
Si Si8 0.808615 0.895216 0.742048
O O1 0.791297 0.334923 0.500000
O O2 0.770897 0.409166 0.718370
O O3 0.698302 0.272382 0.664890
O O4 0.847473 0.271425 0.711618
O O5 0.432790 0.802376 0.267295
O O6 0.499677 0.688945 0.124908
O O7 0.484754 0.681697 0.373289
O O8 0.627646 0.184789 0.500000
O O9 0.705231 0.120271 0.684364
O O10 0.885547 0.153489 0.120892
O O11 0.014254 0.106802 0.000000
O O12 0.576963 0.423586 0.000000
O O13 0.583750 0.430956 0.500000
O O14 0.233037 0.956624 0.500000
O O15 0.143817 0.875006 0.652069
O O16 0.205088 0.012243 0.720332
#
# Coordination Sequence:
#
# PCOD9543434 Si02
#       8
#     8   8   8   4   4   4   8   8
#     4  10  20  35  58  87 115 150 206 258 294 353
#     4  12  21  36  57  79 117 161 198 249 303 350
#     4   9  18  34  55  81 113 150 194 248 299 352
#     4  11  22  39  59  87 122 157 193 233 283 365
#     4  11  24  37  51  81 122 154 192 251 309 366
#     4  11  20  30  54  84 105 142 202 254 309 360
#     4  10  20  35  57  86 117 149 191 246 305 356
#     4  11  21  37  57  84 119 154 189 240 299 351
#
# _framework density 17.240901999999998
#
# number of rings (size 3 to 8) (size 9 to 14) (size 15 to 20)
#    0.000    1.462    3.077    5.077    0.000    2.154 
#    0.000    5.385    0.000    2.769    0.000    2.154 
#    0.000    0.000    0.000    0.000    0.000    0.000 
#
# Total GULP energy -290206.472796 kJ/mol
# GULP energy per Si atom -5580.893708 kJ/mol
# Density = 1.720166 g / cm^3
# Si number density = 17.240902 Si / 1000 Ang^3
#
#
#
# Elastic Constant Matrix: (Units=GPa)
#
#
# Indices 1 2 3 4 5 6 
#
# 1 80.8395 24.6663 24.5320 0.0000 0.0000 5.2828
# 2 24.6663 80.8395 24.5320 0.0000 0.0000 -5.2828
# 3 24.5320 24.5320 92.5505 0.0000 0.0000 0.0000
# 4 0.0000 0.0000 0.0000 17.3178 0.0000 0.0000
# 5 0.0000 0.0000 0.0000 0.0000 17.3178 0.0000
# 6 5.2828 -5.2828 0.0000 0.0000 0.0000 22.5270
#
#
#
# Elastic Compliance Matrix: (Units=1/GPa)
#
#
# Indices 1 2 3 4 5 6 
#
# 1 0.014717 -0.003906 -0.002866 0.000000 0.000000 -0.004367
# 2 -0.003906 0.014717 -0.002866 0.000000 0.000000 0.004367
# 3 -0.002866 -0.002866 0.012324 0.000000 0.000000 0.000000
# 4 0.000000 0.000000 0.000000 0.057744 0.000000 0.000000
# 5 0.000000 0.000000 0.000000 0.000000 0.057744 0.000000
# 6 -0.004367 0.004367 0.000000 0.000000 0.000000 0.046440
#
#
# Mechanical properties :
#
#
# Convention : Reuss Voigt Hill
#
# Bulk Modulus (GPa) = 44.47751 44.63224 44.55488
# Shear Modulus (GPa) = 21.69616 23.46580 22.58098
#
# Velocity S-wave (km/s) = 3.55126 3.69325 3.62295
# Velocity P-wave (km/s) = 6.53215 6.64307 6.58784
#
# Compressibility (1/GPa) = 0.02248327
#
# Stress axis : x y z
#
# Youngs Moduli (GPa) = 67.94802 67.94802 81.14226
#
# Poissons Ratio (x) = 0.26543 0.23252
# Poissons Ratio (y) = 0.26543 0.23252
# Poissons Ratio (z) = 0.19471 0.19471
#
# Static dielectric constant tensor:
#      x y z
#    x 1.591660 0.000000 0.000000 
#    y 0.000000 1.591660 0.000000 
#    z 0.000000 0.000000 1.574420 
# 
# From -- ./inp_files/1088.got.cif
#   From: 2010.05.17/outbox.cif.g08.bks.cpg/sg83_1_cif.got.tgz:1088.got - 2010.06.03 18:55:12.
