data_PCOD9543225
_publ_section_title
;
Structure prediction by ZEFSAII (Michael W. Deem and Ramdas Pophale) SiO2 
 PCOD9543225
Probable space group: P 4/M
;
_chemical_formula_sum "Si O2"
_cell_formula_units_Z 40
_cell_length_a 18.433129
_cell_length_b 18.433129
_cell_length_c 8.664574
_cell_angle_alpha 90.000000
_cell_angle_beta 90.000000
_cell_angle_gamma 90.000000
_cell_volume 2944.051074
_symmetry_space_group_name_H-M "P 4/M"
_symmetry_group_IT_number 83
_symmetry_cell_setting 'tetragonal'
loop_
_space_group_symop_operation_xyz
x,y,z
-y,x,z
-x,-y,z
y,-x,z
-x,-y,-z
y,-x,-z
x,y,-z
-y,x,-z
loop_
_atom_site_type_symbol
_atom_site_label
_atom_site_fract_x
_atom_site_fract_y
_atom_site_fract_z
Si Si1 0.494356 0.912160 0.181598
Si Si2 0.345056 0.917326 0.682493
Si Si3 0.082590 0.803483 0.315228
Si Si4 0.080997 0.652665 0.186192
Si Si5 0.194170 0.918842 0.815726
O O1 0.423485 0.885736 0.271427
O O2 0.574589 0.884120 0.225662
O O3 0.500000 0.000000 0.200446
O O4 0.482766 0.899127 0.000000
O O5 0.334801 0.914869 0.500000
O O6 0.273131 0.888167 0.765693
O O7 0.348308 0.000754 0.740032
O O8 0.080294 0.801392 0.500000
O O9 0.113666 0.727081 0.249980
O O10 0.131932 0.868812 0.255333
O O11 0.000689 0.811428 0.250401
O O12 0.074306 0.655922 0.000000
O O13 0.189142 0.921365 0.000000
#
# Coordination Sequence:
#
# PCOD9543225 Si02
#       5
#     8   8   8   8   8
#     4   8  14  24  38  56  78 101 123 148 182 230
#     4  10  17  25  39  59  79  98 123 157 195 230
#     4  11  21  33  46  61  78  97 129 172 211 239
#     4   9  16  27  41  57  77 101 126 152 189 236
#     4  11  21  34  47  58  75 102 134 165 204 247
#
# _framework density 13.586721000000001
#
# number of rings (size 3 to 8) (size 9 to 14) (size 15 to 20)
#    0.000    2.200    0.000    9.600    0.000    4.800 
#    0.000    2.000    0.000    0.000    0.000    0.000 
#    0.000    0.000    0.000    0.000    0.000    1.000 
#
# Total GULP energy -222718.811865 kJ/mol
# GULP energy per Si atom -5567.970297 kJ/mol
# Density = 1.355580 g / cm^3
# Si number density = 13.586721 Si / 1000 Ang^3
#
#
#
# Elastic Constant Matrix: (Units=GPa)
#
#
# Indices 1 2 3 4 5 6 
#
# 1 60.2442 27.7702 24.6854 0.0000 0.0000 -0.3089
# 2 27.7702 60.2442 24.6854 0.0000 0.0000 0.3089
# 3 24.6854 24.6854 96.2455 0.0000 0.0000 0.0000
# 4 0.0000 0.0000 0.0000 33.1552 0.0000 0.0000
# 5 0.0000 0.0000 0.0000 0.0000 33.1552 0.0000
# 6 -0.3089 0.3089 0.0000 0.0000 0.0000 -0.5312
#
#
#
# Elastic Compliance Matrix: (Units=1/GPa)
#
#
# Indices 1 2 3 4 5 6 
#
# 1 0.021864 -0.008593 -0.003404 0.000000 0.000000 -0.017709
# 2 -0.008593 0.021864 -0.003404 0.000000 0.000000 0.017709
# 3 -0.003404 -0.003404 0.012136 0.000000 0.000000 0.000000
# 4 0.000000 0.000000 0.000000 0.030161 0.000000 0.000000
# 5 0.000000 0.000000 0.000000 0.000000 0.030161 0.000000
# 6 -0.017709 0.017709 0.000000 0.000000 0.000000 -1.861919
#
#
# Mechanical properties :
#
#
# Convention : Reuss Voigt Hill
#
# Bulk Modulus (GPa) = 39.89931 41.22397 40.56164
# Shear Modulus (GPa) = -2.92984 22.46205 9.76610
#
# Velocity S-wave (km/s) = -1.47006 4.07041 2.68395
# Velocity P-wave (km/s) = 5.15254 7.24557 6.28677
#
# Compressibility (1/GPa) = 0.02506309
#
# Stress axis : x y z
#
# Youngs Moduli (GPa) = 45.73718 45.73718 82.39855
#
# Poissons Ratio (x) = 0.39302 0.28047
# Poissons Ratio (y) = 0.39302 0.28047
# Poissons Ratio (z) = 0.15568 0.15568
#
# Static dielectric constant tensor:
#      x y z
#    x 1.473240 0.000000 0.000000 
#    y 0.000000 1.473240 0.000000 
#    z 0.000000 0.000000 1.449120 
# 
# From -- ./inp_files/817.got.cif
#   From: 2010.05.17/outbox.cif.g08.bks.cpg/sg83_1_cif.got.tgz:817.got - 2010.06.03 18:55:12.
