data_PCOD9543891
_publ_section_title
;
Structure prediction by ZEFSAII (Michael W. Deem and Ramdas Pophale) SiO2 
 PCOD9543891
Probable space group: P 4/M
;
_chemical_formula_sum "Si O2"
_cell_formula_units_Z 36
_cell_length_a 10.452902
_cell_length_b 10.452902
_cell_length_c 17.826629
_cell_angle_alpha 90.000000
_cell_angle_beta 90.000000
_cell_angle_gamma 90.000000
_cell_volume 1947.793821
_symmetry_space_group_name_H-M "P 4/M"
_symmetry_group_IT_number 83
_symmetry_cell_setting 'tetragonal'
loop_
_space_group_symop_operation_xyz
x,y,z
-y,x,z
-x,-y,z
y,-x,z
-x,-y,-z
y,-x,-z
x,y,-z
-y,x,-z
loop_
_atom_site_type_symbol
_atom_site_label
_atom_site_fract_x
_atom_site_fract_y
_atom_site_fract_z
Si Si1 0.304860 0.594451 0.664149
Si Si2 0.713265 0.534693 0.082609
Si Si3 0.950641 0.209919 0.085695
Si Si4 0.594637 0.694986 0.500000
Si Si5 0.879640 0.427716 0.203680
O O1 0.336538 0.442484 0.669433
O O2 0.246847 0.622786 0.581541
O O3 0.213498 0.625629 0.732821
O O4 0.601982 0.640012 0.087026
O O5 0.807637 0.532347 0.151706
O O6 0.773645 0.546735 0.000000
O O7 0.922593 0.317712 0.146237
O O8 0.091673 0.148419 0.093558
O O9 0.937709 0.258606 0.000000
O O10 0.443514 0.663031 0.500000
O O11 0.000000 0.500000 0.238940
#
# Coordination Sequence:
#
# PCOD9543891 Si02
#       5
#     8   8   8   4   8
#     4   9  18  34  57  81 109 137 163 204 260 317
#     4   9  19  35  52  70  97 133 167 209 270 323
#     4   9  21  41  57  67  90 138 189 226 256 287
#     4   7  12  28  55  82 102 133 170 194 240 319
#     4  12  24  31  48  81 107 131 168 215 260 306
#
# _framework density 18.48245
#
# number of rings (size 3 to 8) (size 9 to 14) (size 15 to 20)
#    0.000    2.556    0.000    4.667    6.222    3.556 
#    0.000    0.556    0.000    0.000    0.000    0.000 
#    0.000    1.778    0.000    0.000    0.000    0.000 
#
# Total GULP energy -200917.524025 kJ/mol
# GULP energy per Si atom -5581.042334 kJ/mol
# Density = 1.844038 g / cm^3
# Si number density = 18.482450 Si / 1000 Ang^3
#
#
#
# Elastic Constant Matrix: (Units=GPa)
#
#
# Indices 1 2 3 4 5 6 
#
# 1 48.6846 -2.8305 23.3057 0.0000 0.0000 7.6780
# 2 -2.8305 48.6846 23.3057 0.0000 0.0000 -7.6780
# 3 23.3057 23.3057 110.9536 0.0000 0.0000 0.0000
# 4 0.0000 0.0000 0.0000 -2.3057 0.0000 0.0000
# 5 0.0000 0.0000 0.0000 0.0000 -2.3057 0.0000
# 6 7.6780 -7.6780 0.0000 0.0000 0.0000 14.2266
#
#
#
# Elastic Compliance Matrix: (Units=1/GPa)
#
#
# Indices 1 2 3 4 5 6 
#
# 1 0.025431 0.002298 -0.005824 0.000000 0.000000 -0.012485
# 2 0.002298 0.025431 -0.005824 0.000000 0.000000 0.012485
# 3 -0.005824 -0.005824 0.011460 0.000000 0.000000 0.000000
# 4 0.000000 0.000000 0.000000 -0.433711 0.000000 0.000000
# 5 0.000000 0.000000 0.000000 0.000000 -0.433711 0.000000
# 6 -0.012485 0.012485 0.000000 0.000000 0.000000 0.083767
#
#
# Mechanical properties :
#
#
# Convention : Reuss Voigt Hill
#
# Bulk Modulus (GPa) = 22.92543 32.87609 27.90076
# Shear Modulus (GPa) = -7.26648 12.89251 2.81301
#
# Velocity S-wave (km/s) = -1.98497 2.64399 1.23503
# Velocity P-wave (km/s) = 2.67906 5.21030 4.14274
#
# Compressibility (1/GPa) = 0.04361968
#
# Stress axis : x y z
#
# Youngs Moduli (GPa) = 39.32190 39.32190 87.26291
#
# Poissons Ratio (x) = -0.09035 0.50826
# Poissons Ratio (y) = -0.09035 0.50826
# Poissons Ratio (z) = 0.22903 0.22903
#
# Static dielectric constant tensor:
#      x y z
#    x 1.653620 0.000000 0.000000 
#    y 0.000000 1.653620 0.000000 
#    z 0.000000 0.000000 1.653790 
# 
# From -- ./inp_files/2568.got.cif
#   From: 2010.05.17/outbox.cif.g08.bks.cpg/sg83_2_cif.got.tgz:2568.got - 2010.06.03 18:55:12.
