data_PCOD9543165
_publ_section_title
;
Structure prediction by ZEFSAII (Michael W. Deem and Ramdas Pophale) SiO2 
 PCOD9543165
Probable space group: I -4 
;
_chemical_formula_sum "Si O2"
_cell_formula_units_Z 36
_cell_length_a 10.469479
_cell_length_b 10.469479
_cell_length_c 12.690066
_cell_angle_alpha 90.000000
_cell_angle_beta 90.000000
_cell_angle_gamma 90.000000
_cell_volume 1390.958014
_symmetry_space_group_name_H-M "I -4 "
_symmetry_group_IT_number 82
_symmetry_cell_setting 'tetragonal'
loop_
_space_group_symop_operation_xyz
x,y,z
y,-x,-z
-x,-y,z
-y,x,-z
1/2+x,1/2+y,1/2+z
1/2+y,1/2-x,1/2-z
1/2-x,1/2-y,1/2+z
1/2-y,1/2+x,1/2-z
loop_
_atom_site_type_symbol
_atom_site_label
_atom_site_fract_x
_atom_site_fract_y
_atom_site_fract_z
Si Si1 0.272885 0.083904 0.149267
Si Si2 0.789130 0.512143 0.280574
Si Si3 0.398413 0.228335 0.516736
Si Si4 0.000000 0.000000 0.674748
Si Si5 0.473912 0.772193 0.107938
O O1 0.412671 0.126912 0.114950
O O2 0.275081 0.088309 0.274663
O O3 0.236828 0.946911 0.100006
O O4 0.177377 0.173507 0.087059
O O5 0.870181 0.380195 0.256876
O O6 0.794516 0.519438 0.407983
O O7 0.640306 0.504732 0.238278
O O8 0.310370 0.108880 0.491654
O O9 0.011242 0.125910 0.605385
#
# Coordination Sequence:
#
# PCOD9543165 Si02
#       5
#     8   8   8   4   8
#     4  12  28  50  84 123 171 217 286 350 438 528
#     4  11  28  52  86 126 176 229 295 370 443 534
#     4  12  29  48  86 119 166 224 282 350 448 513
#     4  12  28  52  90 122 178 220 292 370 432 528
#     4  12  28  53  81 125 170 225 282 363 429 532
#
# _framework density 25.881444999999999
#
# number of rings (size 3 to 8) (size 9 to 14) (size 15 to 20)
#    0.000    0.222    4.444    2.000   12.444    2.222 
#    0.000    1.111    0.000    0.000    0.000    0.000 
#    0.000    0.000    0.000    0.000    0.000    0.000 
#
# Total GULP energy -100555.321087 kJ/mol
# GULP energy per Si atom -5586.406727 kJ/mol
# Density = 2.582254 g / cm^3
# Si number density = 25.881445 Si / 1000 Ang^3
#
#
#
# Elastic Constant Matrix: (Units=GPa)
#
#
# Indices 1 2 3 4 5 6 
#
# 1 97.0050 76.4015 40.3606 0.0000 0.0000 22.8038
# 2 76.4015 97.0050 40.3606 0.0000 0.0000 -22.8038
# 3 40.3606 40.3606 118.5317 0.0000 0.0000 0.0000
# 4 0.0000 0.0000 0.0000 53.4388 0.0000 0.0000
# 5 0.0000 0.0000 0.0000 0.0000 53.4388 0.0000
# 6 22.8038 -22.8038 0.0000 0.0000 0.0000 38.0697
#
#
#
# Elastic Compliance Matrix: (Units=1/GPa)
#
#
# Indices 1 2 3 4 5 6 
#
# 1 -0.071029 0.077882 -0.002333 0.000000 0.000000 0.089197
# 2 0.077882 -0.071029 -0.002333 0.000000 0.000000 -0.089197
# 3 -0.002333 -0.002333 0.010026 0.000000 0.000000 0.000000
# 4 0.000000 0.000000 0.000000 0.018713 0.000000 0.000000
# 5 0.000000 0.000000 0.000000 0.000000 0.018713 0.000000
# 6 0.089197 -0.089197 0.000000 0.000000 0.000000 -0.080591
#
#
# Mechanical properties :
#
#
# Convention : Reuss Voigt Hill
#
# Bulk Modulus (GPa) = 69.45503 69.64301 69.54902
# Shear Modulus (GPa) = -15.78150 39.35072 11.78461
#
# Velocity S-wave (km/s) = -2.47201 3.90349 2.13616
# Velocity P-wave (km/s) = 4.32970 6.87628 5.74585
#
# Compressibility (1/GPa) = 0.01439781
#
# Stress axis : x y z
#
# Youngs Moduli (GPa) = -14.07883 -14.07883 99.74373
#
# Poissons Ratio (x) = 1.09648 0.23275
# Poissons Ratio (y) = 1.09648 0.23275
# Poissons Ratio (z) = -0.03285 -0.03285
#
# Static dielectric constant tensor:
#      x y z
#    x 2.158950 0.000000 0.000000 
#    y 0.000000 2.158950 0.000000 
#    z 0.000000 0.000000 2.069790 
# 
# From -- ./inp_files/1582.got.cif
#   From: 2010.05.17/outbox.cif.g08.bks.cpg/sg82_1_cif.got.tgz:1582.got - 2010.06.03 18:52:26.
