data_PCOD9543539
_publ_section_title
;
Structure prediction by ZEFSAII (Michael W. Deem and Ramdas Pophale) SiO2 
 PCOD9543539
Probable space group: P 4/M
;
_chemical_formula_sum "Si O2"
_cell_formula_units_Z 58
_cell_length_a 18.490314
_cell_length_b 18.490314
_cell_length_c 7.521356
_cell_angle_alpha 90.000000
_cell_angle_beta 90.000000
_cell_angle_gamma 90.000000
_cell_volume 2571.489278
_symmetry_space_group_name_H-M "P 4/M"
_symmetry_group_IT_number 83
_symmetry_cell_setting 'tetragonal'
loop_
_space_group_symop_operation_xyz
x,y,z
-y,x,z
-x,-y,z
y,-x,z
-x,-y,-z
y,-x,-z
x,y,-z
-y,x,-z
loop_
_atom_site_type_symbol
_atom_site_label
_atom_site_fract_x
_atom_site_fract_y
_atom_site_fract_z
Si Si1 0.619064 0.143752 0.786713
Si Si2 0.885645 0.995756 0.286610
Si Si3 0.325682 0.629732 0.284338
Si Si4 0.249094 0.085945 0.790300
Si Si5 0.400237 0.023032 0.214431
Si Si6 0.773204 0.758562 0.209343
Si Si7 0.285769 0.468694 0.712395
Si Si8 0.500000 0.000000 0.500000
O O1 0.610442 0.061127 0.727262
O O2 0.694252 0.177534 0.715320
O O3 0.558056 0.203887 0.748135
O O4 0.623054 0.139088 0.000000
O O5 0.888987 0.997197 0.500000
O O6 0.804226 0.981110 0.236021
O O7 0.933265 0.927192 0.222532
O O8 0.326383 0.629205 0.500000
O O9 0.267584 0.690280 0.227770
O O10 0.403937 0.660981 0.223714
O O11 0.305939 0.548941 0.221582
O O12 0.219394 0.161102 0.712957
O O13 0.328580 0.065518 0.732706
O O14 0.254950 0.097482 0.000000
O O15 0.463266 0.049493 0.340804
O O16 0.412536 0.027411 0.000000
O O17 0.791174 0.761546 0.000000
O O18 0.294178 0.471117 0.500000
#
# Coordination Sequence:
#
# PCOD9543539 Si02
#       8
#     8   8   8   8   8   8   8   2
#     4   9  19  37  59  81 112 152 192 240 297 357
#     4   9  20  38  58  87 128 167 203 251 312 375
#     4   9  18  33  51  78 109 143 180 235 284 348
#     4  10  22  38  60  90 121 155 202 258 309 365
#     4  10  24  44  63  91 126 159 206 263 311 366
#     4   9  19  36  56  80 112 150 189 237 304 360
#     4   9  18  32  53  80 112 142 188 230 284 350
#     4  12  26  44  68  86 116 162 210 254 320 378
#
# _framework density 22.555025000000001
#
# number of rings (size 3 to 8) (size 9 to 14) (size 15 to 20)
#    0.000    2.621    0.000    0.621    3.862    3.034 
#    2.483    4.828    0.000    0.000    0.000    3.862 
#    0.000    0.000    0.000    0.000    0.000    0.000 
#
# Total GULP energy -323169.048881 kJ/mol
# GULP energy per Si atom -5571.880153 kJ/mol
# Density = 2.250369 g / cm^3
# Si number density = 22.555025 Si / 1000 Ang^3
#
#
#
# Elastic Constant Matrix: (Units=GPa)
#
#
# Indices 1 2 3 4 5 6 
#
# 1 53.8013 -12.0152 10.1033 0.0000 0.0000 -7.8751
# 2 -12.0152 53.8013 10.1033 0.0000 0.0000 7.8751
# 3 10.1033 10.1033 59.4553 0.0000 0.0000 0.0000
# 4 0.0000 0.0000 0.0000 33.4535 0.0000 0.0000
# 5 0.0000 0.0000 0.0000 0.0000 33.4535 0.0000
# 6 -7.8751 7.8751 0.0000 0.0000 0.0000 13.6385
#
#
#
# Elastic Compliance Matrix: (Units=1/GPa)
#
#
# Indices 1 2 3 4 5 6 
#
# 1 0.021852 0.004222 -0.004431 0.000000 0.000000 0.010180
# 2 0.004222 0.021852 -0.004431 0.000000 0.000000 -0.010180
# 3 -0.004431 -0.004431 0.018325 0.000000 0.000000 0.000000
# 4 0.000000 0.000000 0.000000 0.029892 0.000000 0.000000
# 5 0.000000 0.000000 0.000000 0.000000 0.029892 0.000000
# 6 0.010180 -0.010180 0.000000 0.000000 0.000000 0.085078
#
#
# Mechanical properties :
#
#
# Convention : Reuss Voigt Hill
#
# Bulk Modulus (GPa) = 18.95732 20.38229 19.66981
# Shear Modulus (GPa) = 21.39006 26.70023 24.04514
#
# Velocity S-wave (km/s) = 3.08287 3.44435 3.26861
# Velocity P-wave (km/s) = 4.59296 4.98742 4.79425
#
# Compressibility (1/GPa) = 0.05275008
#
# Stress axis : x y z
#
# Youngs Moduli (GPa) = 45.76261 45.76261 54.56967
#
# Poissons Ratio (x) = -0.19321 0.24179
# Poissons Ratio (y) = -0.19321 0.24179
# Poissons Ratio (z) = 0.20276 0.20276
#
# Static dielectric constant tensor:
#      x y z
#    x 1.886400 0.000000 0.000000 
#    y 0.000000 1.886400 0.000000 
#    z 0.000000 0.000000 1.851340 
# 
# From -- ./inp_files/1134.got.cif
#   From: 2010.05.17/outbox.cif.g08.bks.cpg/sg83_1_cif.got.tgz:1134.got - 2010.06.03 18:55:12.
