data_PCOD9543133
_publ_section_title
;
Structure prediction by ZEFSAII (Michael W. Deem and Ramdas Pophale) SiO2 
 PCOD9543133
Probable space group: I -4 
;
_chemical_formula_sum "Si O2"
_cell_formula_units_Z 34
_cell_length_a 11.487984
_cell_length_b 11.487984
_cell_length_c 11.273424
_cell_angle_alpha 90.000000
_cell_angle_beta 90.000000
_cell_angle_gamma 90.000000
_cell_volume 1487.796338
_symmetry_space_group_name_H-M "I -4 "
_symmetry_group_IT_number 82
_symmetry_cell_setting 'tetragonal'
loop_
_space_group_symop_operation_xyz
x,y,z
y,-x,-z
-x,-y,z
-y,x,-z
1/2+x,1/2+y,1/2+z
1/2+y,1/2-x,1/2-z
1/2-x,1/2-y,1/2+z
1/2-y,1/2+x,1/2-z
loop_
_atom_site_type_symbol
_atom_site_label
_atom_site_fract_x
_atom_site_fract_y
_atom_site_fract_z
Si Si1 0.344550 0.516672 0.071791
Si Si2 0.334768 0.388540 0.313451
Si Si3 0.589134 0.107274 0.546928
Si Si4 0.000000 0.000000 0.000000
Si Si5 0.123496 0.364572 0.717404
O O1 0.372457 0.459607 0.197372
O O2 0.212815 0.552531 0.076366
O O3 0.422530 0.625234 0.030275
O O4 0.210689 0.434584 0.361174
O O5 0.427984 0.412331 0.416358
O O6 0.327558 0.252890 0.274797
O O7 0.606680 0.162569 0.416028
O O8 0.500000 0.000000 0.545215
O O9 0.147993 0.482737 0.789128
#
# Coordination Sequence:
#
# PCOD9543133 Si02
#       5
#     8   8   8   2   8
#     4  11  26  48  77 109 149 207 259 311 394 471
#     4  12  29  47  79 117 159 203 262 337 391 470
#     4  12  28  48  76 115 155 202 262 327 388 463
#     4  12  28  48  74 116 164 200 268 330 412 444
#     4  11  24  47  78 109 151 210 264 312 392 479
#
# _framework density 22.852588999999998
#
# number of rings (size 3 to 8) (size 9 to 14) (size 15 to 20)
#    0.000    0.471    4.706    2.824    6.588    1.882 
#    0.000    0.000    0.000    0.000    0.000    0.000 
#    0.000    0.000    0.000    0.000    0.000    0.000 
#
# Total GULP energy -95151.317838 kJ/mol
# GULP energy per Si atom -5597.136343 kJ/mol
# Density = 2.280058 g / cm^3
# Si number density = 22.852589 Si / 1000 Ang^3
#
#
#
# Elastic Constant Matrix: (Units=GPa)
#
#
# Indices 1 2 3 4 5 6 
#
# 1 44.6513 50.9046 40.5242 0.0000 0.0000 -13.5642
# 2 50.9046 44.6513 40.5242 0.0000 0.0000 13.5642
# 3 40.5242 40.5242 144.4065 0.0000 0.0000 0.0000
# 4 0.0000 0.0000 0.0000 33.6673 0.0000 0.0000
# 5 0.0000 0.0000 0.0000 0.0000 33.6673 0.0000
# 6 -13.5642 13.5642 0.0000 0.0000 0.0000 27.9206
#
#
#
# Elastic Compliance Matrix: (Units=1/GPa)
#
#
# Indices 1 2 3 4 5 6 
#
# 1 -0.018863 0.032597 -0.003854 0.000000 0.000000 -0.025000
# 2 0.032597 -0.018863 -0.003854 0.000000 0.000000 0.025000
# 3 -0.003854 -0.003854 0.009088 0.000000 0.000000 0.000000
# 4 0.000000 0.000000 0.000000 0.029702 0.000000 0.000000
# 5 0.000000 0.000000 0.000000 0.000000 0.029702 0.000000
# 6 -0.025000 0.025000 0.000000 0.000000 0.000000 0.011525
#
#
# Mechanical properties :
#
#
# Convention : Reuss Voigt Hill
#
# Bulk Modulus (GPa) = 47.30452 55.29058 51.29755
# Shear Modulus (GPa) = -11399.18875 25.83479 -5686.67698
#
# Velocity S-wave (km/s) = -70.70338 3.36593 -49.93815
# Velocity P-wave (km/s) = 81.51408 6.27320 57.46822
#
# Compressibility (1/GPa) = 0.02113963
#
# Stress axis : x y z
#
# Youngs Moduli (GPa) = -53.01403 -53.01403 110.03480
#
# Poissons Ratio (x) = 1.72810 0.42409
# Poissons Ratio (y) = 1.72810 0.42409
# Poissons Ratio (z) = -0.20432 -0.20432
#
# Static dielectric constant tensor:
#      x y z
#    x 1.842070 0.000000 0.000000 
#    y 0.000000 1.842070 0.000000 
#    z 0.000000 0.000000 1.894900 
# 
# From -- ./inp_files/1557.got.cif
#   From: 2010.05.17/outbox.cif.g08.bks.cpg/sg82_1_cif.got.tgz:1557.got - 2010.06.03 18:52:26.
