data_PCOD9543246
_publ_section_title
;
Structure prediction by ZEFSAII (Michael W. Deem and Ramdas Pophale) SiO2 
 PCOD9543246
Probable space group: P 4/M
;
_chemical_formula_sum "Si O2"
_cell_formula_units_Z 64
_cell_length_a 20.133008
_cell_length_b 20.133008
_cell_length_c 9.342246
_cell_angle_alpha 90.000000
_cell_angle_beta 90.000000
_cell_angle_gamma 90.000000
_cell_volume 3786.767413
_symmetry_space_group_name_H-M "P 4/M"
_symmetry_group_IT_number 83
_symmetry_cell_setting 'tetragonal'
loop_
_space_group_symop_operation_xyz
x,y,z
-y,x,z
-x,-y,z
y,-x,z
-x,-y,-z
y,-x,-z
x,y,-z
-y,x,-z
loop_
_atom_site_type_symbol
_atom_site_label
_atom_site_fract_x
_atom_site_fract_y
_atom_site_fract_z
Si Si1 0.405221 0.303060 0.162843
Si Si2 0.102094 0.495958 0.330868
Si Si3 0.687870 0.204467 0.168725
Si Si4 0.651037 0.928755 0.329872
Si Si5 0.421719 0.420570 0.344237
Si Si6 0.460107 0.768776 0.164745
Si Si7 0.216202 0.699291 0.328708
Si Si8 0.057560 0.367222 0.170781
O O1 0.393540 0.377267 0.217214
O O2 0.484008 0.287454 0.169783
O O3 0.364855 0.253195 0.262975
O O4 0.383288 0.293832 0.000000
O O5 0.093268 0.483856 0.500000
O O6 0.085800 0.572739 0.302627
O O7 0.176960 0.483520 0.278774
O O8 0.062277 0.440361 0.242403
O O9 0.617652 0.243013 0.192225
O O10 0.745631 0.238054 0.260441
O O11 0.669943 0.127550 0.201734
O O12 0.703829 0.208914 0.000000
O O13 0.658036 0.941197 0.500000
O O14 0.691547 0.861925 0.293648
O O15 0.668173 0.993973 0.239788
O O16 0.501221 0.411072 0.339358
O O17 0.397610 0.396035 0.500000
O O18 0.462527 0.796020 0.000000
O O19 0.222412 0.699505 0.500000
O O20 0.051257 0.373029 0.000000
#
# Coordination Sequence:
#
# PCOD9543246 Si02
#       8
#     8   8   8   8   8   8   8   8
#     4  11  22  34  51  73  98 129 167 214 265 316
#     4  10  18  31  50  73 104 137 169 211 255 299
#     4   9  20  38  54  75 105 136 173 218 259 307
#     4  10  21  35  51  76 108 137 173 216 258 311
#     4   9  20  38  54  68  88 116 158 215 274 328
#     4   9  19  34  50  70  99 131 170 214 256 307
#     4  11  23  38  54  77 106 139 177 216 262 315
#     4  10  21  35  54  78 105 137 177 216 256 313
#
# _framework density 16.900957999999999
#
# number of rings (size 3 to 8) (size 9 to 14) (size 15 to 20)
#    0.000    2.125    1.250    3.000    1.750    7.000 
#    0.000    0.625    0.000    0.000    0.000    0.000 
#    0.000    0.500    0.000    5.500    0.000    4.000 
#
# Total GULP energy -357014.467328 kJ/mol
# GULP energy per Si atom -5578.351052 kJ/mol
# Density = 1.686249 g / cm^3
# Si number density = 16.900958 Si / 1000 Ang^3
#
#
#
# Elastic Constant Matrix: (Units=GPa)
#
#
# Indices 1 2 3 4 5 6 
#
# 1 570.0027 -443.2403 51.4888 0.0000 0.0000 120.9115
# 2 -443.2403 570.0027 51.4888 0.0000 0.0000 -120.9115
# 3 51.4888 51.4888 71.9617 0.0000 0.0000 0.0000
# 4 0.0000 0.0000 0.0000 22.1392 0.0000 0.0000
# 5 0.0000 0.0000 0.0000 0.0000 22.1392 0.0000
# 6 120.9115 -120.9115 0.0000 0.0000 0.0000 45.4370
#
#
#
# Elastic Compliance Matrix: (Units=1/GPa)
#
#
# Indices 1 2 3 4 5 6 
#
# 1 0.010772 0.008067 -0.013479 0.000000 0.000000 -0.007197
# 2 0.008067 0.010772 -0.013479 0.000000 0.000000 0.007197
# 3 -0.013479 -0.013479 0.033185 0.000000 0.000000 0.000000
# 4 0.000000 0.000000 0.000000 0.045169 0.000000 0.000000
# 5 0.000000 0.000000 0.000000 0.000000 0.045169 0.000000
# 6 -0.007197 0.007197 0.000000 0.000000 0.000000 0.060314
#
#
# Mechanical properties :
#
#
# Convention : Reuss Voigt Hill
#
# Bulk Modulus (GPa) = 59.01143 59.04909 59.03026
# Shear Modulus (GPa) = 20.09555 121.42508 70.76031
#
# Velocity S-wave (km/s) = 3.45196 8.48534 6.47754
# Velocity P-wave (km/s) = 7.13301 11.44620 9.53665
#
# Compressibility (1/GPa) = 0.01694587
#
# Stress axis : x y z
#
# Youngs Moduli (GPa) = 92.83511 92.83511 30.13390
#
# Poissons Ratio (x) = -0.74891 0.40618
# Poissons Ratio (y) = -0.74891 0.40618
# Poissons Ratio (z) = 1.25135 1.25135
#
# Static dielectric constant tensor:
#      x y z
#    x 1.588620 0.000000 0.000000 
#    y 0.000000 1.588620 0.000000 
#    z 0.000000 0.000000 1.578970 
# 
# From -- ./inp_files/1262.got.cif
#   From: 2010.05.17/outbox.cif.g08.bks.cpg/sg83_1_cif.got.tgz:1262.got - 2010.06.03 18:55:12.
