data_PCOD9543613
_publ_section_title
;
Structure prediction by ZEFSAII (Michael W. Deem and Ramdas Pophale) SiO2 
 PCOD9543613
Probable space group: P 4/M
;
_chemical_formula_sum "Si O2"
_cell_formula_units_Z 64
_cell_length_a 11.517359
_cell_length_b 11.517359
_cell_length_c 28.102657
_cell_angle_alpha 90.000000
_cell_angle_beta 90.000000
_cell_angle_gamma 90.000000
_cell_volume 3727.805039
_symmetry_space_group_name_H-M "P 4/M"
_symmetry_group_IT_number 83
_symmetry_cell_setting 'tetragonal'
loop_
_space_group_symop_operation_xyz
x,y,z
-y,x,z
-x,-y,z
y,-x,z
-x,-y,-z
y,-x,-z
x,y,-z
-y,x,-z
loop_
_atom_site_type_symbol
_atom_site_label
_atom_site_fract_x
_atom_site_fract_y
_atom_site_fract_z
Si Si1 0.335301 0.391439 0.051237
Si Si2 0.950169 0.819841 0.715791
Si Si3 0.335668 0.391596 0.844888
Si Si4 0.303605 0.014484 0.629357
Si Si5 0.361731 0.781445 0.746045
Si Si6 0.413625 0.222801 0.688640
Si Si7 0.213228 0.438984 0.401044
Si Si8 0.793436 0.319922 0.445191
O O1 0.468452 0.346464 0.051250
O O2 0.285897 0.358901 0.102947
O O3 0.282478 0.356733 0.000000
O O4 0.902116 0.703963 0.738869
O O5 0.077464 0.862442 0.729051
O O6 0.953208 0.798724 0.658834
O O7 0.468212 0.346195 0.842215
O O8 0.265733 0.350244 0.799193
O O9 0.360257 0.104855 0.666996
O O10 0.273761 0.096001 0.584703
O O11 0.391636 0.912811 0.614824
O O12 0.494692 0.794480 0.730671
O O13 0.302008 0.689353 0.709308
O O14 0.492423 0.267961 0.644206
O O15 0.200952 0.540326 0.439868
O O16 0.279118 0.326429 0.420563
O O17 0.795656 0.284815 0.500000
#
# Coordination Sequence:
#
# PCOD9543613 Si02
#       8
#     8   8   8   8   8   8   8   8
#     4   7  10  18  34  55  90 145 196 225 250 291
#     4  11  23  39  58  77 101 137 179 220 262 307
#     4   9  16  26  39  69 112 148 182 222 260 305
#     4  11  22  40  60  80 101 132 174 214 257 311
#     4  12  21  32  53  81 113 146 173 216 260 307
#     4  11  21  34  54  82 111 137 174 201 250 313
#     4  11  23  39  60  82 108 134 171 206 251 315
#     4  11  24  41  61  85 108 132 162 206 259 311
#
# _framework density 17.168281
#
# number of rings (size 3 to 8) (size 9 to 14) (size 15 to 20)
#    0.000    1.625    3.750    5.250    0.000    2.000 
#    0.000    3.125    0.000    0.000    0.000    2.625 
#    0.000    1.000    0.000    9.625    0.000    1.250 
#
# Total GULP energy -356658.224187 kJ/mol
# GULP energy per Si atom -5572.784753 kJ/mol
# Density = 1.712921 g / cm^3
# Si number density = 17.168281 Si / 1000 Ang^3
#
#
#
# Elastic Constant Matrix: (Units=GPa)
#
#
# Indices 1 2 3 4 5 6 
#
# 1 38.7008 15.7462 21.0667 0.0000 0.0000 6.8459
# 2 15.7462 38.7008 21.0667 0.0000 0.0000 -6.8459
# 3 21.0667 21.0667 133.8440 0.0000 0.0000 0.0000
# 4 0.0000 0.0000 0.0000 13.6406 0.0000 0.0000
# 5 0.0000 0.0000 0.0000 0.0000 13.6406 0.0000
# 6 6.8459 -6.8459 0.0000 0.0000 0.0000 22.1134
#
#
#
# Elastic Compliance Matrix: (Units=1/GPa)
#
#
# Indices 1 2 3 4 5 6 
#
# 1 0.037172 -0.016258 -0.003292 0.000000 0.000000 -0.016541
# 2 -0.016258 0.037172 -0.003292 0.000000 0.000000 0.016541
# 3 -0.003292 -0.003292 0.008508 0.000000 0.000000 0.000000
# 4 0.000000 0.000000 0.000000 0.073310 0.000000 0.000000
# 5 0.000000 0.000000 0.000000 0.000000 0.073310 0.000000
# 6 -0.016541 0.016541 0.000000 0.000000 0.000000 0.055463
#
#
# Mechanical properties :
#
#
# Convention : Reuss Voigt Hill
#
# Bulk Modulus (GPa) = 26.90480 36.33388 31.61934
# Shear Modulus (GPa) = 14.57689 20.10333 17.34011
#
# Velocity S-wave (km/s) = 2.91702 3.42564 3.18151
# Velocity P-wave (km/s) = 5.20102 6.07091 5.65272
#
# Compressibility (1/GPa) = 0.03716809
#
# Stress axis : x y z
#
# Youngs Moduli (GPa) = 26.90192 26.90192 117.54161
#
# Poissons Ratio (x) = 0.43738 0.38692
# Poissons Ratio (y) = 0.43738 0.38692
# Poissons Ratio (z) = 0.08856 0.08856
#
# Static dielectric constant tensor:
#      x y z
#    x 1.600500 0.000000 0.000000 
#    y 0.000000 1.600500 0.000000 
#    z 0.000000 0.000000 1.616260 
# 
# From -- ./inp_files/3340.got.cif
#   From: 2010.05.17/outbox.cif.g08.bks.cpg/sg83_2_cif.got.tgz:3340.got - 2010.06.03 18:55:12.
