data_PCOD9543442
_publ_section_title
;
Structure prediction by ZEFSAII (Michael W. Deem and Ramdas Pophale) SiO2 
 PCOD9543442
Probable space group: P 4/M
;
_chemical_formula_sum "Si O2"
_cell_formula_units_Z 52
_cell_length_a 16.874085
_cell_length_b 16.874085
_cell_length_c 10.039071
_cell_angle_alpha 90.000000
_cell_angle_beta 90.000000
_cell_angle_gamma 90.000000
_cell_volume 2858.472317
_symmetry_space_group_name_H-M "P 4/M"
_symmetry_group_IT_number 83
_symmetry_cell_setting 'tetragonal'
loop_
_space_group_symop_operation_xyz
x,y,z
-y,x,z
-x,-y,z
y,-x,z
-x,-y,-z
y,-x,-z
x,y,-z
-y,x,-z
loop_
_atom_site_type_symbol
_atom_site_label
_atom_site_fract_x
_atom_site_fract_y
_atom_site_fract_z
Si Si1 0.386563 0.924311 0.343707
Si Si2 0.485437 0.626913 0.838721
Si Si3 0.381379 0.109682 0.344353
Si Si4 0.105065 0.806173 0.645601
Si Si5 0.134793 0.992337 0.000000
Si Si6 0.493897 0.811847 0.837762
Si Si7 0.794395 0.058332 0.264130
O O1 0.399973 0.903106 0.500000
O O2 0.432089 0.868718 0.239539
O O3 0.293495 0.920499 0.309172
O O4 0.407372 0.017703 0.329796
O O5 0.414511 0.568091 0.794698
O O6 0.477959 0.719270 0.805056
O O7 0.485699 0.624414 0.000000
O O8 0.397519 0.132072 0.500000
O O9 0.286790 0.111500 0.324837
O O10 0.424473 0.162442 0.234248
O O11 0.140588 0.819738 0.500000
O O12 0.152588 0.864016 0.739225
O O13 0.012026 0.825908 0.642420
O O14 0.193454 0.984255 0.123798
O O15 0.070556 0.920155 0.000000
O O16 0.494022 0.821655 0.000000
#
# Coordination Sequence:
#
# PCOD9543442 Si02
#       7
#     8   8   8   8   4   8   8
#     4  10  22  39  59  80 108 151 195 234 280 334
#     4   8  16  34  58  81 112 148 177 211 263 329
#     4   9  20  39  57  76 109 151 190 230 281 335
#     4  10  20  36  57  80 107 147 197 244 279 327
#     4  11  22  38  54  80 117 159 195 232 299 355
#     4  11  22  35  57  91 115 138 183 232 280 340
#     4  11  21  37  55  80 112 150 194 237 283 342
#
# _framework density 18.191534000000001
#
# number of rings (size 3 to 8) (size 9 to 14) (size 15 to 20)
#    0.000    2.077    1.538    3.692    1.077    4.000 
#    5.538    0.769    0.000    2.769    0.000    4.308 
#    0.000    0.000    0.000    0.000    0.000    0.000 
#
# Total GULP energy -289580.832010 kJ/mol
# GULP energy per Si atom -5568.862154 kJ/mol
# Density = 1.815013 g / cm^3
# Si number density = 18.191534 Si / 1000 Ang^3
#
#
#
# Elastic Constant Matrix: (Units=GPa)
#
#
# Indices 1 2 3 4 5 6 
#
# 1 39.6905 -4.8093 11.6842 0.0000 0.0000 -4.1302
# 2 -4.8093 39.6905 11.6842 0.0000 0.0000 4.1302
# 3 11.6842 11.6842 88.7318 0.0000 0.0000 0.0000
# 4 0.0000 0.0000 0.0000 15.7037 0.0000 0.0000
# 5 0.0000 0.0000 0.0000 0.0000 15.7037 0.0000
# 6 -4.1302 4.1302 0.0000 0.0000 0.0000 0.1204
#
#
#
# Elastic Compliance Matrix: (Units=1/GPa)
#
#
# Indices 1 2 3 4 5 6 
#
# 1 0.013627 0.017815 -0.004140 0.000000 0.000000 -0.143620
# 2 0.017815 0.013627 -0.004140 0.000000 0.000000 0.143620
# 3 -0.004140 -0.004140 0.012360 0.000000 0.000000 0.000000
# 4 0.000000 0.000000 0.000000 0.063679 0.000000 0.000000
# 5 0.000000 0.000000 0.000000 0.000000 0.063679 0.000000
# 6 -0.143620 0.143620 0.000000 0.000000 0.000000 -1.547400
#
#
# Mechanical properties :
#
#
# Convention : Reuss Voigt Hill
#
# Bulk Modulus (GPa) = 17.04043 22.80345 19.92194
# Shear Modulus (GPa) = -3.62336 16.27582 6.32623
#
# Velocity S-wave (km/s) = -1.41284 2.99439 1.86685
# Velocity P-wave (km/s) = 2.59347 4.95152 3.95244
#
# Compressibility (1/GPa) = 0.05868395
#
# Stress axis : x y z
#
# Youngs Moduli (GPa) = 73.38205 73.38205 80.90404
#
# Poissons Ratio (x) = -1.30732 0.33497
# Poissons Ratio (y) = -1.30732 0.33497
# Poissons Ratio (z) = 0.30383 0.30383
#
# Static dielectric constant tensor:
#      x y z
#    x 1.630770 0.000000 0.000000 
#    y 0.000000 1.630770 0.000000 
#    z 0.000000 0.000000 1.700640 
# 
# From -- ./inp_files/959.got.cif
#   From: 2010.05.17/outbox.cif.g08.bks.cpg/sg83_1_cif.got.tgz:959.got - 2010.06.03 18:55:12.
