data_PCOD9543291
_publ_section_title
;
Structure prediction by ZEFSAII (Michael W. Deem and Ramdas Pophale) SiO2 
 PCOD9543291
Probable space group: P 4/M
;
_chemical_formula_sum "Si O2"
_cell_formula_units_Z 48
_cell_length_a 15.631047
_cell_length_b 15.631047
_cell_length_c 14.073075
_cell_angle_alpha 90.000000
_cell_angle_beta 90.000000
_cell_angle_gamma 90.000000
_cell_volume 3438.469212
_symmetry_space_group_name_H-M "P 4/M"
_symmetry_group_IT_number 83
_symmetry_cell_setting 'tetragonal'
loop_
_space_group_symop_operation_xyz
x,y,z
-y,x,z
-x,-y,z
y,-x,z
-x,-y,-z
y,-x,-z
x,y,-z
-y,x,-z
loop_
_atom_site_type_symbol
_atom_site_label
_atom_site_fract_x
_atom_site_fract_y
_atom_site_fract_z
Si Si1 0.531825 0.749168 0.615124
Si Si2 0.758247 0.984575 0.700826
Si Si3 0.144098 0.007659 0.890941
Si Si4 0.658988 0.296306 0.615738
Si Si5 0.834850 0.810821 0.614176
Si Si6 0.415849 0.057675 0.389309
O O1 0.528896 0.744370 0.500000
O O2 0.608627 0.687194 0.646415
O O3 0.436313 0.727566 0.648888
O O4 0.559356 0.845855 0.637408
O O5 0.783997 0.988261 0.811085
O O6 0.799906 0.899388 0.656050
O O7 0.658363 0.978100 0.676814
O O8 0.793896 0.069898 0.651230
O O9 0.077663 0.086405 0.878342
O O10 0.174631 0.009291 0.000000
O O11 0.657812 0.295926 0.500000
O O12 0.731977 0.227628 0.642743
O O13 0.834407 0.815202 0.500000
O O14 0.385202 0.058211 0.500000
O O15 0.500000 0.000000 0.385803
#
# Coordination Sequence:
#
# PCOD9543291 Si02
#       6
#     8   8   8   8   8   8
#     4   9  16  27  42  58  82 118 158 197 230 260
#     4  12  20  31  48  68  92 124 158 196 233 279
#     4   9  18  34  51  67  89 118 156 200 243 290
#     4   9  17  29  42  59  85 119 159 198 228 261
#     4  11  21  30  41  64  98 128 154 189 228 274
#     4  10  19  31  45  64  94 133 167 186 218 286
#
# _framework density 13.959702
#
# number of rings (size 3 to 8) (size 9 to 14) (size 15 to 20)
#    0.000    2.000    3.333    3.000    0.000    3.333 
#    0.000    2.500    0.000    0.500    0.000    0.000 
#    0.000    0.000    0.000    0.000    0.000    2.333 
#
# Total GULP energy -267573.429319 kJ/mol
# GULP energy per Si atom -5574.446444 kJ/mol
# Density = 1.392793 g / cm^3
# Si number density = 13.959702 Si / 1000 Ang^3
#
#
#
# Elastic Constant Matrix: (Units=GPa)
#
#
# Indices 1 2 3 4 5 6 
#
# 1 82.4949 27.1060 31.6897 0.0000 0.0000 1.8915
# 2 27.1060 82.4949 31.6897 0.0000 0.0000 -1.8915
# 3 31.6897 31.6897 66.1310 0.0000 0.0000 0.0000
# 4 0.0000 0.0000 0.0000 12.2417 0.0000 0.0000
# 5 0.0000 0.0000 0.0000 0.0000 12.2417 0.0000
# 6 1.8915 -1.8915 0.0000 0.0000 0.0000 19.7720
#
#
#
# Elastic Compliance Matrix: (Units=1/GPa)
#
#
# Indices 1 2 3 4 5 6 
#
# 1 0.015397 -0.002776 -0.006048 0.000000 0.000000 -0.001739
# 2 -0.002776 0.015397 -0.006048 0.000000 0.000000 0.001739
# 3 -0.006048 -0.006048 0.020918 0.000000 0.000000 0.000000
# 4 0.000000 0.000000 0.000000 0.081688 0.000000 0.000000
# 5 0.000000 0.000000 0.000000 0.000000 0.081688 0.000000
# 6 -0.001739 0.001739 0.000000 0.000000 0.000000 0.050909
#
#
# Mechanical properties :
#
#
# Convention : Reuss Voigt Hill
#
# Bulk Modulus (GPa) = 45.52004 45.78796 45.65400
# Shear Modulus (GPa) = 16.49815 18.22679 17.36247
#
# Velocity S-wave (km/s) = 3.44152 3.61733 3.53052
# Velocity P-wave (km/s) = 6.96212 7.09352 7.02813
#
# Compressibility (1/GPa) = 0.02196835
#
# Stress axis : x y z
#
# Youngs Moduli (GPa) = 64.94685 64.94685 47.80571
#
# Poissons Ratio (x) = 0.18027 0.28914
# Poissons Ratio (y) = 0.18027 0.28914
# Poissons Ratio (z) = 0.39281 0.39281
#
# Static dielectric constant tensor:
#      x y z
#    x 1.465690 0.000000 0.000000 
#    y 0.000000 1.465690 0.000000 
#    z 0.000000 0.000000 1.429290 
# 
# From -- ./inp_files/1809.got.cif
#   From: 2010.05.17/outbox.cif.g08.bks.cpg/sg83_1_cif.got.tgz:1809.got - 2010.06.03 18:55:12.
