data_PCOD9543330
_publ_section_title
;
Structure prediction by ZEFSAII (Michael W. Deem and Ramdas Pophale) SiO2 
 PCOD9543330
Probable space group: P 4/M
;
_chemical_formula_sum "Si O2"
_cell_formula_units_Z 64
_cell_length_a 19.729130
_cell_length_b 19.729130
_cell_length_c 7.618929
_cell_angle_alpha 90.000000
_cell_angle_beta 90.000000
_cell_angle_gamma 90.000000
_cell_volume 2965.581033
_symmetry_space_group_name_H-M "P 4/M"
_symmetry_group_IT_number 83
_symmetry_cell_setting 'tetragonal'
loop_
_space_group_symop_operation_xyz
x,y,z
-y,x,z
-x,-y,z
y,-x,z
-x,-y,-z
y,-x,-z
x,y,-z
-y,x,-z
loop_
_atom_site_type_symbol
_atom_site_label
_atom_site_fract_x
_atom_site_fract_y
_atom_site_fract_z
Si Si1 0.771497 0.080856 0.798992
Si Si2 0.780439 0.422278 0.211802
Si Si3 0.292244 0.296002 0.214195
Si Si4 0.067069 0.375823 0.697546
Si Si5 0.657037 0.918371 0.290235
Si Si6 0.211365 0.427730 0.205528
Si Si7 0.007121 0.107553 0.214643
Si Si8 0.840606 0.214549 0.297653
O O1 0.702734 0.090493 0.696362
O O2 0.816847 0.020025 0.725208
O O3 0.821752 0.145062 0.797610
O O4 0.751470 0.068349 0.000000
O O5 0.720637 0.370069 0.262241
O O6 0.854013 0.391654 0.261211
O O7 0.773202 0.498331 0.281439
O O8 0.780304 0.424536 0.000000
O O9 0.255644 0.364709 0.275710
O O10 0.253181 0.231264 0.288976
O O11 0.286406 0.292988 0.000000
O O12 0.060997 0.402693 0.500000
O O13 0.130571 0.413951 0.782099
O O14 0.990670 0.371633 0.775618
O O15 0.665239 0.926910 0.500000
O O16 0.731021 0.894118 0.221578
O O17 0.228462 0.430197 0.000000
O O18 0.940516 0.068810 0.271203
O O19 0.007049 0.109054 0.000000
O O20 0.857142 0.199611 0.500000
#
# Coordination Sequence:
#
# PCOD9543330 Si02
#       8
#     8   8   8   8   8   8   8   8
#     4  11  21  31  49  75  98 128 171 219 271 319
#     4   9  19  35  57  83 108 142 181 221 266 311
#     4   9  17  33  55  78 106 138 175 215 256 308
#     4  11  23  37  52  74 107 144 180 220 272 322
#     4   9  21  38  53  74 106 144 181 219 262 316
#     4  10  20  35  56  82 111 140 178 224 267 314
#     4   8  16  31  47  65  92 125 164 212 264 320
#     4  10  19  33  52  72  99 134 173 218 263 309
#
# _framework density 21.580932000000001
#
# number of rings (size 3 to 8) (size 9 to 14) (size 15 to 20)
#    0.000    2.375    1.250    1.500    1.750    2.500 
#    0.000    2.500    0.000    0.375    0.000    6.125 
#    0.000    0.000    0.000    7.375    0.000    7.750 
#
# Total GULP energy -357058.054055 kJ/mol
# GULP energy per Si atom -5579.032095 kJ/mol
# Density = 2.153181 g / cm^3
# Si number density = 21.580932 Si / 1000 Ang^3
#
#
#
# Elastic Constant Matrix: (Units=GPa)
#
#
# Indices 1 2 3 4 5 6 
#
# 1 170.4157 -1.4168 -0.7553 0.0000 0.0000 31.6259
# 2 -1.4168 170.4157 -0.7553 0.0000 0.0000 -31.6259
# 3 -0.7553 -0.7553 54.1344 0.0000 0.0000 0.0000
# 4 0.0000 0.0000 0.0000 50.3661 0.0000 0.0000
# 5 0.0000 0.0000 0.0000 0.0000 50.3661 0.0000
# 6 31.6259 -31.6259 0.0000 0.0000 0.0000 47.5543
#
#
#
# Elastic Compliance Matrix: (Units=1/GPa)
#
#
# Indices 1 2 3 4 5 6 
#
# 1 0.006812 -0.000894 0.000083 0.000000 0.000000 -0.005125
# 2 -0.000894 0.006812 0.000083 0.000000 0.000000 0.005125
# 3 0.000083 0.000083 0.018475 0.000000 0.000000 0.000000
# 4 0.000000 0.000000 0.000000 0.019855 0.000000 0.000000
# 5 0.000000 0.000000 0.000000 0.000000 0.019855 0.000000
# 6 -0.005125 0.005125 0.000000 0.000000 0.000000 0.027845
#
#
# Mechanical properties :
#
#
# Convention : Reuss Voigt Hill
#
# Bulk Modulus (GPa) = 32.63603 43.23458 37.93531
# Shear Modulus (GPa) = 44.91355 56.18351 50.54853
#
# Velocity S-wave (km/s) = 4.56693 5.10787 4.84496
# Velocity P-wave (km/s) = 6.55474 7.40705 6.99389
#
# Compressibility (1/GPa) = 0.03064098
#
# Stress axis : x y z
#
# Youngs Moduli (GPa) = 146.79921 146.79921 54.12764
#
# Poissons Ratio (x) = 0.13125 -0.00447
# Poissons Ratio (y) = 0.13125 -0.00447
# Poissons Ratio (z) = -0.01212 -0.01212
#
# Static dielectric constant tensor:
#      x y z
#    x 1.811380 0.000000 0.000000 
#    y 0.000000 1.811380 0.000000 
#    z 0.000000 0.000000 1.821390 
# 
# From -- ./inp_files/1277.got.cif
#   From: 2010.05.17/outbox.cif.g08.bks.cpg/sg83_1_cif.got.tgz:1277.got - 2010.06.03 18:55:12.
