data_PCOD9543289
_publ_section_title
;
Structure prediction by ZEFSAII (Michael W. Deem and Ramdas Pophale) SiO2 
 PCOD9543289
Probable space group: P 4/M
;
_chemical_formula_sum "Si O2"
_cell_formula_units_Z 48
_cell_length_a 11.409774
_cell_length_b 11.409774
_cell_length_c 20.093668
_cell_angle_alpha 90.000000
_cell_angle_beta 90.000000
_cell_angle_gamma 90.000000
_cell_volume 2615.852831
_symmetry_space_group_name_H-M "P 4/M"
_symmetry_group_IT_number 83
_symmetry_cell_setting 'tetragonal'
loop_
_space_group_symop_operation_xyz
x,y,z
-y,x,z
-x,-y,z
y,-x,z
-x,-y,-z
y,-x,-z
x,y,-z
-y,x,-z
loop_
_atom_site_type_symbol
_atom_site_label
_atom_site_fract_x
_atom_site_fract_y
_atom_site_fract_z
Si Si1 0.068743 0.376558 0.926624
Si Si2 0.643524 0.993362 0.788909
Si Si3 0.610692 0.219566 0.284284
Si Si4 0.947254 0.187067 0.579022
Si Si5 0.683652 0.560559 0.138038
Si Si6 0.175636 0.643832 0.676234
O O1 0.008357 0.312276 0.863867
O O2 0.201526 0.403586 0.903164
O O3 0.000000 0.500000 0.931530
O O4 0.065910 0.321790 0.000000
O O5 0.675698 0.103834 0.743133
O O6 0.500000 0.000000 0.792222
O O7 0.674416 0.876932 0.749445
O O8 0.569982 0.285105 0.216483
O O9 0.696227 0.300811 0.325898
O O10 0.496078 0.181922 0.324902
O O11 0.941274 0.209610 0.500000
O O12 0.906935 0.297176 0.621851
O O13 0.077765 0.139807 0.593823
O O14 0.572401 0.643410 0.123863
#
# Coordination Sequence:
#
# PCOD9543289 Si02
#       6
#     8   8   8   8   8   8
#     4   9  18  32  48  68  99 141 183 226 276 330
#     4   8  17  31  48  69  98 134 179 224 266 317
#     4  10  19  30  50  77 105 140 182 226 278 325
#     4   9  19  37  60  85 113 145 182 230 278 320
#     4  10  19  32  50  75 109 143 182 231 285 336
#     4  11  19  32  53  79 110 143 183 223 274 330
#
# _framework density 18.349656
#
# number of rings (size 3 to 8) (size 9 to 14) (size 15 to 20)
#    0.000    2.500    1.667    2.500    0.000    1.000 
#    0.000    1.667    0.000    6.500    0.000    1.167 
#    0.000    0.667    0.000   14.667    0.000    0.000 
#
# Total GULP energy -267568.752966 kJ/mol
# GULP energy per Si atom -5574.349020 kJ/mol
# Density = 1.830789 g / cm^3
# Si number density = 18.349656 Si / 1000 Ang^3
#
#
#
# Elastic Constant Matrix: (Units=GPa)
#
#
# Indices 1 2 3 4 5 6 
#
# 1 51.0785 4.1822 20.6054 0.0000 0.0000 4.6276
# 2 4.1822 51.0785 20.6054 0.0000 0.0000 -4.6276
# 3 20.6054 20.6054 66.8697 0.0000 0.0000 0.0000
# 4 0.0000 0.0000 0.0000 14.0099 0.0000 0.0000
# 5 0.0000 0.0000 0.0000 0.0000 14.0099 0.0000
# 6 4.6276 -4.6276 0.0000 0.0000 0.0000 17.1285
#
#
#
# Elastic Compliance Matrix: (Units=1/GPa)
#
#
# Indices 1 2 3 4 5 6 
#
# 1 0.023010 0.000485 -0.007240 0.000000 0.000000 -0.006085
# 2 0.000485 0.023010 -0.007240 0.000000 0.000000 0.006085
# 3 -0.007240 -0.007240 0.019416 0.000000 0.000000 0.000000
# 4 0.000000 0.000000 0.000000 0.071378 0.000000 0.000000
# 5 0.000000 0.000000 0.000000 0.000000 0.071378 0.000000
# 6 -0.006085 0.006085 0.000000 0.000000 0.000000 0.061671
#
#
# Mechanical properties :
#
#
# Convention : Reuss Voigt Hill
#
# Bulk Modulus (GPa) = 26.70425 28.86807 27.78616
# Shear Modulus (GPa) = 16.11168 17.27191 16.69180
#
# Velocity S-wave (km/s) = 2.96638 3.07133 3.01932
# Velocity P-wave (km/s) = 5.13003 5.32389 5.22786
#
# Compressibility (1/GPa) = 0.03744722
#
# Stress axis : x y z
#
# Youngs Moduli (GPa) = 43.45949 43.45949 51.50317
#
# Poissons Ratio (x) = -0.02109 0.37288
# Poissons Ratio (y) = -0.02109 0.37288
# Poissons Ratio (z) = 0.31464 0.31464
#
# Static dielectric constant tensor:
#      x y z
#    x 1.645830 0.000000 0.000000 
#    y 0.000000 1.645830 0.000000 
#    z 0.000000 0.000000 1.649670 
# 
# From -- ./inp_files/2648.got.cif
#   From: 2010.05.17/outbox.cif.g08.bks.cpg/sg83_2_cif.got.tgz:2648.got - 2010.06.03 18:55:12.
