data_PCOD9543530
_publ_section_title
;
Structure prediction by ZEFSAII (Michael W. Deem and Ramdas Pophale) SiO2 
 PCOD9543530
Probable space group: P 4/M
;
_chemical_formula_sum "Si O2"
_cell_formula_units_Z 40
_cell_length_a 7.796972
_cell_length_b 7.796972
_cell_length_c 28.854766
_cell_angle_alpha 90.000000
_cell_angle_beta 90.000000
_cell_angle_gamma 90.000000
_cell_volume 1754.161221
_symmetry_space_group_name_H-M "P 4/M"
_symmetry_group_IT_number 83
_symmetry_cell_setting 'tetragonal'
loop_
_space_group_symop_operation_xyz
x,y,z
-y,x,z
-x,-y,z
y,-x,z
-x,-y,-z
y,-x,-z
x,y,-z
-y,x,-z
loop_
_atom_site_type_symbol
_atom_site_label
_atom_site_fract_x
_atom_site_fract_y
_atom_site_fract_z
Si Si1 0.728819 0.899439 0.000000
Si Si2 0.392486 0.769698 0.155769
Si Si3 0.000000 0.500000 0.079116
Si Si4 0.770269 0.609402 0.256286
Si Si5 0.402411 0.771722 0.355438
Si Si6 0.905770 0.727407 0.450248
O O1 0.900232 0.787921 0.000000
O O2 0.610206 0.878861 0.045171
O O3 0.287181 0.593073 0.153457
O O4 0.356399 0.852833 0.206322
O O5 0.372939 0.896143 0.112922
O O6 0.590242 0.712686 0.256257
O O7 0.859268 0.640524 0.305834
O O8 0.290087 0.598331 0.355795
O O9 0.367129 0.868075 0.402779
O O10 0.869226 0.639393 0.500000
O O11 0.100838 0.791212 0.449903
#
# Coordination Sequence:
#
# PCOD9543530 Si02
#       6
#     4   8   4   8   8   8
#     4  10  22  38  52  70 104 142 168 202 254 296
#     4   9  17  31  51  74 101 130 161 203 249 289
#     4  11  20  32  54  80  98 126 177 214 236 286
#     4   7  12  26  46  67  95 127 152 183 237 295
#     4   9  17  30  49  73  98 123 155 196 242 295
#     4   9  19  35  50  64  89 127 166 203 246 293
#
# _framework density 22.802921999999999
#
# number of rings (size 3 to 8) (size 9 to 14) (size 15 to 20)
#    0.000    3.100    0.000    4.200    0.000    1.600 
#    0.000    9.000    0.000    4.800    0.000    2.800 
#    0.000    0.000    0.000    0.000    0.000    0.000 
#
# Total GULP energy -223249.901233 kJ/mol
# GULP energy per Si atom -5581.247531 kJ/mol
# Density = 2.275102 g / cm^3
# Si number density = 22.802922 Si / 1000 Ang^3
#
#
#
# Elastic Constant Matrix: (Units=GPa)
#
#
# Indices 1 2 3 4 5 6 
#
# 1 34.0302 -3.3938 28.8601 0.0000 0.0000 -4.0334
# 2 -3.3938 34.0302 28.8601 0.0000 0.0000 4.0334
# 3 28.8601 28.8601 243.3797 0.0000 0.0000 0.0000
# 4 0.0000 0.0000 0.0000 71.6160 0.0000 0.0000
# 5 0.0000 0.0000 0.0000 0.0000 71.6160 0.0000
# 6 -4.0334 4.0334 0.0000 0.0000 0.0000 20.9388
#
#
#
# Elastic Compliance Matrix: (Units=1/GPa)
#
#
# Indices 1 2 3 4 5 6 
#
# 1 0.034955 0.007076 -0.004984 0.000000 0.000000 0.005370
# 2 0.007076 0.034955 -0.004984 0.000000 0.000000 -0.005370
# 3 -0.004984 -0.004984 0.005291 0.000000 0.000000 0.000000
# 4 0.000000 0.000000 0.000000 0.013963 0.000000 0.000000
# 5 0.000000 0.000000 0.000000 0.000000 0.013963 0.000000
# 6 0.005370 -0.005370 0.000000 0.000000 0.000000 0.049827
#
#
# Mechanical properties :
#
#
# Convention : Reuss Voigt Hill
#
# Bulk Modulus (GPa) = 14.40576 46.67701 30.54139
# Shear Modulus (GPa) = 27.49118 49.97508 38.73313
#
# Velocity S-wave (km/s) = 3.47594 4.68654 4.12588
# Velocity P-wave (km/s) = 4.73717 7.05685 6.00999
#
# Compressibility (1/GPa) = 0.06941667
#
# Stress axis : x y z
#
# Youngs Moduli (GPa) = 28.60845 28.60845 189.00609
#
# Poissons Ratio (x) = -0.20244 0.94202
# Poissons Ratio (y) = -0.20244 0.94202
# Poissons Ratio (z) = 0.14259 0.14259
#
# Static dielectric constant tensor:
#      x y z
#    x 1.861570 0.000000 0.000000 
#    y 0.000000 1.861570 0.000000 
#    z 0.000000 0.000000 1.912880 
# 
# From -- ./inp_files/3250.got.cif
#   From: 2010.05.17/outbox.cif.g08.bks.cpg/sg83_2_cif.got.tgz:3250.got - 2010.06.03 18:55:12.
