data_PCOD9543185
_publ_section_title
;
Structure prediction by ZEFSAII (Michael W. Deem and Ramdas Pophale) SiO2 
 PCOD9543185
Probable space group: I -4 
;
_chemical_formula_sum "Si O2"
_cell_formula_units_Z 28
_cell_length_a 10.810654
_cell_length_b 10.810654
_cell_length_c 7.668153
_cell_angle_alpha 90.000000
_cell_angle_beta 90.000000
_cell_angle_gamma 90.000000
_cell_volume 896.178881
_symmetry_space_group_name_H-M "I -4 "
_symmetry_group_IT_number 82
_symmetry_cell_setting 'tetragonal'
loop_
_space_group_symop_operation_xyz
x,y,z
y,-x,-z
-x,-y,z
-y,x,-z
1/2+x,1/2+y,1/2+z
1/2+y,1/2-x,1/2-z
1/2-x,1/2-y,1/2+z
1/2-y,1/2+x,1/2-z
loop_
_atom_site_type_symbol
_atom_site_label
_atom_site_fract_x
_atom_site_fract_y
_atom_site_fract_z
Si Si1 0.000000 0.500000 0.750000
Si Si2 0.103051 0.248649 0.737904
Si Si3 0.500000 0.000000 0.750000
Si Si4 0.155868 0.130939 0.440118
Si Si5 0.233138 0.622067 0.418494
O O1 0.058167 0.380042 0.657536
O O2 0.022654 0.159467 0.570722
O O3 0.200495 0.319080 0.885083
O O4 0.044382 0.198791 0.918721
O O5 0.453772 0.111897 0.633880
O O6 0.221336 0.192097 0.631459
O O7 0.098786 0.182335 0.257509
#
# Coordination Sequence:
#
# PCOD9543185 Si02
#       5
#     2   8   2   8   8
#     4  12  22  48  82 106 144 202 262 316 366 450
#     4  12  27  48  75 111 155 199 257 325 383 462
#     4  12  30  44  86 122 148 210 274 316 386 450
#     4  12  27  46  74 111 157 198 251 318 400 449
#     4  12  26  45  76 115 155 196 260 322 382 460
#
# _framework density 31.243763999999999
#
# number of rings (size 3 to 8) (size 9 to 14) (size 15 to 20)
#    0.000    0.000    5.714    2.571    8.000    2.857 
#    0.000    0.000    0.000    0.000    0.000    0.000 
#    0.000    0.000    0.000    0.000    0.000    0.000 
#
# Total GULP energy -77959.320343 kJ/mol
# GULP energy per Si atom -5568.522882 kJ/mol
# Density = 3.117265 g / cm^3
# Si number density = 31.243764 Si / 1000 Ang^3
#
#
#
# Elastic Constant Matrix: (Units=GPa)
#
#
# Indices 1 2 3 4 5 6 
#
# 1 189.3518 51.4360 133.2239 0.0000 0.0000 27.7279
# 2 51.4360 189.3518 133.2239 0.0000 0.0000 -27.7279
# 3 133.2239 133.2239 408.6244 0.0000 0.0000 0.0000
# 4 0.0000 0.0000 0.0000 74.2930 0.0000 0.0000
# 5 0.0000 0.0000 0.0000 0.0000 74.2930 0.0000
# 6 27.7279 -27.7279 0.0000 0.0000 0.0000 67.1183
#
#
#
# Elastic Compliance Matrix: (Units=1/GPa)
#
#
# Indices 1 2 3 4 5 6 
#
# 1 0.007596 -0.001099 -0.002118 0.000000 0.000000 -0.003592
# 2 -0.001099 0.007596 -0.002118 0.000000 0.000000 0.003592
# 3 -0.002118 -0.002118 0.003828 0.000000 0.000000 0.000000
# 4 0.000000 0.000000 0.000000 0.013460 0.000000 0.000000
# 5 0.000000 0.000000 0.000000 0.000000 0.013460 0.000000
# 6 -0.003592 0.003592 0.000000 0.000000 0.000000 0.017867
#
#
# Mechanical properties :
#
#
# Convention : Reuss Voigt Hill
#
# Bulk Modulus (GPa) = 119.76702 158.12176 138.94439
# Shear Modulus (GPa) = 64.71456 74.43714 69.57585
#
# Velocity S-wave (km/s) = 4.55607 4.88634 4.72409
# Velocity P-wave (km/s) = 8.12978 9.08593 8.62112
#
# Compressibility (1/GPa) = 0.00834954
#
# Stress axis : x y z
#
# Youngs Moduli (GPa) = 131.64667 131.64667 261.20327
#
# Poissons Ratio (x) = 0.14469 0.55328
# Poissons Ratio (y) = 0.14469 0.55328
# Poissons Ratio (z) = 0.27886 0.27886
#
# Static dielectric constant tensor:
#      x y z
#    x 2.353280 0.000000 0.000000 
#    y 0.000000 2.353280 0.000000 
#    z 0.000000 0.000000 2.595220 
# 
# From -- ./inp_files/731.got.cif
#   From: 2010.05.17/outbox.cif.g08.bks.cpg/sg82_1_cif.got.tgz:731.got - 2010.06.03 18:52:26.
