data_PCOD9543884
_publ_section_title
;
Structure prediction by ZEFSAII (Michael W. Deem and Ramdas Pophale) SiO2 
 PCOD9543884
Probable space group: P 4/M
;
_chemical_formula_sum "Si O2"
_cell_formula_units_Z 44
_cell_length_a 7.750247
_cell_length_b 7.750247
_cell_length_c 31.647103
_cell_angle_alpha 90.000000
_cell_angle_beta 90.000000
_cell_angle_gamma 90.000000
_cell_volume 1900.925287
_symmetry_space_group_name_H-M "P 4/M"
_symmetry_group_IT_number 83
_symmetry_cell_setting 'tetragonal'
loop_
_space_group_symop_operation_xyz
x,y,z
-y,x,z
-x,-y,z
y,-x,z
-x,-y,-z
y,-x,-z
x,y,-z
-y,x,-z
loop_
_atom_site_type_symbol
_atom_site_label
_atom_site_fract_x
_atom_site_fract_y
_atom_site_fract_z
Si Si1 0.098772 0.272129 0.322462
Si Si2 0.769972 0.387292 0.091727
Si Si3 0.000000 0.500000 0.839195
Si Si4 0.231710 0.617219 0.000000
Si Si5 0.598367 0.227194 0.590330
Si Si6 0.892505 0.728316 0.769495
Si Si7 0.226706 0.391933 0.500000
O O1 0.134555 0.366923 0.365898
O O2 0.137959 0.354741 0.276804
O O3 0.901748 0.211549 0.322679
O O4 0.715457 0.590200 0.094059
O O5 0.900895 0.367113 0.130125
O O6 0.851558 0.348641 0.045529
O O7 0.131170 0.400958 0.808098
O O8 0.283549 0.415002 0.000000
O O9 0.711416 0.401268 0.590343
O O10 0.640864 0.137882 0.545222
O O11 0.094172 0.786242 0.771922
O O12 0.407508 0.286864 0.500000
#
# Coordination Sequence:
#
# PCOD9543884 Si02
#       7
#     8   8   4   4   8   8   4
#     4   9  19  35  51  66  90 127 166 199 234 283
#     4   9  18  32  49  72 101 130 161 198 239 284
#     4  12  20  29  52  78  96 121 162 208 246 278
#     4   7  12  27  48  66  94 134 162 186 232 288
#     4   9  17  30  51  77 100 123 155 195 238 284
#     4   9  20  37  51  66  94 130 163 195 241 298
#     4   7  12  26  46  69 100 130 150 179 232 291
#
# _framework density 23.146621
#
# number of rings (size 3 to 8) (size 9 to 14) (size 15 to 20)
#    0.000    3.091    0.000    4.364    0.000    4.000 
#    0.000    0.909    0.000    6.545    0.000    0.000 
#    0.000   11.636    0.000    0.000    0.000    0.000 
#
# Total GULP energy -245581.483973 kJ/mol
# GULP energy per Si atom -5581.397363 kJ/mol
# Density = 2.309394 g / cm^3
# Si number density = 23.146621 Si / 1000 Ang^3
#
#
#
# Elastic Constant Matrix: (Units=GPa)
#
#
# Indices 1 2 3 4 5 6 
#
# 1 26.2977 0.7787 28.7246 0.0000 0.0000 1.2007
# 2 0.7787 26.2977 28.7246 0.0000 0.0000 -1.2007
# 3 28.7246 28.7246 253.6833 0.0000 0.0000 0.0000
# 4 0.0000 0.0000 0.0000 30.4811 0.0000 0.0000
# 5 0.0000 0.0000 0.0000 0.0000 30.4811 0.0000
# 6 1.2007 -1.2007 0.0000 0.0000 0.0000 11.5786
#
#
#
# Elastic Compliance Matrix: (Units=1/GPa)
#
#
# Indices 1 2 3 4 5 6 
#
# 1 0.044092 0.004519 -0.005504 0.000000 0.000000 -0.004104
# 2 0.004519 0.044092 -0.005504 0.000000 0.000000 0.004104
# 3 -0.005504 -0.005504 0.005188 0.000000 0.000000 0.000000
# 4 0.000000 0.000000 0.000000 0.032807 0.000000 0.000000
# 5 0.000000 0.000000 0.000000 0.000000 0.032807 0.000000
# 6 -0.004104 0.004104 0.000000 0.000000 0.000000 0.087217
#
#
# Mechanical properties :
#
#
# Convention : Reuss Voigt Hill
#
# Bulk Modulus (GPa) = 12.43879 46.97052 29.70466
# Shear Modulus (GPa) = 17.48373 31.04489 24.26431
#
# Velocity S-wave (km/s) = 2.75134 3.66625 3.24124
# Velocity P-wave (km/s) = 3.93430 6.18535 5.18350
#
# Compressibility (1/GPa) = 0.08039367
#
# Stress axis : x y z
#
# Youngs Moduli (GPa) = 22.67993 22.67993 192.73692
#
# Poissons Ratio (x) = -0.10250 1.06087
# Poissons Ratio (y) = -0.10250 1.06087
# Poissons Ratio (z) = 0.12484 0.12484
#
# Static dielectric constant tensor:
#      x y z
#    x 1.890400 0.000000 0.000000 
#    y 0.000000 1.890400 0.000000 
#    z 0.000000 0.000000 1.941390 
# 
# From -- ./inp_files/3400.got.cif
#   From: 2010.05.17/outbox.cif.g08.bks.cpg/sg83_2_cif.got.tgz:3400.got - 2010.06.03 18:55:12.
