data_PCOD9543053
_publ_section_title
;
Structure prediction by ZEFSAII (Michael W. Deem and Ramdas Pophale) SiO2 
 PCOD9543053
Probable space group: I -4 
;
_chemical_formula_sum "Si O2"
_cell_formula_units_Z 44
_cell_length_a 8.318212
_cell_length_b 8.318212
_cell_length_c 28.113525
_cell_angle_alpha 90.000000
_cell_angle_beta 90.000000
_cell_angle_gamma 90.000000
_cell_volume 1945.249320
_symmetry_space_group_name_H-M "I -4 "
_symmetry_group_IT_number 82
_symmetry_cell_setting 'tetragonal'
loop_
_space_group_symop_operation_xyz
x,y,z
y,-x,-z
-x,-y,z
-y,x,-z
1/2+x,1/2+y,1/2+z
1/2+y,1/2-x,1/2-z
1/2-x,1/2-y,1/2+z
1/2-y,1/2+x,1/2-z
loop_
_atom_site_type_symbol
_atom_site_label
_atom_site_fract_x
_atom_site_fract_y
_atom_site_fract_z
Si Si1 0.500000 0.500000 0.819965
Si Si2 0.269998 0.885355 0.616554
Si Si3 0.748583 0.506349 0.256079
Si Si4 0.196837 0.332639 0.969901
Si Si5 0.152052 0.703818 0.942506
Si Si6 0.743572 0.100636 0.857856
O O1 0.381214 0.397483 0.853620
O O2 0.575110 0.377179 0.781381
O O3 0.232523 0.845559 0.561550
O O4 0.414277 0.761274 0.626600
O O5 0.336460 0.060881 0.631985
O O6 0.873375 0.644068 0.271286
O O7 0.697222 0.414080 0.303586
O O8 0.175028 0.514381 0.951583
O O9 0.025078 0.251134 0.960188
O O10 0.224139 0.294219 0.025020
O O11 0.160341 0.774694 0.889845
#
# Coordination Sequence:
#
# PCOD9543053 Si02
#       6
#     4   8   8   8   8   8
#     4  12  22  38  70  99 136 183 244 300 370 432
#     4  11  22  39  68  98 129 179 233 292 353 424
#     4  11  21  42  65  98 134 178 235 298 351 431
#     4  11  25  43  66 100 142 186 233 294 360 437
#     4  11  25  44  65  99 143 184 237 292 360 439
#     4  11  22  42  67  98 134 176 235 296 349 430
#
# _framework density 22.619208
#
# number of rings (size 3 to 8) (size 9 to 14) (size 15 to 20)
#    0.000    0.909    3.636    4.364    0.000    8.727 
#    0.000    0.000    0.000    0.545    0.000    0.000 
#    0.000    0.000    0.000    0.000    0.000    0.000 
#
# Total GULP energy -122582.500722 kJ/mol
# GULP energy per Si atom -5571.931851 kJ/mol
# Density = 2.256773 g / cm^3
# Si number density = 22.619208 Si / 1000 Ang^3
#
#
#
# Elastic Constant Matrix: (Units=GPa)
#
#
# Indices 1 2 3 4 5 6 
#
# 1 69.7693 10.5883 20.4623 0.0000 0.0000 -6.3342
# 2 10.5883 69.7693 20.4623 0.0000 0.0000 6.3342
# 3 20.4623 20.4623 127.2296 0.0000 0.0000 0.0000
# 4 0.0000 0.0000 0.0000 25.7050 0.0000 0.0000
# 5 0.0000 0.0000 0.0000 0.0000 25.7050 0.0000
# 6 -6.3342 6.3342 0.0000 0.0000 0.0000 11.8576
#
#
#
# Elastic Compliance Matrix: (Units=1/GPa)
#
#
# Indices 1 2 3 4 5 6 
#
# 1 0.016317 -0.002762 -0.002180 0.000000 0.000000 0.010192
# 2 -0.002762 0.016317 -0.002180 0.000000 0.000000 -0.010192
# 3 -0.002180 -0.002180 0.008561 0.000000 0.000000 0.000000
# 4 0.000000 0.000000 0.000000 0.038903 0.000000 0.000000
# 5 0.000000 0.000000 0.000000 0.000000 0.038903 0.000000
# 6 0.010192 -0.010192 0.000000 0.000000 0.000000 0.095223
#
#
# Mechanical properties :
#
#
# Convention : Reuss Voigt Hill
#
# Bulk Modulus (GPa) = 37.10536 41.08822 39.09679
# Shear Modulus (GPa) = 21.05700 27.00387 24.03043
#
# Velocity S-wave (km/s) = 3.05443 3.45896 3.26297
# Velocity P-wave (km/s) = 5.37395 5.84441 5.61411
#
# Compressibility (1/GPa) = 0.02695029
#
# Stress axis : x y z
#
# Youngs Moduli (GPa) = 61.28657 61.28657 116.80853
#
# Poissons Ratio (x) = 0.16929 0.25464
# Poissons Ratio (y) = 0.16929 0.25464
# Poissons Ratio (z) = 0.13360 0.13360
#
# Static dielectric constant tensor:
#      x y z
#    x 1.900200 0.000000 0.000000 
#    y 0.000000 1.900200 0.000000 
#    z 0.000000 0.000000 1.859200 
# 
# From -- ./inp_files/3933.got.cif
#   From: 2010.05.17/outbox.cif.g08.bks.cpg/sg82_2_cif.got.tgz:3933.got - 2010.06.03 18:52:26.
