data_PCOD9543708
_publ_section_title
;
Structure prediction by ZEFSAII (Michael W. Deem and Ramdas Pophale) SiO2 
 PCOD9543708
Probable space group: P 4/M
;
_chemical_formula_sum "Si O2"
_cell_formula_units_Z 36
_cell_length_a 8.125398
_cell_length_b 8.125398
_cell_length_c 24.764648
_cell_angle_alpha 90.000000
_cell_angle_beta 90.000000
_cell_angle_gamma 90.000000
_cell_volume 1635.013885
_symmetry_space_group_name_H-M "P 4/M"
_symmetry_group_IT_number 83
_symmetry_cell_setting 'tetragonal'
loop_
_space_group_symop_operation_xyz
x,y,z
-y,x,z
-x,-y,z
y,-x,z
-x,-y,-z
y,-x,-z
x,y,-z
-y,x,-z
loop_
_atom_site_type_symbol
_atom_site_label
_atom_site_fract_x
_atom_site_fract_y
_atom_site_fract_z
Si Si1 0.235604 0.421195 0.500000
Si Si2 0.236665 0.404555 0.942264
Si Si3 0.736174 0.085783 0.277801
Si Si4 0.764028 0.587588 0.825643
Si Si5 0.735562 0.087545 0.396793
O O1 0.394898 0.302722 0.500000
O O2 0.136056 0.378313 0.446189
O O3 0.405907 0.298870 0.942274
O O4 0.153841 0.377091 0.884190
O O5 0.151225 0.371895 0.000000
O O6 0.628909 0.130596 0.226446
O O7 0.660580 0.114445 0.337167
O O8 0.899674 0.198754 0.275384
O O9 0.599146 0.699304 0.823819
O O10 0.900835 0.198994 0.400301
#
# Coordination Sequence:
#
# PCOD9543708 Si02
#       5
#     4   8   8   8   8
#     4  11  24  37  50  76 110 133 150 183 234 284
#     4   7  10  19  37  61  89 120 153 190 233 280
#     4   9  19  35  52  70  94 126 163 199 234 276
#     4   9  17  28  45  72 100 123 153 197 245 288
#     4   9  19  37  58  75  92 122 166 205 232 269
#
# _framework density 22.018163000000001
#
# number of rings (size 3 to 8) (size 9 to 14) (size 15 to 20)
#    0.000    3.222    0.000    4.000    0.000    5.333 
#    0.000    6.667    0.000    1.333    0.000    7.778 
#    0.000    0.000    0.000    0.000    0.000    0.000 
#
# Total GULP energy -201076.290334 kJ/mol
# GULP energy per Si atom -5585.452509 kJ/mol
# Density = 2.196805 g / cm^3
# Si number density = 22.018163 Si / 1000 Ang^3
#
#
#
# Elastic Constant Matrix: (Units=GPa)
#
#
# Indices 1 2 3 4 5 6 
#
# 1 45.7618 31.6997 63.8651 0.0000 0.0000 -0.8681
# 2 31.6997 45.7618 63.8651 0.0000 0.0000 0.8681
# 3 63.8651 63.8651 273.5473 0.0000 0.0000 0.0000
# 4 0.0000 0.0000 0.0000 92.9283 0.0000 0.0000
# 5 0.0000 0.0000 0.0000 0.0000 92.9283 0.0000
# 6 -0.8681 0.8681 0.0000 0.0000 0.0000 32.5049
#
#
#
# Elastic Compliance Matrix: (Units=1/GPa)
#
#
# Indices 1 2 3 4 5 6 
#
# 1 0.046170 -0.025179 -0.004901 0.000000 0.000000 0.001906
# 2 -0.025179 0.046170 -0.004901 0.000000 0.000000 -0.001906
# 3 -0.004901 -0.004901 0.005944 0.000000 0.000000 0.000000
# 4 0.000000 0.000000 0.000000 0.010761 0.000000 0.000000
# 5 0.000000 0.000000 0.000000 0.000000 0.010761 0.000000
# 6 0.001906 -0.001906 0.000000 0.000000 0.000000 0.030866
#
#
# Mechanical properties :
#
#
# Convention : Reuss Voigt Hill
#
# Bulk Modulus (GPa) = 35.30762 75.99233 55.64998
# Shear Modulus (GPa) = 21.73225 57.38172 39.55698
#
# Velocity S-wave (km/s) = 3.14509 5.11054 4.24318
# Velocity P-wave (km/s) = 5.40918 8.33138 7.02393
#
# Compressibility (1/GPa) = 0.02832250
#
# Stress axis : x y z
#
# Youngs Moduli (GPa) = 21.65930 21.65930 168.23681
#
# Poissons Ratio (x) = 0.54536 0.82448
# Poissons Ratio (y) = 0.54536 0.82448
# Poissons Ratio (z) = 0.10615 0.10615
#
# Static dielectric constant tensor:
#      x y z
#    x 1.799010 0.000000 0.000000 
#    y 0.000000 1.799010 0.000000 
#    z 0.000000 0.000000 1.841320 
# 
# From -- ./inp_files/3095.got.cif
#   From: 2010.05.17/outbox.cif.g08.bks.cpg/sg83_2_cif.got.tgz:3095.got - 2010.06.03 18:55:12.
