data_PCOD9543103
_publ_section_title
;
Structure prediction by ZEFSAII (Michael W. Deem and Ramdas Pophale) SiO2 
 PCOD9543103
Probable space group: I -4 
;
_chemical_formula_sum "Si O2"
_cell_formula_units_Z 34
_cell_length_a 11.087231
_cell_length_b 11.087231
_cell_length_c 12.919232
_cell_angle_alpha 90.000000
_cell_angle_beta 90.000000
_cell_angle_gamma 90.000000
_cell_volume 1588.118443
_symmetry_space_group_name_H-M "I -4 "
_symmetry_group_IT_number 82
_symmetry_cell_setting 'tetragonal'
loop_
_space_group_symop_operation_xyz
x,y,z
y,-x,-z
-x,-y,z
-y,x,-z
1/2+x,1/2+y,1/2+z
1/2+y,1/2-x,1/2-z
1/2-x,1/2-y,1/2+z
1/2-y,1/2+x,1/2-z
loop_
_atom_site_type_symbol
_atom_site_label
_atom_site_fract_x
_atom_site_fract_y
_atom_site_fract_z
Si Si1 0.272446 0.810515 0.679182
Si Si2 0.824482 0.564444 0.713989
Si Si3 0.741471 0.406749 0.526046
Si Si4 0.551093 0.136990 0.869005
Si Si5 0.500000 0.500000 0.500000
O O1 0.147739 0.777328 0.735724
O O2 0.298554 0.700585 0.602275
O O3 0.376098 0.826573 0.765724
O O4 0.275879 0.937003 0.619601
O O5 0.856902 0.447410 0.784169
O O6 0.788682 0.512356 0.602549
O O7 0.851585 0.360252 0.459178
O O8 0.628430 0.451579 0.457295
O O9 0.500000 0.000000 0.866745
#
# Coordination Sequence:
#
# PCOD9543103 Si02
#       5
#     8   8   8   8   2
#     4  11  23  45  69 104 135 189 234 297 345 431
#     4   9  21  43  70 100 136 192 239 293 351 424
#     4  11  26  42  73 102 147 183 245 289 363 416
#     4  12  24  44  73 100 144 191 233 287 365 435
#     4  12  24  40  68 112 128 182 248 304 316 440
#
# _framework density 21.408982999999999
#
# number of rings (size 3 to 8) (size 9 to 14) (size 15 to 20)
#    0.000    1.176    2.353    2.824    9.882    0.000 
#    8.471    0.000    0.000    0.000    0.000    0.000 
#    0.000    0.000    0.000    0.000    0.000    0.000 
#
# Total GULP energy -94857.125789 kJ/mol
# GULP energy per Si atom -5579.830929 kJ/mol
# Density = 2.136026 g / cm^3
# Si number density = 21.408983 Si / 1000 Ang^3
#
#
#
# Elastic Constant Matrix: (Units=GPa)
#
#
# Indices 1 2 3 4 5 6 
#
# 1 112.7744 58.7781 35.3370 0.0000 0.0000 -14.9314
# 2 58.7781 112.7744 35.3370 0.0000 0.0000 14.9314
# 3 35.3370 35.3370 65.1475 0.0000 0.0000 0.0000
# 4 0.0000 0.0000 0.0000 24.2434 0.0000 0.0000
# 5 0.0000 0.0000 0.0000 0.0000 24.2434 0.0000
# 6 -14.9314 14.9314 0.0000 0.0000 0.0000 51.1079
#
#
#
# Elastic Compliance Matrix: (Units=1/GPa)
#
#
# Indices 1 2 3 4 5 6 
#
# 1 0.014798 -0.007291 -0.004072 0.000000 0.000000 0.006453
# 2 -0.007291 0.014798 -0.004072 0.000000 0.000000 -0.006453
# 3 -0.004072 -0.004072 0.019767 0.000000 0.000000 0.000000
# 4 0.000000 0.000000 0.000000 0.041248 0.000000 0.000000
# 5 0.000000 0.000000 0.000000 0.000000 0.041248 0.000000
# 6 0.006453 -0.006453 0.000000 0.000000 0.000000 0.023337
#
#
# Mechanical properties :
#
#
# Convention : Reuss Voigt Hill
#
# Bulk Modulus (GPa) = 54.07376 61.06674 57.57025
# Shear Modulus (GPa) = 26.01056 30.66853 28.33954
#
# Velocity S-wave (km/s) = 3.48938 3.78895 3.64225
# Velocity P-wave (km/s) = 6.44567 6.90850 6.68109
#
# Compressibility (1/GPa) = 0.01849326
#
# Stress axis : x y z
#
# Youngs Moduli (GPa) = 67.57814 67.57814 50.58979
#
# Poissons Ratio (x) = 0.49272 0.20598
# Poissons Ratio (y) = 0.49272 0.20598
# Poissons Ratio (z) = 0.27515 0.27515
#
# Static dielectric constant tensor:
#      x y z
#    x 1.794600 0.000000 0.000000 
#    y 0.000000 1.794600 0.000000 
#    z 0.000000 0.000000 1.795780 
# 
# From -- ./inp_files/1549.got.cif
#   From: 2010.05.17/outbox.cif.g08.bks.cpg/sg82_1_cif.got.tgz:1549.got - 2010.06.03 18:52:26.
