data_PCOD9543685
_publ_section_title
;
Structure prediction by ZEFSAII (Michael W. Deem and Ramdas Pophale) SiO2 
 PCOD9543685
Probable space group: P 4/M
;
_chemical_formula_sum "Si O2"
_cell_formula_units_Z 40
_cell_length_a 7.970775
_cell_length_b 7.970775
_cell_length_c 27.832374
_cell_angle_alpha 90.000000
_cell_angle_beta 90.000000
_cell_angle_gamma 90.000000
_cell_volume 1768.281290
_symmetry_space_group_name_H-M "P 4/M"
_symmetry_group_IT_number 83
_symmetry_cell_setting 'tetragonal'
loop_
_space_group_symop_operation_xyz
x,y,z
-y,x,z
-x,-y,z
y,-x,z
-x,-y,-z
y,-x,-z
x,y,-z
-y,x,-z
loop_
_atom_site_type_symbol
_atom_site_label
_atom_site_fract_x
_atom_site_fract_y
_atom_site_fract_z
Si Si1 0.405335 0.232362 0.206502
Si Si2 0.732170 0.917947 0.698508
Si Si3 0.765251 0.393007 0.000000
Si Si4 0.407357 0.231719 0.396303
Si Si5 0.395565 0.234287 0.102752
Si Si6 0.767280 0.401079 0.500000
O O1 0.597014 0.295286 0.208393
O O2 0.363754 0.124414 0.252701
O O3 0.366826 0.150105 0.154401
O O4 0.634630 0.875520 0.649996
O O5 0.894273 0.798014 0.698375
O O6 0.708335 0.588608 0.000000
O O7 0.851684 0.359080 0.051409
O O8 0.598522 0.296013 0.394472
O O9 0.370973 0.148568 0.448401
O O10 0.590419 0.292568 0.102763
O O11 0.705480 0.594495 0.500000
#
# Coordination Sequence:
#
# PCOD9543685 Si02
#       6
#     8   8   4   8   8   4
#     4   9  17  30  49  72  94 117 151 194 235 276
#     4  11  24  37  46  62  92 128 163 197 233 272
#     4   7   8  12  26  52  88 121 138 158 208 273
#     4   9  17  32  56  81 100 120 149 185 225 271
#     4   7  10  17  32  58  90 117 140 171 216 271
#     4   7  12  26  50  79 104 120 140 177 222 267
#
# _framework density 22.620835
#
# number of rings (size 3 to 8) (size 9 to 14) (size 15 to 20)
#    0.000    3.400    0.000    4.800    0.000    4.800 
#    0.000    1.000    0.000    4.800    0.000    1.400 
#    0.000    9.600    0.000    0.000    0.000    0.000 
#
# Total GULP energy -223303.300924 kJ/mol
# GULP energy per Si atom -5582.582523 kJ/mol
# Density = 2.256935 g / cm^3
# Si number density = 22.620835 Si / 1000 Ang^3
#
#
#
# Elastic Constant Matrix: (Units=GPa)
#
#
# Indices 1 2 3 4 5 6 
#
# 1 39.5446 34.3440 53.8124 0.0000 0.0000 10.2521
# 2 34.3440 39.5446 53.8124 0.0000 0.0000 -10.2521
# 3 53.8124 53.8124 300.6597 0.0000 0.0000 0.0000
# 4 0.0000 0.0000 0.0000 -71.1995 0.0000 0.0000
# 5 0.0000 0.0000 0.0000 0.0000 -71.1995 0.0000
# 6 10.2521 -10.2521 0.0000 0.0000 0.0000 23.1808
#
#
#
# Elastic Compliance Matrix: (Units=1/GPa)
#
#
# Indices 1 2 3 4 5 6 
#
# 1 -0.120119 0.138425 -0.003276 0.000000 0.000000 0.114346
# 2 0.138425 -0.120119 -0.003276 0.000000 0.000000 -0.114346
# 3 -0.003276 -0.003276 0.004499 0.000000 0.000000 0.000000
# 4 0.000000 0.000000 0.000000 -0.014045 0.000000 0.000000
# 5 0.000000 0.000000 0.000000 0.000000 -0.014045 0.000000
# 6 0.114346 -0.114346 0.000000 0.000000 0.000000 -0.058004
#
#
# Mechanical properties :
#
#
# Convention : Reuss Voigt Hill
#
# Bulk Modulus (GPa) = 35.70708 73.74295 54.72501
# Shear Modulus (GPa) = -8.67690 -7.99164 -8.33427
#
# Velocity S-wave (km/s) = -1.96065 -1.88163 -1.92154
# Velocity P-wave (km/s) = 3.27014 5.28674 4.39565
#
# Compressibility (1/GPa) = 0.02800565
#
# Stress axis : x y z
#
# Youngs Moduli (GPa) = -8.32508 -8.32508 222.27743
#
# Poissons Ratio (x) = 1.15240 0.72829
# Poissons Ratio (y) = 1.15240 0.72829
# Poissons Ratio (z) = -0.02728 -0.02728
#
# Static dielectric constant tensor:
#      x y z
#    x 1.803260 0.000000 0.000000 
#    y 0.000000 1.803260 0.000000 
#    z 0.000000 0.000000 1.903000 
# 
# From -- ./inp_files/3256.got.cif
#   From: 2010.05.17/outbox.cif.g08.bks.cpg/sg83_2_cif.got.tgz:3256.got - 2010.06.03 18:55:12.
