data_PCOD9543399
_publ_section_title
;
Structure prediction by ZEFSAII (Michael W. Deem and Ramdas Pophale) SiO2 
 PCOD9543399
Probable space group: P 4/M
;
_chemical_formula_sum "Si O2"
_cell_formula_units_Z 40
_cell_length_a 15.475973
_cell_length_b 15.475973
_cell_length_c 7.555143
_cell_angle_alpha 90.000000
_cell_angle_beta 90.000000
_cell_angle_gamma 90.000000
_cell_volume 1809.500117
_symmetry_space_group_name_H-M "P 4/M"
_symmetry_group_IT_number 83
_symmetry_cell_setting 'tetragonal'
loop_
_space_group_symop_operation_xyz
x,y,z
-y,x,z
-x,-y,z
y,-x,z
-x,-y,-z
y,-x,-z
x,y,-z
-y,x,-z
loop_
_atom_site_type_symbol
_atom_site_label
_atom_site_fract_x
_atom_site_fract_y
_atom_site_fract_z
Si Si1 0.450668 0.086653 0.287330
Si Si2 0.605878 0.200248 0.285668
Si Si3 0.780516 0.108049 0.792402
Si Si4 0.247123 0.082231 0.787343
Si Si5 0.577834 0.385703 0.284225
O O1 0.454548 0.083986 0.500000
O O2 0.512067 0.165464 0.229346
O O3 0.349551 0.093501 0.245323
O O4 0.500000 0.000000 0.222721
O O5 0.607278 0.199700 0.500000
O O6 0.681887 0.138589 0.224279
O O7 0.621918 0.297990 0.224526
O O8 0.842641 0.183341 0.719263
O O9 0.783961 0.011252 0.717416
O O10 0.801550 0.100575 0.000000
O O11 0.239842 0.080928 0.000000
O O12 0.615839 0.477336 0.229120
O O13 0.579556 0.386487 0.500000
#
# Coordination Sequence:
#
# PCOD9543399 Si02
#       5
#     8   8   8   8   8
#     4  10  20  35  55  83 114 141 177 224 275 328
#     4  10  20  33  54  82 110 143 181 225 274 324
#     4  10  22  39  57  80 109 143 188 234 282 336
#     4  10  22  39  59  82 109 146 187 232 284 335
#     4   8  15  28  46  71 103 138 177 215 254 309
#
# _framework density 22.105554000000001
#
# number of rings (size 3 to 8) (size 9 to 14) (size 15 to 20)
#    0.000    2.400    2.000    0.600    2.800    2.400 
#    0.000    2.000    0.000    0.000    0.000    4.200 
#    0.000    0.000    0.000    0.000    0.000    0.000 
#
# Total GULP energy -223237.845193 kJ/mol
# GULP energy per Si atom -5580.946130 kJ/mol
# Density = 2.205524 g / cm^3
# Si number density = 22.105554 Si / 1000 Ang^3
#
#
#
# Elastic Constant Matrix: (Units=GPa)
#
#
# Indices 1 2 3 4 5 6 
#
# 1 106.0180 54.2339 -2.4085 0.0000 0.0000 13.4418
# 2 54.2339 106.0180 -2.4085 0.0000 0.0000 -13.4418
# 3 -2.4085 -2.4085 48.3588 0.0000 0.0000 0.0000
# 4 0.0000 0.0000 0.0000 22.6742 0.0000 0.0000
# 5 0.0000 0.0000 0.0000 0.0000 22.6742 0.0000
# 6 13.4418 -13.4418 0.0000 0.0000 0.0000 36.5365
#
#
#
# Elastic Compliance Matrix: (Units=1/GPa)
#
#
# Indices 1 2 3 4 5 6 
#
# 1 0.015060 -0.008810 0.000311 0.000000 0.000000 -0.008782
# 2 -0.008810 0.015060 0.000311 0.000000 0.000000 0.008782
# 3 0.000311 0.000311 0.020710 0.000000 0.000000 0.000000
# 4 0.000000 0.000000 0.000000 0.044103 0.000000 0.000000
# 5 0.000000 0.000000 0.000000 0.000000 0.044103 0.000000
# 6 -0.008782 0.008782 0.000000 0.000000 0.000000 0.033832
#
#
# Mechanical properties :
#
#
# Convention : Reuss Voigt Hill
#
# Bulk Modulus (GPa) = 29.02432 39.91428 34.46930
# Shear Modulus (GPa) = 24.90949 30.44219 27.67584
#
# Velocity S-wave (km/s) = 3.36049 3.71499 3.54218
# Velocity P-wave (km/s) = 5.31183 6.04127 5.68826
#
# Compressibility (1/GPa) = 0.03445386
#
# Stress axis : x y z
#
# Youngs Moduli (GPa) = 66.40206 66.40206 48.28638
#
# Poissons Ratio (x) = 0.58502 -0.01503
# Poissons Ratio (y) = 0.58502 -0.01503
# Poissons Ratio (z) = -0.02067 -0.02067
#
# Static dielectric constant tensor:
#      x y z
#    x 1.798020 0.000000 0.000000 
#    y 0.000000 1.798020 0.000000 
#    z 0.000000 0.000000 1.851190 
# 
# From -- ./inp_files/655.got.cif
#   From: 2010.05.17/outbox.cif.g08.bks.cpg/sg83_1_cif.got.tgz:655.got - 2010.06.03 18:55:12.
