data_PCOD9543771
_publ_section_title
;
Structure prediction by ZEFSAII (Michael W. Deem and Ramdas Pophale) SiO2 
 PCOD9543771
Probable space group: P 4/M
;
_chemical_formula_sum "Si O2"
_cell_formula_units_Z 44
_cell_length_a 8.105538
_cell_length_b 8.105538
_cell_length_c 30.036951
_cell_angle_alpha 90.000000
_cell_angle_beta 90.000000
_cell_angle_gamma 90.000000
_cell_volume 1973.420059
_symmetry_space_group_name_H-M "P 4/M"
_symmetry_group_IT_number 83
_symmetry_cell_setting 'tetragonal'
loop_
_space_group_symop_operation_xyz
x,y,z
-y,x,z
-x,-y,z
y,-x,z
-x,-y,-z
y,-x,-z
x,y,-z
-y,x,-z
loop_
_atom_site_type_symbol
_atom_site_label
_atom_site_fract_x
_atom_site_fract_y
_atom_site_fract_z
Si Si1 0.916579 0.735615 0.913991
Si Si2 0.236049 0.408000 0.827593
Si Si3 0.735605 0.088236 0.356333
Si Si4 0.736220 0.096329 0.547602
Si Si5 0.417778 0.765221 0.000000
Si Si6 0.763864 0.587434 0.270598
O O1 0.878581 0.644402 0.867917
O O2 0.102181 0.800783 0.916044
O O3 0.866389 0.625725 0.955936
O O4 0.403639 0.298903 0.830762
O O5 0.161165 0.382272 0.778353
O O6 0.652964 0.124060 0.404539
O O7 0.631405 0.129186 0.313109
O O8 0.900963 0.199967 0.354956
O O9 0.650665 0.129256 0.500000
O O10 0.906164 0.201839 0.547595
O O11 0.301491 0.603098 0.000000
O O12 0.599463 0.699785 0.272533
#
# Coordination Sequence:
#
# PCOD9543771 Si02
#       6
#     8   8   8   8   4   8
#     4  11  24  39  56  83 116 143 169 207 255 302
#     4   9  19  37  58  77  98 130 175 217 250 294
#     4   9  17  28  45  72 100 123 155 203 253 300
#     4   7  10  19  37  61  89 120 153 192 241 294
#     4  11  24  41  62  86 110 141 182 219 248 288
#     4   9  19  35  52  70  96 132 171 208 246 294
#
# _framework density 22.296315
#
# number of rings (size 3 to 8) (size 9 to 14) (size 15 to 20)
#    0.000    2.818    0.000    4.364    0.000    8.000 
#    0.000    5.455    0.000    1.091    0.000    6.364 
#    0.000    0.000    0.000    0.000    0.000    0.000 
#
# Total GULP energy -246013.918437 kJ/mol
# GULP energy per Si atom -5591.225419 kJ/mol
# Density = 2.224557 g / cm^3
# Si number density = 22.296315 Si / 1000 Ang^3
#
#
#
# Elastic Constant Matrix: (Units=GPa)
#
#
# Indices 1 2 3 4 5 6 
#
# 1 59.4651 39.5249 62.8809 0.0000 0.0000 1.2769
# 2 39.5249 59.4651 62.8809 0.0000 0.0000 -1.2769
# 3 62.8809 62.8809 255.1947 0.0000 0.0000 0.0000
# 4 0.0000 0.0000 0.0000 94.9189 0.0000 0.0000
# 5 0.0000 0.0000 0.0000 0.0000 94.9189 0.0000
# 6 1.2769 -1.2769 0.0000 0.0000 0.0000 35.7984
#
#
#
# Elastic Compliance Matrix: (Units=1/GPa)
#
#
# Indices 1 2 3 4 5 6 
#
# 1 0.032543 -0.017837 -0.003623 0.000000 0.000000 -0.001797
# 2 -0.017837 0.032543 -0.003623 0.000000 0.000000 0.001797
# 3 -0.003623 -0.003623 0.005704 0.000000 0.000000 0.000000
# 4 0.000000 0.000000 0.000000 0.010535 0.000000 0.000000
# 5 0.000000 0.000000 0.000000 0.000000 0.010535 0.000000
# 6 -0.001797 0.001797 0.000000 0.000000 0.000000 0.028062
#
#
# Mechanical properties :
#
#
# Convention : Reuss Voigt Hill
#
# Bulk Modulus (GPa) = 48.49359 78.29984 63.39671
# Shear Modulus (GPa) = 28.25413 59.04979 43.65196
#
# Velocity S-wave (km/s) = 3.56365 5.15185 4.42952
# Velocity P-wave (km/s) = 6.22331 8.40136 7.39299
#
# Compressibility (1/GPa) = 0.02062128
#
# Stress axis : x y z
#
# Youngs Moduli (GPa) = 30.72874 30.72874 175.30761
#
# Poissons Ratio (x) = 0.54812 0.63523
# Poissons Ratio (y) = 0.54812 0.63523
# Poissons Ratio (z) = 0.11135 0.11135
#
# Static dielectric constant tensor:
#      x y z
#    x 1.810380 0.000000 0.000000 
#    y 0.000000 1.810380 0.000000 
#    z 0.000000 0.000000 1.833130 
# 
# From -- ./inp_files/3378.got.cif
#   From: 2010.05.17/outbox.cif.g08.bks.cpg/sg83_2_cif.got.tgz:3378.got - 2010.06.03 18:55:12.
