data_PCOD9543398
_publ_section_title
;
Structure prediction by ZEFSAII (Michael W. Deem and Ramdas Pophale) SiO2 
 PCOD9543398
Probable space group: P 4/M
;
_chemical_formula_sum "Si O2"
_cell_formula_units_Z 48
_cell_length_a 12.050819
_cell_length_b 12.050819
_cell_length_c 11.748761
_cell_angle_alpha 90.000000
_cell_angle_beta 90.000000
_cell_angle_gamma 90.000000
_cell_volume 1706.181373
_symmetry_space_group_name_H-M "P 4/M"
_symmetry_group_IT_number 83
_symmetry_cell_setting 'tetragonal'
loop_
_space_group_symop_operation_xyz
x,y,z
-y,x,z
-x,-y,z
y,-x,z
-x,-y,-z
y,-x,-z
x,y,-z
-y,x,-z
loop_
_atom_site_type_symbol
_atom_site_label
_atom_site_fract_x
_atom_site_fract_y
_atom_site_fract_z
Si Si1 0.464008 0.719868 0.374764
Si Si2 0.391626 0.686551 0.130962
Si Si3 0.151229 0.572970 0.121072
Si Si4 0.888546 0.850030 0.874381
Si Si5 0.929699 0.394048 0.349396
Si Si6 0.246225 0.875274 0.623676
O O1 0.464276 0.666119 0.500000
O O2 0.443773 0.654830 0.255815
O O3 0.572971 0.801238 0.372087
O O4 0.357535 0.801198 0.375423
O O5 0.265179 0.645042 0.133349
O O6 0.444577 0.810202 0.131186
O O7 0.427277 0.651864 0.000000
O O8 0.066605 0.606410 0.214719
O O9 0.102402 0.594206 0.000000
O O10 0.021944 0.851217 0.875794
O O11 0.855386 0.805812 0.748492
O O12 0.853051 0.801547 0.000000
O O13 0.996502 0.286056 0.382809
O O14 0.000000 0.500000 0.387976
O O15 0.190806 0.851739 0.500000
#
# Coordination Sequence:
#
# PCOD9543398 Si02
#       6
#     8   8   8   8   8   8
#     4   9  18  34  53  74 104 138 169 204 250 301
#     4   9  18  33  51  73 102 134 170 210 252 297
#     4   9  18  32  51  75 102 134 171 211 253 298
#     4   9  20  39  57  72  97 135 173 208 253 308
#     4   9  18  33  52  74 103 138 171 205 250 304
#     4  10  20  33  53  80 103 128 168 212 253 301
#
# _framework density 28.132999999999999
#
# number of rings (size 3 to 8) (size 9 to 14) (size 15 to 20)
#    0.000    2.833    0.000    1.000    0.000    6.000 
#    0.000   15.000    0.000    0.000    0.000    4.667 
#    0.000    0.000    0.000    0.000    0.000    0.000 
#
# Total GULP energy -267583.611403 kJ/mol
# GULP energy per Si atom -5574.658571 kJ/mol
# Density = 2.806897 g / cm^3
# Si number density = 28.133000 Si / 1000 Ang^3
#
#
#
# Elastic Constant Matrix: (Units=GPa)
#
#
# Indices 1 2 3 4 5 6 
#
# 1 92.2110 36.0774 46.0093 0.0000 0.0000 5.5010
# 2 36.0774 92.2110 46.0093 0.0000 0.0000 -5.5010
# 3 46.0093 46.0093 346.6702 0.0000 0.0000 0.0000
# 4 0.0000 0.0000 0.0000 -56.7903 0.0000 0.0000
# 5 0.0000 0.0000 0.0000 0.0000 -56.7903 0.0000
# 6 5.5010 -5.5010 0.0000 0.0000 0.0000 41.7748
#
#
#
# Elastic Compliance Matrix: (Units=1/GPa)
#
#
# Indices 1 2 3 4 5 6 
#
# 1 0.013451 -0.004836 -0.001143 0.000000 0.000000 -0.002408
# 2 -0.004836 0.013451 -0.001143 0.000000 0.000000 0.002408
# 3 -0.001143 -0.001143 0.003188 0.000000 0.000000 0.000000
# 4 0.000000 0.000000 0.000000 -0.017609 0.000000 0.000000
# 5 0.000000 0.000000 0.000000 0.000000 -0.017609 0.000000
# 6 -0.002408 0.002408 0.000000 0.000000 0.000000 0.024572
#
#
# Mechanical properties :
#
#
# Convention : Reuss Voigt Hill
#
# Bulk Modulus (GPa) = 63.11256 87.47602 75.29429
# Shear Modulus (GPa) = 128.30032 12.50526 70.40279
#
# Velocity S-wave (km/s) = 6.76047 2.11062 5.00792
# Velocity P-wave (km/s) = 9.13350 6.09105 7.76279
#
# Compressibility (1/GPa) = 0.01584471
#
# Stress axis : x y z
#
# Youngs Moduli (GPa) = 74.34491 74.34491 313.66864
#
# Poissons Ratio (x) = 0.35951 0.35864
# Poissons Ratio (y) = 0.35951 0.35864
# Poissons Ratio (z) = 0.08500 0.08500
#
# Static dielectric constant tensor:
#      x y z
#    x 2.188880 0.000000 0.000000 
#    y 0.000000 2.188880 0.000000 
#    z 0.000000 0.000000 2.234780 
# 
# From -- ./inp_files/1810.got.cif
#   From: 2010.05.17/outbox.cif.g08.bks.cpg/sg83_1_cif.got.tgz:1810.got - 2010.06.03 18:55:12.
