data_PCOD9543944
_publ_section_title
;
Structure prediction by ZEFSAII (Michael W. Deem and Ramdas Pophale) SiO2 
 PCOD9543944
Probable space group: P 42/M
;
_chemical_formula_sum "Si O2"
_cell_formula_units_Z 48
_cell_length_a 14.907054
_cell_length_b 14.907054
_cell_length_c 13.764212
_cell_angle_alpha 90.000000
_cell_angle_beta 90.000000
_cell_angle_gamma 90.000000
_cell_volume 3058.686755
_symmetry_space_group_name_H-M "P 42/M"
_symmetry_group_IT_number 84
_symmetry_cell_setting 'tetragonal'
loop_
_space_group_symop_operation_xyz
x,y,z
-y,x,1/2+z
-x,-y,z
y,-x,1/2+z
-x,-y,-z
y,-x,1/2-z
x,y,-z
-y,x,1/2-z
loop_
_atom_site_type_symbol
_atom_site_label
_atom_site_fract_x
_atom_site_fract_y
_atom_site_fract_z
Si Si1 0.880277 0.565347 0.883663
Si Si2 0.749931 0.164136 0.306358
Si Si3 0.290982 0.096320 0.113433
Si Si4 0.797440 0.968662 0.385277
Si Si5 0.093899 0.196347 0.386844
Si Si6 0.921813 0.386381 0.803515
O O1 0.823107 0.650450 0.848986
O O2 0.859815 0.466596 0.842072
O O3 0.978366 0.589606 0.840561
O O4 0.884969 0.562060 0.000000
O O5 0.816963 0.237305 0.349456
O O6 0.749049 0.153756 0.190019
O O7 0.789265 0.066450 0.338587
O O8 0.372829 0.081817 0.188003
O O9 0.226705 0.008985 0.124494
O O10 0.314649 0.103754 0.000000
O O11 0.789537 0.982307 0.500000
O O12 0.884790 0.908325 0.365395
O O13 0.712444 0.909882 0.349039
O O14 0.118049 0.211062 0.500000
#
# Coordination Sequence:
#
# PCOD9543944 Si02
#       6
#     8   8   8   8   8   8
#     4  10  19  31  51  71  87 118 164 210 246 275
#     4  11  18  34  46  68  94 125 162 204 244 275
#     4  11  21  32  46  67  98 132 160 193 242 299
#     4  10  18  29  46  64  89 127 165 203 235 267
#     4  10  19  30  44  66  94 129 168 193 233 282
#     4  10  17  31  46  66  91 116 157 205 243 284
#
# _framework density 15.693008000000001
#
# number of rings (size 3 to 8) (size 9 to 14) (size 15 to 20)
#    0.000    1.667    5.000    4.500    0.000    0.667 
#    0.000    6.667    0.000    0.000    0.000    0.000 
#    0.000    0.667    0.000    3.167    0.000    0.000 
#
# Total GULP energy -267283.521820 kJ/mol
# GULP energy per Si atom -5568.406705 kJ/mol
# Density = 1.565729 g / cm^3
# Si number density = 15.693008 Si / 1000 Ang^3
#
#
#
# Elastic Constant Matrix: (Units=GPa)
#
#
# Indices 1 2 3 4 5 6 
#
# 1 37.4018 12.6630 20.2790 0.0000 0.0000 1.9803
# 2 12.6630 37.4018 20.2790 0.0000 0.0000 -1.9803
# 3 20.2790 20.2790 93.1583 0.0000 0.0000 0.0000
# 4 0.0000 0.0000 0.0000 14.5807 0.0000 0.0000
# 5 0.0000 0.0000 0.0000 0.0000 14.5807 0.0000
# 6 1.9803 -1.9803 0.0000 0.0000 0.0000 6.2479
#
#
#
# Elastic Compliance Matrix: (Units=1/GPa)
#
#
# Indices 1 2 3 4 5 6 
#
# 1 0.033417 -0.009166 -0.005279 0.000000 0.000000 -0.013497
# 2 -0.009166 0.033417 -0.005279 0.000000 0.000000 0.013497
# 3 -0.005279 -0.005279 0.013033 0.000000 0.000000 0.000000
# 4 0.000000 0.000000 0.000000 0.068584 0.000000 0.000000
# 5 0.000000 0.000000 0.000000 0.000000 0.068584 0.000000
# 6 -0.013497 0.013497 0.000000 0.000000 0.000000 0.168609
#
#
# Mechanical properties :
#
#
# Convention : Reuss Voigt Hill
#
# Bulk Modulus (GPa) = 24.74135 30.48932 27.61533
# Shear Modulus (GPa) = 11.40085 14.73127 13.06606
#
# Velocity S-wave (km/s) = 2.69828 3.06717 2.88862
# Velocity P-wave (km/s) = 5.05051 5.65811 5.36292
#
# Compressibility (1/GPa) = 0.04041817
#
# Stress axis : x y z
#
# Youngs Moduli (GPa) = 29.92498 29.92498 76.73009
#
# Poissons Ratio (x) = 0.27430 0.40505
# Poissons Ratio (y) = 0.27430 0.40505
# Poissons Ratio (z) = 0.15797 0.15797
#
# Static dielectric constant tensor:
#      x y z
#    x 1.553180 0.000000 0.000000 
#    y 0.000000 1.553180 0.000000 
#    z 0.000000 0.000000 1.577900 
# 
# From -- ./inp_files/3050.got.cif
#   From: 2010.05.17/outbox.cif.g08.bks.cpg/sg84_2_cif.got.tgz:3050.got - 2010.06.03 18:57:40.
