data_PCOD9543071
_publ_section_title
;
Structure prediction by ZEFSAII (Michael W. Deem and Ramdas Pophale) SiO2 
 PCOD9543071
Probable space group: I -4 
;
_chemical_formula_sum "Si O2"
_cell_formula_units_Z 40
_cell_length_a 8.946962
_cell_length_b 8.946962
_cell_length_c 23.531740
_cell_angle_alpha 90.000000
_cell_angle_beta 90.000000
_cell_angle_gamma 90.000000
_cell_volume 1883.671760
_symmetry_space_group_name_H-M "I -4 "
_symmetry_group_IT_number 82
_symmetry_cell_setting 'tetragonal'
loop_
_space_group_symop_operation_xyz
x,y,z
y,-x,-z
-x,-y,z
-y,x,-z
1/2+x,1/2+y,1/2+z
1/2+y,1/2-x,1/2-z
1/2-x,1/2-y,1/2+z
1/2-y,1/2+x,1/2-z
loop_
_atom_site_type_symbol
_atom_site_label
_atom_site_fract_x
_atom_site_fract_y
_atom_site_fract_z
Si Si1 0.868035 0.804500 0.690149
Si Si2 0.026585 0.830957 0.811729
Si Si3 0.856726 0.315988 0.614766
Si Si4 0.939768 0.243777 0.494615
Si Si5 0.332383 0.974125 0.627993
O O1 0.943317 0.818503 0.751400
O O2 0.725394 0.694916 0.695017
O O3 0.796129 0.956063 0.667371
O O4 0.996238 0.746575 0.646950
O O5 0.957772 0.707965 0.853564
O O6 0.000000 0.000000 0.832250
O O7 0.893770 0.340285 0.548843
O O8 0.722637 0.194636 0.619221
O O9 0.945688 0.321526 0.433670
O O10 0.102450 0.172246 0.506889
O O11 0.500000 0.000000 0.649885
#
# Coordination Sequence:
#
# PCOD9543071 Si02
#       5
#     8   8   8   8   8
#     4  12  24  43  67  95 131 176 224 274 331 408
#     4  12  26  43  64  97 134 172 224 278 336 400
#     4  11  22  42  68  96 129 178 225 275 325 402
#     4   9  18  37  66  95 127 169 224 272 321 396
#     4  11  23  41  66  99 135 171 219 281 341 392
#
# _framework density 21.235123999999999
#
# number of rings (size 3 to 8) (size 9 to 14) (size 15 to 20)
#    0.000    1.000    4.000    3.600    0.000    1.600 
#    0.000    0.000    0.000    0.000    0.000    0.000 
#    0.000    0.000    0.000    0.000    0.000    0.000 
#
# Total GULP energy -111839.537562 kJ/mol
# GULP energy per Si atom -5591.976878 kJ/mol
# Density = 2.118679 g / cm^3
# Si number density = 21.235124 Si / 1000 Ang^3
#
#
#
# Elastic Constant Matrix: (Units=GPa)
#
#
# Indices 1 2 3 4 5 6 
#
# 1 64.3807 -11.4203 -10.0023 0.0000 0.0000 -0.7988
# 2 -11.4203 64.3807 -10.0023 0.0000 0.0000 0.7988
# 3 -10.0023 -10.0023 81.7732 0.0000 0.0000 0.0000
# 4 0.0000 0.0000 0.0000 15.1767 0.0000 0.0000
# 5 0.0000 0.0000 0.0000 0.0000 15.1767 0.0000
# 6 -0.7988 0.7988 0.0000 0.0000 0.0000 31.4627
#
#
#
# Elastic Compliance Matrix: (Units=1/GPa)
#
#
# Indices 1 2 3 4 5 6 
#
# 1 0.016498 0.003299 0.002421 0.000000 0.000000 0.000335
# 2 0.003299 0.016498 0.002421 0.000000 0.000000 -0.000335
# 3 0.002421 0.002421 0.012821 0.000000 0.000000 0.000000
# 4 0.000000 0.000000 0.000000 0.065890 0.000000 0.000000
# 5 0.000000 0.000000 0.000000 0.000000 0.065890 0.000000
# 6 0.000335 -0.000335 0.000000 0.000000 0.000000 0.031801
#
#
# Mechanical properties :
#
#
# Convention : Reuss Voigt Hill
#
# Bulk Modulus (GPa) = 16.10287 16.40940 16.25614
# Shear Modulus (GPa) = 23.38458 28.49386 25.93922
#
# Velocity S-wave (km/s) = 3.32207 3.66707 3.49882
# Velocity P-wave (km/s) = 4.72381 5.06696 4.89839
#
# Compressibility (1/GPa) = 0.06210072
#
# Stress axis : x y z
#
# Youngs Moduli (GPa) = 60.61300 60.61300 77.99501
#
# Poissons Ratio (x) = -0.19994 -0.18886
# Poissons Ratio (y) = -0.19994 -0.18886
# Poissons Ratio (z) = -0.14677 -0.14677
#
# Static dielectric constant tensor:
#      x y z
#    x 1.797800 0.000000 0.000000 
#    y 0.000000 1.797800 0.000000 
#    z 0.000000 0.000000 1.748000 
# 
# From -- ./inp_files/3324.got.cif
#   From: 2010.05.17/outbox.cif.g08.bks.cpg/sg82_2_cif.got.tgz:3324.got - 2010.06.03 18:52:26.
