data_PCOD9543301
_publ_section_title
;
Structure prediction by ZEFSAII (Michael W. Deem and Ramdas Pophale) SiO2 
 PCOD9543301
Probable space group: P 4/M
;
_chemical_formula_sum "Si O2"
_cell_formula_units_Z 40
_cell_length_a 16.144110
_cell_length_b 16.144110
_cell_length_c 8.988985
_cell_angle_alpha 90.000000
_cell_angle_beta 90.000000
_cell_angle_gamma 90.000000
_cell_volume 2342.819725
_symmetry_space_group_name_H-M "P 4/M"
_symmetry_group_IT_number 83
_symmetry_cell_setting 'tetragonal'
loop_
_space_group_symop_operation_xyz
x,y,z
-y,x,z
-x,-y,z
y,-x,z
-x,-y,-z
y,-x,-z
x,y,-z
-y,x,-z
loop_
_atom_site_type_symbol
_atom_site_label
_atom_site_fract_x
_atom_site_fract_y
_atom_site_fract_z
Si Si1 0.812774 0.556536 0.320596
Si Si2 0.542745 0.373728 0.681051
Si Si3 0.307594 0.949915 0.677946
Si Si4 0.071627 0.570618 0.170853
Si Si5 0.962053 0.869346 0.821395
O O1 0.814987 0.549359 0.500000
O O2 0.718081 0.567238 0.271099
O O3 0.871924 0.633699 0.280132
O O4 0.851937 0.473419 0.251820
O O5 0.601844 0.449343 0.727619
O O6 0.543630 0.373803 0.500000
O O7 0.306362 0.955497 0.500000
O O8 0.215915 0.941313 0.741669
O O9 0.351900 0.031346 0.745063
O O10 0.000000 0.500000 0.172140
O O11 0.090381 0.591082 0.000000
O O12 0.054736 0.900881 0.783442
O O13 0.958990 0.858395 0.000000
#
# Coordination Sequence:
#
# PCOD9543301 Si02
#       5
#     8   8   8   8   8
#     4   9  17  30  48  74 105 131 163 210 257 297
#     4   8  14  27  48  71  97 133 170 200 240 297
#     4  10  19  31  49  75 106 133 162 208 259 301
#     4   9  17  30  49  70  96 133 170 201 243 301
#     4   9  19  37  57  73  96 134 173 207 249 304
#
# _framework density 17.073443999999999
#
# number of rings (size 3 to 8) (size 9 to 14) (size 15 to 20)
#    0.000    3.000    0.000    2.400    0.000    4.000 
#    3.600    1.000    0.000    1.200    0.000    1.400 
#    0.000    0.000    0.000    0.000    0.000    0.000 
#
# Total GULP energy -222847.413869 kJ/mol
# GULP energy per Si atom -5571.185347 kJ/mol
# Density = 1.703458 g / cm^3
# Si number density = 17.073444 Si / 1000 Ang^3
#
#
#
# Elastic Constant Matrix: (Units=GPa)
#
#
# Indices 1 2 3 4 5 6 
#
# 1 110.8264 52.2564 34.3729 0.0000 0.0000 -0.6626
# 2 52.2564 110.8264 34.3729 0.0000 0.0000 0.6626
# 3 34.3729 34.3729 30.4799 0.0000 0.0000 0.0000
# 4 0.0000 0.0000 0.0000 21.5774 0.0000 0.0000
# 5 0.0000 0.0000 0.0000 0.0000 21.5774 0.0000
# 6 -0.6626 0.6626 0.0000 0.0000 0.0000 9.8269
#
#
#
# Elastic Compliance Matrix: (Units=1/GPa)
#
#
# Indices 1 2 3 4 5 6 
#
# 1 0.014394 -0.002706 -0.013181 0.000000 0.000000 0.001153
# 2 -0.002706 0.014394 -0.013181 0.000000 0.000000 -0.001153
# 3 -0.013181 -0.013181 0.062538 0.000000 0.000000 0.000000
# 4 0.000000 0.000000 0.000000 0.046345 0.000000 0.000000
# 5 0.000000 0.000000 0.000000 0.000000 0.046345 0.000000
# 6 0.001153 -0.001153 0.000000 0.000000 0.000000 0.101917
#
#
# Mechanical properties :
#
#
# Convention : Reuss Voigt Hill
#
# Bulk Modulus (GPa) = 30.12969 54.90411 42.51690
# Shear Modulus (GPa) = 14.07932 19.33837 16.70885
#
# Velocity S-wave (km/s) = 2.87476 3.36915 3.13172
# Velocity P-wave (km/s) = 5.35765 6.88203 6.16712
#
# Compressibility (1/GPa) = 0.03318986
#
# Stress axis : x y z
#
# Youngs Moduli (GPa) = 69.47382 69.47382 15.99038
#
# Poissons Ratio (x) = 0.18798 0.21077
# Poissons Ratio (y) = 0.18798 0.21077
# Poissons Ratio (z) = 0.91574 0.91574
#
# Static dielectric constant tensor:
#      x y z
#    x 1.571200 0.000000 0.000000 
#    y 0.000000 1.571200 0.000000 
#    z 0.000000 0.000000 1.570790 
# 
# From -- ./inp_files/639.got.cif
#   From: 2010.05.17/outbox.cif.g08.bks.cpg/sg83_1_cif.got.tgz:639.got - 2010.06.03 18:55:12.
