data_PCOD9543395
_publ_section_title
;
Structure prediction by ZEFSAII (Michael W. Deem and Ramdas Pophale) SiO2 
 PCOD9543395
Probable space group: P 4/M
;
_chemical_formula_sum "Si O2"
_cell_formula_units_Z 56
_cell_length_a 11.357552
_cell_length_b 11.357552
_cell_length_c 20.639496
_cell_angle_alpha 90.000000
_cell_angle_beta 90.000000
_cell_angle_gamma 90.000000
_cell_volume 2662.370888
_symmetry_space_group_name_H-M "P 4/M"
_symmetry_group_IT_number 83
_symmetry_cell_setting 'tetragonal'
loop_
_space_group_symop_operation_xyz
x,y,z
-y,x,z
-x,-y,z
y,-x,z
-x,-y,-z
y,-x,-z
x,y,-z
-y,x,-z
loop_
_atom_site_type_symbol
_atom_site_label
_atom_site_fract_x
_atom_site_fract_y
_atom_site_fract_z
Si Si1 0.185450 0.040262 0.157365
Si Si2 0.553849 0.872245 0.316071
Si Si3 0.697724 0.508793 0.426914
Si Si4 0.369446 0.144195 0.928539
Si Si5 0.819335 0.936923 0.312974
Si Si6 0.314873 0.501315 0.217373
Si Si7 0.584701 0.279863 0.073440
O O1 0.309710 0.067947 0.126305
O O2 0.186785 0.051473 0.234706
O O3 0.086636 0.135681 0.136994
O O4 0.494468 0.792761 0.370975
O O5 0.692863 0.885430 0.330819
O O6 0.521367 0.811750 0.247328
O O7 0.500000 0.000000 0.316407
O O8 0.607897 0.617323 0.420726
O O9 0.747451 0.510994 0.500000
O O10 0.308019 0.276279 0.921749
O O11 0.511337 0.156938 0.926948
O O12 0.335615 0.101461 0.000000
O O13 0.929451 0.854296 0.333096
O O14 0.385580 0.387633 0.241715
O O15 0.323613 0.475511 0.140349
O O16 0.554318 0.324076 0.000000
#
# Coordination Sequence:
#
# PCOD9543395 Si02
#       7
#     8   8   8   8   8   8   8
#     4   9  19  38  60  76  97 144 200 249 299 362
#     4  12  26  37  63  99 134 168 206 261 314 368
#     4   9  20  43  73 101 135 177 214 254 307 365
#     4  10  20  33  51  78 106 136 184 244 302 372
#     4   9  21  40  60  81 117 169 214 252 305 367
#     4  11  23  37  59  89 123 160 206 270 328 379
#     4  10  20  35  57  80 110 155 198 244 313 390
#
# _framework density 21.033882999999999
#
# number of rings (size 3 to 8) (size 9 to 14) (size 15 to 20)
#    0.000    2.000    1.429    3.000    4.000    3.429 
#    0.000    3.571    0.000    4.714    0.000    1.000 
#    0.000    0.000    0.000    0.000    0.000    0.000 
#
# Total GULP energy -311911.651145 kJ/mol
# GULP energy per Si atom -5569.850913 kJ/mol
# Density = 2.098601 g / cm^3
# Si number density = 21.033883 Si / 1000 Ang^3
#
#
#
# Elastic Constant Matrix: (Units=GPa)
#
#
# Indices 1 2 3 4 5 6 
#
# 1 476.8526 -416.4344 24.2551 0.0000 0.0000 337.8002
# 2 -416.4344 476.8526 24.2551 0.0000 0.0000 -337.8002
# 3 24.2551 24.2551 53.4441 0.0000 0.0000 0.0000
# 4 0.0000 0.0000 0.0000 4.5429 0.0000 0.0000
# 5 0.0000 0.0000 0.0000 0.0000 4.5429 0.0000
# 6 337.8002 -337.8002 0.0000 0.0000 0.0000 280.9528
#
#
#
# Elastic Compliance Matrix: (Units=1/GPa)
#
#
# Indices 1 2 3 4 5 6 
#
# 1 0.019194 0.006846 -0.011818 0.000000 0.000000 -0.014846
# 2 0.006846 0.019194 -0.011818 0.000000 0.000000 0.014846
# 3 -0.011818 -0.011818 0.029438 0.000000 0.000000 0.000000
# 4 0.000000 0.000000 0.000000 0.220125 0.000000 0.000000
# 5 0.000000 0.000000 0.000000 0.000000 0.220125 0.000000
# 6 -0.014846 0.014846 0.000000 0.000000 0.000000 0.039259
#
#
# Mechanical properties :
#
#
# Convention : Reuss Voigt Hill
#
# Bulk Modulus (GPa) = 29.20036 30.14455 29.67246
# Shear Modulus (GPa) = 8.44123 149.67928 79.06025
#
# Velocity S-wave (km/s) = 2.00546 8.44485 6.13748
# Velocity P-wave (km/s) = 4.39035 10.46183 8.02263
#
# Compressibility (1/GPa) = 0.03424615
#
# Stress axis : x y z
#
# Youngs Moduli (GPa) = 52.09994 52.09994 33.96946
#
# Poissons Ratio (x) = -0.35669 0.40145
# Poissons Ratio (y) = -0.35669 0.40145
# Poissons Ratio (z) = 0.61572 0.61572
#
# Static dielectric constant tensor:
#      x y z
#    x 1.794250 0.000000 0.000000 
#    y 0.000000 1.794250 0.000000 
#    z 0.000000 0.000000 1.762780 
# 
# From -- ./inp_files/2985.got.cif
#   From: 2010.05.17/outbox.cif.g08.bks.cpg/sg83_2_cif.got.tgz:2985.got - 2010.06.03 18:55:12.
