data_PCOD9543346
_publ_section_title
;
Structure prediction by ZEFSAII (Michael W. Deem and Ramdas Pophale) SiO2 
 PCOD9543346
Probable space group: P 4/M
;
_chemical_formula_sum "Si O2"
_cell_formula_units_Z 56
_cell_length_a 11.859618
_cell_length_b 11.859618
_cell_length_c 23.500913
_cell_angle_alpha 90.000000
_cell_angle_beta 90.000000
_cell_angle_gamma 90.000000
_cell_volume 3305.416083
_symmetry_space_group_name_H-M "P 4/M"
_symmetry_group_IT_number 83
_symmetry_cell_setting 'tetragonal'
loop_
_space_group_symop_operation_xyz
x,y,z
-y,x,z
-x,-y,z
y,-x,z
-x,-y,-z
y,-x,-z
x,y,-z
-y,x,-z
loop_
_atom_site_type_symbol
_atom_site_label
_atom_site_fract_x
_atom_site_fract_y
_atom_site_fract_z
Si Si1 0.749546 0.170203 0.063359
Si Si2 0.319695 0.066100 0.102621
Si Si3 0.186616 0.040862 0.438982
Si Si4 0.490939 0.241338 0.936989
Si Si5 0.072279 0.606726 0.773052
Si Si6 0.545169 0.677383 0.187725
Si Si7 0.040943 0.812710 0.312393
O O1 0.833073 0.229014 0.107292
O O2 0.623507 0.218219 0.067309
O O3 0.737171 0.037920 0.071694
O O4 0.793145 0.196226 0.000000
O O5 0.424004 0.123167 0.069728
O O6 0.360723 0.026681 0.164217
O O7 0.248015 0.054355 0.500000
O O8 0.238374 0.052268 0.376422
O O9 0.082156 0.128239 0.439432
O O10 0.454547 0.309394 0.881169
O O11 0.465706 0.288730 0.000000
O O12 0.202491 0.573011 0.784669
O O13 0.061049 0.714670 0.732786
O O14 0.000000 0.500000 0.752091
O O15 0.420606 0.633040 0.203294
O O16 0.917136 0.870878 0.306674
#
# Coordination Sequence:
#
# PCOD9543346 Si02
#       7
#     8   8   8   8   8   8   8
#     4  11  22  36  54  73  95 122 158 202 257 319
#     4  11  23  36  51  70  96 127 164 202 251 313
#     4   7  10  21  44  76 112 147 176 202 245 301
#     4  10  19  34  55  74  93 118 154 206 263 316
#     4  11  24  36  56  74 104 142 178 210 262 310
#     4  10  22  38  54  73  98 130 173 219 261 316
#     4   9  19  33  54  84 116 144 175 218 256 297
#
# _framework density 16.941891999999999
#
# number of rings (size 3 to 8) (size 9 to 14) (size 15 to 20)
#    0.000    2.143    0.000    6.429    4.000    3.143 
#    0.000    1.429    0.000    0.429    0.000    0.000 
#    0.000    0.000    0.000    1.571    0.000    0.000 
#
# Total GULP energy -312272.354103 kJ/mol
# GULP energy per Si atom -5576.292038 kJ/mol
# Density = 1.690333 g / cm^3
# Si number density = 16.941892 Si / 1000 Ang^3
#
#
#
# Elastic Constant Matrix: (Units=GPa)
#
#
# Indices 1 2 3 4 5 6 
#
# 1 79.5197 30.5635 29.7459 0.0000 0.0000 -1.3744
# 2 30.5635 79.5197 29.7459 0.0000 0.0000 1.3744
# 3 29.7459 29.7459 92.5120 0.0000 0.0000 0.0000
# 4 0.0000 0.0000 0.0000 9.1109 0.0000 0.0000
# 5 0.0000 0.0000 0.0000 0.0000 9.1109 0.0000
# 6 -1.3744 1.3744 0.0000 0.0000 0.0000 15.1049
#
#
#
# Elastic Compliance Matrix: (Units=1/GPa)
#
#
# Indices 1 2 3 4 5 6 
#
# 1 0.015763 -0.004768 -0.003535 0.000000 0.000000 0.001868
# 2 -0.004768 0.015763 -0.003535 0.000000 0.000000 -0.001868
# 3 -0.003535 -0.003535 0.013083 0.000000 0.000000 0.000000
# 4 0.000000 0.000000 0.000000 0.109759 0.000000 0.000000
# 5 0.000000 0.000000 0.000000 0.000000 0.109759 0.000000
# 6 0.001868 -0.001868 0.000000 0.000000 0.000000 0.066544
#
#
# Mechanical properties :
#
#
# Convention : Reuss Voigt Hill
#
# Bulk Modulus (GPa) = 47.77542 47.96245 47.86893
# Shear Modulus (GPa) = 13.83796 17.43174 15.63485
#
# Velocity S-wave (km/s) = 2.86105 3.21115 3.04114
# Velocity P-wave (km/s) = 6.25899 6.49000 6.37554
#
# Compressibility (1/GPa) = 0.02093126
#
# Stress axis : x y z
#
# Youngs Moduli (GPa) = 63.44006 63.44006 76.43658
#
# Poissons Ratio (x) = 0.30251 0.27021
# Poissons Ratio (y) = 0.30251 0.27021
# Poissons Ratio (z) = 0.22427 0.22427
#
# Static dielectric constant tensor:
#      x y z
#    x 1.584650 0.000000 0.000000 
#    y 0.000000 1.584650 0.000000 
#    z 0.000000 0.000000 1.592190 
# 
# From -- ./inp_files/3010.got.cif
#   From: 2010.05.17/outbox.cif.g08.bks.cpg/sg83_2_cif.got.tgz:3010.got - 2010.06.03 18:55:12.
