data_PCOD9543940
_publ_section_title
;
Structure prediction by ZEFSAII (Michael W. Deem and Ramdas Pophale) SiO2 
 PCOD9543940
Probable space group: P 42/M
;
_chemical_formula_sum "Si O2"
_cell_formula_units_Z 44
_cell_length_a 8.545087
_cell_length_b 8.545087
_cell_length_c 29.289997
_cell_angle_alpha 90.000000
_cell_angle_beta 90.000000
_cell_angle_gamma 90.000000
_cell_volume 2138.711993
_symmetry_space_group_name_H-M "P 42/M"
_symmetry_group_IT_number 84
_symmetry_cell_setting 'tetragonal'
loop_
_space_group_symop_operation_xyz
x,y,z
-y,x,1/2+z
-x,-y,z
y,-x,1/2+z
-x,-y,-z
y,-x,1/2-z
x,y,-z
-y,x,1/2-z
loop_
_atom_site_type_symbol
_atom_site_label
_atom_site_fract_x
_atom_site_fract_y
_atom_site_fract_z
Si Si1 0.253391 0.569369 0.825060
Si Si2 0.178429 0.036058 0.000000
Si Si3 0.067183 0.244467 0.175647
Si Si4 0.183931 0.430828 0.500000
Si Si5 0.911062 0.257153 0.398916
Si Si6 0.500000 0.500000 0.250000
Si Si7 0.245142 0.423956 0.398964
Si Si8 0.000000 0.000000 0.250000
O O1 0.178256 0.396791 0.824038
O O2 0.372067 0.580036 0.782767
O O3 0.349562 0.614897 0.870593
O O4 0.109030 0.689975 0.823015
O O5 0.226711 0.118134 0.952716
O O6 0.251112 0.863057 0.000000
O O7 0.000000 0.000000 0.000000
O O8 0.112273 0.145262 0.130884
O O9 0.084476 0.127307 0.218056
O O10 0.270600 0.456904 0.452726
O O11 0.000000 0.500000 0.500000
O O12 0.814859 0.408251 0.381320
O O13 0.092943 0.309067 0.395526
#
# Coordination Sequence:
#
# PCOD9543940 Si02
#       8
#     8   4   8   4   8   2   8   2
#     4  11  25  42  65  92 125 161 210 267 326 378
#     4  10  20  30  57  94 127 170 208 259 305 361
#     4  11  25  42  62  96 125 154 206 271 325 382
#     4  10  16  36  59  96 133 168 223 253 296 390
#     4  10  20  37  61  93 128 165 214 252 307 378
#     4  12  24  48  68  82 116 180 216 252 320 410
#     4  10  19  37  64  94 127 173 211 257 305 382
#     4  12  24  44  68  86 120 164 204 260 328 394
#
# _framework density 20.573131
#
# number of rings (size 3 to 8) (size 9 to 14) (size 15 to 20)
#    0.000    1.455    3.636    3.273    6.364    0.000 
#    0.000    4.545    0.000    4.909    0.000    0.000 
#    0.000    0.000    0.000    0.000    0.000    0.000 
#
# Total GULP energy -245480.759797 kJ/mol
# GULP energy per Si atom -5579.108177 kJ/mol
# Density = 2.052631 g / cm^3
# Si number density = 20.573131 Si / 1000 Ang^3
#
#
#
# Elastic Constant Matrix: (Units=GPa)
#
#
# Indices 1 2 3 4 5 6 
#
# 1 81.9616 38.5181 52.9620 0.0000 0.0000 -6.8880
# 2 38.5181 81.9616 52.9620 0.0000 0.0000 6.8880
# 3 52.9620 52.9620 156.8014 0.0000 0.0000 0.0000
# 4 0.0000 0.0000 0.0000 25.2928 0.0000 0.0000
# 5 0.0000 0.0000 0.0000 0.0000 25.2928 0.0000
# 6 -6.8880 6.8880 0.0000 0.0000 0.0000 43.4785
#
#
#
# Elastic Compliance Matrix: (Units=1/GPa)
#
#
# Indices 1 2 3 4 5 6 
#
# 1 0.018021 -0.006215 -0.003988 0.000000 0.000000 0.003840
# 2 -0.006215 0.018021 -0.003988 0.000000 0.000000 -0.003840
# 3 -0.003988 -0.003988 0.009071 0.000000 0.000000 0.000000
# 4 0.000000 0.000000 0.000000 0.039537 0.000000 0.000000
# 5 0.000000 0.000000 0.000000 0.000000 0.039537 0.000000
# 6 0.003840 -0.003840 0.000000 0.000000 0.000000 0.024216
#
#
# Mechanical properties :
#
#
# Convention : Reuss Voigt Hill
#
# Bulk Modulus (GPa) = 59.76320 67.73432 63.74876
# Shear Modulus (GPa) = 27.41806 30.56500 28.99153
#
# Velocity S-wave (km/s) = 3.65459 3.85863 3.75800
# Velocity P-wave (km/s) = 6.84984 7.26961 7.06284
#
# Compressibility (1/GPa) = 0.01673270
#
# Stress axis : x y z
#
# Youngs Moduli (GPa) = 55.49087 55.49087 110.23798
#
# Poissons Ratio (x) = 0.34487 0.43959
# Poissons Ratio (y) = 0.34487 0.43959
# Poissons Ratio (z) = 0.22128 0.22128
#
# Static dielectric constant tensor:
#      x y z
#    x 1.765660 0.000000 0.000000 
#    y 0.000000 1.765660 0.000000 
#    z 0.000000 0.000000 1.746870 
# 
# From -- ./inp_files/5728.got.cif
#   From: 2010.05.17/outbox.cif.g08.bks.cpg/sg84_3_cif.got.tgz:5728.got - 2010.06.03 18:57:40.
