data_PCOD9543090
_publ_section_title
;
Structure prediction by ZEFSAII (Michael W. Deem and Ramdas Pophale) SiO2 
 PCOD9543090
Probable space group: I -4 
;
_chemical_formula_sum "Si O2"
_cell_formula_units_Z 34
_cell_length_a 7.736220
_cell_length_b 7.736220
_cell_length_c 23.019928
_cell_angle_alpha 90.000000
_cell_angle_beta 90.000000
_cell_angle_gamma 90.000000
_cell_volume 1377.721970
_symmetry_space_group_name_H-M "I -4 "
_symmetry_group_IT_number 82
_symmetry_cell_setting 'tetragonal'
loop_
_space_group_symop_operation_xyz
x,y,z
y,-x,-z
-x,-y,z
-y,x,-z
1/2+x,1/2+y,1/2+z
1/2+y,1/2-x,1/2-z
1/2-x,1/2-y,1/2+z
1/2-y,1/2+x,1/2-z
loop_
_atom_site_type_symbol
_atom_site_label
_atom_site_fract_x
_atom_site_fract_y
_atom_site_fract_z
Si Si1 0.379549 0.236893 0.257733
Si Si2 0.976493 0.206290 0.331801
Si Si3 0.500000 0.500000 0.643512
Si Si4 0.000000 0.500000 0.525647
Si Si5 0.000000 0.500000 0.250000
Si Si6 0.706187 0.767922 0.564558
O O1 0.556246 0.193229 0.223174
O O2 0.264330 0.301596 0.204579
O O3 0.429229 0.356122 0.311594
O O4 0.077278 0.354800 0.295399
O O5 0.938519 0.249352 0.397434
O O6 0.000000 0.000000 0.325665
O O7 0.574923 0.648084 0.601286
O O8 0.121117 0.350909 0.555865
O O9 0.147795 0.608463 0.490432
#
# Coordination Sequence:
#
# PCOD9543090 Si02
#       6
#     8   8   4   4   2   8
#     4  11  23  41  67 112 161 196 247 304 380 506
#     4  12  25  44  76 116 158 210 252 324 402 493
#     4  12  24  49  78 112 156 215 254 320 412 496
#     4  12  31  56  80 112 148 204 285 360 408 478
#     4  12  26  52  72 124 172 212 266 320 404 526
#     4  12  29  52  81 110 151 207 273 345 414 482
#
# _framework density 24.678417
#
# number of rings (size 3 to 8) (size 9 to 14) (size 15 to 20)
#    0.000    0.235    3.529    4.941    6.588    1.882 
#    0.000    0.000    0.000    0.000    0.000    0.000 
#    0.000    0.000    0.000    0.000    0.000    0.000 
#
# Total GULP energy -94663.081661 kJ/mol
# GULP energy per Si atom -5568.416568 kJ/mol
# Density = 2.462225 g / cm^3
# Si number density = 24.678417 Si / 1000 Ang^3
#
#
#
# Elastic Constant Matrix: (Units=GPa)
#
#
# Indices 1 2 3 4 5 6 
#
# 1 93.7018 14.0084 28.5476 0.0000 0.0000 -0.9789
# 2 14.0084 93.7018 28.5476 0.0000 0.0000 0.9789
# 3 28.5476 28.5476 68.2876 0.0000 0.0000 0.0000
# 4 0.0000 0.0000 0.0000 16.6467 0.0000 0.0000
# 5 0.0000 0.0000 0.0000 0.0000 16.6467 0.0000
# 6 -0.9789 0.9789 0.0000 0.0000 0.0000 33.4414
#
#
#
# Elastic Compliance Matrix: (Units=1/GPa)
#
#
# Indices 1 2 3 4 5 6 
#
# 1 0.012242 -0.000315 -0.004986 0.000000 0.000000 0.000368
# 2 -0.000315 0.012242 -0.004986 0.000000 0.000000 -0.000368
# 3 -0.004986 -0.004986 0.018813 0.000000 0.000000 0.000000
# 4 0.000000 0.000000 0.000000 0.060072 0.000000 0.000000
# 5 0.000000 0.000000 0.000000 0.000000 0.060072 0.000000
# 6 0.000368 -0.000368 0.000000 0.000000 0.000000 0.029925
#
#
# Mechanical properties :
#
#
# Convention : Reuss Voigt Hill
#
# Bulk Modulus (GPa) = 44.00893 44.21095 44.10994
# Shear Modulus (GPa) = 22.57190 25.65282 24.11236
#
# Velocity S-wave (km/s) = 3.02758 3.22760 3.12919
# Velocity P-wave (km/s) = 5.48574 5.64301 5.56493
#
# Compressibility (1/GPa) = 0.02272266
#
# Stress axis : x y z
#
# Youngs Moduli (GPa) = 81.68475 81.68475 53.15500
#
# Poissons Ratio (x) = 0.02572 0.26504
# Poissons Ratio (y) = 0.02572 0.26504
# Poissons Ratio (z) = 0.40730 0.40730
#
# Static dielectric constant tensor:
#      x y z
#    x 2.238380 0.000000 0.000000 
#    y 0.000000 2.238380 0.000000 
#    z 0.000000 0.000000 1.930540 
# 
# From -- ./inp_files/3003.got.cif
#   From: 2010.05.17/outbox.cif.g08.bks.cpg/sg82_2_cif.got.tgz:3003.got - 2010.06.03 18:52:26.
