data_PCOD9543466
_publ_section_title
;
Structure prediction by ZEFSAII (Michael W. Deem and Ramdas Pophale) SiO2 
 PCOD9543466
Probable space group: P 4/M
;
_chemical_formula_sum "Si O2"
_cell_formula_units_Z 40
_cell_length_a 15.149496
_cell_length_b 15.149496
_cell_length_c 8.669028
_cell_angle_alpha 90.000000
_cell_angle_beta 90.000000
_cell_angle_gamma 90.000000
_cell_volume 1989.604595
_symmetry_space_group_name_H-M "P 4/M"
_symmetry_group_IT_number 83
_symmetry_cell_setting 'tetragonal'
loop_
_space_group_symop_operation_xyz
x,y,z
-y,x,z
-x,-y,z
y,-x,z
-x,-y,-z
y,-x,-z
x,y,-z
-y,x,-z
loop_
_atom_site_type_symbol
_atom_site_label
_atom_site_fract_x
_atom_site_fract_y
_atom_site_fract_z
Si Si1 0.558916 0.087124 0.686153
Si Si2 0.201070 0.601066 0.684650
Si Si3 0.579950 0.617193 0.814566
Si Si4 0.222651 0.103569 0.315211
Si Si5 0.084712 0.242838 0.816791
O O1 0.570490 0.089553 0.500000
O O2 0.494782 0.167003 0.737030
O O3 0.655263 0.089219 0.760641
O O4 0.500000 0.000000 0.719633
O O5 0.205258 0.598486 0.500000
O O6 0.296600 0.624707 0.748795
O O7 0.132660 0.677614 0.726115
O O8 0.477062 0.617935 0.765215
O O9 0.582405 0.619185 0.000000
O O10 0.217765 0.092162 0.500000
O O11 0.157988 0.181466 0.262845
O O12 0.205690 0.010912 0.232954
O O13 0.095478 0.239727 0.000000
#
# Coordination Sequence:
#
# PCOD9543466 Si02
#       5
#     8   8   8   8   8
#     4  10  20  41  66  90 124 166 209 251 304 373
#     4  10  22  38  62  91 119 158 213 263 303 364
#     4   9  20  38  56  79 119 166 205 248 312 378
#     4  11  24  46  69  92 126 172 217 262 319 385
#     4  12  26  43  66 101 133 164 209 268 325 381
#
# _framework density 20.104496999999999
#
# number of rings (size 3 to 8) (size 9 to 14) (size 15 to 20)
#    0.000    1.600    2.000    3.000    2.800    4.000 
#    0.000    3.000    0.000    0.000    0.000    0.000 
#    0.000    0.000    0.000    0.000    0.000    0.000 
#
# Total GULP energy -223496.510486 kJ/mol
# GULP energy per Si atom -5587.412762 kJ/mol
# Density = 2.005874 g / cm^3
# Si number density = 20.104497 Si / 1000 Ang^3
#
#
#
# Elastic Constant Matrix: (Units=GPa)
#
#
# Indices 1 2 3 4 5 6 
#
# 1 73.2062 9.9435 11.2920 0.0000 0.0000 -9.3351
# 2 9.9435 73.2062 11.2920 0.0000 0.0000 9.3351
# 3 11.2920 11.2920 22.4267 0.0000 0.0000 0.0000
# 4 0.0000 0.0000 0.0000 52.5730 0.0000 0.0000
# 5 0.0000 0.0000 0.0000 0.0000 52.5730 0.0000
# 6 -9.3351 9.3351 0.0000 0.0000 0.0000 30.8986
#
#
#
# Elastic Compliance Matrix: (Units=1/GPa)
#
#
# Indices 1 2 3 4 5 6 
#
# 1 0.015643 -0.001711 -0.007015 0.000000 0.000000 0.005243
# 2 -0.001711 0.015643 -0.007015 0.000000 0.000000 -0.005243
# 3 -0.007015 -0.007015 0.051654 0.000000 0.000000 0.000000
# 4 0.000000 0.000000 0.000000 0.019021 0.000000 0.000000
# 5 0.000000 0.000000 0.000000 0.000000 0.019021 0.000000
# 6 0.005243 -0.005243 0.000000 0.000000 0.000000 0.035532
#
#
# Mechanical properties :
#
#
# Convention : Reuss Voigt Hill
#
# Bulk Modulus (GPa) = 19.43322 25.98822 22.71072
# Shear Modulus (GPa) = 24.37254 36.29634 30.33444
#
# Velocity S-wave (km/s) = 3.48558 4.25359 3.88859
# Velocity P-wave (km/s) = 5.08784 6.08923 5.61092
#
# Compressibility (1/GPa) = 0.05145827
#
# Stress axis : x y z
#
# Youngs Moduli (GPa) = 63.92586 63.92586 19.35967
#
# Poissons Ratio (x) = 0.10940 0.13580
# Poissons Ratio (y) = 0.10940 0.13580
# Poissons Ratio (z) = 0.44842 0.44842
#
# Static dielectric constant tensor:
#      x y z
#    x 1.708310 0.000000 0.000000 
#    y 0.000000 1.708310 0.000000 
#    z 0.000000 0.000000 1.673700 
# 
# From -- ./inp_files/633.got.cif
#   From: 2010.05.17/outbox.cif.g08.bks.cpg/sg83_1_cif.got.tgz:633.got - 2010.06.03 18:55:12.
