data_PCOD9543430
_publ_section_title
;
Structure prediction by ZEFSAII (Michael W. Deem and Ramdas Pophale) SiO2 
 PCOD9543430
Probable space group: P 4/M
;
_chemical_formula_sum "Si O2"
_cell_formula_units_Z 40
_cell_length_a 15.858066
_cell_length_b 15.858066
_cell_length_c 9.093456
_cell_angle_alpha 90.000000
_cell_angle_beta 90.000000
_cell_angle_gamma 90.000000
_cell_volume 2286.806467
_symmetry_space_group_name_H-M "P 4/M"
_symmetry_group_IT_number 83
_symmetry_cell_setting 'tetragonal'
loop_
_space_group_symop_operation_xyz
x,y,z
-y,x,z
-x,-y,z
y,-x,z
-x,-y,-z
y,-x,-z
x,y,-z
-y,x,-z
loop_
_atom_site_type_symbol
_atom_site_label
_atom_site_fract_x
_atom_site_fract_y
_atom_site_fract_z
Si Si1 0.810818 0.557912 0.674520
Si Si2 0.868569 0.047063 0.324946
Si Si3 0.692324 0.065279 0.176350
Si Si4 0.924257 0.431031 0.832107
Si Si5 0.459753 0.634186 0.174132
O O1 0.816049 0.564214 0.500000
O O2 0.865471 0.632298 0.748859
O O3 0.853101 0.470290 0.729700
O O4 0.715644 0.561322 0.731700
O O5 0.851592 0.053059 0.500000
O O6 0.786794 0.071945 0.234046
O O7 0.950687 0.103807 0.293413
O O8 0.653731 0.972647 0.214074
O O9 0.686674 0.073577 0.000000
O O10 0.000000 0.500000 0.834098
O O11 0.892914 0.423068 0.000000
O O12 0.398894 0.554647 0.202774
O O13 0.453940 0.654192 0.000000
#
# Coordination Sequence:
#
# PCOD9543430 Si02
#       5
#     8   8   8   8   8
#     4  11  21  33  54  83 113 143 177 221 273 323
#     4   9  19  37  58  79 108 145 179 219 275 328
#     4  10  20  35  56  81 109 143 184 226 267 314
#     4   8  16  32  52  74 104 141 177 216 264 315
#     4   9  19  38  61  80 103 141 183 222 268 320
#
# _framework density 17.491643
#
# number of rings (size 3 to 8) (size 9 to 14) (size 15 to 20)
#    0.000    2.600    0.000    4.800    0.000    6.000 
#    3.600    2.000    0.000    0.000    0.000    0.000 
#    0.000    0.000    0.000    0.000    0.000    0.000 
#
# Total GULP energy -223079.013501 kJ/mol
# GULP energy per Si atom -5576.975338 kJ/mol
# Density = 1.745183 g / cm^3
# Si number density = 17.491643 Si / 1000 Ang^3
#
#
#
# Elastic Constant Matrix: (Units=GPa)
#
#
# Indices 1 2 3 4 5 6 
#
# 1 82.5861 36.7867 61.5154 0.0000 0.0000 1.4193
# 2 36.7867 82.5861 61.5154 0.0000 0.0000 -1.4193
# 3 61.5154 61.5154 93.7334 0.0000 0.0000 0.0000
# 4 0.0000 0.0000 0.0000 17.7138 0.0000 0.0000
# 5 0.0000 0.0000 0.0000 0.0000 17.7138 0.0000
# 6 1.4193 -1.4193 0.0000 0.0000 0.0000 7.9269
#
#
#
# Elastic Compliance Matrix: (Units=1/GPa)
#
#
# Indices 1 2 3 4 5 6 
#
# 1 0.023983 0.001904 -0.016989 0.000000 0.000000 -0.003953
# 2 0.001904 0.023983 -0.016989 0.000000 0.000000 0.003953
# 3 -0.016989 -0.016989 0.032967 0.000000 0.000000 0.000000
# 4 0.000000 0.000000 0.000000 0.056453 0.000000 0.000000
# 5 0.000000 0.000000 0.000000 0.000000 0.056453 0.000000
# 6 -0.003953 0.003953 0.000000 0.000000 0.000000 0.127568
#
#
# Mechanical properties :
#
#
# Convention : Reuss Voigt Hill
#
# Bulk Modulus (GPa) = 59.57635 64.28229 61.92932
# Shear Modulus (GPa) = 12.78281 15.27678 14.02979
#
# Velocity S-wave (km/s) = 2.70626 2.95850 2.83518
# Velocity P-wave (km/s) = 6.62563 6.96422 6.79703
#
# Compressibility (1/GPa) = 0.01678519
#
# Stress axis : x y z
#
# Youngs Moduli (GPa) = 41.69636 41.69636 30.33307
#
# Poissons Ratio (x) = -0.07937 0.51532
# Poissons Ratio (y) = -0.07937 0.51532
# Poissons Ratio (z) = 0.70837 0.70837
#
# Static dielectric constant tensor:
#      x y z
#    x 1.592430 0.000000 0.000000 
#    y 0.000000 1.592430 0.000000 
#    z 0.000000 0.000000 1.579770 
# 
# From -- ./inp_files/646.got.cif
#   From: 2010.05.17/outbox.cif.g08.bks.cpg/sg83_1_cif.got.tgz:646.got - 2010.06.03 18:55:12.
