data_PCOD9543567
_publ_section_title
;
Structure prediction by ZEFSAII (Michael W. Deem and Ramdas Pophale) SiO2 
 PCOD9543567
Probable space group: P 4/M
;
_chemical_formula_sum "Si O2"
_cell_formula_units_Z 40
_cell_length_a 15.025667
_cell_length_b 15.025667
_cell_length_c 9.127924
_cell_angle_alpha 90.000000
_cell_angle_beta 90.000000
_cell_angle_gamma 90.000000
_cell_volume 2060.817506
_symmetry_space_group_name_H-M "P 4/M"
_symmetry_group_IT_number 83
_symmetry_cell_setting 'tetragonal'
loop_
_space_group_symop_operation_xyz
x,y,z
-y,x,z
-x,-y,z
y,-x,z
-x,-y,-z
y,-x,-z
x,y,-z
-y,x,-z
loop_
_atom_site_type_symbol
_atom_site_label
_atom_site_fract_x
_atom_site_fract_y
_atom_site_fract_z
Si Si1 0.556380 0.910449 0.164546
Si Si2 0.855804 0.953757 0.500000
Si Si3 0.871016 0.248891 0.763083
Si Si4 0.503216 0.260233 0.675441
Si Si5 0.681420 0.327793 0.820870
Si Si6 0.109119 0.101248 0.000000
O O1 0.663131 0.921425 0.177394
O O2 0.525004 0.840773 0.286170
O O3 0.500000 0.000000 0.177312
O O4 0.540213 0.873007 0.000000
O O5 0.792400 0.927710 0.633260
O O6 0.945188 0.892228 0.500000
O O7 0.770304 0.284566 0.749488
O O8 0.861644 0.163359 0.865407
O O9 0.505379 0.275177 0.500000
O O10 0.596211 0.279262 0.754704
O O11 0.428294 0.318554 0.758585
O O12 0.686508 0.324658 0.000000
O O13 0.005479 0.120301 0.000000
#
# Coordination Sequence:
#
# PCOD9543567 Si02
#       6
#     8   4   8   8   8   4
#     4  10  22  42  64  93 130 169 217 270 323 385
#     4  11  26  44  61  88 130 173 213 266 324 382
#     4  11  22  42  64  91 127 170 214 262 320 381
#     4  11  24  40  66  97 131 167 213 268 322 385
#     4  11  23  44  67  95 130 171 213 263 323 387
#     4  11  22  38  63  94 124 161 217 270 314 372
#
# _framework density 19.409773999999999
#
# number of rings (size 3 to 8) (size 9 to 14) (size 15 to 20)
#    0.000    1.200    2.000    4.800    7.000    5.600 
#    0.000    2.000    0.000    0.000    0.000    0.000 
#    0.000    0.000    0.000    0.000    0.000    0.000 
#
# Total GULP energy -223017.065264 kJ/mol
# GULP energy per Si atom -5575.426632 kJ/mol
# Density = 1.936560 g / cm^3
# Si number density = 19.409774 Si / 1000 Ang^3
#
#
#
# Elastic Constant Matrix: (Units=GPa)
#
#
# Indices 1 2 3 4 5 6 
#
# 1 82.7904 46.8348 15.5191 0.0000 0.0000 15.0205
# 2 46.8348 82.7904 15.5191 0.0000 0.0000 -15.0205
# 3 15.5191 15.5191 73.0376 0.0000 0.0000 0.0000
# 4 0.0000 0.0000 0.0000 33.9066 0.0000 0.0000
# 5 0.0000 0.0000 0.0000 0.0000 33.9066 0.0000
# 6 15.0205 -15.0205 0.0000 0.0000 0.0000 30.8914
#
#
#
# Elastic Compliance Matrix: (Units=1/GPa)
#
#
# Indices 1 2 3 4 5 6 
#
# 1 0.027485 -0.019357 -0.001727 0.000000 0.000000 -0.022776
# 2 -0.019357 0.027485 -0.001727 0.000000 0.000000 0.022776
# 3 -0.001727 -0.001727 0.014426 0.000000 0.000000 0.000000
# 4 0.000000 0.000000 0.000000 0.029493 0.000000 0.000000
# 5 0.000000 0.000000 0.000000 0.000000 0.029493 0.000000
# 6 -0.022776 0.022776 0.000000 0.000000 0.000000 0.054521
#
#
# Mechanical properties :
#
#
# Convention : Reuss Voigt Hill
#
# Bulk Modulus (GPa) = 42.06375 43.81826 42.94100
# Shear Modulus (GPa) = 21.14636 30.45726 25.80181
#
# Velocity S-wave (km/s) = 3.30429 3.96557 3.64994
# Velocity P-wave (km/s) = 6.02298 6.60243 6.31935
#
# Compressibility (1/GPa) = 0.02377344
#
# Stress axis : x y z
#
# Youngs Moduli (GPa) = 36.38378 36.38378 69.32163
#
# Poissons Ratio (x) = 0.70427 0.11972
# Poissons Ratio (y) = 0.70427 0.11972
# Poissons Ratio (z) = 0.06284 0.06284
#
# Static dielectric constant tensor:
#      x y z
#    x 1.663110 0.000000 0.000000 
#    y 0.000000 1.663110 0.000000 
#    z 0.000000 0.000000 1.632780 
# 
# From -- ./inp_files/753.got.cif
#   From: 2010.05.17/outbox.cif.g08.bks.cpg/sg83_1_cif.got.tgz:753.got - 2010.06.03 18:55:12.
