data_PCOD9543583
_publ_section_title
;
Structure prediction by ZEFSAII (Michael W. Deem and Ramdas Pophale) SiO2 
 PCOD9543583
Probable space group: P 4/M
;
_chemical_formula_sum "Si O2"
_cell_formula_units_Z 60
_cell_length_a 11.389666
_cell_length_b 11.389666
_cell_length_c 22.489613
_cell_angle_alpha 90.000000
_cell_angle_beta 90.000000
_cell_angle_gamma 90.000000
_cell_volume 2917.453613
_symmetry_space_group_name_H-M "P 4/M"
_symmetry_group_IT_number 83
_symmetry_cell_setting 'tetragonal'
loop_
_space_group_symop_operation_xyz
x,y,z
-y,x,z
-x,-y,z
y,-x,z
-x,-y,-z
y,-x,-z
x,y,-z
-y,x,-z
loop_
_atom_site_type_symbol
_atom_site_label
_atom_site_fract_x
_atom_site_fract_y
_atom_site_fract_z
Si Si1 0.355061 0.018583 0.365018
Si Si2 0.646186 0.631208 0.268844
Si Si3 0.340375 0.388228 0.500000
Si Si4 0.793864 0.421785 0.931585
Si Si5 0.238382 0.263030 0.613573
Si Si6 0.627419 0.991174 0.844280
Si Si7 0.039238 0.804672 0.748318
Si Si8 0.258489 0.353038 0.136714
O O1 0.284840 0.902147 0.386708
O O2 0.301450 0.038214 0.299090
O O3 0.500000 0.000000 0.367619
O O4 0.300497 0.135530 0.396322
O O5 0.508981 0.660899 0.275827
O O6 0.717536 0.692447 0.321703
O O7 0.683971 0.661231 0.201553
O O8 0.472606 0.342625 0.500000
O O9 0.282412 0.343759 0.560212
O O10 0.729708 0.515348 0.888723
O O11 0.725951 0.304086 0.916580
O O12 0.921259 0.401336 0.903913
O O13 0.793061 0.455014 0.000000
O O14 0.734067 0.934860 0.808583
O O15 0.666686 0.121973 0.855217
O O16 0.500000 0.000000 0.811583
O O17 0.132014 0.911374 0.742789
#
# Coordination Sequence:
#
# PCOD9543583 Si02
#       8
#     8   8   4   8   8   8   8   8
#     4  12  25  44  72 104 146 197 245 303 368 429
#     4  11  22  40  65  97 137 173 227 294 365 426
#     4  11  24  48  76 109 154 200 256 315 374 431
#     4  11  24  40  61  87 121 167 217 279 351 429
#     4  12  27  45  72 109 148 196 250 301 361 442
#     4  10  23  38  59  86 122 167 222 278 343 421
#     4  11  22  40  64  96 138 180 228 294 358 428
#     4  11  22  40  61  89 122 163 215 279 345 431
#
# _framework density 20.565878999999999
#
# number of rings (size 3 to 8) (size 9 to 14) (size 15 to 20)
#    0.000    0.867    2.667    4.800    1.867    6.133 
#    0.000    2.000    0.000    0.800    0.000    2.800 
#    0.000    0.000    0.000    0.000    0.000    0.000 
#
# Total GULP energy -334712.853103 kJ/mol
# GULP energy per Si atom -5578.547552 kJ/mol
# Density = 2.051907 g / cm^3
# Si number density = 20.565879 Si / 1000 Ang^3
#
#
#
# Elastic Constant Matrix: (Units=GPa)
#
#
# Indices 1 2 3 4 5 6 
#
# 1 89.9539 26.1812 17.9580 0.0000 0.0000 -9.1824
# 2 26.1812 89.9539 17.9580 0.0000 0.0000 9.1824
# 3 17.9580 17.9580 94.5980 0.0000 0.0000 0.0000
# 4 0.0000 0.0000 0.0000 138.4470 0.0000 0.0000
# 5 0.0000 0.0000 0.0000 0.0000 138.4470 0.0000
# 6 -9.1824 9.1824 0.0000 0.0000 0.0000 21.4187
#
#
#
# Elastic Compliance Matrix: (Units=1/GPa)
#
#
# Indices 1 2 3 4 5 6 
#
# 1 0.013518 -0.004371 -0.001737 0.000000 0.000000 0.007669
# 2 -0.004371 0.013518 -0.001737 0.000000 0.000000 -0.007669
# 3 -0.001737 -0.001737 0.011230 0.000000 0.000000 0.000000
# 4 0.000000 0.000000 0.000000 0.007223 0.000000 0.000000
# 5 0.000000 0.000000 0.000000 0.000000 0.007223 0.000000
# 6 0.007669 -0.007669 0.000000 0.000000 0.000000 0.053264
#
#
# Mechanical properties :
#
#
# Convention : Reuss Voigt Hill
#
# Bulk Modulus (GPa) = 44.28786 44.30005 44.29395
# Shear Modulus (GPa) = 38.70223 73.82311 56.26267
#
# Velocity S-wave (km/s) = 4.34275 5.99782 5.23609
# Velocity P-wave (km/s) = 6.83574 8.33981 7.62495
#
# Compressibility (1/GPa) = 0.02257955
#
# Stress axis : x y z
#
# Youngs Moduli (GPa) = 73.97282 73.97282 89.04432
#
# Poissons Ratio (x) = 0.32332 0.15463
# Poissons Ratio (y) = 0.32332 0.15463
# Poissons Ratio (z) = 0.12846 0.12846
#
# Static dielectric constant tensor:
#      x y z
#    x 1.791770 0.000000 0.000000 
#    y 0.000000 1.791770 0.000000 
#    z 0.000000 0.000000 1.720030 
# 
# From -- ./inp_files/3047.got.cif
#   From: 2010.05.17/outbox.cif.g08.bks.cpg/sg83_2_cif.got.tgz:3047.got - 2010.06.03 18:55:12.
