data_PCOD9543153
_publ_section_title
;
Structure prediction by ZEFSAII (Michael W. Deem and Ramdas Pophale) SiO2 
 PCOD9543153
Probable space group: I -4 
;
_chemical_formula_sum "Si O2"
_cell_formula_units_Z 40
_cell_length_a 19.160500
_cell_length_b 19.160500
_cell_length_c 4.981981
_cell_angle_alpha 90.000000
_cell_angle_beta 90.000000
_cell_angle_gamma 90.000000
_cell_volume 1829.008580
_symmetry_space_group_name_H-M "I -4 "
_symmetry_group_IT_number 82
_symmetry_cell_setting 'tetragonal'
loop_
_space_group_symop_operation_xyz
x,y,z
y,-x,-z
-x,-y,z
-y,x,-z
1/2+x,1/2+y,1/2+z
1/2+y,1/2-x,1/2-z
1/2-x,1/2-y,1/2+z
1/2-y,1/2+x,1/2-z
loop_
_atom_site_type_symbol
_atom_site_label
_atom_site_fract_x
_atom_site_fract_y
_atom_site_fract_z
Si Si1 0.738790 0.700616 0.495193
Si Si2 0.890106 0.029516 0.572142
Si Si3 0.943686 0.655358 0.084116
Si Si4 0.398577 0.868176 0.415822
Si Si5 0.420962 0.314706 0.417712
O O1 0.735042 0.748413 0.759703
O O2 0.794174 0.639454 0.540800
O O3 0.662145 0.673060 0.423176
O O4 0.867526 0.041716 0.876886
O O5 0.952576 0.081582 0.488081
O O6 0.826479 0.048601 0.377108
O O7 0.923441 0.639747 0.389494
O O8 0.932828 0.736306 0.015799
O O9 0.021843 0.635015 0.006643
O O10 0.891852 0.612279 0.889613
#
# Coordination Sequence:
#
# PCOD9543153 Si02
#       5
#     8   8   8   8   8
#     4  12  23  45  69  98 136 172 221 281 346 385
#     4  11  26  44  65  99 142 182 223 272 343 414
#     4  12  27  46  70 102 138 177 239 278 348 405
#     4  12  26  47  70 104 136 183 225 291 339 415
#     4  12  24  45  70 101 134 180 231 284 333 414
#
# _framework density 21.869774
#
# number of rings (size 3 to 8) (size 9 to 14) (size 15 to 20)
#    0.000    0.200    4.000    4.800    5.600    4.000 
#    0.000    0.000    0.000    0.000    0.000    0.000 
#    0.000    0.000    0.000    0.000    0.000    0.000 
#
# Total GULP energy -112097.727965 kJ/mol
# GULP energy per Si atom -5604.886398 kJ/mol
# Density = 2.182000 g / cm^3
# Si number density = 21.869774 Si / 1000 Ang^3
#
#
#
# Elastic Constant Matrix: (Units=GPa)
#
#
# Indices 1 2 3 4 5 6 
#
# 1 55.6439 -10.2779 -7.6192 0.0000 0.0000 -7.0927
# 2 -10.2779 55.6439 -7.6192 0.0000 0.0000 7.0927
# 3 -7.6192 -7.6192 58.3692 0.0000 0.0000 0.0000
# 4 0.0000 0.0000 0.0000 34.0027 0.0000 0.0000
# 5 0.0000 0.0000 0.0000 0.0000 34.0027 0.0000
# 6 -7.0927 7.0927 0.0000 0.0000 0.0000 13.0355
#
#
#
# Elastic Compliance Matrix: (Units=1/GPa)
#
#
# Indices 1 2 3 4 5 6 
#
# 1 0.020117 0.002936 0.003009 0.000000 0.000000 0.009348
# 2 0.002936 0.020117 0.003009 0.000000 0.000000 -0.009348
# 3 0.003009 0.003009 0.017918 0.000000 0.000000 0.000000
# 4 0.000000 0.000000 0.000000 0.029409 0.000000 0.000000
# 5 0.000000 0.000000 0.000000 0.000000 0.029409 0.000000
# 6 0.009348 -0.009348 0.000000 0.000000 0.000000 0.086886
#
#
# Mechanical properties :
#
#
# Convention : Reuss Voigt Hill
#
# Bulk Modulus (GPa) = 13.14706 13.18051 13.16378
# Shear Modulus (GPa) = 23.66276 29.21973 26.44125
#
# Velocity S-wave (km/s) = 3.29292 3.65921 3.48089
# Velocity P-wave (km/s) = 4.52574 4.88804 4.71038
#
# Compressibility (1/GPa) = 0.07606265
#
# Stress axis : x y z
#
# Youngs Moduli (GPa) = 49.70816 49.70816 55.80994
#
# Poissons Ratio (x) = -0.14596 -0.16795
# Poissons Ratio (y) = -0.14596 -0.16795
# Poissons Ratio (z) = -0.14959 -0.14959
#
# Static dielectric constant tensor:
#      x y z
#    x 1.770730 0.000000 0.000000 
#    y 0.000000 1.770730 0.000000 
#    z 0.000000 0.000000 1.802160 
# 
# From -- ./inp_files/201.got.cif
#   From: 2010.05.17/outbox.cif.g08.bks.cpg/sg82_1_cif.got.tgz:201.got - 2010.06.03 18:52:26.
