data_PCOD9543016
_publ_section_title
;
Structure prediction by ZEFSAII (Michael W. Deem and Ramdas Pophale) SiO2 
 PCOD9543016
Probable space group: I -4 
;
_chemical_formula_sum "Si O2"
_cell_formula_units_Z 32
_cell_length_a 10.723952
_cell_length_b 10.723952
_cell_length_c 11.010694
_cell_angle_alpha 90.000000
_cell_angle_beta 90.000000
_cell_angle_gamma 90.000000
_cell_volume 1266.264455
_symmetry_space_group_name_H-M "I -4 "
_symmetry_group_IT_number 82
_symmetry_cell_setting 'tetragonal'
loop_
_space_group_symop_operation_xyz
x,y,z
y,-x,-z
-x,-y,z
-y,x,-z
1/2+x,1/2+y,1/2+z
1/2+y,1/2-x,1/2-z
1/2-x,1/2-y,1/2+z
1/2-y,1/2+x,1/2-z
loop_
_atom_site_type_symbol
_atom_site_label
_atom_site_fract_x
_atom_site_fract_y
_atom_site_fract_z
Si Si1 0.500000 0.500000 0.325048
Si Si2 0.500000 0.000000 0.250000
Si Si3 0.500000 0.000000 0.750000
Si Si4 0.741809 0.895659 0.717314
Si Si5 0.901471 0.250422 0.803347
Si Si6 0.962913 0.201766 0.525757
O O1 0.374553 0.458221 0.252002
O O2 0.453605 0.632495 0.379683
O O3 0.383971 0.041300 0.165571
O O4 0.367193 0.051905 0.802464
O O5 0.750762 0.747022 0.711244
O O6 0.702486 0.937719 0.581535
O O7 0.948693 0.236031 0.664431
O O8 0.095685 0.140086 0.500756
#
# Coordination Sequence:
#
# PCOD9543016 Si02
#       6
#     4   2   2   8   8   8
#     4  12  20  41  68  85 124 166 208 253 312 365
#     4  12  24  38  60  96 132 162 204 262 316 356
#     4  12  24  38  60  96 132 162 204 262 316 356
#     4  12  23  39  65  94 125 162 210 260 308 365
#     4  12  23  39  65  94 125 162 210 260 308 365
#     4  11  18  37  64  89 116 166 214 248 300 377
#
# _framework density 25.271183000000001
#
# number of rings (size 3 to 8) (size 9 to 14) (size 15 to 20)
#    0.000    0.250   10.000    0.000    0.000    1.000 
#    0.000    2.500    0.000    1.500    0.000    0.000 
#    0.000    0.000    0.000    0.000    0.000    0.000 
#
# Total GULP energy -89269.186361 kJ/mol
# GULP energy per Si atom -5579.324148 kJ/mol
# Density = 2.521366 g / cm^3
# Si number density = 25.271183 Si / 1000 Ang^3
#
#
#
# Elastic Constant Matrix: (Units=GPa)
#
#
# Indices 1 2 3 4 5 6 
#
# 1 184.2467 73.2688 2.9712 0.0000 0.0000 4.3670
# 2 73.2688 184.2467 2.9712 0.0000 0.0000 -4.3670
# 3 2.9712 2.9712 47.7628 0.0000 0.0000 0.0000
# 4 0.0000 0.0000 0.0000 21.1172 0.0000 0.0000
# 5 0.0000 0.0000 0.0000 0.0000 21.1172 0.0000
# 6 4.3670 -4.3670 0.0000 0.0000 0.0000 49.2682
#
#
#
# Elastic Compliance Matrix: (Units=1/GPa)
#
#
# Indices 1 2 3 4 5 6 
#
# 1 0.006481 -0.002593 -0.000242 0.000000 0.000000 -0.000804
# 2 -0.002593 0.006481 -0.000242 0.000000 0.000000 0.000804
# 3 -0.000242 -0.000242 0.020967 0.000000 0.000000 0.000000
# 4 0.000000 0.000000 0.000000 0.047355 0.000000 0.000000
# 5 0.000000 0.000000 0.000000 0.000000 0.047355 0.000000
# 6 -0.000804 0.000804 0.000000 0.000000 0.000000 0.020440
#
#
# Mechanical properties :
#
#
# Convention : Reuss Voigt Hill
#
# Bulk Modulus (GPa) = 36.00114 63.85319 49.92717
# Shear Modulus (GPa) = 30.39678 40.77015 35.58347
#
# Velocity S-wave (km/s) = 3.47194 4.02096 3.75649
# Velocity P-wave (km/s) = 5.50902 6.84686 6.21405
#
# Compressibility (1/GPa) = 0.02777690
#
# Stress axis : x y z
#
# Youngs Moduli (GPa) = 154.28584 154.28584 47.69427
#
# Poissons Ratio (x) = 0.40001 0.01154
# Poissons Ratio (y) = 0.40001 0.01154
# Poissons Ratio (z) = 0.03732 0.03732
#
# Static dielectric constant tensor:
#      x y z
#    x 2.060470 0.000000 0.000000 
#    y 0.000000 2.060470 0.000000 
#    z 0.000000 0.000000 2.069870 
# 
# From -- ./inp_files/1570.got.cif
#   From: 2010.05.17/outbox.cif.g08.bks.cpg/sg82_1_cif.got.tgz:1570.got - 2010.06.03 18:52:26.
