data_PCOD9543679
_publ_section_title
;
Structure prediction by ZEFSAII (Michael W. Deem and Ramdas Pophale) SiO2 
 PCOD9543679
Probable space group: P 4/M
;
_chemical_formula_sum "Si O2"
_cell_formula_units_Z 32
_cell_length_a 10.726677
_cell_length_b 10.726677
_cell_length_c 12.244552
_cell_angle_alpha 90.000000
_cell_angle_beta 90.000000
_cell_angle_gamma 90.000000
_cell_volume 1408.877738
_symmetry_space_group_name_H-M "P 4/M"
_symmetry_group_IT_number 83
_symmetry_cell_setting 'tetragonal'
loop_
_space_group_symop_operation_xyz
x,y,z
-y,x,z
-x,-y,z
y,-x,z
-x,-y,-z
y,-x,-z
x,y,-z
-y,x,-z
loop_
_atom_site_type_symbol
_atom_site_label
_atom_site_fract_x
_atom_site_fract_y
_atom_site_fract_z
Si Si1 0.364815 0.935988 0.374500
Si Si2 0.025165 0.794172 0.194803
Si Si3 0.315866 0.423177 0.748855
Si Si4 0.888429 0.362891 0.000000
Si Si5 0.257779 0.390836 0.000000
O O1 0.333025 0.910276 0.500000
O O2 0.373637 0.810333 0.303226
O O3 0.500000 0.000000 0.370775
O O4 0.264976 0.023561 0.314511
O O5 0.896091 0.867613 0.178479
O O6 0.041175 0.684674 0.107481
O O7 0.434615 0.341517 0.714249
O O8 0.312624 0.423331 0.880695
O O9 0.758359 0.282149 0.000000
O O10 0.142800 0.490504 0.000000
#
# Coordination Sequence:
#
# PCOD9543679 Si02
#       5
#     8   8   8   4   4
#     4  11  27  47  71 103 138 185 251 314 368 428
#     4  11  26  48  71 101 143 193 246 301 360 429
#     4  11  23  43  73 110 152 190 231 291 370 448
#     4  12  24  42  73 112 151 193 239 297 366 446
#     4  12  22  39  72 111 153 189 225 284 362 443
#
# _framework density 22.713111999999999
#
# number of rings (size 3 to 8) (size 9 to 14) (size 15 to 20)
#    0.000    0.750    2.500    3.750    3.500    5.250 
#    0.000    8.750    0.000    0.000    0.000    0.000 
#    0.000    0.000    0.000    0.000    0.000    0.000 
#
# Total GULP energy -178967.546622 kJ/mol
# GULP energy per Si atom -5592.735832 kJ/mol
# Density = 2.266142 g / cm^3
# Si number density = 22.713112 Si / 1000 Ang^3
#
#
#
# Elastic Constant Matrix: (Units=GPa)
#
#
# Indices 1 2 3 4 5 6 
#
# 1 88.5256 49.5557 39.0439 0.0000 0.0000 -2.4121
# 2 49.5557 88.5256 39.0439 0.0000 0.0000 2.4121
# 3 39.0439 39.0439 116.4653 0.0000 0.0000 0.0000
# 4 0.0000 0.0000 0.0000 -17.9940 0.0000 0.0000
# 5 0.0000 0.0000 0.0000 0.0000 -17.9940 0.0000
# 6 -2.4121 2.4121 0.0000 0.0000 0.0000 30.7113
#
#
#
# Elastic Compliance Matrix: (Units=1/GPa)
#
#
# Indices 1 2 3 4 5 6 
#
# 1 0.017425 -0.008488 -0.002996 0.000000 0.000000 0.002035
# 2 -0.008488 0.017425 -0.002996 0.000000 0.000000 -0.002035
# 3 -0.002996 -0.002996 0.010595 0.000000 0.000000 0.000000
# 4 0.000000 0.000000 0.000000 -0.055574 0.000000 0.000000
# 5 0.000000 0.000000 0.000000 0.000000 -0.055574 0.000000
# 6 0.002035 -0.002035 0.000000 0.000000 0.000000 0.032881
#
#
# Mechanical properties :
#
#
# Convention : Reuss Voigt Hill
#
# Bulk Modulus (GPa) = 60.66399 60.97817 60.82108
# Shear Modulus (GPa) = 3064.87227 10.00285 1537.43756
#
# Velocity S-wave (km/s) = 36.77382 2.10085 26.04542
# Velocity P-wave (km/s) = 42.77677 5.72627 30.51755
#
# Compressibility (1/GPa) = 0.01648424
#
# Stress axis : x y z
#
# Youngs Moduli (GPa) = 57.39035 57.39035 94.38517
#
# Poissons Ratio (x) = 0.48714 0.28276
# Poissons Ratio (y) = 0.48714 0.28276
# Poissons Ratio (z) = 0.17193 0.17193
#
# Static dielectric constant tensor:
#      x y z
#    x 1.855130 0.000000 0.000000 
#    y 0.000000 1.855130 0.000000 
#    z 0.000000 0.000000 1.791960 
# 
# From -- ./inp_files/1562.got.cif
#   From: 2010.05.17/outbox.cif.g08.bks.cpg/sg83_1_cif.got.tgz:1562.got - 2010.06.03 18:55:12.
