data_PCOD9543388
_publ_section_title
;
Structure prediction by ZEFSAII (Michael W. Deem and Ramdas Pophale) SiO2 
 PCOD9543388
Probable space group: P 4/M
;
_chemical_formula_sum "Si O2"
_cell_formula_units_Z 40
_cell_length_a 17.171221
_cell_length_b 17.171221
_cell_length_c 8.093361
_cell_angle_alpha 90.000000
_cell_angle_beta 90.000000
_cell_angle_gamma 90.000000
_cell_volume 2386.334213
_symmetry_space_group_name_H-M "P 4/M"
_symmetry_group_IT_number 83
_symmetry_cell_setting 'tetragonal'
loop_
_space_group_symop_operation_xyz
x,y,z
-y,x,z
-x,-y,z
y,-x,z
-x,-y,-z
y,-x,-z
x,y,-z
-y,x,-z
loop_
_atom_site_type_symbol
_atom_site_label
_atom_site_fract_x
_atom_site_fract_y
_atom_site_fract_z
Si Si1 0.159893 0.702800 0.187576
Si Si2 0.292239 0.837787 0.818203
Si Si3 0.777639 0.913347 0.500000
Si Si4 0.405419 0.714987 0.691530
Si Si5 0.090831 0.220754 0.500000
Si Si6 0.709550 0.419892 0.196363
O O1 0.225093 0.771223 0.182456
O O2 0.103170 0.726828 0.335313
O O3 0.209432 0.625489 0.228755
O O4 0.127724 0.696758 0.000000
O O5 0.370947 0.788859 0.789277
O O6 0.271522 0.891898 0.663941
O O7 0.292266 0.875018 0.000000
O O8 0.848661 0.851433 0.500000
O O9 0.805785 0.001828 0.500000
O O10 0.386225 0.727540 0.500000
O O11 0.359249 0.638163 0.749290
O O12 0.496985 0.705956 0.717571
O O13 0.703776 0.431310 0.000000
#
# Coordination Sequence:
#
# PCOD9543388 Si02
#       6
#     8   8   4   8   4   8
#     4   8  17  32  52  74  97 135 178 212 244 292
#     4   9  17  33  53  73 101 136 178 214 246 295
#     4  10  20  33  57  77 112 128 164 200 252 304
#     4  11  20  31  50  76 103 135 178 221 265 306
#     4  10  20  35  53  85 102 138 160 202 250 310
#     4  10  20  33  49  72 103 140 178 217 266 308
#
# _framework density 16.762111999999998
#
# number of rings (size 3 to 8) (size 9 to 14) (size 15 to 20)
#    0.000    2.400    1.000    3.600    5.600    1.400 
#    0.000    2.000    0.000    2.400    0.000    9.800 
#    0.000    0.000    0.000    0.000    0.000    0.000 
#
# Total GULP energy -222933.952798 kJ/mol
# GULP energy per Si atom -5573.348820 kJ/mol
# Density = 1.672396 g / cm^3
# Si number density = 16.762112 Si / 1000 Ang^3
#
#
#
# Elastic Constant Matrix: (Units=GPa)
#
#
# Indices 1 2 3 4 5 6 
#
# 1 33.8445 44.2055 28.8920 0.0000 0.0000 -0.1050
# 2 44.2055 33.8445 28.8920 0.0000 0.0000 0.1050
# 3 28.8920 28.8920 99.7012 0.0000 0.0000 0.0000
# 4 0.0000 0.0000 0.0000 5.3933 0.0000 0.0000
# 5 0.0000 0.0000 0.0000 0.0000 5.3933 0.0000
# 6 -0.1050 0.1050 0.0000 0.0000 0.0000 11.0052
#
#
#
# Elastic Compliance Matrix: (Units=1/GPa)
#
#
# Indices 1 2 3 4 5 6 
#
# 1 -0.040093 0.056405 -0.004727 0.000000 0.000000 -0.000921
# 2 0.056405 -0.040093 -0.004727 0.000000 0.000000 0.000921
# 3 -0.004727 -0.004727 0.012770 0.000000 0.000000 0.000000
# 4 0.000000 0.000000 0.000000 0.185417 0.000000 0.000000
# 5 0.000000 0.000000 0.000000 0.000000 0.185417 0.000000
# 6 -0.000921 0.000921 0.000000 0.000000 0.000000 0.090848
#
#
# Mechanical properties :
#
#
# Convention : Reuss Voigt Hill
#
# Bulk Modulus (GPa) = 37.75645 41.26323 39.50984
# Shear Modulus (GPa) = 16.17117 8.71840 12.44479
#
# Velocity S-wave (km/s) = 3.10941 2.28310 2.72772
# Velocity P-wave (km/s) = 5.95525 5.62321 5.79161
#
# Compressibility (1/GPa) = 0.02648554
#
# Stress axis : x y z
#
# Youngs Moduli (GPa) = -24.94213 -24.94213 78.31107
#
# Poissons Ratio (x) = 1.40685 0.37017
# Poissons Ratio (y) = 1.40685 0.37017
# Poissons Ratio (z) = -0.11790 -0.11790
#
# Static dielectric constant tensor:
#      x y z
#    x 1.547380 0.000000 0.000000 
#    y 0.000000 1.547380 0.000000 
#    z 0.000000 0.000000 1.593630 
# 
# From -- ./inp_files/732.got.cif
#   From: 2010.05.17/outbox.cif.g08.bks.cpg/sg83_1_cif.got.tgz:732.got - 2010.06.03 18:55:12.
