data_PCOD9543072
_publ_section_title
;
Structure prediction by ZEFSAII (Michael W. Deem and Ramdas Pophale) SiO2 
 PCOD9543072
Probable space group: I -4 
;
_chemical_formula_sum "Si O2"
_cell_formula_units_Z 50
_cell_length_a 8.883080
_cell_length_b 8.883080
_cell_length_c 29.507303
_cell_angle_alpha 90.000000
_cell_angle_beta 90.000000
_cell_angle_gamma 90.000000
_cell_volume 2328.395027
_symmetry_space_group_name_H-M "I -4 "
_symmetry_group_IT_number 82
_symmetry_cell_setting 'tetragonal'
loop_
_space_group_symop_operation_xyz
x,y,z
y,-x,-z
-x,-y,z
-y,x,-z
1/2+x,1/2+y,1/2+z
1/2+y,1/2-x,1/2-z
1/2-x,1/2-y,1/2+z
1/2-y,1/2+x,1/2-z
loop_
_atom_site_type_symbol
_atom_site_label
_atom_site_fract_x
_atom_site_fract_y
_atom_site_fract_z
Si Si1 0.758066 0.427606 0.755092
Si Si2 0.739030 0.421294 0.005915
Si Si3 0.256743 0.321927 0.156709
Si Si4 0.000000 0.500000 0.250000
Si Si5 0.250575 0.079489 0.812793
Si Si6 0.158017 0.559960 0.909982
Si Si7 0.232463 0.856956 0.606706
O O1 0.820275 0.596705 0.754043
O O2 0.692023 0.379787 0.803557
O O3 0.636602 0.388527 0.716704
O O4 0.794899 0.376789 0.055684
O O5 0.592792 0.321254 0.993106
O O6 0.848825 0.408370 0.963448
O O7 0.295525 0.202848 0.117998
O O8 0.265878 0.482595 0.131909
O O9 0.095434 0.277575 0.176881
O O10 0.890872 0.398346 0.219061
O O11 0.255313 0.169432 0.859754
O O12 0.285794 0.433015 0.900638
O O13 0.000000 0.500000 0.893041
#
# Coordination Sequence:
#
# PCOD9543072 Si02
#       7
#     8   8   8   2   8   8   8
#     4  11  27  47  68  96 136 181 229 277 343 413
#     4   9  18  39  66  99 128 173 226 271 326 398
#     4  12  24  42  68  97 133 177 225 280 333 406
#     4  12  20  44  56  96 132 164 216 280 332 404
#     4  12  23  43  67  98 134 173 228 279 342 397
#     4  11  25  42  65 100 141 176 225 279 341 401
#     4  11  22  42  72  97 135 178 227 278 334 403
#
# _framework density 21.474018999999998
#
# number of rings (size 3 to 8) (size 9 to 14) (size 15 to 20)
#    0.000    0.960    4.800    1.440    4.480    1.920 
#    0.000    0.000    0.000    0.000    0.000    0.000 
#    0.000    0.000    0.000    0.000    0.000    0.000 
#
# Total GULP energy -139787.776513 kJ/mol
# GULP energy per Si atom -5591.511061 kJ/mol
# Density = 2.142514 g / cm^3
# Si number density = 21.474019 Si / 1000 Ang^3
#
#
#
# Elastic Constant Matrix: (Units=GPa)
#
#
# Indices 1 2 3 4 5 6 
#
# 1 61.4272 18.9491 35.2548 0.0000 0.0000 -1.5813
# 2 18.9491 61.4272 35.2548 0.0000 0.0000 1.5813
# 3 35.2548 35.2548 154.2747 0.0000 0.0000 0.0000
# 4 0.0000 0.0000 0.0000 30.5155 0.0000 0.0000
# 5 0.0000 0.0000 0.0000 0.0000 30.5155 0.0000
# 6 -1.5813 1.5813 0.0000 0.0000 0.0000 24.2320
#
#
#
# Elastic Compliance Matrix: (Units=1/GPa)
#
#
# Indices 1 2 3 4 5 6 
#
# 1 0.019609 -0.004048 -0.003556 0.000000 0.000000 0.001544
# 2 -0.004048 0.019609 -0.003556 0.000000 0.000000 -0.001544
# 3 -0.003556 -0.003556 0.008107 0.000000 0.000000 0.000000
# 4 0.000000 0.000000 0.000000 0.032770 0.000000 0.000000
# 5 0.000000 0.000000 0.000000 0.000000 0.032770 0.000000
# 6 0.001544 -0.001544 0.000000 0.000000 0.000000 0.041469
#
#
# Mechanical properties :
#
#
# Convention : Reuss Voigt Hill
#
# Bulk Modulus (GPa) = 39.99177 50.67183 45.33180
# Shear Modulus (GPa) = 27.02868 29.56398 28.29633
#
# Velocity S-wave (km/s) = 3.55162 3.71446 3.63395
# Velocity P-wave (km/s) = 5.95671 6.48416 6.22602
#
# Compressibility (1/GPa) = 0.02500514
#
# Stress axis : x y z
#
# Youngs Moduli (GPa) = 50.99773 50.99773 123.34765
#
# Poissons Ratio (x) = 0.20643 0.43862
# Poissons Ratio (y) = 0.20643 0.43862
# Poissons Ratio (z) = 0.18135 0.18135
#
# Static dielectric constant tensor:
#      x y z
#    x 1.784830 0.000000 0.000000 
#    y 0.000000 1.784830 0.000000 
#    z 0.000000 0.000000 1.778480 
# 
# From -- ./inp_files/4086.got.cif
#   From: 2010.05.17/outbox.cif.g08.bks.cpg/sg82_3_cif.got.tgz:4086.got - 2010.06.03 18:52:26.
