data_PCOD9543996
_publ_section_title
;
Structure prediction by ZEFSAII (Michael W. Deem and Ramdas Pophale) SiO2 
 PCOD9543996
Probable space group: P 42/M
;
_chemical_formula_sum "Si O2"
_cell_formula_units_Z 58
_cell_length_a 17.688105
_cell_length_b 17.688105
_cell_length_c 7.320656
_cell_angle_alpha 90.000000
_cell_angle_beta 90.000000
_cell_angle_gamma 90.000000
_cell_volume 2290.406750
_symmetry_space_group_name_H-M "P 42/M"
_symmetry_group_IT_number 84
_symmetry_cell_setting 'tetragonal'
loop_
_space_group_symop_operation_xyz
x,y,z
-y,x,1/2+z
-x,-y,z
y,-x,1/2+z
-x,-y,-z
y,-x,1/2-z
x,y,-z
-y,x,1/2-z
loop_
_atom_site_type_symbol
_atom_site_label
_atom_site_fract_x
_atom_site_fract_y
_atom_site_fract_z
Si Si1 0.063992 0.330172 0.282063
Si Si2 0.390218 0.095729 0.778590
Si Si3 0.472207 0.332930 0.775945
Si Si4 0.173333 0.457240 0.278247
Si Si5 0.680460 0.744002 0.779226
Si Si6 0.165888 0.200928 0.217498
Si Si7 0.109824 0.049481 0.205610
Si Si8 0.500000 0.500000 0.750000
O O1 0.061657 0.340959 0.500000
O O2 0.132433 0.382277 0.211260
O O3 0.088037 0.244781 0.247879
O O4 0.982717 0.356361 0.211553
O O5 0.475720 0.115524 0.726456
O O6 0.345750 0.171415 0.729609
O O7 0.388791 0.092833 0.000000
O O8 0.521428 0.258806 0.722824
O O9 0.385547 0.313029 0.720825
O O10 0.499609 0.411352 0.691558
O O11 0.476256 0.340653 0.000000
O O12 0.176992 0.456377 0.500000
O O13 0.766403 0.745527 0.712550
O O14 0.680088 0.737178 0.000000
O O15 0.163164 0.114759 0.286410
O O16 0.176681 0.193026 0.000000
O O17 0.028129 0.091368 0.195676
O O18 0.134995 0.030698 0.000000
#
# Coordination Sequence:
#
# PCOD9543996 Si02
#       8
#     8   8   8   8   8   8   8   2
#     4  10  19  29  52  83 106 129 168 220 266 307
#     4   8  14  27  51  78  98 126 169 215 258 306
#     4   9  19  34  50  72 101 134 173 217 262 310
#     4   8  15  30  50  75 106 130 161 215 267 306
#     4   8  16  33  52  68  97 138 174 211 257 313
#     4  10  22  35  51  75 107 143 179 213 258 317
#     4  10  21  37  57  80 107 143 181 227 268 315
#     4  12  22  28  52  78  96 136 178 220 260 322
#
# _framework density 25.323014000000001
#
# number of rings (size 3 to 8) (size 9 to 14) (size 15 to 20)
#    0.000    2.897    0.000    3.103    3.862    2.759 
#    0.000    0.000    0.000    1.655    0.000    5.793 
#    0.000    0.000    0.000    0.000    0.000    0.000 
#
# Total GULP energy -323686.722224 kJ/mol
# GULP energy per Si atom -5580.805556 kJ/mol
# Density = 2.526538 g / cm^3
# Si number density = 25.323014 Si / 1000 Ang^3
#
#
#
# Elastic Constant Matrix: (Units=GPa)
#
#
# Indices 1 2 3 4 5 6 
#
# 1 103.8468 22.0689 -0.8983 0.0000 0.0000 -15.2929
# 2 22.0689 103.8468 -0.8983 0.0000 0.0000 15.2929
# 3 -0.8983 -0.8983 108.0560 0.0000 0.0000 0.0000
# 4 0.0000 0.0000 0.0000 -18.7842 0.0000 0.0000
# 5 0.0000 0.0000 0.0000 0.0000 -18.7842 0.0000
# 6 -15.2929 15.2929 0.0000 0.0000 0.0000 33.9119
#
#
#
# Elastic Compliance Matrix: (Units=1/GPa)
#
#
# Indices 1 2 3 4 5 6 
#
# 1 0.011326 -0.003383 0.000066 0.000000 0.000000 0.006633
# 2 -0.003383 0.011326 0.000066 0.000000 0.000000 -0.006633
# 3 0.000066 0.000066 0.009256 0.000000 0.000000 0.000000
# 4 0.000000 0.000000 0.000000 -0.053236 0.000000 0.000000
# 5 0.000000 0.000000 0.000000 0.000000 -0.053236 0.000000
# 6 0.006633 -0.006633 0.000000 0.000000 0.000000 0.035471
#
#
# Mechanical properties :
#
#
# Convention : Reuss Voigt Hill
#
# Bulk Modulus (GPa) = 39.36199 39.58823 39.47511
# Shear Modulus (GPa) = -207.26392 18.96721 -94.14836
#
# Velocity S-wave (km/s) = -9.05681 2.73977 -6.10407
# Velocity P-wave (km/s) = 9.68452 5.06712 5.83585
#
# Compressibility (1/GPa) = 0.02540522
#
# Stress axis : x y z
#
# Youngs Moduli (GPa) = 88.29289 88.29289 108.04318
#
# Poissons Ratio (x) = 0.29871 -0.00713
# Poissons Ratio (y) = 0.29871 -0.00713
# Poissons Ratio (z) = -0.00583 -0.00583
#
# Static dielectric constant tensor:
#      x y z
#    x 1.986140 0.000000 0.000000 
#    y 0.000000 1.986140 0.000000 
#    z 0.000000 0.000000 1.998400 
# 
# From -- ./inp_files/1184.got.cif
#   From: 2010.05.17/outbox.cif.g08.bks.cpg/sg84_1_cif.got.tgz:1184.got - 2010.06.03 18:57:40.
