data_PCOD9543689
_publ_section_title
;
Structure prediction by ZEFSAII (Michael W. Deem and Ramdas Pophale) SiO2 
 PCOD9543689
Probable space group: P 4/M
;
_chemical_formula_sum "Si O2"
_cell_formula_units_Z 48
_cell_length_a 8.078653
_cell_length_b 8.078653
_cell_length_c 32.509473
_cell_angle_alpha 90.000000
_cell_angle_beta 90.000000
_cell_angle_gamma 90.000000
_cell_volume 2121.718866
_symmetry_space_group_name_H-M "P 4/M"
_symmetry_group_IT_number 83
_symmetry_cell_setting 'tetragonal'
loop_
_space_group_symop_operation_xyz
x,y,z
-y,x,z
-x,-y,z
y,-x,z
-x,-y,-z
y,-x,-z
x,y,-z
-y,x,-z
loop_
_atom_site_type_symbol
_atom_site_label
_atom_site_fract_x
_atom_site_fract_y
_atom_site_fract_z
Si Si1 0.903262 0.263829 0.741724
Si Si2 0.734649 0.915020 0.580486
Si Si3 0.736698 0.902110 0.831020
Si Si4 0.235092 0.581487 0.000000
Si Si5 0.413483 0.235777 0.339263
Si Si6 0.585124 0.765497 0.500000
Si Si7 0.734976 0.907854 0.920075
O O1 0.871225 0.344093 0.786707
O O2 0.853241 0.375439 0.703629
O O3 0.093516 0.203355 0.739323
O O4 0.638079 0.874850 0.622161
O O5 0.629377 0.866767 0.540710
O O6 0.898346 0.799816 0.579554
O O7 0.654204 0.873171 0.875252
O O8 0.907072 0.797033 0.831024
O O9 0.300558 0.395935 0.000000
O O10 0.136850 0.624733 0.958772
O O11 0.600433 0.298967 0.341407
O O12 0.398375 0.700259 0.500000
O O13 0.903195 0.798392 0.922099
#
# Coordination Sequence:
#
# PCOD9543689 Si02
#       7
#     8   8   8   4   8   4   8
#     4   9  17  32  56  83 108 136 172 214 262 317
#     4  11  24  41  62  88 114 143 185 232 274 319
#     4   7  12  26  50  79 106 128 158 208 263 311
#     4  11  24  37  46  64 100 141 174 207 254 310
#     4  11  24  39  54  77 111 149 187 225 267 316
#     4  11  24  41  62  90 122 153 184 219 264 320
#     4   9  17  32  56  81 100 124 165 215 263 311
#
# _framework density 22.623169000000001
#
# number of rings (size 3 to 8) (size 9 to 14) (size 15 to 20)
#    0.000    2.333    0.000    5.000    0.000   10.667 
#    0.000    1.667    0.000    8.000    0.000    0.000 
#    0.000    0.000    0.000    0.000    0.000    0.000 
#
# Total GULP energy -268704.704187 kJ/mol
# GULP energy per Si atom -5598.014671 kJ/mol
# Density = 2.257168 g / cm^3
# Si number density = 22.623169 Si / 1000 Ang^3
#
#
#
# Elastic Constant Matrix: (Units=GPa)
#
#
# Indices 1 2 3 4 5 6 
#
# 1 75.3053 52.2540 59.1649 0.0000 0.0000 -2.9536
# 2 52.2540 75.3053 59.1649 0.0000 0.0000 2.9536
# 3 59.1649 59.1649 245.0837 0.0000 0.0000 0.0000
# 4 0.0000 0.0000 0.0000-1355.9589 0.0000 0.0000
# 5 0.0000 0.0000 0.0000 0.0000-1355.9589 0.0000
# 6 -2.9536 2.9536 0.0000 0.0000 0.0000 39.1909
#
#
#
# Elastic Compliance Matrix: (Units=1/GPa)
#
#
# Indices 1 2 3 4 5 6 
#
# 1 0.027169 -0.017067 -0.002439 0.000000 0.000000 0.003334
# 2 -0.017067 0.027169 -0.002439 0.000000 0.000000 -0.003334
# 3 -0.002439 -0.002439 0.005258 0.000000 0.000000 0.000000
# 4 0.000000 0.000000 0.000000 -0.000737 0.000000 0.000000
# 5 0.000000 0.000000 0.000000 0.000000 -0.000737 0.000000
# 6 0.003334 -0.003334 0.000000 0.000000 0.000000 0.026019
#
#
# Mechanical properties :
#
#
# Convention : Reuss Voigt Hill
#
# Bulk Modulus (GPa) = 63.66789 81.87353 72.77071
# Shear Modulus (GPa) = 37.51984 -519.53802 -241.00909
#
# Velocity S-wave (km/s) = 4.07685 -15.17060 -10.33263
# Velocity P-wave (km/s) = 7.09682 16.44975 10.49356
#
# Compressibility (1/GPa) = 0.01570650
#
# Stress axis : x y z
#
# Youngs Moduli (GPa) = 36.80702 36.80702 190.19972
#
# Poissons Ratio (x) = 0.62819 0.46382
# Poissons Ratio (y) = 0.62819 0.46382
# Poissons Ratio (z) = 0.08976 0.08976
#
# Static dielectric constant tensor:
#      x y z
#    x 1.811060 0.000000 0.000000 
#    y 0.000000 1.811060 0.000000 
#    z 0.000000 0.000000 1.823230 
# 
# From -- ./inp_files/3492.got.cif
#   From: 2010.05.17/outbox.cif.g08.bks.cpg/sg83_2_cif.got.tgz:3492.got - 2010.06.03 18:55:12.
