data_PCOD9543295
_publ_section_title
;
Structure prediction by ZEFSAII (Michael W. Deem and Ramdas Pophale) SiO2 
 PCOD9543295
Probable space group: P 4/M
;
_chemical_formula_sum "Si O2"
_cell_formula_units_Z 36
_cell_length_a 14.420743
_cell_length_b 14.420743
_cell_length_c 11.013523
_cell_angle_alpha 90.000000
_cell_angle_beta 90.000000
_cell_angle_gamma 90.000000
_cell_volume 2290.348329
_symmetry_space_group_name_H-M "P 4/M"
_symmetry_group_IT_number 83
_symmetry_cell_setting 'tetragonal'
loop_
_space_group_symop_operation_xyz
x,y,z
-y,x,z
-x,-y,z
y,-x,z
-x,-y,-z
y,-x,-z
x,y,-z
-y,x,-z
loop_
_atom_site_type_symbol
_atom_site_label
_atom_site_fract_x
_atom_site_fract_y
_atom_site_fract_z
Si Si1 0.634759 0.417459 0.500000
Si Si2 0.388748 0.269139 0.245478
Si Si3 0.115005 0.744031 0.147672
Si Si4 0.591527 0.245841 0.142621
Si Si5 0.257442 0.901293 0.853500
O O1 0.622796 0.529741 0.500000
O O2 0.690700 0.385541 0.381225
O O3 0.333743 0.174672 0.216487
O O4 0.495037 0.256136 0.209813
O O5 0.336797 0.345842 0.163189
O O6 0.165909 0.841517 0.175280
O O7 0.007757 0.743686 0.184912
O O8 0.121625 0.729524 0.000000
O O9 0.654381 0.159573 0.187790
O O10 0.573797 0.233221 0.000000
O O11 0.262639 0.902852 0.000000
#
# Coordination Sequence:
#
# PCOD9543295 Si02
#       5
#     4   8   8   8   8
#     4  11  22  38  52  69  95 134 180 209 253 286
#     4  11  20  33  50  70 100 132 170 209 243 300
#     4   9  17  31  51  77 103 133 166 203 252 299
#     4  10  19  31  48  75 104 133 163 204 251 297
#     4   8  16  29  47  74 107 133 162 199 246 305
#
# _framework density 15.718133
#
# number of rings (size 3 to 8) (size 9 to 14) (size 15 to 20)
#    0.000    2.333    2.222    3.333    0.000    1.778 
#    0.000    6.667    0.000    8.000    0.000    0.000 
#    0.000    7.111    0.000    0.000    0.000    0.000 
#
# Total GULP energy -200548.279727 kJ/mol
# GULP energy per Si atom -5570.785548 kJ/mol
# Density = 1.568236 g / cm^3
# Si number density = 15.718133 Si / 1000 Ang^3
#
#
#
# Elastic Constant Matrix: (Units=GPa)
#
#
# Indices 1 2 3 4 5 6 
#
# 1 118.6695 48.6033 6.2535 0.0000 0.0000 -2.5531
# 2 48.6033 118.6695 6.2535 0.0000 0.0000 2.5531
# 3 6.2535 6.2535 39.5218 0.0000 0.0000 0.0000
# 4 0.0000 0.0000 0.0000 7.8001 0.0000 0.0000
# 5 0.0000 0.0000 0.0000 0.0000 7.8001 0.0000
# 6 -2.5531 2.5531 0.0000 0.0000 0.0000 6.2355
#
#
#
# Elastic Compliance Matrix: (Units=1/GPa)
#
#
# Indices 1 2 3 4 5 6 
#
# 1 0.010381 -0.004331 -0.000957 0.000000 0.000000 0.006023
# 2 -0.004331 0.010381 -0.000957 0.000000 0.000000 -0.006023
# 3 -0.000957 -0.000957 0.025605 0.000000 0.000000 0.000000
# 4 0.000000 0.000000 0.000000 0.128204 0.000000 0.000000
# 5 0.000000 0.000000 0.000000 0.000000 0.128204 0.000000
# 6 0.006023 -0.006023 0.000000 0.000000 0.000000 0.165303
#
#
# Mechanical properties :
#
#
# Convention : Reuss Voigt Hill
#
# Bulk Modulus (GPa) = 29.51940 44.34238 36.93089
# Shear Modulus (GPa) = 10.16549 18.75050 14.45800
#
# Velocity S-wave (km/s) = 2.54586 3.45762 3.03616
# Velocity P-wave (km/s) = 5.24053 6.64924 5.98646
#
# Compressibility (1/GPa) = 0.03387602
#
# Stress axis : x y z
#
# Youngs Moduli (GPa) = 96.33442 96.33442 39.05427
#
# Poissons Ratio (x) = 0.41719 0.03739
# Poissons Ratio (y) = 0.41719 0.03739
# Poissons Ratio (z) = 0.09222 0.09222
#
# Static dielectric constant tensor:
#      x y z
#    x 1.524520 0.000000 0.000000 
#    y 0.000000 1.524520 0.000000 
#    z 0.000000 0.000000 1.503000 
# 
# From -- ./inp_files/536.got.cif
#   From: 2010.05.17/outbox.cif.g08.bks.cpg/sg83_1_cif.got.tgz:536.got - 2010.06.03 18:55:12.
