data_PCOD9543377
_publ_section_title
;
Structure prediction by ZEFSAII (Michael W. Deem and Ramdas Pophale) SiO2 
 PCOD9543377
Probable space group: P 4/M
;
_chemical_formula_sum "Si O2"
_cell_formula_units_Z 64
_cell_length_a 18.830145
_cell_length_b 18.830145
_cell_length_c 10.484924
_cell_angle_alpha 90.000000
_cell_angle_beta 90.000000
_cell_angle_gamma 90.000000
_cell_volume 3717.685225
_symmetry_space_group_name_H-M "P 4/M"
_symmetry_group_IT_number 83
_symmetry_cell_setting 'tetragonal'
loop_
_space_group_symop_operation_xyz
x,y,z
-y,x,z
-x,-y,z
y,-x,z
-x,-y,-z
y,-x,-z
x,y,-z
-y,x,-z
loop_
_atom_site_type_symbol
_atom_site_label
_atom_site_fract_x
_atom_site_fract_y
_atom_site_fract_z
Si Si1 0.196993 0.576255 0.852718
Si Si2 0.802688 0.067048 0.641379
Si Si3 0.167553 0.774833 0.355679
Si Si4 0.913889 0.366803 0.647461
Si Si5 0.282793 0.275929 0.147557
Si Si6 0.119642 0.997665 0.861992
Si Si7 0.634377 0.079994 0.353266
Si Si8 0.586046 0.194067 0.148314
O O1 0.136199 0.595526 0.750544
O O2 0.259821 0.633669 0.836323
O O3 0.219113 0.494837 0.836173
O O4 0.171298 0.584337 0.000000
O O5 0.814443 0.037424 0.500000
O O6 0.845546 0.141256 0.653182
O O7 0.826966 0.013048 0.748131
O O8 0.719937 0.086395 0.653535
O O9 0.196804 0.763938 0.500000
O O10 0.104315 0.717602 0.343266
O O11 0.223835 0.755505 0.246638
O O12 0.897709 0.387203 0.500000
O O13 0.996792 0.381309 0.669541
O O14 0.255216 0.355409 0.169522
O O15 0.264837 0.257626 0.000000
O O16 0.065695 0.930962 0.856471
O O17 0.156080 0.997359 0.000000
O O18 0.613349 0.097130 0.500000
O O19 0.600887 0.131163 0.248283
O O20 0.594242 0.170229 0.000000
#
# Coordination Sequence:
#
# PCOD9543377 Si02
#       8
#     8   8   8   8   8   8   8   8
#     4   9  19  35  54  77 104 135 171 209 250 297
#     4  10  20  31  49  73  95 123 161 210 262 306
#     4   9  17  31  50  70  95 127 163 208 252 293
#     4   9  19  34  51  72 102 136 170 205 248 301
#     4   9  17  32  53  75 100 130 166 205 246 295
#     4   9  20  37  50  63  90 127 166 210 259 312
#     4  10  21  35  50  73 105 136 167 209 256 303
#     4  10  20  34  54  78 104 135 170 210 252 299
#
# _framework density 17.215012999999999
#
# number of rings (size 3 to 8) (size 9 to 14) (size 15 to 20)
#    0.000    2.625    1.250    0.375    1.750    3.000 
#    0.000    3.125    0.000    0.375    0.000    2.625 
#    0.000    0.000    0.000    7.375    0.000    7.750 
#
# Total GULP energy -356665.844114 kJ/mol
# GULP energy per Si atom -5572.903814 kJ/mol
# Density = 1.717583 g / cm^3
# Si number density = 17.215013 Si / 1000 Ang^3
#
#
#
# Elastic Constant Matrix: (Units=GPa)
#
#
# Indices 1 2 3 4 5 6 
#
# 1 62.8507 38.1988 59.0912 0.0000 0.0000 -3.5084
# 2 38.1988 62.8507 59.0912 0.0000 0.0000 3.5084
# 3 59.0912 59.0912 112.8658 0.0000 0.0000 0.0000
# 4 0.0000 0.0000 0.0000 20.8539 0.0000 0.0000
# 5 0.0000 0.0000 0.0000 0.0000 20.8539 0.0000
# 6 -3.5084 3.5084 0.0000 0.0000 0.0000 11.9182
#
#
#
# Elastic Compliance Matrix: (Units=1/GPa)
#
#
# Indices 1 2 3 4 5 6 
#
# 1 0.034901 -0.009374 -0.013365 0.000000 0.000000 0.013033
# 2 -0.009374 0.034901 -0.013365 0.000000 0.000000 -0.013033
# 3 -0.013365 -0.013365 0.022854 0.000000 0.000000 0.000000
# 4 0.000000 0.000000 0.000000 0.047953 0.000000 0.000000
# 5 0.000000 0.000000 0.000000 0.000000 0.047953 0.000000
# 6 0.013033 -0.013033 0.000000 0.000000 0.000000 0.091579
#
#
# Mechanical properties :
#
#
# Convention : Reuss Voigt Hill
#
# Bulk Modulus (GPa) = 48.90148 61.25885 55.08016
# Shear Modulus (GPa) = 13.92130 16.20426 15.06278
#
# Velocity S-wave (km/s) = 2.84680 3.07137 2.96121
# Velocity P-wave (km/s) = 6.26687 6.94547 6.61488
#
# Compressibility (1/GPa) = 0.02044928
#
# Stress axis : x y z
#
# Youngs Moduli (GPa) = 28.65279 28.65279 43.75561
#
# Poissons Ratio (x) = 0.26859 0.58478
# Poissons Ratio (y) = 0.26859 0.58478
# Poissons Ratio (z) = 0.38293 0.38293
#
# Static dielectric constant tensor:
#      x y z
#    x 1.584260 0.000000 0.000000 
#    y 0.000000 1.584260 0.000000 
#    z 0.000000 0.000000 1.600390 
# 
# From -- ./inp_files/1308.got.cif
#   From: 2010.05.17/outbox.cif.g08.bks.cpg/sg83_1_cif.got.tgz:1308.got - 2010.06.03 18:55:12.
