data_PCOD9543125
_publ_section_title
;
Structure prediction by ZEFSAII (Michael W. Deem and Ramdas Pophale) SiO2 
 PCOD9543125
Probable space group: I -4 
;
_chemical_formula_sum "Si O2"
_cell_formula_units_Z 34
_cell_length_a 8.906728
_cell_length_b 8.906728
_cell_length_c 18.788216
_cell_angle_alpha 90.000000
_cell_angle_beta 90.000000
_cell_angle_gamma 90.000000
_cell_volume 1490.465487
_symmetry_space_group_name_H-M "I -4 "
_symmetry_group_IT_number 82
_symmetry_cell_setting 'tetragonal'
loop_
_space_group_symop_operation_xyz
x,y,z
y,-x,-z
-x,-y,z
-y,x,-z
1/2+x,1/2+y,1/2+z
1/2+y,1/2-x,1/2-z
1/2-x,1/2-y,1/2+z
1/2-y,1/2+x,1/2-z
loop_
_atom_site_type_symbol
_atom_site_label
_atom_site_fract_x
_atom_site_fract_y
_atom_site_fract_z
Si Si1 0.677995 0.324036 0.513247
Si Si2 0.500000 0.000000 0.250000
Si Si3 0.685752 0.837443 0.342157
Si Si4 0.355548 0.612379 0.902993
Si Si5 0.335401 0.151715 0.729918
O O1 0.500533 0.293153 0.503669
O O2 0.719621 0.308547 0.595426
O O3 0.785227 0.211387 0.467521
O O4 0.470424 0.139036 0.301777
O O5 0.791290 0.791974 0.277594
O O6 0.731683 0.994755 0.376443
O O7 0.500000 0.500000 0.916050
O O8 0.378739 0.730656 0.838026
O O9 0.510660 0.172617 0.715747
#
# Coordination Sequence:
#
# PCOD9543125 Si02
#       5
#     8   2   8   8   8
#     4  11  28  52  77 110 156 211 261 328 403 475
#     4  12  24  44  72 112 148 196 258 312 400 452
#     4  12  25  44  73 109 151 200 251 322 384 469
#     4  12  26  47  76 114 155 207 260 325 390 470
#     4  11  24  45  73 108 150 198 250 314 385 459
#
# _framework density 22.811665000000001
#
# number of rings (size 3 to 8) (size 9 to 14) (size 15 to 20)
#    0.000    0.471    4.706    2.824    3.294    0.000 
#    4.235    0.000    0.000    0.000    0.000    0.000 
#    0.000    0.000    0.000    0.000    0.000    0.000 
#
# Total GULP energy -94843.677267 kJ/mol
# GULP energy per Si atom -5579.039839 kJ/mol
# Density = 2.275974 g / cm^3
# Si number density = 22.811665 Si / 1000 Ang^3
#
#
#
# Elastic Constant Matrix: (Units=GPa)
#
#
# Indices 1 2 3 4 5 6 
#
# 1 98.0459 23.0008 63.3846 0.0000 0.0000 1.7322
# 2 23.0008 98.0459 63.3846 0.0000 0.0000 -1.7322
# 3 63.3846 63.3846 133.6520 0.0000 0.0000 0.0000
# 4 0.0000 0.0000 0.0000 27.8493 0.0000 0.0000
# 5 0.0000 0.0000 0.0000 0.0000 27.8493 0.0000
# 6 1.7322 -1.7322 0.0000 0.0000 0.0000 41.5799
#
#
#
# Elastic Compliance Matrix: (Units=1/GPa)
#
#
# Indices 1 2 3 4 5 6 
#
# 1 0.014882 0.001531 -0.007784 0.000000 0.000000 -0.000556
# 2 0.001531 0.014882 -0.007784 0.000000 0.000000 0.000556
# 3 -0.007784 -0.007784 0.014865 0.000000 0.000000 0.000000
# 4 0.000000 0.000000 0.000000 0.035908 0.000000 0.000000
# 5 0.000000 0.000000 0.000000 0.000000 0.035908 0.000000
# 6 -0.000556 0.000556 0.000000 0.000000 0.000000 0.024096
#
#
# Mechanical properties :
#
#
# Convention : Reuss Voigt Hill
#
# Bulk Modulus (GPa) = 60.40190 69.92044 65.16117
# Shear Modulus (GPa) = 28.71360 31.45395 30.08377
#
# Velocity S-wave (km/s) = 3.55170 3.71732 3.63545
# Velocity P-wave (km/s) = 6.58448 7.01016 6.80065
#
# Compressibility (1/GPa) = 0.01655577
#
# Stress axis : x y z
#
# Youngs Moduli (GPa) = 67.19458 67.19458 67.27075
#
# Poissons Ratio (x) = -0.10289 0.52364
# Poissons Ratio (y) = -0.10289 0.52364
# Poissons Ratio (z) = 0.52304 0.52304
#
# Static dielectric constant tensor:
#      x y z
#    x 1.899090 0.000000 0.000000 
#    y 0.000000 1.899090 0.000000 
#    z 0.000000 0.000000 1.804340 
# 
# From -- ./inp_files/2964.got.cif
#   From: 2010.05.17/outbox.cif.g08.bks.cpg/sg82_2_cif.got.tgz:2964.got - 2010.06.03 18:52:26.
