data_PCOD9543925
_publ_section_title
;
Structure prediction by ZEFSAII (Michael W. Deem and Ramdas Pophale) SiO2 
 PCOD9543925
Probable space group: P 4/M
;
_chemical_formula_sum "Si O2"
_cell_formula_units_Z 40
_cell_length_a 15.000000
_cell_length_b 15.000000
_cell_length_c 9.000000
_cell_angle_alpha 90.000000
_cell_angle_beta 90.000000
_cell_angle_gamma 90.000000
_cell_volume 2025.000000
_symmetry_space_group_name_H-M "P 4/M"
_symmetry_group_IT_number 83
_symmetry_cell_setting 'tetragonal'
loop_
_space_group_symop_operation_xyz
x,y,z
-y,x,z
-x,-y,z
y,-x,z
-x,-y,-z
y,-x,-z
x,y,-z
-y,x,-z
loop_
_atom_site_type_symbol
_atom_site_label
_atom_site_fract_x
_atom_site_fract_y
_atom_site_fract_z
Si Si1 0.605664 0.727196 0.321312
Si Si2 0.251992 0.411385 0.317530
Si Si3 0.951381 0.591347 0.681619
Si Si4 0.910135 0.112350 0.177931
Si Si5 0.896976 0.286512 0.676222
O O1 0.604109 0.715162 0.500000
O O2 0.682915 0.664711 0.262639
O O3 0.506648 0.710580 0.268488
O O4 0.633727 0.828479 0.296358
O O5 0.250210 0.409636 0.500000
O O6 0.150127 0.403063 0.269470
O O7 0.952693 0.591054 0.500000
O O8 0.000000 0.500000 0.727635
O O9 0.008665 0.676364 0.730573
O O10 0.880058 0.014238 0.223975
O O11 0.863506 0.196592 0.248959
O O12 0.905909 0.115891 0.000000
O O13 0.900754 0.270785 0.500000
#
# Coordination Sequence:
#
# PCOD9543925 Si02
#       5
#     8   8   8   8   8
#     4   9  17  27  40  64  96 127 166 205 243 290
#     4   9  16  26  39  59  93 133 164 198 243 295
#     4   9  15  26  42  62  94 130 156 187 245 303
#     4   9  20  38  53  66  94 135 166 189 235 301
#     4  10  19  29  48  77  99 121 162 210 244 281
#
# _framework density 19.753086
#
# number of rings (size 3 to 8) (size 9 to 14) (size 15 to 20)
#    0.000    2.800    2.000    0.600    2.800    1.200 
#    0.000    3.000    0.000    0.600    0.000    1.400 
#    0.000    0.000    0.000    1.800    0.000    2.000 
#
# Total GULP energy -222718.576251 kJ/mol
# GULP energy per Si atom -5567.964406 kJ/mol
# Density = 1.970813 g / cm^3
# Si number density = 19.753086 Si / 1000 Ang^3
#
#
#
# Elastic Constant Matrix: (Units=GPa)
#
#
# Indices 1 2 3 4 5 6 
#
# 1 56.6249 16.9954 11.2830 0.0000 0.0000 17.6028
# 2 16.9954 56.6249 11.2830 0.0000 0.0000 -17.6028
# 3 11.2830 11.2830 -13.4340 0.0000 0.0000 0.0000
# 4 0.0000 0.0000 0.0000 -6.0232 0.0000 0.0000
# 5 0.0000 0.0000 0.0000 0.0000 -6.0232 0.0000
# 6 17.6028 -17.6028 0.0000 0.0000 0.0000 14.4128
#
#
#
# Elastic Compliance Matrix: (Units=1/GPa)
#
#
# Indices 1 2 3 4 5 6 
#
# 1 -0.143047 0.153849 0.009073 0.000000 0.000000 0.362608
# 2 0.153849 -0.143047 0.009073 0.000000 0.000000 -0.362608
# 3 0.009073 0.009073 -0.059198 0.000000 0.000000 0.000000
# 4 0.000000 0.000000 0.000000 -0.166026 0.000000 0.000000
# 5 0.000000 0.000000 0.000000 0.000000 -0.166026 0.000000
# 6 0.362608 -0.362608 0.000000 0.000000 0.000000 -0.816347
#
#
# Mechanical properties :
#
#
# Convention : Reuss Voigt Hill
#
# Bulk Modulus (GPa) = -767.47854 19.88206 -373.79824
# Shear Modulus (GPa) = -2.72018 4.49026 0.88504
#
# Velocity S-wave (km/s) = -1.17477 1.50935 0.67009
# Velocity P-wave (km/s) = 19.77927 3.62280 13.74945
#
# Compressibility (1/GPa) = -0.00130297
#
# Stress axis : x y z
#
# Youngs Moduli (GPa) = -6.99073 -6.99073 -16.89243
#
# Poissons Ratio (x) = 1.07552 0.15326
# Poissons Ratio (y) = 1.07552 0.15326
# Poissons Ratio (z) = 0.06342 0.06342
#
# Static dielectric constant tensor:
#      x y z
#    x 1.712490 0.000000 0.000000 
#    y 0.000000 1.712490 0.000000 
#    z 0.000000 0.000000 1.647760 
# 
# From -- ./inp_files/660.got.cif
#   From: 2010.05.17/outbox.ucp.g08.bks.cvg/sg83_1_cif.got.tgz:660.got - 2010.06.11 10:34:49.
