data_PCOD9543875
_publ_section_title
;
Structure prediction by ZEFSAII (Michael W. Deem and Ramdas Pophale) SiO2 
 PCOD9543875
Probable space group: P 4/M
;
_chemical_formula_sum "Si O2"
_cell_formula_units_Z 40
_cell_length_a 7.945858
_cell_length_b 7.945858
_cell_length_c 28.585700
_cell_angle_alpha 90.000000
_cell_angle_beta 90.000000
_cell_angle_gamma 90.000000
_cell_volume 1804.805603
_symmetry_space_group_name_H-M "P 4/M"
_symmetry_group_IT_number 83
_symmetry_cell_setting 'tetragonal'
loop_
_space_group_symop_operation_xyz
x,y,z
-y,x,z
-x,-y,z
y,-x,z
-x,-y,-z
y,-x,-z
x,y,-z
-y,x,-z
loop_
_atom_site_type_symbol
_atom_site_label
_atom_site_fract_x
_atom_site_fract_y
_atom_site_fract_z
Si Si1 0.267106 0.900952 0.203727
Si Si2 0.231519 0.408477 0.399537
Si Si3 0.907780 0.732433 0.306533
Si Si4 0.500000 0.000000 0.872463
Si Si5 0.599176 0.231387 0.500000
Si Si6 0.398110 0.234889 0.947661
O O1 0.397327 0.877145 0.161976
O O2 0.206988 0.096422 0.200595
O O3 0.344949 0.873725 0.255379
O O4 0.400229 0.295441 0.398763
O O5 0.132537 0.370148 0.352664
O O6 0.145509 0.370394 0.449852
O O7 0.099068 0.795169 0.307866
O O8 0.624701 0.898402 0.906658
O O9 0.706014 0.405050 0.500000
O O10 0.594007 0.291916 0.943975
O O11 0.370042 0.165406 0.000000
#
# Coordination Sequence:
#
# PCOD9543875 Si02
#       6
#     8   8   8   4   4   8
#     4   9  20  36  50  69 100 133 164 203 252 297
#     4   9  17  30  51  76  98 122 158 203 247 292
#     4   9  19  35  50  65  93 133 168 197 241 299
#     4  12  19  30  56  82  96 125 176 214 238 280
#     4   7  12  26  46  69  98 126 150 189 248 299
#     4   9  19  35  52  74 107 139 164 198 247 296
#
# _framework density 22.163050999999999
#
# number of rings (size 3 to 8) (size 9 to 14) (size 15 to 20)
#    0.000    2.900    0.000    4.500    0.000    4.000 
#    0.000    1.000    0.000    7.200    0.000    8.400 
#    0.000    0.000    0.000    0.000    0.000    0.000 
#
# Total GULP energy -223335.195624 kJ/mol
# GULP energy per Si atom -5583.379891 kJ/mol
# Density = 2.211261 g / cm^3
# Si number density = 22.163051 Si / 1000 Ang^3
#
#
#
# Elastic Constant Matrix: (Units=GPa)
#
#
# Indices 1 2 3 4 5 6 
#
# 1 29.4879 0.1694 33.7130 0.0000 0.0000 2.5899
# 2 0.1694 29.4879 33.7130 0.0000 0.0000 -2.5899
# 3 33.7130 33.7130 226.8191 0.0000 0.0000 0.0000
# 4 0.0000 0.0000 0.0000 36.5369 0.0000 0.0000
# 5 0.0000 0.0000 0.0000 0.0000 36.5369 0.0000
# 6 2.5899 -2.5899 0.0000 0.0000 0.0000 21.2892
#
#
#
# Elastic Compliance Matrix: (Units=1/GPa)
#
#
# Indices 1 2 3 4 5 6 
#
# 1 0.042893 0.008035 -0.007570 0.000000 0.000000 -0.004240
# 2 0.008035 0.042893 -0.007570 0.000000 0.000000 0.004240
# 3 -0.007570 -0.007570 0.006659 0.000000 0.000000 0.000000
# 4 0.000000 0.000000 0.000000 0.027370 0.000000 0.000000
# 5 0.000000 0.000000 0.000000 0.000000 0.027370 0.000000
# 6 -0.004240 0.004240 0.000000 0.000000 0.000000 0.048004
#
#
# Mechanical properties :
#
#
# Convention : Reuss Voigt Hill
#
# Bulk Modulus (GPa) = 12.78175 46.77620 29.77897
# Shear Modulus (GPa) = 21.23376 33.41923 27.32650
#
# Velocity S-wave (km/s) = 3.09863 3.88736 3.51518
# Velocity P-wave (km/s) = 4.31065 6.42651 5.47182
#
# Compressibility (1/GPa) = 0.07823657
#
# Stress axis : x y z
#
# Youngs Moduli (GPa) = 23.31401 23.31401 150.17255
#
# Poissons Ratio (x) = -0.18734 1.13675
# Poissons Ratio (y) = -0.18734 1.13675
# Poissons Ratio (z) = 0.17648 0.17648
#
# Static dielectric constant tensor:
#      x y z
#    x 1.837610 0.000000 0.000000 
#    y 0.000000 1.837610 0.000000 
#    z 0.000000 0.000000 1.856060 
# 
# From -- ./inp_files/3276.got.cif
#   From: 2010.05.17/outbox.cif.g08.bks.cpg/sg83_2_cif.got.tgz:3276.got - 2010.06.03 18:55:12.
