data_PCOD9543341
_publ_section_title
;
Structure prediction by ZEFSAII (Michael W. Deem and Ramdas Pophale) SiO2 
 PCOD9543341
Probable space group: P 4/M
;
_chemical_formula_sum "Si O2"
_cell_formula_units_Z 52
_cell_length_a 18.317289
_cell_length_b 18.317289
_cell_length_c 7.802785
_cell_angle_alpha 90.000000
_cell_angle_beta 90.000000
_cell_angle_gamma 90.000000
_cell_volume 2618.014427
_symmetry_space_group_name_H-M "P 4/M"
_symmetry_group_IT_number 83
_symmetry_cell_setting 'tetragonal'
loop_
_space_group_symop_operation_xyz
x,y,z
-y,x,z
-x,-y,z
y,-x,z
-x,-y,-z
y,-x,-z
x,y,-z
-y,x,-z
loop_
_atom_site_type_symbol
_atom_site_label
_atom_site_fract_x
_atom_site_fract_y
_atom_site_fract_z
Si Si1 0.726356 0.928760 0.699832
Si Si2 0.703432 0.765790 0.197781
Si Si3 0.883880 0.976905 0.709579
Si Si4 0.538724 0.780614 0.704869
Si Si5 0.299197 0.390569 0.199156
Si Si6 0.435148 0.050641 0.707545
Si Si7 0.575276 0.405216 0.500000
O O1 0.725896 0.949639 0.500000
O O2 0.724506 0.840135 0.707114
O O3 0.802463 0.958824 0.772599
O O4 0.648364 0.956062 0.773354
O O5 0.616110 0.754230 0.220620
O O6 0.738058 0.687427 0.245592
O O7 0.719605 0.780235 0.000000
O O8 0.882531 0.975789 0.500000
O O9 0.944338 0.916470 0.760713
O O10 0.540435 0.768687 0.500000
O O11 0.464378 0.746900 0.776405
O O12 0.540407 0.866705 0.738151
O O13 0.365373 0.398289 0.330352
O O14 0.320764 0.385196 0.000000
O O15 0.431350 0.040693 0.500000
O O16 0.500000 0.000000 0.774312
O O17 0.598353 0.488265 0.500000
#
# Coordination Sequence:
#
# PCOD9543341 Si02
#       7
#     8   8   8   8   8   8   4
#     4   9  17  30  52  78 103 140 185 226 275 341
#     4  10  21  35  53  75 106 143 180 227 280 334
#     4   8  14  27  48  78 113 143 177 230 290 341
#     4  10  19  33  56  79 104 142 183 229 280 339
#     4  11  23  37  55  80 109 144 186 235 286 339
#     4   8  15  29  48  75 109 140 177 225 278 335
#     4  11  24  38  56  80 107 142 186 235 283 340
#
# _framework density 19.862380999999999
#
# number of rings (size 3 to 8) (size 9 to 14) (size 15 to 20)
#    0.000    2.538    0.769    3.231    2.154    1.846 
#    2.769    0.769    0.000   12.462    0.000    1.077 
#    0.000    0.000    0.000    0.000    0.000    0.000 
#
# Total GULP energy -289833.815024 kJ/mol
# GULP energy per Si atom -5573.727212 kJ/mol
# Density = 1.981717 g / cm^3
# Si number density = 19.862381 Si / 1000 Ang^3
#
#
#
# Elastic Constant Matrix: (Units=GPa)
#
#
# Indices 1 2 3 4 5 6 
#
# 1 101.1406 44.2436 5.8169 0.0000 0.0000 16.7497
# 2 44.2436 101.1406 5.8169 0.0000 0.0000 -16.7497
# 3 5.8169 5.8169 43.2055 0.0000 0.0000 0.0000
# 4 0.0000 0.0000 0.0000 37.5789 0.0000 0.0000
# 5 0.0000 0.0000 0.0000 0.0000 37.5789 0.0000
# 6 16.7497 -16.7497 0.0000 0.0000 0.0000 31.5857
#
#
#
# Elastic Compliance Matrix: (Units=1/GPa)
#
#
# Indices 1 2 3 4 5 6 
#
# 1 0.016254 -0.009301 -0.000936 0.000000 0.000000 -0.013551
# 2 -0.009301 0.016254 -0.000936 0.000000 0.000000 0.013551
# 3 -0.000936 -0.000936 0.023397 0.000000 0.000000 0.000000
# 4 0.000000 0.000000 0.000000 0.026611 0.000000 0.000000
# 5 0.000000 0.000000 0.000000 0.000000 0.026611 0.000000
# 6 -0.013551 0.013551 0.000000 0.000000 0.000000 0.046032
#
#
# Mechanical properties :
#
#
# Convention : Reuss Voigt Hill
#
# Bulk Modulus (GPa) = 29.79808 39.69349 34.74579
# Shear Modulus (GPa) = 26.49844 33.98930 30.24387
#
# Velocity S-wave (km/s) = 3.65650 4.14120 3.90637
# Velocity P-wave (km/s) = 5.73249 6.54933 6.15448
#
# Compressibility (1/GPa) = 0.03355921
#
# Stress axis : x y z
#
# Youngs Moduli (GPa) = 61.52427 61.52427 42.74004
#
# Poissons Ratio (x) = 0.57221 0.04001
# Poissons Ratio (y) = 0.57221 0.04001
# Poissons Ratio (z) = 0.05759 0.05759
#
# Static dielectric constant tensor:
#      x y z
#    x 1.718320 0.000000 0.000000 
#    y 0.000000 1.718320 0.000000 
#    z 0.000000 0.000000 1.770690 
# 
# From -- ./inp_files/1026.got.cif
#   From: 2010.05.17/outbox.cif.g08.bks.cpg/sg83_1_cif.got.tgz:1026.got - 2010.06.03 18:55:12.
