data_PCOD9543951
_publ_section_title
;
Structure prediction by ZEFSAII (Michael W. Deem and Ramdas Pophale) SiO2 
 PCOD9543951
Probable space group: P 42/M
;
_chemical_formula_sum "Si O2"
_cell_formula_units_Z 32
_cell_length_a 13.090003
_cell_length_b 13.090003
_cell_length_c 7.851746
_cell_angle_alpha 90.000000
_cell_angle_beta 90.000000
_cell_angle_gamma 90.000000
_cell_volume 1345.382375
_symmetry_space_group_name_H-M "P 42/M"
_symmetry_group_IT_number 84
_symmetry_cell_setting 'tetragonal'
loop_
_space_group_symop_operation_xyz
x,y,z
-y,x,1/2+z
-x,-y,z
y,-x,1/2+z
-x,-y,-z
y,-x,1/2-z
x,y,-z
-y,x,1/2-z
loop_
_atom_site_type_symbol
_atom_site_label
_atom_site_fract_x
_atom_site_fract_y
_atom_site_fract_z
Si Si1 0.291657 0.925394 0.204121
Si Si2 0.136058 0.505131 0.706420
Si Si3 0.444155 0.641972 0.810945
Si Si4 0.739002 0.854657 0.795111
O O1 0.411234 0.937229 0.263991
O O2 0.228212 0.823451 0.244599
O O3 0.233885 0.029012 0.258221
O O4 0.299636 0.927432 0.000000
O O5 0.123119 0.514605 0.500000
O O6 0.242222 0.445908 0.740115
O O7 0.155448 0.621053 0.767940
O O8 0.562858 0.609159 0.812050
O O9 0.400716 0.630477 0.000000
O O10 0.735214 0.849630 0.000000
#
# Coordination Sequence:
#
# PCOD9543951 Si02
#       4
#     8   8   8   8
#     4  10  21  38  60  84 112 147 187 231 278 330
#     4   9  18  34  56  80 105 139 183 226 272 326
#     4  10  18  28  44  68 101 138 176 217 262 318
#     4  10  21  38  60  84 112 147 187 231 278 330
#
# _framework density 23.785060999999999
#
# number of rings (size 3 to 8) (size 9 to 14) (size 15 to 20)
#    0.000    2.250    0.000    3.750    0.000    4.500 
#    0.000    6.250    0.000    3.000    0.000    0.000 
#    0.000    0.000    0.000    0.000    0.000    0.000 
#
# Total GULP energy -178331.861572 kJ/mol
# GULP energy per Si atom -5572.870674 kJ/mol
# Density = 2.373093 g / cm^3
# Si number density = 23.785061 Si / 1000 Ang^3
#
#
#
# Elastic Constant Matrix: (Units=GPa)
#
#
# Indices 1 2 3 4 5 6 
#
# 1 99.8080 118.9065 9.4461 0.0000 0.0000 -15.2879
# 2 118.9065 99.8080 9.4461 0.0000 0.0000 15.2879
# 3 9.4461 9.4461 14.8147 0.0000 0.0000 0.0000
# 4 0.0000 0.0000 0.0000 18.3356 0.0000 0.0000
# 5 0.0000 0.0000 0.0000 0.0000 18.3356 0.0000
# 6 -15.2879 15.2879 0.0000 0.0000 0.0000 29.9381
#
#
#
# Elastic Compliance Matrix: (Units=1/GPa)
#
#
# Indices 1 2 3 4 5 6 
#
# 1 -0.011985 0.016824 -0.003085 0.000000 0.000000 -0.014711
# 2 0.016824 -0.011985 -0.003085 0.000000 0.000000 0.014711
# 3 -0.003085 -0.003085 0.071435 0.000000 0.000000 0.000000
# 4 0.000000 0.000000 0.000000 0.054539 0.000000 0.000000
# 5 0.000000 0.000000 0.000000 0.000000 0.054539 0.000000
# 6 -0.014711 0.014711 0.000000 0.000000 0.000000 0.018378
#
#
# Mechanical properties :
#
#
# Convention : Reuss Voigt Hill
#
# Bulk Modulus (GPa) = 14.54097 54.44756 34.49426
# Shear Modulus (GPa) = 28.32258 18.43066 23.37662
#
# Velocity S-wave (km/s) = 3.45450 2.78669 3.13841
# Velocity P-wave (km/s) = 4.69448 5.77022 5.25992
#
# Compressibility (1/GPa) = 0.06877121
#
# Stress axis : x y z
#
# Youngs Moduli (GPa) = -83.43813 -83.43813 13.99880
#
# Poissons Ratio (x) = 1.40373 0.04319
# Poissons Ratio (y) = 1.40373 0.04319
# Poissons Ratio (z) = -0.25742 -0.25742
#
# Static dielectric constant tensor:
#      x y z
#    x 1.967860 0.000000 0.000000 
#    y 0.000000 1.967860 0.000000 
#    z 0.000000 0.000000 1.762560 
# 
# From -- ./inp_files/598.got.cif
#   From: 2010.05.17/outbox.cif.g08.bks.cpg/sg84_1_cif.got.tgz:598.got - 2010.06.03 18:57:40.
