data_PCOD9543278
_publ_section_title
;
Structure prediction by ZEFSAII (Michael W. Deem and Ramdas Pophale) SiO2 
 PCOD9543278
Probable space group: P 4/M
;
_chemical_formula_sum "Si O2"
_cell_formula_units_Z 48
_cell_length_a 18.022906
_cell_length_b 18.022906
_cell_length_c 9.353764
_cell_angle_alpha 90.000000
_cell_angle_beta 90.000000
_cell_angle_gamma 90.000000
_cell_volume 3038.337707
_symmetry_space_group_name_H-M "P 4/M"
_symmetry_group_IT_number 83
_symmetry_cell_setting 'tetragonal'
loop_
_space_group_symop_operation_xyz
x,y,z
-y,x,z
-x,-y,z
y,-x,z
-x,-y,-z
y,-x,-z
x,y,-z
-y,x,-z
loop_
_atom_site_type_symbol
_atom_site_label
_atom_site_fract_x
_atom_site_fract_y
_atom_site_fract_z
Si Si1 0.699034 0.205815 0.164439
Si Si2 0.331966 0.427336 0.837243
Si Si3 0.673359 0.433750 0.662891
Si Si4 0.911780 0.414674 0.171812
Si Si5 0.582578 0.087256 0.827529
Si Si6 0.198642 0.690953 0.663788
O O1 0.637907 0.271493 0.158866
O O2 0.651401 0.136659 0.224646
O O3 0.766877 0.237492 0.256834
O O4 0.722332 0.190965 0.000000
O O5 0.299193 0.497955 0.757089
O O6 0.400301 0.397622 0.744004
O O7 0.352798 0.444994 0.000000
O O8 0.657389 0.455656 0.500000
O O9 0.734941 0.369602 0.660370
O O10 0.891149 0.498999 0.219960
O O11 0.866029 0.350869 0.250222
O O12 0.999881 0.407290 0.199082
O O13 0.899934 0.410324 0.000000
O O14 0.581718 0.097307 0.000000
O O15 0.177725 0.707149 0.500000
#
# Coordination Sequence:
#
# PCOD9543278 Si02
#       6
#     8   8   8   8   8   8
#     4   9  17  30  47  65  86 114 147 182 219 260
#     4  10  19  30  45  62  77  99 139 184 219 255
#     4  10  20  32  43  56  79 109 138 173 220 264
#     4   9  16  29  49  70  93 120 149 185 227 269
#     4   8  15  28  48  72  93 116 150 188 226 269
#     4  10  20  31  43  63  90 118 148 180 215 261
#
# _framework density 15.798111
#
# number of rings (size 3 to 8) (size 9 to 14) (size 15 to 20)
#    0.000    2.667    0.000    3.500    0.000    4.333 
#    0.000    5.000    0.000    0.000    0.000    0.000 
#    0.000    0.667    0.000    7.667    0.000    3.000 
#
# Total GULP energy -267372.229272 kJ/mol
# GULP energy per Si atom -5570.254776 kJ/mol
# Density = 1.576215 g / cm^3
# Si number density = 15.798111 Si / 1000 Ang^3
#
#
#
# Elastic Constant Matrix: (Units=GPa)
#
#
# Indices 1 2 3 4 5 6 
#
# 1 64.5363 31.2895 31.7038 0.0000 0.0000 -0.0686
# 2 31.2895 64.5363 31.7038 0.0000 0.0000 0.0686
# 3 31.7038 31.7038 78.4223 0.0000 0.0000 0.0000
# 4 0.0000 0.0000 0.0000 13.5651 0.0000 0.0000
# 5 0.0000 0.0000 0.0000 0.0000 13.5651 0.0000
# 6 -0.0686 0.0686 0.0000 0.0000 0.0000 30.7167
#
#
#
# Elastic Compliance Matrix: (Units=1/GPa)
#
#
# Indices 1 2 3 4 5 6 
#
# 1 0.022162 -0.007916 -0.005759 0.000000 0.000000 0.000067
# 2 -0.007916 0.022162 -0.005759 0.000000 0.000000 -0.000067
# 3 -0.005759 -0.005759 0.017408 0.000000 0.000000 0.000000
# 4 0.000000 0.000000 0.000000 0.073719 0.000000 0.000000
# 5 0.000000 0.000000 0.000000 0.000000 0.073719 0.000000
# 6 0.000067 -0.000067 0.000000 0.000000 0.000000 0.032556
#
#
# Mechanical properties :
#
#
# Convention : Reuss Voigt Hill
#
# Bulk Modulus (GPa) = 43.73771 44.09880 43.91825
# Shear Modulus (GPa) = 17.34803 19.08923 18.21863
#
# Velocity S-wave (km/s) = 3.31737 3.47987 3.39959
# Velocity P-wave (km/s) = 6.51297 6.64233 6.57797
#
# Compressibility (1/GPa) = 0.02286357
#
# Stress axis : x y z
#
# Youngs Moduli (GPa) = 45.12129 45.12129 57.44400
#
# Poissons Ratio (x) = 0.35717 0.33085
# Poissons Ratio (y) = 0.35717 0.33085
# Poissons Ratio (z) = 0.25988 0.25988
#
# Static dielectric constant tensor:
#      x y z
#    x 1.538480 0.000000 0.000000 
#    y 0.000000 1.538480 0.000000 
#    z 0.000000 0.000000 1.538960 
# 
# From -- ./inp_files/887.got.cif
#   From: 2010.05.17/outbox.cif.g08.bks.cpg/sg83_1_cif.got.tgz:887.got - 2010.06.03 18:55:12.
