data_PCOD9543886
_publ_section_title
;
Structure prediction by ZEFSAII (Michael W. Deem and Ramdas Pophale) SiO2 
 PCOD9543886
Probable space group: P 4/M
;
_chemical_formula_sum "Si O2"
_cell_formula_units_Z 48
_cell_length_a 7.596709
_cell_length_b 7.596709
_cell_length_c 34.634103
_cell_angle_alpha 90.000000
_cell_angle_beta 90.000000
_cell_angle_gamma 90.000000
_cell_volume 1998.733656
_symmetry_space_group_name_H-M "P 4/M"
_symmetry_group_IT_number 83
_symmetry_cell_setting 'tetragonal'
loop_
_space_group_symop_operation_xyz
x,y,z
-y,x,z
-x,-y,z
y,-x,z
-x,-y,-z
y,-x,-z
x,y,-z
-y,x,-z
loop_
_atom_site_type_symbol
_atom_site_label
_atom_site_fract_x
_atom_site_fract_y
_atom_site_fract_z
Si Si1 0.895370 0.723990 0.082294
Si Si2 0.723246 0.115844 0.000000
Si Si3 0.878610 0.272519 0.375039
Si Si4 0.385335 0.775194 0.752381
Si Si5 0.500000 0.000000 0.688229
Si Si6 0.775482 0.604750 0.835886
Si Si7 0.871133 0.270386 0.458779
O O1 0.863675 0.636950 0.123273
O O2 0.097345 0.782703 0.081811
O O3 0.849413 0.632233 0.041295
O O4 0.909984 0.219010 0.000000
O O5 0.835811 0.354817 0.417149
O O6 0.778594 0.086768 0.373084
O O7 0.859352 0.404497 0.339623
O O8 0.280779 0.592049 0.750369
O O9 0.361808 0.904424 0.716613
O O10 0.352266 0.861738 0.794501
O O11 0.597087 0.717336 0.835429
O O12 0.829408 0.359220 0.500000
O O13 0.776396 0.079500 0.458783
#
# Coordination Sequence:
#
# PCOD9543886 Si02
#       7
#     8   4   8   8   4   8   8
#     4   9  17  30  51  77 101 125 156 192 230 275
#     4   7  12  26  46  69 100 132 154 179 222 275
#     4   9  18  31  46  69  99 124 152 195 239 276
#     4   9  20  37  52  67  91 124 160 194 233 287
#     4  12  20  30  51  74  92 121 158 194 240 286
#     4   9  19  35  51  67  91 124 160 197 236 276
#     4   7  10  20  40  62  86 121 157 184 220 273
#
# _framework density 24.015203
#
# number of rings (size 3 to 8) (size 9 to 14) (size 15 to 20)
#    0.000    3.250    0.000    4.500    0.000    3.333 
#    0.000    1.250    0.000    6.000    0.000    0.000 
#    0.000    0.000    0.000   20.333    0.000    1.333 
#
# Total GULP energy -267864.446086 kJ/mol
# GULP energy per Si atom -5580.509293 kJ/mol
# Density = 2.396054 g / cm^3
# Si number density = 24.015203 Si / 1000 Ang^3
#
#
#
# Elastic Constant Matrix: (Units=GPa)
#
#
# Indices 1 2 3 4 5 6 
#
# 1 33.2107 -5.5107 25.9252 0.0000 0.0000 -20.2365
# 2 -5.5107 33.2107 25.9252 0.0000 0.0000 20.2365
# 3 25.9252 25.9252 272.7478 0.0000 0.0000 0.0000
# 4 0.0000 0.0000 0.0000 26.3602 0.0000 0.0000
# 5 0.0000 0.0000 0.0000 0.0000 26.3602 0.0000
# 6 -20.2365 20.2365 0.0000 0.0000 0.0000 43.1026
#
#
#
# Elastic Compliance Matrix: (Units=1/GPa)
#
#
# Indices 1 2 3 4 5 6 
#
# 1 0.047313 -0.003398 -0.004174 0.000000 0.000000 0.023809
# 2 -0.003398 0.047313 -0.004174 0.000000 0.000000 -0.023809
# 3 -0.004174 -0.004174 0.004460 0.000000 0.000000 0.000000
# 4 0.000000 0.000000 0.000000 0.037936 0.000000 0.000000
# 5 0.000000 0.000000 0.000000 0.000000 0.037936 0.000000
# 6 0.023809 -0.023809 0.000000 0.000000 0.000000 0.045557
#
#
# Mechanical properties :
#
#
# Convention : Reuss Voigt Hill
#
# Bulk Modulus (GPa) = 13.22886 47.98318 30.60602
# Shear Modulus (GPa) = 18.57319 38.68658 28.62989
#
# Velocity S-wave (km/s) = 2.78401 4.01798 3.45651
# Velocity P-wave (km/s) = 3.98181 6.44587 5.35743
#
# Compressibility (1/GPa) = 0.07559228
#
# Stress axis : x y z
#
# Youngs Moduli (GPa) = 21.13588 21.13588 224.21958
#
# Poissons Ratio (x) = 0.07183 0.93593
# Poissons Ratio (y) = 0.07183 0.93593
# Poissons Ratio (z) = 0.08822 0.08822
#
# Static dielectric constant tensor:
#      x y z
#    x 1.935520 0.000000 0.000000 
#    y 0.000000 1.935520 0.000000 
#    z 0.000000 0.000000 2.012350 
# 
# From -- ./inp_files/3493.got.cif
#   From: 2010.05.17/outbox.cif.g08.bks.cpg/sg83_2_cif.got.tgz:3493.got - 2010.06.03 18:55:12.
