data_PCOD9543460
_publ_section_title
;
Structure prediction by ZEFSAII (Michael W. Deem and Ramdas Pophale) SiO2 
 PCOD9543460
Probable space group: P 4/M
;
_chemical_formula_sum "Si O2"
_cell_formula_units_Z 58
_cell_length_a 18.006351
_cell_length_b 18.006351
_cell_length_c 7.856745
_cell_angle_alpha 90.000000
_cell_angle_beta 90.000000
_cell_angle_gamma 90.000000
_cell_volume 2547.382032
_symmetry_space_group_name_H-M "P 4/M"
_symmetry_group_IT_number 83
_symmetry_cell_setting 'tetragonal'
loop_
_space_group_symop_operation_xyz
x,y,z
-y,x,z
-x,-y,z
y,-x,z
-x,-y,-z
y,-x,-z
x,y,-z
-y,x,-z
loop_
_atom_site_type_symbol
_atom_site_label
_atom_site_fract_x
_atom_site_fract_y
_atom_site_fract_z
Si Si1 0.623578 0.139808 0.795092
Si Si2 0.881221 0.997154 0.292046
Si Si3 0.322351 0.637266 0.301258
Si Si4 0.259403 0.076078 0.694687
Si Si5 0.409864 0.033092 0.192726
Si Si6 0.777948 0.767456 0.196955
Si Si7 0.280375 0.470104 0.796066
Si Si8 0.500000 0.000000 0.500000
O O1 0.611367 0.052977 0.764022
O O2 0.703884 0.167408 0.733066
O O3 0.562760 0.200367 0.735171
O O4 0.624948 0.147229 0.000000
O O5 0.879820 0.996772 0.500000
O O6 0.926507 0.069144 0.238437
O O7 0.797749 0.984730 0.234313
O O8 0.312553 0.652608 0.500000
O O9 0.269482 0.696036 0.205919
O O10 0.406858 0.659356 0.252479
O O11 0.301503 0.551838 0.267668
O O12 0.277882 0.057268 0.500000
O O13 0.221168 0.156045 0.702709
O O14 0.334756 0.078861 0.796872
O O15 0.463262 0.051977 0.347517
O O16 0.438387 0.041308 0.000000
O O17 0.795935 0.783029 0.000000
O O18 0.277406 0.474403 0.000000
#
# Coordination Sequence:
#
# PCOD9543460 Si02
#       8
#     8   8   8   8   8   8   8   2
#     4   8  19  40  65  90 117 163 216 256 313 384
#     4   8  16  32  55  88 132 177 218 267 330 392
#     4  11  22  38  58  91 124 155 196 256 309 372
#     4  11  22  37  60  99 130 167 223 272 324 388
#     4  11  24  46  69  94 132 172 216 276 333 389
#     4  10  21  40  62  87 124 166 208 258 317 381
#     4  10  20  39  63  88 119 159 204 245 305 377
#     4  12  26  48  64  98 124 162 222 270 332 402
#
# _framework density 22.768474000000001
#
# number of rings (size 3 to 8) (size 9 to 14) (size 15 to 20)
#    0.000    2.069    0.690    3.931    1.931    1.379 
#    9.931    4.138    0.000    0.000    0.000    3.862 
#    0.000    0.000    0.000    0.000    0.000    0.000 
#
# Total GULP energy -323520.197421 kJ/mol
# GULP energy per Si atom -5577.934438 kJ/mol
# Density = 2.271665 g / cm^3
# Si number density = 22.768474 Si / 1000 Ang^3
#
#
#
# Elastic Constant Matrix: (Units=GPa)
#
#
# Indices 1 2 3 4 5 6 
#
# 1 50.1291 -4.7222 7.8825 0.0000 0.0000 -0.9786
# 2 -4.7222 50.1291 7.8825 0.0000 0.0000 0.9786
# 3 7.8825 7.8825 97.7858 0.0000 0.0000 0.0000
# 4 0.0000 0.0000 0.0000 4.4693 0.0000 0.0000
# 5 0.0000 0.0000 0.0000 0.0000 4.4693 0.0000
# 6 -0.9786 0.9786 0.0000 0.0000 0.0000 14.4403
#
#
#
# Elastic Compliance Matrix: (Units=1/GPa)
#
#
# Indices 1 2 3 4 5 6 
#
# 1 0.020466 0.002191 -0.001826 0.000000 0.000000 0.001239
# 2 0.002191 0.020466 -0.001826 0.000000 0.000000 -0.001239
# 3 -0.001826 -0.001826 0.010521 0.000000 0.000000 0.000000
# 4 0.000000 0.000000 0.000000 0.223750 0.000000 0.000000
# 5 0.000000 0.000000 0.000000 0.000000 0.223750 0.000000
# 6 0.001239 -0.001239 0.000000 0.000000 0.000000 0.069419
#
#
# Mechanical properties :
#
#
# Convention : Reuss Voigt Hill
#
# Bulk Modulus (GPa) = 20.60593 24.45885 22.53239
# Shear Modulus (GPa) = 8.51104 17.14250 12.82677
#
# Velocity S-wave (km/s) = 1.93551 2.74689 2.37609
# Velocity P-wave (km/s) = 3.75030 4.56358 4.17678
#
# Compressibility (1/GPa) = 0.04852972
#
# Stress axis : x y z
#
# Youngs Moduli (GPa) = 48.86088 48.86088 95.04899
#
# Poissons Ratio (x) = -0.10705 0.17360
# Poissons Ratio (y) = -0.10705 0.17360
# Poissons Ratio (z) = 0.08924 0.08924
#
# Static dielectric constant tensor:
#      x y z
#    x 1.876350 0.000000 0.000000 
#    y 0.000000 1.876350 0.000000 
#    z 0.000000 0.000000 1.817660 
# 
# From -- ./inp_files/1133.got.cif
#   From: 2010.05.17/outbox.cif.g08.bks.cpg/sg83_1_cif.got.tgz:1133.got - 2010.06.03 18:55:12.
