data_PCOD9543136
_publ_section_title
;
Structure prediction by ZEFSAII (Michael W. Deem and Ramdas Pophale) SiO2 
 PCOD9543136
Probable space group: I -4 
;
_chemical_formula_sum "Si O2"
_cell_formula_units_Z 52
_cell_length_a 20.430534
_cell_length_b 20.430534
_cell_length_c 5.169577
_cell_angle_alpha 90.000000
_cell_angle_beta 90.000000
_cell_angle_gamma 90.000000
_cell_volume 2157.816177
_symmetry_space_group_name_H-M "I -4 "
_symmetry_group_IT_number 82
_symmetry_cell_setting 'tetragonal'
loop_
_space_group_symop_operation_xyz
x,y,z
y,-x,-z
-x,-y,z
-y,x,-z
1/2+x,1/2+y,1/2+z
1/2+y,1/2-x,1/2-z
1/2-x,1/2-y,1/2+z
1/2-y,1/2+x,1/2-z
loop_
_atom_site_type_symbol
_atom_site_label
_atom_site_fract_x
_atom_site_fract_y
_atom_site_fract_z
Si Si1 0.519906 0.135266 0.478599
Si Si2 0.000000 0.000000 0.000000
Si Si3 0.000000 0.500000 0.250000
Si Si4 0.817968 0.974956 0.369316
Si Si5 0.274452 0.787506 0.172367
Si Si6 0.308265 0.079656 0.538895
Si Si7 0.249506 0.570647 0.504260
Si Si8 0.429435 0.380440 0.793177
O O1 0.541350 0.149629 0.182587
O O2 0.453487 0.176031 0.551246
O O3 0.508455 0.061548 0.561009
O O4 0.575637 0.159842 0.679691
O O5 0.933564 0.025744 0.858100
O O6 0.762024 0.956192 0.571476
O O7 0.858843 0.911545 0.309029
O O8 0.777575 0.006563 0.142929
O O9 0.870418 0.029958 0.445883
O O10 0.263982 0.752602 0.447652
O O11 0.349191 0.792535 0.074282
O O12 0.251581 0.863426 0.174107
O O13 0.305823 0.581746 0.295304
#
# Coordination Sequence:
#
# PCOD9543136 Si02
#       8
#     8   2   2   8   8   8   8   8
#     4  11  26  48  77 111 147 198 240 326 387 468
#     4  12  24  38  64 104 150 192 264 318 368 438
#     4  12  28  50  88 118 152 194 264 322 408 486
#     4  11  25  40  72  96 147 196 248 313 376 451
#     4  12  28  46  74 107 145 200 258 313 378 463
#     4  11  25  49  72 110 150 196 257 307 394 461
#     4  11  26  47  70 102 150 193 248 313 385 453
#     4  12  23  43  63 103 143 195 248 311 370 449
#
# _framework density 24.09844
#
# number of rings (size 3 to 8) (size 9 to 14) (size 15 to 20)
#    0.000    0.615    3.077    3.692    4.308    5.538 
#    0.000    0.000    0.000    0.000    0.000    0.000 
#    0.000    0.000    0.000    0.000    0.000    0.000 
#
# Total GULP energy -145316.019524 kJ/mol
# GULP energy per Si atom -5589.077674 kJ/mol
# Density = 2.404359 g / cm^3
# Si number density = 24.098440 Si / 1000 Ang^3
#
#
#
# Elastic Constant Matrix: (Units=GPa)
#
#
# Indices 1 2 3 4 5 6 
#
# 1 86.4179 31.4321 0.4242 0.0000 0.0000 -11.1290
# 2 31.4321 86.4179 0.4242 0.0000 0.0000 11.1290
# 3 0.4242 0.4242 56.3769 0.0000 0.0000 0.0000
# 4 0.0000 0.0000 0.0000 34.3730 0.0000 0.0000
# 5 0.0000 0.0000 0.0000 0.0000 34.3730 0.0000
# 6 -11.1290 11.1290 0.0000 0.0000 0.0000 30.9474
#
#
#
# Elastic Compliance Matrix: (Units=1/GPa)
#
#
# Indices 1 2 3 4 5 6 
#
# 1 0.014885 -0.006400 -0.000064 0.000000 0.000000 0.007654
# 2 -0.006400 0.014885 -0.000064 0.000000 0.000000 -0.007654
# 3 -0.000064 -0.000064 0.017739 0.000000 0.000000 0.000000
# 4 0.000000 0.000000 0.000000 0.029093 0.000000 0.000000
# 5 0.000000 0.000000 0.000000 0.000000 0.029093 0.000000
# 6 0.007654 -0.007654 0.000000 0.000000 0.000000 0.037818
#
#
# Mechanical properties :
#
#
# Convention : Reuss Voigt Hill
#
# Bulk Modulus (GPa) = 29.02338 32.64152 30.83245
# Shear Modulus (GPa) = 29.75265 33.06749 31.41007
#
# Velocity S-wave (km/s) = 3.51754 3.70832 3.61419
# Velocity P-wave (km/s) = 5.34484 5.64889 5.49897
#
# Compressibility (1/GPa) = 0.03445498
#
# Stress axis : x y z
#
# Youngs Moduli (GPa) = 67.18001 67.18001 56.37384
#
# Poissons Ratio (x) = 0.42992 0.00360
# Poissons Ratio (y) = 0.42992 0.00360
# Poissons Ratio (z) = 0.00429 0.00429
#
# Static dielectric constant tensor:
#      x y z
#    x 1.958720 0.000000 0.000000 
#    y 0.000000 1.958720 0.000000 
#    z 0.000000 0.000000 1.966630 
# 
# From -- ./inp_files/402.got.cif
#   From: 2010.05.17/outbox.cif.g08.bks.cpg/sg82_1_cif.got.tgz:402.got - 2010.06.03 18:52:26.
