data_PCOD9543015
_publ_section_title
;
Structure prediction by ZEFSAII (Michael W. Deem and Ramdas Pophale) SiO2 
 PCOD9543015
Probable space group: I -4 
;
_chemical_formula_sum "Si O2"
_cell_formula_units_Z 32
_cell_length_a 11.734476
_cell_length_b 11.734476
_cell_length_c 9.981412
_cell_angle_alpha 90.000000
_cell_angle_beta 90.000000
_cell_angle_gamma 90.000000
_cell_volume 1374.419741
_symmetry_space_group_name_H-M "I -4 "
_symmetry_group_IT_number 82
_symmetry_cell_setting 'tetragonal'
loop_
_space_group_symop_operation_xyz
x,y,z
y,-x,-z
-x,-y,z
-y,x,-z
1/2+x,1/2+y,1/2+z
1/2+y,1/2-x,1/2-z
1/2-x,1/2-y,1/2+z
1/2-y,1/2+x,1/2-z
loop_
_atom_site_type_symbol
_atom_site_label
_atom_site_fract_x
_atom_site_fract_y
_atom_site_fract_z
Si Si1 0.125392 0.153790 0.119005
Si Si2 0.560204 0.673312 0.032294
Si Si3 0.146879 0.900263 0.166373
Si Si4 0.656199 0.081845 0.698561
O O1 0.153480 0.249551 0.224255
O O2 0.989767 0.122228 0.143997
O O3 0.180509 0.032297 0.142909
O O4 0.155205 0.195858 0.969074
O O5 0.614783 0.677576 0.179390
O O6 0.626539 0.569868 0.957528
O O7 0.560035 0.789595 0.946698
O O8 0.534627 0.140859 0.715216
#
# Coordination Sequence:
#
# PCOD9543015 Si02
#       4
#     8   8   8   8
#     4   9  16  34  55  85 118 151 182 240 319 346
#     4  11  18  36  65  93 112 143 212 262 284 335
#     4   9  16  30  60  89 114 136 190 267 298 322
#     4  11  24  41  54  78 128 171 186 227 313 378
#
# _framework density 23.282554000000001
#
# number of rings (size 3 to 8) (size 9 to 14) (size 15 to 20)
#    0.000    2.000    5.000    3.000    0.000    0.000 
#    9.000    2.500    0.000    3.000    0.000    0.000 
#    0.000    0.000    0.000    0.000    0.000    0.000 
#
# Total GULP energy -89212.007643 kJ/mol
# GULP energy per Si atom -5575.750478 kJ/mol
# Density = 2.322956 g / cm^3
# Si number density = 23.282554 Si / 1000 Ang^3
#
#
#
# Elastic Constant Matrix: (Units=GPa)
#
#
# Indices 1 2 3 4 5 6 
#
# 1 89.7564 5.2503 20.9386 0.0000 0.0000 7.0913
# 2 5.2503 89.7564 20.9386 0.0000 0.0000 -7.0913
# 3 20.9386 20.9386 160.1530 0.0000 0.0000 0.0000
# 4 0.0000 0.0000 0.0000 18.2909 0.0000 0.0000
# 5 0.0000 0.0000 0.0000 0.0000 18.2909 0.0000
# 6 7.0913 -7.0913 0.0000 0.0000 0.0000 3.9121
#
#
#
# Elastic Compliance Matrix: (Units=1/GPa)
#
#
# Indices 1 2 3 4 5 6 
#
# 1 0.014088 -0.002919 -0.001460 0.000000 0.000000 -0.030829
# 2 -0.002919 0.014088 -0.001460 0.000000 0.000000 0.030829
# 3 -0.001460 -0.001460 0.006626 0.000000 0.000000 0.000000
# 4 0.000000 0.000000 0.000000 0.054672 0.000000 0.000000
# 5 0.000000 0.000000 0.000000 0.000000 0.054672 0.000000
# 6 -0.030829 0.030829 0.000000 0.000000 0.000000 0.367388
#
#
# Mechanical properties :
#
#
# Convention : Reuss Voigt Hill
#
# Bulk Modulus (GPa) = 43.24658 48.21343 45.73001
# Shear Modulus (GPa) = 9.41757 27.60133 18.50945
#
# Velocity S-wave (km/s) = 2.01338 3.44684 2.82262
# Velocity P-wave (km/s) = 4.90101 6.04928 5.50517
#
# Compressibility (1/GPa) = 0.02312322
#
# Stress axis : x y z
#
# Youngs Moduli (GPa) = 70.98043 70.98043 150.92369
#
# Poissons Ratio (x) = 0.20720 0.22039
# Poissons Ratio (y) = 0.20720 0.22039
# Poissons Ratio (z) = 0.10365 0.10365
#
# Static dielectric constant tensor:
#      x y z
#    x 1.922280 0.000000 0.000000 
#    y 0.000000 1.922280 0.000000 
#    z 0.000000 0.000000 1.897270 
# 
# From -- ./inp_files/1519.got.cif
#   From: 2010.05.17/outbox.cif.g08.bks.cpg/sg82_1_cif.got.tgz:1519.got - 2010.06.03 18:52:26.
