data_PCOD9543217
_publ_section_title
;
Structure prediction by ZEFSAII (Michael W. Deem and Ramdas Pophale) SiO2 
 PCOD9543217
Probable space group: I -4 
;
_chemical_formula_sum "Si O2"
_cell_formula_units_Z 28
_cell_length_a 12.000000
_cell_length_b 12.000000
_cell_length_c 21.000000
_cell_angle_alpha 90.000000
_cell_angle_beta 90.000000
_cell_angle_gamma 90.000000
_cell_volume 3024.000000
_symmetry_space_group_name_H-M "I -4 "
_symmetry_group_IT_number 82
_symmetry_cell_setting 'tetragonal'
loop_
_space_group_symop_operation_xyz
x,y,z
y,-x,-z
-x,-y,z
-y,x,-z
1/2+x,1/2+y,1/2+z
1/2+y,1/2-x,1/2-z
1/2-x,1/2-y,1/2+z
1/2-y,1/2+x,1/2-z
loop_
_atom_site_type_symbol
_atom_site_label
_atom_site_fract_x
_atom_site_fract_y
_atom_site_fract_z
Si Si1 0.154492 0.699538 0.265264
Si Si2 0.002735 0.632499 0.143022
Si Si3 0.617026 0.213268 0.228124
Si Si4 0.115614 0.430130 0.500422
Si Si5 0.832276 0.061716 0.476466
Si Si6 0.936844 0.881156 0.672260
Si Si7 0.500869 0.132731 0.356585
O O1 0.082582 0.663223 0.203256
O O2 0.159089 0.618338 0.326774
O O3 0.278961 0.708048 0.239498
O O4 0.114744 0.820344 0.290135
O O5 0.000000 0.500000 0.138198
O O6 0.037908 0.669821 0.070023
O O7 0.514408 0.285701 0.202654
O O8 0.583751 0.165180 0.298243
O O9 0.654573 0.120556 0.175767
O O10 0.091397 0.295599 0.503425
O O11 0.170369 0.466503 0.570373
O O12 0.000000 0.500000 0.500347
O O13 0.847027 0.081437 0.401187
O O14 0.931505 0.135132 0.509311
O O15 0.000000 0.000000 0.674176
O O16 0.500000 0.000000 0.360890
#
# Coordination Sequence:
#
# PCOD9543217 Si02
#       7
#     8   8   8   8   8   8   8
#     4  12  23  42  65  94 130 171 224 273 325 391
#     4  11  24  43  63  90 127 174 222 270 318 398
#     4  12  22  39  69  94 131 169 216 277 328 392
#     4  10  24  40  66  92 130 173 220 263 323 402
#     4  11  24  42  62  99 141 168 208 277 346 391
#     4  12  25  39  65  99 130 170 213 276 343 396
#     4  11  19  42  62  98 127 163 221 266 324 388
#
# _framework density 9.2592590000000001
#
# number of rings (size 3 to 8) (size 9 to 14) (size 15 to 20)
#    0.000    0.714    5.714    3.429    6.000    0.000 
#    0.000    0.000    0.000    0.000    0.000    0.000 
#    0.000    0.000    0.000    0.000    0.000    0.000 
#
# Total GULP energy -156024.769096 kJ/mol
# GULP energy per Si atom -5572.313182 kJ/mol
# Density = 0.923818 g / cm^3
# Si number density = 9.259259 Si / 1000 Ang^3
#
#
#
# Elastic Constant Matrix: (Units=GPa)
#
#
# Indices 1 2 3 4 5 6 
#
# 1 90.8159 16.9798 40.3618 0.0000 0.0000 -0.1491
# 2 16.9798 90.8159 40.3618 0.0000 0.0000 0.1491
# 3 40.3618 40.3618 176.7580 0.0000 0.0000 0.0000
# 4 0.0000 0.0000 0.0000 19.3861 0.0000 0.0000
# 5 0.0000 0.0000 0.0000 0.0000 19.3861 0.0000
# 6 -0.1491 0.1491 0.0000 0.0000 0.0000 32.6534
#
#
#
# Elastic Compliance Matrix: (Units=1/GPa)
#
#
# Indices 1 2 3 4 5 6 
#
# 1 0.012367 -0.001177 -0.002555 0.000000 0.000000 0.000062
# 2 -0.001177 0.012367 -0.002555 0.000000 0.000000 -0.000062
# 3 -0.002555 -0.002555 0.006824 0.000000 0.000000 0.000000
# 4 0.000000 0.000000 0.000000 0.051583 0.000000 0.000000
# 5 0.000000 0.000000 0.000000 0.000000 0.051583 0.000000
# 6 0.000062 -0.000062 0.000000 0.000000 0.000000 0.030625
#
#
# Mechanical properties :
#
#
# Convention : Reuss Voigt Hill
#
# Bulk Modulus (GPa) = 52.67580 61.53297 57.10438
# Shear Modulus (GPa) = 27.13662 31.66422 29.40042
#
# Velocity S-wave (km/s) = 3.83218 4.13954 3.98882
# Velocity P-wave (km/s) = 6.93451 7.49317 7.21925
#
# Compressibility (1/GPa) = 0.01898405
#
# Stress axis : x y z
#
# Youngs Moduli (GPa) = 80.86004 80.86004 146.53275
#
# Poissons Ratio (x) = 0.09515 0.37443
# Poissons Ratio (y) = 0.09515 0.37443
# Poissons Ratio (z) = 0.20662 0.20662
#
# Static dielectric constant tensor:
#      x y z
#    x 1.655600 0.000000 0.000000 
#    y 0.000000 1.655600 0.000000 
#    z 0.000000 0.000000 1.680460 
# 
# From -- ./inp_files/3132.got.cif
#   From: 2010.05.17/outbox.ucp.g08.bks.cvg/sg82_2_cif.got.tgz:3132.got - 2010.06.11 10:34:38.
