data_PCOD9543031
_publ_section_title
;
Structure prediction by ZEFSAII (Michael W. Deem and Ramdas Pophale) SiO2 
 PCOD9543031
Probable space group: I -4 
;
_chemical_formula_sum "Si O2"
_cell_formula_units_Z 48
_cell_length_a 19.350599
_cell_length_b 19.350599
_cell_length_c 6.314214
_cell_angle_alpha 90.000000
_cell_angle_beta 90.000000
_cell_angle_gamma 90.000000
_cell_volume 2364.330165
_symmetry_space_group_name_H-M "I -4 "
_symmetry_group_IT_number 82
_symmetry_cell_setting 'tetragonal'
loop_
_space_group_symop_operation_xyz
x,y,z
y,-x,-z
-x,-y,z
-y,x,-z
1/2+x,1/2+y,1/2+z
1/2+y,1/2-x,1/2-z
1/2-x,1/2-y,1/2+z
1/2-y,1/2+x,1/2-z
loop_
_atom_site_type_symbol
_atom_site_label
_atom_site_fract_x
_atom_site_fract_y
_atom_site_fract_z
Si Si1 0.948604 0.737613 0.054069
Si Si2 0.420046 0.761829 0.820724
Si Si3 0.806533 0.177325 0.076238
Si Si4 0.161597 0.729575 0.721102
Si Si5 0.347948 0.879620 0.600902
Si Si6 0.520731 0.886705 0.228422
O O1 0.892309 0.709448 0.223041
O O2 0.011207 0.763194 0.201365
O O3 0.904190 0.791627 0.916253
O O4 0.972290 0.674942 0.899163
O O5 0.358523 0.710156 0.746628
O O6 0.406845 0.837771 0.722082
O O7 0.405192 0.771228 0.069887
O O8 0.733044 0.217119 0.097750
O O9 0.837952 0.199968 0.851641
O O10 0.165378 0.669201 0.898597
O O11 0.362815 0.954146 0.502420
O O12 0.447106 0.923769 0.219239
#
# Coordination Sequence:
#
# PCOD9543031 Si02
#       6
#     8   8   8   8   8   8
#     4  12  25  40  62  94 126 169 211 259 330 373
#     4  11  24  40  61  93 126 160 215 261 317 381
#     4  11  21  37  65  89 120 160 209 269 314 374
#     4  11  20  39  60  91 120 164 207 262 321 361
#     4  11  22  35  60  85 125 166 202 260 296 375
#     4  11  24  39  57  85 128 178 216 245 298 379
#
# _framework density 20.301735000000001
#
# number of rings (size 3 to 8) (size 9 to 14) (size 15 to 20)
#    0.000    0.833    6.667    1.000    4.667    0.000 
#    0.000    1.667    0.000    0.500    0.000    0.000 
#    0.000    0.000    0.000    0.000    0.000    0.000 
#
# Total GULP energy -133920.411009 kJ/mol
# GULP energy per Si atom -5580.017125 kJ/mol
# Density = 2.025553 g / cm^3
# Si number density = 20.301735 Si / 1000 Ang^3
#
#
#
# Elastic Constant Matrix: (Units=GPa)
#
#
# Indices 1 2 3 4 5 6 
#
# 1 64.2676 26.7606 20.6985 0.0000 0.0000 -4.9144
# 2 26.7606 64.2676 20.6985 0.0000 0.0000 4.9144
# 3 20.6985 20.6985 87.6411 0.0000 0.0000 0.0000
# 4 0.0000 0.0000 0.0000 29.2352 0.0000 0.0000
# 5 0.0000 0.0000 0.0000 0.0000 29.2352 0.0000
# 6 -4.9144 4.9144 0.0000 0.0000 0.0000 30.7263
#
#
#
# Elastic Compliance Matrix: (Units=1/GPa)
#
#
# Indices 1 2 3 4 5 6 
#
# 1 0.020068 -0.007760 -0.002907 0.000000 0.000000 0.004451
# 2 -0.007760 0.020068 -0.002907 0.000000 0.000000 -0.004451
# 3 -0.002907 -0.002907 0.012783 0.000000 0.000000 0.000000
# 4 0.000000 0.000000 0.000000 0.034205 0.000000 0.000000
# 5 0.000000 0.000000 0.000000 0.000000 0.034205 0.000000
# 6 0.004451 -0.004451 0.000000 0.000000 0.000000 0.033969
#
#
# Mechanical properties :
#
#
# Convention : Reuss Voigt Hill
#
# Bulk Modulus (GPa) = 38.80284 39.16573 38.98428
# Shear Modulus (GPa) = 26.17301 27.70723 26.94012
#
# Velocity S-wave (km/s) = 3.59444 3.69829 3.64673
# Velocity P-wave (km/s) = 6.03168 6.12945 6.08076
#
# Compressibility (1/GPa) = 0.02577131
#
# Stress axis : x y z
#
# Youngs Moduli (GPa) = 49.83111 49.83111 78.22799
#
# Poissons Ratio (x) = 0.38670 0.22739
# Poissons Ratio (y) = 0.38670 0.22739
# Poissons Ratio (z) = 0.14484 0.14484
#
# Static dielectric constant tensor:
#      x y z
#    x 1.776640 0.000000 0.000000 
#    y 0.000000 1.776640 0.000000 
#    z 0.000000 0.000000 1.803110 
# 
# From -- ./inp_files/341.got.cif
#   From: 2010.05.17/outbox.cif.g08.bks.cpg/sg82_1_cif.got.tgz:341.got - 2010.06.03 18:52:26.
