data_PCOD9543200
_publ_section_title
;
Structure prediction by ZEFSAII (Michael W. Deem and Ramdas Pophale) SiO2 
 PCOD9543200
Probable space group: I -4 
;
_chemical_formula_sum "Si O2"
_cell_formula_units_Z 24
_cell_length_a 10.645697
_cell_length_b 10.645697
_cell_length_c 8.017634
_cell_angle_alpha 90.000000
_cell_angle_beta 90.000000
_cell_angle_gamma 90.000000
_cell_volume 908.645393
_symmetry_space_group_name_H-M "I -4 "
_symmetry_group_IT_number 82
_symmetry_cell_setting 'tetragonal'
loop_
_space_group_symop_operation_xyz
x,y,z
y,-x,-z
-x,-y,z
-y,x,-z
1/2+x,1/2+y,1/2+z
1/2+y,1/2-x,1/2-z
1/2-x,1/2-y,1/2+z
1/2-y,1/2+x,1/2-z
loop_
_atom_site_type_symbol
_atom_site_label
_atom_site_fract_x
_atom_site_fract_y
_atom_site_fract_z
Si Si1 0.500000 0.000000 0.750000
Si Si2 0.600068 0.744643 0.590969
Si Si3 0.750306 0.109304 0.308336
Si Si4 0.000000 0.000000 0.284216
Si Si5 0.000000 0.500000 0.750000
O O1 0.466596 0.129589 0.654981
O O2 0.746333 0.745196 0.642035
O O3 0.594935 0.740874 0.391544
O O4 0.536860 0.622610 0.674360
O O5 0.872127 0.040043 0.376396
O O6 0.622391 0.038537 0.354669
#
# Coordination Sequence:
#
# PCOD9543200 Si02
#       5
#     2   8   8   4   2
#     4  12  26  44  72 106 142 180 232 290 346 412
#     4  12  26  46  72 104 141 185 232 287 348 413
#     4  12  26  46  72 104 141 185 232 287 348 413
#     4  12  25  48  73  98 141 192 229 278 353 420
#     4  12  26  44  72 106 142 180 232 290 346 412
#
# _framework density 26.412944
#
# number of rings (size 3 to 8) (size 9 to 14) (size 15 to 20)
#    0.000    0.000    6.667    4.000    0.000    2.667 
#    0.000    1.667    0.000    0.000    0.000    0.000 
#    0.000    0.000    0.000    0.000    0.000    0.000 
#
# Total GULP energy -67453.722829 kJ/mol
# GULP energy per Si atom -5621.143569 kJ/mol
# Density = 2.635283 g / cm^3
# Si number density = 26.412944 Si / 1000 Ang^3
#
#
#
# Elastic Constant Matrix: (Units=GPa)
#
#
# Indices 1 2 3 4 5 6 
#
# 1 263.4608 105.3270 47.0977 0.0000 0.0000 3.6619
# 2 105.3270 263.4608 47.0977 0.0000 0.0000 -3.6619
# 3 47.0977 47.0977 75.1598 0.0000 0.0000 0.0000
# 4 0.0000 0.0000 0.0000 43.2566 0.0000 0.0000
# 5 0.0000 0.0000 0.0000 0.0000 43.2566 0.0000
# 6 3.6619 -3.6619 0.0000 0.0000 0.0000 70.2352
#
#
#
# Elastic Compliance Matrix: (Units=1/GPa)
#
#
# Indices 1 2 3 4 5 6 
#
# 1 0.004784 -0.001555 -0.002023 0.000000 0.000000 -0.000331
# 2 -0.001555 0.004784 -0.002023 0.000000 0.000000 0.000331
# 3 -0.002023 -0.002023 0.015840 0.000000 0.000000 0.000000
# 4 0.000000 0.000000 0.000000 0.023118 0.000000 0.000000
# 5 0.000000 0.000000 0.000000 0.000000 0.023118 0.000000
# 6 -0.000331 0.000331 0.000000 0.000000 0.000000 0.014272
#
#
# Mechanical properties :
#
#
# Convention : Reuss Voigt Hill
#
# Bulk Modulus (GPa) = 70.39750 111.23624 90.81687
# Shear Modulus (GPa) = 49.09018 58.18694 53.63856
#
# Velocity S-wave (km/s) = 4.31579 4.69867 4.51129
# Velocity P-wave (km/s) = 7.17950 8.46418 7.84817
#
# Compressibility (1/GPa) = 0.01420505
#
# Stress axis : x y z
#
# Youngs Moduli (GPa) = 209.04427 209.04427 63.13013
#
# Poissons Ratio (x) = 0.32515 0.12771
# Poissons Ratio (y) = 0.32515 0.12771
# Poissons Ratio (z) = 0.42289 0.42289
#
# Static dielectric constant tensor:
#      x y z
#    x 2.019890 0.000000 0.000000 
#    y 0.000000 2.019890 0.000000 
#    z 0.000000 0.000000 2.028770 
# 
# From -- ./inp_files/624.got.cif
#   From: 2010.05.17/outbox.cif.g08.bks.cpg/sg82_1_cif.got.tgz:624.got - 2010.06.03 18:52:26.
