data_PCOD9543353
_publ_section_title
;
Structure prediction by ZEFSAII (Michael W. Deem and Ramdas Pophale) SiO2 
 PCOD9543353
Probable space group: P 4/M
;
_chemical_formula_sum "Si O2"
_cell_formula_units_Z 40
_cell_length_a 14.475645
_cell_length_b 14.475645
_cell_length_c 10.535803
_cell_angle_alpha 90.000000
_cell_angle_beta 90.000000
_cell_angle_gamma 90.000000
_cell_volume 2207.717445
_symmetry_space_group_name_H-M "P 4/M"
_symmetry_group_IT_number 83
_symmetry_cell_setting 'tetragonal'
loop_
_space_group_symop_operation_xyz
x,y,z
-y,x,z
-x,-y,z
y,-x,z
-x,-y,-z
y,-x,-z
x,y,-z
-y,x,-z
loop_
_atom_site_type_symbol
_atom_site_label
_atom_site_fract_x
_atom_site_fract_y
_atom_site_fract_z
Si Si1 0.293570 0.881680 0.142470
Si Si2 0.422938 0.255527 0.266085
Si Si3 0.369081 0.747278 0.357426
Si Si4 0.593800 0.940548 0.148575
Si Si5 0.441667 0.356454 0.000000
Si Si6 0.121969 0.905511 0.000000
O O1 0.332705 0.816671 0.249738
O O2 0.323554 0.986778 0.168415
O O3 0.333474 0.859757 0.000000
O O4 0.183909 0.872636 0.119068
O O5 0.344558 0.307549 0.344868
O O6 0.523608 0.270867 0.326172
O O7 0.405788 0.147002 0.240644
O O8 0.420769 0.300904 0.126732
O O9 0.361336 0.784871 0.500000
O O10 0.500000 0.000000 0.165817
O O11 0.596516 0.910854 0.000000
O O12 0.549162 0.383964 0.000000
O O13 0.016971 0.875360 0.000000
#
# Coordination Sequence:
#
# PCOD9543353 Si02
#       6
#     8   8   8   8   4   4
#     4   9  22  38  64  92 124 159 206 256 307 368
#     4  12  24  39  65  89 127 164 207 263 315 376
#     4  12  27  44  59  87 128 171 214 256 314 376
#     4  10  19  34  61  97 124 149 196 257 316 359
#     4  11  22  35  56  95 121 157 200 255 302 360
#     4   9  20  37  66 103 133 156 198 261 327 377
#
# _framework density 18.118261
#
# number of rings (size 3 to 8) (size 9 to 14) (size 15 to 20)
#    0.600    0.800    5.000    0.600    5.600    0.400 
#    0.000    4.000    0.000    0.000    0.000    1.400 
#    0.000    0.000    0.000    0.000    0.000    0.000 
#
# Total GULP energy -223236.735447 kJ/mol
# GULP energy per Si atom -5580.918386 kJ/mol
# Density = 1.807702 g / cm^3
# Si number density = 18.118261 Si / 1000 Ang^3
#
#
#
# Elastic Constant Matrix: (Units=GPa)
#
#
# Indices 1 2 3 4 5 6 
#
# 1 65.7914 -1.0241 20.3713 0.0000 0.0000 -0.2362
# 2 -1.0241 65.7914 20.3713 0.0000 0.0000 0.2362
# 3 20.3713 20.3713 88.4436 0.0000 0.0000 0.0000
# 4 0.0000 0.0000 0.0000 -7.1610 0.0000 0.0000
# 5 0.0000 0.0000 0.0000 0.0000 -7.1610 0.0000
# 6 -0.2362 0.2362 0.0000 0.0000 0.0000 29.4357
#
#
#
# Elastic Compliance Matrix: (Units=1/GPa)
#
#
# Indices 1 2 3 4 5 6 
#
# 1 0.016512 0.001544 -0.004159 0.000000 0.000000 0.000120
# 2 0.001544 0.016512 -0.004159 0.000000 0.000000 -0.000120
# 3 -0.004159 -0.004159 0.013222 0.000000 0.000000 0.000000
# 4 0.000000 0.000000 0.000000 -0.139645 0.000000 0.000000
# 5 0.000000 0.000000 0.000000 0.000000 -0.139645 0.000000
# 6 0.000120 -0.000120 0.000000 0.000000 0.000000 0.033974
#
#
# Mechanical properties :
#
#
# Convention : Reuss Voigt Hill
#
# Bulk Modulus (GPa) = 30.58183 33.27371 31.92777
# Shear Modulus (GPa) = -28.63304 15.04327 -6.79488
#
# Velocity S-wave (km/s) = -3.97966 2.88459 -1.93867
# Velocity P-wave (km/s) = 2.04971 5.43130 3.55653
#
# Compressibility (1/GPa) = 0.03269915
#
# Stress axis : x y z
#
# Youngs Moduli (GPa) = 60.56287 60.56287 75.62877
#
# Poissons Ratio (x) = -0.09353 0.31453
# Poissons Ratio (y) = -0.09353 0.31453
# Poissons Ratio (z) = 0.25187 0.25187
#
# Static dielectric constant tensor:
#      x y z
#    x 1.634990 0.000000 0.000000 
#    y 0.000000 1.634990 0.000000 
#    z 0.000000 0.000000 1.593850 
# 
# From -- ./inp_files/757.got.cif
#   From: 2010.05.17/outbox.cif.g08.bks.cpg/sg83_1_cif.got.tgz:757.got - 2010.06.03 18:55:12.
