data_PCOD9543588
_publ_section_title
;
Structure prediction by ZEFSAII (Michael W. Deem and Ramdas Pophale) SiO2 
 PCOD9543588
Probable space group: P 4/M
;
_chemical_formula_sum "Si O2"
_cell_formula_units_Z 48
_cell_length_a 10.328663
_cell_length_b 10.328663
_cell_length_c 18.943901
_cell_angle_alpha 90.000000
_cell_angle_beta 90.000000
_cell_angle_gamma 90.000000
_cell_volume 2020.959595
_symmetry_space_group_name_H-M "P 4/M"
_symmetry_group_IT_number 83
_symmetry_cell_setting 'tetragonal'
loop_
_space_group_symop_operation_xyz
x,y,z
-y,x,z
-x,-y,z
y,-x,z
-x,-y,-z
y,-x,-z
x,y,-z
-y,x,-z
loop_
_atom_site_type_symbol
_atom_site_label
_atom_site_fract_x
_atom_site_fract_y
_atom_site_fract_z
Si Si1 0.948035 0.646993 0.580452
Si Si2 0.012794 0.783973 0.282380
Si Si3 0.718852 0.485868 0.079332
Si Si4 0.386908 0.855475 0.804859
Si Si5 0.590585 0.305086 0.337019
Si Si6 0.818651 0.118933 0.921791
O O1 0.959054 0.691060 0.500000
O O2 0.019974 0.736445 0.637109
O O3 0.800798 0.639632 0.607860
O O4 0.000000 0.500000 0.585189
O O5 0.988779 0.654387 0.235720
O O6 0.129875 0.882723 0.270193
O O7 0.628453 0.613921 0.085592
O O8 0.826403 0.495582 0.140587
O O9 0.774734 0.477647 0.000000
O O10 0.394566 0.752468 0.741672
O O11 0.267857 0.837238 0.858234
O O12 0.665776 0.438868 0.346005
O O13 0.963717 0.171107 0.917143
O O14 0.768371 0.151150 0.000000
#
# Coordination Sequence:
#
# PCOD9543588 Si02
#       6
#     8   8   8   8   8   8
#     4  10  24  43  69 100 130 159 201 258 312 366
#     4  10  23  42  63  91 128 169 212 254 308 379
#     4   9  18  33  53  79 114 159 215 276 332 384
#     4  11  19  31  57  87 115 159 212 267 313 362
#     4  10  23  42  63  91 128 169 212 254 308 379
#     4   9  18  33  53  79 114 159 215 276 332 384
#
# _framework density 23.751092
#
# number of rings (size 3 to 8) (size 9 to 14) (size 15 to 20)
#    0.000    2.167    0.000    3.500    4.667    4.000 
#    0.000    1.667    0.000    0.000    0.000    9.333 
#    0.000    0.000    0.000    0.000    0.000    0.000 
#
# Total GULP energy -268379.772127 kJ/mol
# GULP energy per Si atom -5591.245253 kJ/mol
# Density = 2.369703 g / cm^3
# Si number density = 23.751092 Si / 1000 Ang^3
#
#
#
# Elastic Constant Matrix: (Units=GPa)
#
#
# Indices 1 2 3 4 5 6 
#
# 1 44.3648 11.4153 25.5131 0.0000 0.0000 0.2704
# 2 11.4153 44.3648 25.5131 0.0000 0.0000 -0.2704
# 3 25.5131 25.5131 145.8402 0.0000 0.0000 0.0000
# 4 0.0000 0.0000 0.0000 20.9544 0.0000 0.0000
# 5 0.0000 0.0000 0.0000 0.0000 20.9544 0.0000
# 6 0.2704 -0.2704 0.0000 0.0000 0.0000 36.5984
#
#
#
# Elastic Compliance Matrix: (Units=1/GPa)
#
#
# Indices 1 2 3 4 5 6 
#
# 1 0.025848 -0.004505 -0.003734 0.000000 0.000000 -0.000224
# 2 -0.004505 0.025848 -0.003734 0.000000 0.000000 0.000224
# 3 -0.003734 -0.003734 0.008163 0.000000 0.000000 0.000000
# 4 0.000000 0.000000 0.000000 0.047723 0.000000 0.000000
# 5 0.000000 0.000000 0.000000 0.000000 0.047723 0.000000
# 6 -0.000224 0.000224 0.000000 0.000000 0.000000 0.027327
#
#
# Mechanical properties :
#
#
# Convention : Reuss Voigt Hill
#
# Bulk Modulus (GPa) = 27.84399 39.93921 33.89160
# Shear Modulus (GPa) = 22.87824 27.17664 25.02744
#
# Velocity S-wave (km/s) = 3.10699 3.38631 3.24966
# Velocity P-wave (km/s) = 4.96185 5.66937 5.32736
#
# Compressibility (1/GPa) = 0.03591439
#
# Stress axis : x y z
#
# Youngs Moduli (GPa) = 38.68750 38.68750 122.50140
#
# Poissons Ratio (x) = 0.17429 0.45739
# Poissons Ratio (y) = 0.17429 0.45739
# Poissons Ratio (z) = 0.14445 0.14445
#
# Static dielectric constant tensor:
#      x y z
#    x 1.930900 0.000000 0.000000 
#    y 0.000000 1.930900 0.000000 
#    z 0.000000 0.000000 1.872100 
# 
# From -- ./inp_files/2642.got.cif
#   From: 2010.05.17/outbox.cif.g08.bks.cpg/sg83_2_cif.got.tgz:2642.got - 2010.06.03 18:55:12.
