data_PCOD9543614
_publ_section_title
;
Structure prediction by ZEFSAII (Michael W. Deem and Ramdas Pophale) SiO2 
 PCOD9543614
Probable space group: P 4/M
;
_chemical_formula_sum "Si O2"
_cell_formula_units_Z 48
_cell_length_a 13.525605
_cell_length_b 13.525605
_cell_length_c 13.115251
_cell_angle_alpha 90.000000
_cell_angle_beta 90.000000
_cell_angle_gamma 90.000000
_cell_volume 2399.330125
_symmetry_space_group_name_H-M "P 4/M"
_symmetry_group_IT_number 83
_symmetry_cell_setting 'tetragonal'
loop_
_space_group_symop_operation_xyz
x,y,z
-y,x,z
-x,-y,z
y,-x,z
-x,-y,-z
y,-x,-z
x,y,-z
-y,x,-z
loop_
_atom_site_type_symbol
_atom_site_label
_atom_site_fract_x
_atom_site_fract_y
_atom_site_fract_z
Si Si1 0.134194 0.098375 0.117124
Si Si2 0.529246 0.335612 0.500000
Si Si3 0.114689 0.880613 0.500000
Si Si4 0.462362 0.662418 0.883772
Si Si5 0.252460 0.167157 0.310290
Si Si6 0.014781 0.382941 0.619000
Si Si7 0.385446 0.768280 0.307119
O O1 0.203120 0.146642 0.201226
O O2 0.020523 0.132642 0.130796
O O3 0.162806 0.119646 0.000000
O O4 0.610403 0.423798 0.500000
O O5 0.547942 0.269102 0.400768
O O6 0.156178 0.829050 0.399458
O O7 0.996747 0.866981 0.500000
O O8 0.386235 0.570576 0.871400
O O9 0.437881 0.742021 0.798415
O O10 0.453869 0.699045 0.000000
O O11 0.287741 0.279988 0.313101
O O12 0.330947 0.081788 0.335110
O O13 0.026356 0.353865 0.500000
O O14 0.116036 0.362120 0.678804
O O15 0.000000 0.500000 0.621637
#
# Coordination Sequence:
#
# PCOD9543614 Si02
#       7
#     8   4   4   8   8   8   8
#     4   9  18  35  59  85 116 152 198 261 317 357
#     4  11  25  40  63  97 126 153 209 283 333 380
#     4  11  21  34  57  84 117 150 201 272 316 353
#     4   9  20  41  70 100 128 161 211 275 334 390
#     4  12  24  37  60  87 121 166 215 255 302 389
#     4  11  26  43  60  87 133 176 212 258 327 392
#     4  12  24  39  68  92 128 175 218 262 325 396
#
# _framework density 20.005585
#
# number of rings (size 3 to 8) (size 9 to 14) (size 15 to 20)
#    0.000    1.333    1.667    5.500    4.667    3.333 
#    0.000    0.833    0.000    1.000    0.000    0.000 
#    0.000    0.000    0.000    0.000    0.000    0.000 
#
# Total GULP energy -268492.057254 kJ/mol
# GULP energy per Si atom -5593.584526 kJ/mol
# Density = 1.996005 g / cm^3
# Si number density = 20.005585 Si / 1000 Ang^3
#
#
#
# Elastic Constant Matrix: (Units=GPa)
#
#
# Indices 1 2 3 4 5 6 
#
# 1 56.7895 -4.2811 24.2715 0.0000 0.0000 -0.5492
# 2 -4.2811 56.7895 24.2715 0.0000 0.0000 0.5492
# 3 24.2715 24.2715 115.3754 0.0000 0.0000 0.0000
# 4 0.0000 0.0000 0.0000 28.2922 0.0000 0.0000
# 5 0.0000 0.0000 0.0000 0.0000 28.2922 0.0000
# 6 -0.5492 0.5492 0.0000 0.0000 0.0000 24.3565
#
#
#
# Elastic Compliance Matrix: (Units=1/GPa)
#
#
# Indices 1 2 3 4 5 6 
#
# 1 0.020012 0.003631 -0.004974 0.000000 0.000000 0.000369
# 2 0.003631 0.020012 -0.004974 0.000000 0.000000 -0.000369
# 3 -0.004974 -0.004974 0.010760 0.000000 0.000000 0.000000
# 4 0.000000 0.000000 0.000000 0.035345 0.000000 0.000000
# 5 0.000000 0.000000 0.000000 0.000000 0.035345 0.000000
# 6 0.000369 -0.000369 0.000000 0.000000 0.000000 0.041074
#
#
# Mechanical properties :
#
#
# Convention : Reuss Voigt Hill
#
# Bulk Modulus (GPa) = 26.21195 35.27533 30.74364
# Shear Modulus (GPa) = 26.61013 28.50100 27.55556
#
# Velocity S-wave (km/s) = 3.65106 3.77855 3.71535
# Velocity P-wave (km/s) = 5.55917 6.05868 5.81429
#
# Compressibility (1/GPa) = 0.03815053
#
# Stress axis : x y z
#
# Youngs Moduli (GPa) = 49.97026 49.97026 92.93695
#
# Poissons Ratio (x) = -0.18143 0.46224
# Poissons Ratio (y) = -0.18143 0.46224
# Poissons Ratio (z) = 0.24854 0.24854
#
# Static dielectric constant tensor:
#      x y z
#    x 1.716570 0.000000 0.000000 
#    y 0.000000 1.716570 0.000000 
#    z 0.000000 0.000000 1.669940 
# 
# From -- ./inp_files/1857.got.cif
#   From: 2010.05.17/outbox.cif.g08.bks.cpg/sg83_1_cif.got.tgz:1857.got - 2010.06.03 18:55:12.
