data_PCOD9543467
_publ_section_title
;
Structure prediction by ZEFSAII (Michael W. Deem and Ramdas Pophale) SiO2 
 PCOD9543467
Probable space group: P 4/M
;
_chemical_formula_sum "Si O2"
_cell_formula_units_Z 48
_cell_length_a 15.163785
_cell_length_b 15.163785
_cell_length_c 10.994621
_cell_angle_alpha 90.000000
_cell_angle_beta 90.000000
_cell_angle_gamma 90.000000
_cell_volume 2528.107282
_symmetry_space_group_name_H-M "P 4/M"
_symmetry_group_IT_number 83
_symmetry_cell_setting 'tetragonal'
loop_
_space_group_symop_operation_xyz
x,y,z
-y,x,z
-x,-y,z
y,-x,z
-x,-y,-z
y,-x,-z
x,y,-z
-y,x,-z
loop_
_atom_site_type_symbol
_atom_site_label
_atom_site_fract_x
_atom_site_fract_y
_atom_site_fract_z
Si Si1 0.184547 0.575088 0.246495
Si Si2 0.099119 0.896971 0.148217
Si Si3 0.112749 0.400389 0.859072
Si Si4 0.605623 0.989396 0.366771
Si Si5 0.244127 0.758083 0.143827
Si Si6 0.493285 0.358736 0.645969
O O1 0.134272 0.504045 0.160960
O O2 0.113456 0.616153 0.338621
O O3 0.230124 0.658853 0.185968
O O4 0.260179 0.518420 0.310374
O O5 0.169277 0.825338 0.193342
O O6 0.997734 0.878421 0.184354
O O7 0.100735 0.896356 0.000000
O O8 0.198668 0.339827 0.836611
O O9 0.044294 0.370252 0.754315
O O10 0.084035 0.385947 0.000000
O O11 0.642369 0.015173 0.500000
O O12 0.500000 0.000000 0.374973
O O13 0.231022 0.757071 0.000000
O O14 0.580818 0.410511 0.686303
O O15 0.494005 0.359120 0.500000
#
# Coordination Sequence:
#
# PCOD9543467 Si02
#       6
#     8   8   8   8   8   8
#     4  11  20  33  54  79 112 148 184 228 285 341
#     4   8  15  29  49  72  99 133 175 229 280 321
#     4  10  22  38  55  80 115 150 189 233 282 337
#     4   9  20  37  56  78 108 148 189 231 281 338
#     4  10  21  33  51  81 111 146 190 232 277 338
#     4   9  18  33  54  79 106 140 186 238 282 325
#
# _framework density 18.986536000000001
#
# number of rings (size 3 to 8) (size 9 to 14) (size 15 to 20)
#    0.000    2.500    0.000    3.000    2.333    4.333 
#    0.000    1.667    0.000    0.000    0.000    7.000 
#    0.000    1.333    0.000    0.000    0.000    0.000 
#
# Total GULP energy -267317.437757 kJ/mol
# GULP energy per Si atom -5569.113287 kJ/mol
# Density = 1.894332 g / cm^3
# Si number density = 18.986536 Si / 1000 Ang^3
#
#
#
# Elastic Constant Matrix: (Units=GPa)
#
#
# Indices 1 2 3 4 5 6 
#
# 1 65.8595 6.4936 32.3052 0.0000 0.0000 -7.5760
# 2 6.4936 65.8595 32.3052 0.0000 0.0000 7.5760
# 3 32.3052 32.3052 84.1683 0.0000 0.0000 0.0000
# 4 0.0000 0.0000 0.0000 4.1002 0.0000 0.0000
# 5 0.0000 0.0000 0.0000 0.0000 4.1002 0.0000
# 6 -7.5760 7.5760 0.0000 0.0000 0.0000 28.5431
#
#
#
# Elastic Compliance Matrix: (Units=1/GPa)
#
#
# Indices 1 2 3 4 5 6 
#
# 1 0.019549 0.001480 -0.008071 0.000000 0.000000 0.004796
# 2 0.001480 0.019549 -0.008071 0.000000 0.000000 -0.004796
# 3 -0.008071 -0.008071 0.018077 0.000000 0.000000 0.000000
# 4 0.000000 0.000000 0.000000 0.243890 0.000000 0.000000
# 5 0.000000 0.000000 0.000000 0.000000 0.243890 0.000000
# 6 0.004796 -0.004796 0.000000 0.000000 0.000000 0.037581
#
#
# Mechanical properties :
#
#
# Convention : Reuss Voigt Hill
#
# Bulk Modulus (GPa) = 35.90766 39.78836 37.84801
# Shear Modulus (GPa) = 8.04968 17.00093 12.52531
#
# Velocity S-wave (km/s) = 2.06128 2.99560 2.57124
# Velocity P-wave (km/s) = 4.96169 5.74164 5.36586
#
# Compressibility (1/GPa) = 0.02784921
#
# Stress axis : x y z
#
# Youngs Moduli (GPa) = 51.15456 51.15456 55.32017
#
# Poissons Ratio (x) = -0.07570 0.44649
# Poissons Ratio (y) = -0.07570 0.44649
# Poissons Ratio (z) = 0.41287 0.41287
#
# Static dielectric constant tensor:
#      x y z
#    x 1.696770 0.000000 0.000000 
#    y 0.000000 1.696770 0.000000 
#    z 0.000000 0.000000 1.666450 
# 
# From -- ./inp_files/1847.got.cif
#   From: 2010.05.17/outbox.cif.g08.bks.cpg/sg83_1_cif.got.tgz:1847.got - 2010.06.03 18:55:12.
