data_PCOD9543252
_publ_section_title
;
Structure prediction by ZEFSAII (Michael W. Deem and Ramdas Pophale) SiO2 
 PCOD9543252
Probable space group: P 4/M
;
_chemical_formula_sum "Si O2"
_cell_formula_units_Z 64
_cell_length_a 20.016298
_cell_length_b 20.016298
_cell_length_c 7.386579
_cell_angle_alpha 90.000000
_cell_angle_beta 90.000000
_cell_angle_gamma 90.000000
_cell_volume 2959.449021
_symmetry_space_group_name_H-M "P 4/M"
_symmetry_group_IT_number 83
_symmetry_cell_setting 'tetragonal'
loop_
_space_group_symop_operation_xyz
x,y,z
-y,x,z
-x,-y,z
y,-x,z
-x,-y,-z
y,-x,-z
x,y,-z
-y,x,-z
loop_
_atom_site_type_symbol
_atom_site_label
_atom_site_fract_x
_atom_site_fract_y
_atom_site_fract_z
Si Si1 0.021069 0.647735 0.783294
Si Si2 0.157147 0.879002 0.282959
Si Si3 0.281979 0.781985 0.784132
Si Si4 0.556136 0.591724 0.220470
Si Si5 0.553389 0.858745 0.778741
Si Si6 0.804044 0.974155 0.284093
Si Si7 0.274350 0.630341 0.221535
Si Si8 0.124532 0.400326 0.221621
O O1 0.078706 0.598113 0.717533
O O2 0.035479 0.725130 0.745498
O O3 0.947645 0.626839 0.718188
O O4 0.019584 0.640695 0.000000
O O5 0.151237 0.884111 0.500000
O O6 0.218754 0.829512 0.247829
O O7 0.088501 0.846471 0.213511
O O8 0.173676 0.953225 0.213330
O O9 0.271317 0.706996 0.716354
O O10 0.348691 0.818750 0.716919
O O11 0.289732 0.776187 0.000000
O O12 0.478503 0.589153 0.276000
O O13 0.595252 0.657124 0.279901
O O14 0.556520 0.592133 0.000000
O O15 0.588346 0.790149 0.721917
O O16 0.476525 0.864413 0.721991
O O17 0.553289 0.859526 0.000000
O O18 0.813969 0.975632 0.500000
O O19 0.273962 0.630419 0.000000
O O20 0.124658 0.399710 0.000000
#
# Coordination Sequence:
#
# PCOD9543252 Si02
#       8
#     8   8   8   8   8   8   8   8
#     4  10  18  32  52  74  99 133 168 203 245 291
#     4  10  21  37  55  75  99 129 162 199 243 294
#     4  10  19  32  50  76 102 128 165 206 248 293
#     4   8  14  23  34  51  83 127 163 191 236 294
#     4   9  17  27  42  68  99 130 167 206 244 290
#     4  10  21  36  55  76 100 130 164 201 245 296
#     4   9  17  25  39  64  95 128 161 204 247 287
#     4   9  17  28  46  70  98 131 166 204 246 292
#
# _framework density 21.625648000000002
#
# number of rings (size 3 to 8) (size 9 to 14) (size 15 to 20)
#    0.000    2.625    1.250    1.500    1.750    3.250 
#    0.000    1.250    0.000    2.250    0.000    1.750 
#    0.000    0.000    0.000    1.375    0.000    1.750 
#
# Total GULP energy -357614.544204 kJ/mol
# GULP energy per Si atom -5587.727253 kJ/mol
# Density = 2.157643 g / cm^3
# Si number density = 21.625648 Si / 1000 Ang^3
#
#
#
# Elastic Constant Matrix: (Units=GPa)
#
#
# Indices 1 2 3 4 5 6 
#
# 1 -2.3024 203.9286 -5.8017 0.0000 0.0000 8.9479
# 2 203.9286 -2.3024 -5.8017 0.0000 0.0000 -8.9479
# 3 -5.8017 -5.8017 73.2510 0.0000 0.0000 0.0000
# 4 0.0000 0.0000 0.0000 5.7940 0.0000 0.0000
# 5 0.0000 0.0000 0.0000 0.0000 5.7940 0.0000
# 6 8.9479 -8.9479 0.0000 0.0000 0.0000 43.6460
#
#
#
# Elastic Compliance Matrix: (Units=1/GPa)
#
#
# Indices 1 2 3 4 5 6 
#
# 1 0.000109 0.004873 0.000395 0.000000 0.000000 0.000977
# 2 0.004873 0.000109 0.000395 0.000000 0.000000 -0.000977
# 3 0.000395 0.000395 0.013714 0.000000 0.000000 0.000000
# 4 0.000000 0.000000 0.000000 0.172593 0.000000 0.000000
# 5 0.000000 0.000000 0.000000 0.000000 0.172593 0.000000
# 6 0.000977 -0.000977 0.000000 0.000000 0.000000 0.022511
#
#
# Mechanical properties :
#
#
# Convention : Reuss Voigt Hill
#
# Bulk Modulus (GPa) = 39.59231 50.36632 44.97932
# Shear Modulus (GPa) = 13.20226 2.80152 8.00189
#
# Velocity S-wave (km/s) = 2.47349 1.13942 1.92567
# Velocity P-wave (km/s) = 5.14833 5.00716 5.07824
#
# Compressibility (1/GPa) = 0.02525743
#
# Stress axis : x y z
#
# Youngs Moduli (GPa) = 9165.72410 9165.72410 72.91714
#
# Poissons Ratio (x) = -44.66713 -0.02877
# Poissons Ratio (y) = -44.66713 -0.02877
# Poissons Ratio (z) = -3.61695 -3.61695
#
# Static dielectric constant tensor:
#      x y z
#    x 1.737820 0.000000 0.000000 
#    y 0.000000 1.737820 0.000000 
#    z 0.000000 0.000000 1.855390 
# 
# From -- ./inp_files/2026.got.cif
#   From: 2010.05.17/outbox.cif.g08.bks.cpg/sg83_2_cif.got.tgz:2026.got - 2010.06.03 18:55:12.
