data_PCOD9543378
_publ_section_title
;
Structure prediction by ZEFSAII (Michael W. Deem and Ramdas Pophale) SiO2 
 PCOD9543378
Probable space group: P 4/M
;
_chemical_formula_sum "Si O2"
_cell_formula_units_Z 40
_cell_length_a 14.752212
_cell_length_b 14.752212
_cell_length_c 7.254182
_cell_angle_alpha 90.000000
_cell_angle_beta 90.000000
_cell_angle_gamma 90.000000
_cell_volume 1578.711371
_symmetry_space_group_name_H-M "P 4/M"
_symmetry_group_IT_number 83
_symmetry_cell_setting 'tetragonal'
loop_
_space_group_symop_operation_xyz
x,y,z
-y,x,z
-x,-y,z
y,-x,z
-x,-y,-z
y,-x,-z
x,y,-z
-y,x,-z
loop_
_atom_site_type_symbol
_atom_site_label
_atom_site_fract_x
_atom_site_fract_y
_atom_site_fract_z
Si Si1 0.317240 0.205080 0.778303
Si Si2 0.855535 0.702612 0.784641
Si Si3 0.500093 0.106384 0.776945
Si Si4 0.976475 0.856823 0.278332
Si Si5 0.410439 0.389730 0.777309
O O1 0.214348 0.220639 0.709467
O O2 0.403006 0.145754 0.712031
O O3 0.350580 0.306108 0.732306
O O4 0.313149 0.188063 0.000000
O O5 0.856210 0.599055 0.712348
O O6 0.952197 0.754101 0.775052
O O7 0.832146 0.692475 0.000000
O O8 0.500000 0.000000 0.739068
O O9 0.500523 0.120026 0.000000
O O10 0.978659 0.858155 0.500000
O O11 0.070978 0.900298 0.214413
O O12 0.513141 0.376799 0.714009
O O13 0.412711 0.393083 0.000000
#
# Coordination Sequence:
#
# PCOD9543378 Si02
#       5
#     8   8   8   8   8
#     4   9  16  26  40  63  98 135 172 209 250 310
#     4  10  20  31  53  83 106 139 184 224 264 313
#     4   9  18  30  43  66 108 148 171 208 276 331
#     4   9  20  39  59  77 102 138 175 218 278 334
#     4   8  12  18  31  51  79 117 159 202 243 285
#
# _framework density 25.337121
#
# number of rings (size 3 to 8) (size 9 to 14) (size 15 to 20)
#    0.000    3.000    0.000    2.400    2.800    5.600 
#    0.000    1.000    0.000    1.800    0.000    0.000 
#    0.000    0.000    0.000    6.200    0.000    6.000 
#
# Total GULP energy -223016.918540 kJ/mol
# GULP energy per Si atom -5575.422963 kJ/mol
# Density = 2.527945 g / cm^3
# Si number density = 25.337121 Si / 1000 Ang^3
#
#
#
# Elastic Constant Matrix: (Units=GPa)
#
#
# Indices 1 2 3 4 5 6 
#
# 1 40.1601 112.3223 1.8353 0.0000 0.0000 -33.0654
# 2 112.3223 40.1601 1.8353 0.0000 0.0000 33.0654
# 3 1.8353 1.8353 111.9305 0.0000 0.0000 0.0000
# 4 0.0000 0.0000 0.0000 33.8422 0.0000 0.0000
# 5 0.0000 0.0000 0.0000 0.0000 33.8422 0.0000
# 6 -33.0654 33.0654 0.0000 0.0000 0.0000 23.4887
#
#
#
# Elastic Compliance Matrix: (Units=1/GPa)
#
#
# Indices 1 2 3 4 5 6 
#
# 1 0.000255 0.006306 -0.000108 0.000000 0.000000 -0.008518
# 2 0.006306 0.000255 -0.000108 0.000000 0.000000 0.008518
# 3 -0.000108 -0.000108 0.008938 0.000000 0.000000 0.000000
# 4 0.000000 0.000000 0.000000 0.029549 0.000000 0.000000
# 5 0.000000 0.000000 0.000000 0.000000 0.029549 0.000000
# 6 -0.008518 0.008518 0.000000 0.000000 0.000000 0.018591
#
#
# Mechanical properties :
#
#
# Convention : Reuss Voigt Hill
#
# Bulk Modulus (GPa) = 46.23467 47.13739 46.68603
# Shear Modulus (GPa) = 60.85420 23.31846 42.08633
#
# Velocity S-wave (km/s) = 4.90611 3.03698 4.08002
# Velocity P-wave (km/s) = 7.09793 5.56257 6.37663
#
# Compressibility (1/GPa) = 0.02162879
#
# Stress axis : x y z
#
# Youngs Moduli (GPa) = 3925.52999 3925.52999 111.88633
#
# Poissons Ratio (x) = -24.75431 0.01204
# Poissons Ratio (y) = -24.75431 0.01204
# Poissons Ratio (z) = 0.42228 0.42228
#
# Static dielectric constant tensor:
#      x y z
#    x 2.006640 0.000000 0.000000 
#    y 0.000000 2.006640 0.000000 
#    z 0.000000 0.000000 2.051290 
# 
# From -- ./inp_files/669.got.cif
#   From: 2010.05.17/outbox.cif.g08.bks.cpg/sg83_1_cif.got.tgz:669.got - 2010.06.03 18:55:12.
