data_PCOD9543345
_publ_section_title
;
Structure prediction by ZEFSAII (Michael W. Deem and Ramdas Pophale) SiO2 
 PCOD9543345
Probable space group: P 4/M
;
_chemical_formula_sum "Si O2"
_cell_formula_units_Z 52
_cell_length_a 16.598846
_cell_length_b 16.598846
_cell_length_c 10.670028
_cell_angle_alpha 90.000000
_cell_angle_beta 90.000000
_cell_angle_gamma 90.000000
_cell_volume 2939.824131
_symmetry_space_group_name_H-M "P 4/M"
_symmetry_group_IT_number 83
_symmetry_cell_setting 'tetragonal'
loop_
_space_group_symop_operation_xyz
x,y,z
-y,x,z
-x,-y,z
y,-x,z
-x,-y,-z
y,-x,-z
x,y,-z
-y,x,-z
loop_
_atom_site_type_symbol
_atom_site_label
_atom_site_fract_x
_atom_site_fract_y
_atom_site_fract_z
Si Si1 0.786553 0.937036 0.733546
Si Si2 0.033612 0.869137 0.000000
Si Si3 0.835718 0.344369 0.855086
Si Si4 0.784092 0.696727 0.143461
Si Si5 0.506005 0.243833 0.856664
Si Si6 0.365541 0.514776 0.363796
Si Si7 0.117018 0.215289 0.357889
O O1 0.820667 0.952671 0.872963
O O2 0.700621 0.894379 0.758838
O O3 0.845304 0.873158 0.666570
O O4 0.784078 0.021292 0.662457
O O5 0.944076 0.905179 0.000000
O O6 0.748691 0.298663 0.843029
O O7 0.826393 0.439966 0.838060
O O8 0.861105 0.330754 0.000000
O O9 0.774988 0.600682 0.156554
O O10 0.843072 0.730077 0.249799
O O11 0.812610 0.712973 0.000000
O O12 0.482860 0.308633 0.753787
O O13 0.493951 0.272607 0.000000
O O14 0.415068 0.431594 0.359338
O O15 0.323870 0.519383 0.500000
O O16 0.136770 0.240562 0.500000
#
# Coordination Sequence:
#
# PCOD9543345 Si02
#       7
#     8   4   8   8   8   8   8
#     4  11  21  36  58  83 116 146 183 219 273 332
#     4  11  20  32  56  94 113 145 187 214 263 345
#     4   9  18  32  55  82 109 142 182 229 275 327
#     4   9  20  36  56  80 110 147 186 226 276 333
#     4  10  19  34  54  81 108 137 183 237 282 320
#     4   9  18  31  47  71 104 141 178 219 276 343
#     4  11  24  39  57  82 114 146 180 227 277 325
#
# _framework density 17.688134000000002
#
# number of rings (size 3 to 8) (size 9 to 14) (size 15 to 20)
#    0.000    2.077    2.308    1.846    2.154    2.769 
#    0.000    7.692    0.000    3.692    0.000    0.000 
#    0.000    0.000    0.000    0.000    0.000    0.000 
#
# Total GULP energy -289930.803825 kJ/mol
# GULP energy per Si atom -5575.592381 kJ/mol
# Density = 1.764788 g / cm^3
# Si number density = 17.688134 Si / 1000 Ang^3
#
#
#
# Elastic Constant Matrix: (Units=GPa)
#
#
# Indices 1 2 3 4 5 6 
#
# 1 52.1955 -13.3728 23.7256 0.0000 0.0000 -45.3994
# 2 -13.3728 52.1955 23.7256 0.0000 0.0000 45.3994
# 3 23.7256 23.7256 103.0406 0.0000 0.0000 0.0000
# 4 0.0000 0.0000 0.0000 4.9566 0.0000 0.0000
# 5 0.0000 0.0000 0.0000 0.0000 4.9566 0.0000
# 6 -45.3994 45.3994 0.0000 0.0000 0.0000 448.8923
#
#
#
# Elastic Compliance Matrix: (Units=1/GPa)
#
#
# Indices 1 2 3 4 5 6 
#
# 1 0.026791 0.009056 -0.008254 0.000000 0.000000 0.001794
# 2 0.009056 0.026791 -0.008254 0.000000 0.000000 -0.001794
# 3 -0.008254 -0.008254 0.013506 0.000000 0.000000 0.000000
# 4 0.000000 0.000000 0.000000 0.201749 0.000000 0.000000
# 5 0.000000 0.000000 0.000000 0.000000 0.201749 0.000000
# 6 0.001794 -0.001794 0.000000 0.000000 0.000000 0.002591
#
#
# Mechanical properties :
#
#
# Convention : Reuss Voigt Hill
#
# Bulk Modulus (GPa) = 19.16320 30.62093 24.89207
# Shear Modulus (GPa) = 9.89169 103.31799 56.60484
#
# Velocity S-wave (km/s) = 2.36736 7.65099 5.66313
# Velocity P-wave (km/s) = 4.28136 9.76726 7.54087
#
# Compressibility (1/GPa) = 0.05218335
#
# Stress axis : x y z
#
# Youngs Moduli (GPa) = 37.32634 37.32634 74.04190
#
# Poissons Ratio (x) = -0.33801 0.61113
# Poissons Ratio (y) = -0.33801 0.61113
# Poissons Ratio (z) = 0.30808 0.30808
#
# Static dielectric constant tensor:
#      x y z
#    x 1.608000 0.000000 0.000000 
#    y 0.000000 1.608000 0.000000 
#    z 0.000000 0.000000 1.602810 
# 
# From -- ./inp_files/967.got.cif
#   From: 2010.05.17/outbox.cif.g08.bks.cpg/sg83_1_cif.got.tgz:967.got - 2010.06.03 18:55:12.
