data_PCOD9543664
_publ_section_title
;
Structure prediction by ZEFSAII (Michael W. Deem and Ramdas Pophale) SiO2 
 PCOD9543664
Probable space group: P 4/M
;
_chemical_formula_sum "Si O2"
_cell_formula_units_Z 64
_cell_length_a 11.747717
_cell_length_b 11.747717
_cell_length_c 24.186506
_cell_angle_alpha 90.000000
_cell_angle_beta 90.000000
_cell_angle_gamma 90.000000
_cell_volume 3337.951993
_symmetry_space_group_name_H-M "P 4/M"
_symmetry_group_IT_number 83
_symmetry_cell_setting 'tetragonal'
loop_
_space_group_symop_operation_xyz
x,y,z
-y,x,z
-x,-y,z
y,-x,z
-x,-y,-z
y,-x,-z
x,y,-z
-y,x,-z
loop_
_atom_site_type_symbol
_atom_site_label
_atom_site_fract_x
_atom_site_fract_y
_atom_site_fract_z
Si Si1 0.315600 0.538863 0.600325
Si Si2 0.884019 0.427912 0.182099
Si Si3 0.946175 0.170307 0.934087
Si Si4 0.530596 0.687275 0.730834
Si Si5 0.118976 0.567978 0.938319
Si Si6 0.924465 0.390935 0.437217
Si Si7 0.185107 0.047282 0.776066
Si Si8 0.813906 0.960278 0.646822
O O1 0.370218 0.415551 0.589823
O O2 0.284997 0.540042 0.665698
O O3 0.205448 0.568622 0.566090
O O4 0.794621 0.454306 0.230077
O O5 0.829913 0.460760 0.121926
O O6 0.919410 0.294865 0.188431
O O7 0.000000 0.500000 0.188132
O O8 0.908305 0.299171 0.930149
O O9 0.072367 0.139026 0.912580
O O10 0.950947 0.154816 0.000000
O O11 0.409173 0.626415 0.740931
O O12 0.000000 0.500000 0.940510
O O13 0.172788 0.551627 0.000000
O O14 0.953658 0.356541 0.500000
O O15 0.941978 0.289201 0.394445
O O16 0.000000 0.500000 0.421983
O O17 0.219521 0.051273 0.711249
O O18 0.079229 0.133564 0.784627
O O19 0.915509 0.869669 0.638260
#
# Coordination Sequence:
#
# PCOD9543664 Si02
#       8
#     8   8   8   8   8   8   8   8
#     4   9  20  40  64  87 111 147 191 235 292 348
#     4  11  23  35  56  88 115 145 189 231 282 344
#     4   8  14  27  49  75  98 125 169 219 263 308
#     4   9  20  40  63  86 113 144 184 238 291 338
#     4   9  19  36  51  70 108 152 186 219 262 323
#     4  11  25  39  55  86 123 155 195 242 281 322
#     4   9  20  38  59  87 121 149 178 231 297 348
#     4   9  20  40  62  83 112 155 198 232 279 343
#
# _framework density 19.173434
#
# number of rings (size 3 to 8) (size 9 to 14) (size 15 to 20)
#    0.000    2.625    0.000    2.625    3.500    4.000 
#    2.250    2.500    0.000    0.000    0.000    0.875 
#    0.000    0.000    0.000    0.000    0.000    0.000 
#
# Total GULP energy -356825.185968 kJ/mol
# GULP energy per Si atom -5575.393531 kJ/mol
# Density = 1.912979 g / cm^3
# Si number density = 19.173434 Si / 1000 Ang^3
#
#
#
# Elastic Constant Matrix: (Units=GPa)
#
#
# Indices 1 2 3 4 5 6 
#
# 1 44.9348 12.0221 38.5372 0.0000 0.0000 -5.0206
# 2 12.0221 44.9348 38.5372 0.0000 0.0000 5.0206
# 3 38.5372 38.5372 97.1089 0.0000 0.0000 0.0000
# 4 0.0000 0.0000 0.0000 39.6247 0.0000 0.0000
# 5 0.0000 0.0000 0.0000 0.0000 39.6247 0.0000
# 6 -5.0206 5.0206 0.0000 0.0000 0.0000 2.4837
#
#
#
# Elastic Compliance Matrix: (Units=1/GPa)
#
#
# Indices 1 2 3 4 5 6 
#
# 1 0.058596 -0.020674 -0.015049 0.000000 0.000000 0.160239
# 2 -0.020674 0.058596 -0.015049 0.000000 0.000000 -0.160239
# 3 -0.015049 -0.015049 0.022242 0.000000 0.000000 0.000000
# 4 0.000000 0.000000 0.000000 0.025237 0.000000 0.000000
# 5 0.000000 0.000000 0.000000 0.000000 0.025237 0.000000
# 6 0.160239 -0.160239 0.000000 0.000000 0.000000 1.050455
#
#
# Mechanical properties :
#
#
# Convention : Reuss Voigt Hill
#
# Bulk Modulus (GPa) = 26.39278 40.57462 33.48370
# Shear Modulus (GPa) = 3.69130 22.87206 13.28168
#
# Velocity S-wave (km/s) = 1.38903 3.45759 2.63480
# Velocity P-wave (km/s) = 4.04570 6.09490 5.17279
#
# Compressibility (1/GPa) = 0.03788915
#
# Stress axis : x y z
#
# Youngs Moduli (GPa) = 17.06606 17.06606 44.96001
#
# Poissons Ratio (x) = 0.35283 0.67660
# Poissons Ratio (y) = 0.35283 0.67660
# Poissons Ratio (z) = 0.25683 0.25683
#
# Static dielectric constant tensor:
#      x y z
#    x 1.644220 0.000000 0.000000 
#    y 0.000000 1.644220 0.000000 
#    z 0.000000 0.000000 1.724460 
# 
# From -- ./inp_files/3227.got.cif
#   From: 2010.05.17/outbox.cif.g08.bks.cpg/sg83_2_cif.got.tgz:3227.got - 2010.06.03 18:55:12.
