data_PCOD9543703
_publ_section_title
;
Structure prediction by ZEFSAII (Michael W. Deem and Ramdas Pophale) SiO2 
 PCOD9543703
Probable space group: P 4/M
;
_chemical_formula_sum "Si O2"
_cell_formula_units_Z 48
_cell_length_a 8.154778
_cell_length_b 8.154778
_cell_length_c 32.241531
_cell_angle_alpha 90.000000
_cell_angle_beta 90.000000
_cell_angle_gamma 90.000000
_cell_volume 2144.074844
_symmetry_space_group_name_H-M "P 4/M"
_symmetry_group_IT_number 83
_symmetry_cell_setting 'tetragonal'
loop_
_space_group_symop_operation_xyz
x,y,z
-y,x,z
-x,-y,z
y,-x,z
-x,-y,-z
y,-x,-z
x,y,-z
-y,x,-z
loop_
_atom_site_type_symbol
_atom_site_label
_atom_site_fract_x
_atom_site_fract_y
_atom_site_fract_z
Si Si1 0.589506 0.236568 0.590010
Si Si2 0.262830 0.916715 0.079480
Si Si3 0.407199 0.761459 0.159142
Si Si4 0.410040 0.762029 0.251844
Si Si5 0.079486 0.263183 0.330726
Si Si6 0.582000 0.236183 0.000000
Si Si7 0.593143 0.237871 0.500000
O O1 0.699115 0.402695 0.592316
O O2 0.635609 0.124612 0.628417
O O3 0.621644 0.156895 0.544667
O O4 0.352753 0.879315 0.122554
O O5 0.101302 0.801850 0.077264
O O6 0.374259 0.865295 0.040902
O O7 0.299487 0.594687 0.155527
O O8 0.383195 0.830294 0.205522
O O9 0.300582 0.596667 0.255159
O O10 0.360276 0.879000 0.288980
O O11 0.895980 0.197002 0.331165
O O12 0.697417 0.397667 0.000000
O O13 0.699767 0.405027 0.500000
#
# Coordination Sequence:
#
# PCOD9543703 Si02
#       7
#     8   8   8   8   8   4   4
#     4   9  17  32  56  81 102 128 167 214 262 313
#     4  11  24  39  56  83 118 151 183 220 264 317
#     4   9  19  37  60  85 111 139 176 221 267 318
#     4   9  19  37  60  83 105 133 175 225 270 313
#     4  11  24  37  48  70 107 145 178 214 259 312
#     4  11  24  41  62  86 110 141 186 235 276 316
#     4   7  12  26  50  79 104 124 156 209 264 309
#
# _framework density 22.387276
#
# number of rings (size 3 to 8) (size 9 to 14) (size 15 to 20)
#    0.000    2.333    0.000    4.500    0.000   10.667 
#    0.000    5.833    0.000    4.000    0.000    0.000 
#    0.000    0.000    0.000    0.000    0.000    0.000 
#
# Total GULP energy -268764.508475 kJ/mol
# GULP energy per Si atom -5599.260593 kJ/mol
# Density = 2.233632 g / cm^3
# Si number density = 22.387276 Si / 1000 Ang^3
#
#
#
# Elastic Constant Matrix: (Units=GPa)
#
#
# Indices 1 2 3 4 5 6 
#
# 1 73.8627 53.6186 68.2844 0.0000 0.0000 -1.7055
# 2 53.6186 73.8627 68.2844 0.0000 0.0000 1.7055
# 3 68.2844 68.2844 219.4352 0.0000 0.0000 0.0000
# 4 0.0000 0.0000 0.0000 -243.2507 0.0000 0.0000
# 5 0.0000 0.0000 0.0000 0.0000 -243.2507 0.0000
# 6 -1.7055 1.7055 0.0000 0.0000 0.0000 42.4162
#
#
#
# Elastic Compliance Matrix: (Units=1/GPa)
#
#
# Indices 1 2 3 4 5 6 
#
# 1 0.030750 -0.018983 -0.003662 0.000000 0.000000 0.002000
# 2 -0.018983 0.030750 -0.003662 0.000000 0.000000 -0.002000
# 3 -0.003662 -0.003662 0.006836 0.000000 0.000000 0.000000
# 4 0.000000 0.000000 0.000000 -0.004111 0.000000 0.000000
# 5 0.000000 0.000000 0.000000 0.000000 -0.004111 0.000000
# 6 0.002000 -0.002000 0.000000 0.000000 0.000000 0.023737
#
#
# Mechanical properties :
#
#
# Convention : Reuss Voigt Hill
#
# Bulk Modulus (GPa) = 63.59983 83.05950 73.32967
# Shear Modulus (GPa) = 35.28417 -77.01883 -20.86733
#
# Velocity S-wave (km/s) = 3.97430 -5.87177 -3.05635
# Velocity P-wave (km/s) = 7.03780 2.96453 4.51344
#
# Compressibility (1/GPa) = 0.01572331
#
# Stress axis : x y z
#
# Youngs Moduli (GPa) = 32.51981 32.51981 146.28315
#
# Poissons Ratio (x) = 0.61734 0.53564
# Poissons Ratio (y) = 0.61734 0.53564
# Poissons Ratio (z) = 0.11908 0.11908
#
# Static dielectric constant tensor:
#      x y z
#    x 1.799470 0.000000 0.000000 
#    y 0.000000 1.799470 0.000000 
#    z 0.000000 0.000000 1.798430 
# 
# From -- ./inp_files/3445.got.cif
#   From: 2010.05.17/outbox.cif.g08.bks.cpg/sg83_2_cif.got.tgz:3445.got - 2010.06.03 18:55:12.
