data_PCOD9543801
_publ_section_title
;
Structure prediction by ZEFSAII (Michael W. Deem and Ramdas Pophale) SiO2 
 PCOD9543801
Probable space group: P 4/M
;
_chemical_formula_sum "Si O2"
_cell_formula_units_Z 24
_cell_length_a 7.891639
_cell_length_b 7.891639
_cell_length_c 17.212136
_cell_angle_alpha 90.000000
_cell_angle_beta 90.000000
_cell_angle_gamma 90.000000
_cell_volume 1071.936822
_symmetry_space_group_name_H-M "P 4/M"
_symmetry_group_IT_number 83
_symmetry_cell_setting 'tetragonal'
loop_
_space_group_symop_operation_xyz
x,y,z
-y,x,z
-x,-y,z
y,-x,z
-x,-y,-z
y,-x,-z
x,y,-z
-y,x,-z
loop_
_atom_site_type_symbol
_atom_site_label
_atom_site_fract_x
_atom_site_fract_y
_atom_site_fract_z
Si Si1 0.398961 0.233493 0.000000
Si Si2 0.000000 0.500000 0.712206
Si Si3 0.233642 0.395856 0.586720
Si Si4 0.096731 0.732997 0.839647
O O1 0.593687 0.289520 0.000000
O O2 0.351452 0.133488 0.922363
O O3 0.899126 0.626689 0.655391
O O4 0.876165 0.397443 0.769545
O O5 0.406596 0.290115 0.592571
O O6 0.162863 0.366751 0.500000
O O7 0.901538 0.791179 0.834311
#
# Coordination Sequence:
#
# PCOD9543801 Si02
#       4
#     4   4   8   8
#     4  11  24  43  66  89 112 146 194 239 280 335
#     4  12  21  35  58  86 116 150 194 239 283 340
#     4   9  19  36  57  82 113 150 192 238 288 338
#     4  11  24  40  59  85 119 156 191 234 290 345
#
# _framework density 22.389379999999999
#
# number of rings (size 3 to 8) (size 9 to 14) (size 15 to 20)
#    0.000    1.500    0.000    6.500    0.000    3.333 
#    0.000    3.333    0.000    0.000    0.000   14.000 
#    0.000    0.000    0.000    0.000    0.000    0.000 
#
# Total GULP energy -134326.799756 kJ/mol
# GULP energy per Si atom -5596.949990 kJ/mol
# Density = 2.233842 g / cm^3
# Si number density = 22.389380 Si / 1000 Ang^3
#
#
#
# Elastic Constant Matrix: (Units=GPa)
#
#
# Indices 1 2 3 4 5 6 
#
# 1 65.4039 5.0142 33.2742 0.0000 0.0000 -7.8427
# 2 5.0142 65.4039 33.2742 0.0000 0.0000 7.8427
# 3 33.2742 33.2742 191.7918 0.0000 0.0000 0.0000
# 4 0.0000 0.0000 0.0000 24.8816 0.0000 0.0000
# 5 0.0000 0.0000 0.0000 0.0000 24.8816 0.0000
# 6 -7.8427 7.8427 0.0000 0.0000 0.0000 28.6340
#
#
#
# Elastic Compliance Matrix: (Units=1/GPa)
#
#
# Indices 1 2 3 4 5 6 
#
# 1 0.017407 -0.000421 -0.002947 0.000000 0.000000 0.004883
# 2 -0.000421 0.017407 -0.002947 0.000000 0.000000 -0.004883
# 3 -0.002947 -0.002947 0.006237 0.000000 0.000000 0.000000
# 4 0.000000 0.000000 0.000000 0.040190 0.000000 0.000000
# 5 0.000000 0.000000 0.000000 0.000000 0.040190 0.000000
# 6 0.004883 -0.004883 0.000000 0.000000 0.000000 0.037598
#
#
# Mechanical properties :
#
#
# Convention : Reuss Voigt Hill
#
# Bulk Modulus (GPa) = 35.18573 51.74720 43.46647
# Shear Modulus (GPa) = 27.60432 32.41526 30.00979
#
# Velocity S-wave (km/s) = 3.51511 3.80912 3.66506
# Velocity P-wave (km/s) = 5.67663 6.51985 6.11280
#
# Compressibility (1/GPa) = 0.02842061
#
# Stress axis : x y z
#
# Youngs Moduli (GPa) = 57.44949 57.44949 160.34615
#
# Poissons Ratio (x) = 0.02417 0.47252
# Poissons Ratio (y) = 0.02417 0.47252
# Poissons Ratio (z) = 0.16930 0.16930
#
# Static dielectric constant tensor:
#      x y z
#    x 1.825550 0.000000 0.000000 
#    y 0.000000 1.825550 0.000000 
#    z 0.000000 0.000000 1.802330 
# 
# From -- ./inp_files/2151.got.cif
#   From: 2010.05.17/outbox.cif.g08.bks.cpg/sg83_2_cif.got.tgz:2151.got - 2010.06.03 18:55:12.
