data_PCOD9543147
_publ_section_title
;
Structure prediction by ZEFSAII (Michael W. Deem and Ramdas Pophale) SiO2 
 PCOD9543147
Probable space group: I -4 
;
_chemical_formula_sum "Si O2"
_cell_formula_units_Z 12
_cell_length_a 7.001008
_cell_length_b 7.001008
_cell_length_c 10.031954
_cell_angle_alpha 90.000000
_cell_angle_beta 90.000000
_cell_angle_gamma 90.000000
_cell_volume 491.707327
_symmetry_space_group_name_H-M "I -4 "
_symmetry_group_IT_number 82
_symmetry_cell_setting 'tetragonal'
loop_
_space_group_symop_operation_xyz
x,y,z
y,-x,-z
-x,-y,z
-y,x,-z
1/2+x,1/2+y,1/2+z
1/2+y,1/2-x,1/2-z
1/2-x,1/2-y,1/2+z
1/2-y,1/2+x,1/2-z
loop_
_atom_site_type_symbol
_atom_site_label
_atom_site_fract_x
_atom_site_fract_y
_atom_site_fract_z
Si Si1 0.666240 0.260231 0.731350
Si Si2 0.500000 0.000000 0.250000
Si Si3 0.500000 0.500000 0.500000
O O1 0.453950 0.241649 0.790155
O O2 0.818771 0.387488 0.812790
O O3 0.631412 0.369078 0.593084
#
# Coordination Sequence:
#
# PCOD9543147 Si02
#       3
#     8   2   2
#     4  11  25  47  74 109 151 187 248 307 354 444
#     4  12  20  48  76 100 154 188 232 320 348 420
#     4  12  24  48  80 110 140 204 244 288 396 418
#
# _framework density 24.404761000000001
#
# number of rings (size 3 to 8) (size 9 to 14) (size 15 to 20)
#    0.000    0.667    6.667    0.000    0.000    5.333 
#    0.000    0.000   29.333    0.000    0.000    0.000 
#    0.000    0.000    0.000    0.000    0.000    0.000 
#
# Total GULP energy -33452.835198 kJ/mol
# GULP energy per Si atom -5575.472533 kJ/mol
# Density = 2.434921 g / cm^3
# Si number density = 24.404761 Si / 1000 Ang^3
#
#
#
# Elastic Constant Matrix: (Units=GPa)
#
#
# Indices 1 2 3 4 5 6 
#
# 1 186.3248 105.2133 28.9932 0.0000 0.0000 24.2474
# 2 105.2133 186.3248 28.9932 0.0000 0.0000 -24.2474
# 3 28.9932 28.9932 73.3822 0.0000 0.0000 0.0000
# 4 0.0000 0.0000 0.0000 29.8805 0.0000 0.0000
# 5 0.0000 0.0000 0.0000 0.0000 29.8805 0.0000
# 6 24.2474 -24.2474 0.0000 0.0000 0.0000 97.5493
#
#
#
# Elastic Compliance Matrix: (Units=1/GPa)
#
#
# Indices 1 2 3 4 5 6 
#
# 1 0.009102 -0.005379 -0.001471 0.000000 0.000000 -0.003599
# 2 -0.005379 0.009102 -0.001471 0.000000 0.000000 0.003599
# 3 -0.001471 -0.001471 0.014790 0.000000 0.000000 0.000000
# 4 0.000000 0.000000 0.000000 0.033467 0.000000 0.000000
# 5 0.000000 0.000000 0.000000 0.000000 0.033467 0.000000
# 6 -0.003599 0.003599 0.000000 0.000000 0.000000 0.012041
#
#
# Mechanical properties :
#
#
# Convention : Reuss Voigt Hill
#
# Bulk Modulus (GPa) = 61.15630 85.82569 73.49099
# Shear Modulus (GPa) = 37.29712 50.31753 43.80732
#
# Velocity S-wave (km/s) = 3.91355 4.54562 4.24138
# Velocity P-wave (km/s) = 6.74795 7.92428 7.35965
#
# Compressibility (1/GPa) = 0.01635155
#
# Stress axis : x y z
#
# Youngs Moduli (GPa) = 109.86998 109.86998 67.61553
#
# Poissons Ratio (x) = 0.59100 0.09945
# Poissons Ratio (y) = 0.59100 0.09945
# Poissons Ratio (z) = 0.16160 0.16160
#
# Static dielectric constant tensor:
#      x y z
#    x 2.002590 0.000000 0.000000 
#    y 0.000000 2.002590 0.000000 
#    z 0.000000 0.000000 1.888390 
# 
# From -- ./inp_files/514.got.cif
#   From: 2010.05.17/outbox.cif.g08.bks.cpg/sg82_1_cif.got.tgz:514.got - 2010.06.03 18:52:26.
