data_PCOD9543641
_publ_section_title
;
Structure prediction by ZEFSAII (Michael W. Deem and Ramdas Pophale) SiO2 
 PCOD9543641
Probable space group: P 4/M
;
_chemical_formula_sum "Si O2"
_cell_formula_units_Z 60
_cell_length_a 11.622610
_cell_length_b 11.622610
_cell_length_c 21.592314
_cell_angle_alpha 90.000000
_cell_angle_beta 90.000000
_cell_angle_gamma 90.000000
_cell_volume 2916.799102
_symmetry_space_group_name_H-M "P 4/M"
_symmetry_group_IT_number 83
_symmetry_cell_setting 'tetragonal'
loop_
_space_group_symop_operation_xyz
x,y,z
-y,x,z
-x,-y,z
y,-x,z
-x,-y,-z
y,-x,-z
x,y,-z
-y,x,-z
loop_
_atom_site_type_symbol
_atom_site_label
_atom_site_fract_x
_atom_site_fract_y
_atom_site_fract_z
Si Si1 0.689342 0.508036 0.752676
Si Si2 0.148286 0.261802 0.071339
Si Si3 0.560744 0.319376 0.425863
Si Si4 0.109185 0.421197 0.335940
Si Si5 0.021515 0.190093 0.727564
Si Si6 0.483780 0.195222 0.119001
Si Si7 0.065024 0.731331 0.860417
Si Si8 0.321353 0.570963 0.000000
O O1 0.606699 0.616414 0.737808
O O2 0.809805 0.521627 0.717261
O O3 0.716176 0.505116 0.825612
O O4 0.160112 0.394980 0.090410
O O5 0.208636 0.185290 0.123983
O O6 0.013320 0.238561 0.080857
O O7 0.182317 0.243510 0.000000
O O8 0.640886 0.429729 0.410071
O O9 0.566054 0.305222 0.500000
O O10 0.592969 0.202444 0.390927
O O11 0.055538 0.302558 0.310775
O O12 0.000000 0.500000 0.352456
O O13 0.902280 0.122604 0.715248
O O14 0.000023 0.227132 0.799011
O O15 0.403311 0.093925 0.144219
O O16 0.413241 0.251880 0.062639
O O17 0.358911 0.437863 0.000000
#
# Coordination Sequence:
#
# PCOD9543641 Si02
#       8
#     8   8   8   8   8   8   8   4
#     4  11  24  42  64  95 134 176 225 289 360 427
#     4  12  26  42  64  92 119 157 210 282 350 427
#     4   9  20  43  76 114 159 205 241 283 341 399
#     4  12  26  39  72 109 145 186 238 297 344 400
#     4  11  26  49  70  93 134 189 237 287 349 419
#     4  12  25  39  64  90 124 160 211 274 356 434
#     4  12  25  45  68  87 122 167 220 280 348 427
#     4  11  22  38  57  82 122 166 207 253 336 448
#
# _framework density 20.570495000000001
#
# number of rings (size 3 to 8) (size 9 to 14) (size 15 to 20)
#    0.000    0.733    2.000    6.000    7.467    3.200 
#    0.000    0.667    0.000    0.000    0.000    0.933 
#    0.000    0.000    0.000    0.000    0.000    0.000 
#
# Total GULP energy -335338.222353 kJ/mol
# GULP energy per Si atom -5588.970373 kJ/mol
# Density = 2.052368 g / cm^3
# Si number density = 20.570495 Si / 1000 Ang^3
#
#
#
# Elastic Constant Matrix: (Units=GPa)
#
#
# Indices 1 2 3 4 5 6 
#
# 1 103.2120 52.8174 32.9504 0.0000 0.0000 -5.6076
# 2 52.8174 103.2120 32.9504 0.0000 0.0000 5.6076
# 3 32.9504 32.9504 93.4105 0.0000 0.0000 0.0000
# 4 0.0000 0.0000 0.0000 28.1256 0.0000 0.0000
# 5 0.0000 0.0000 0.0000 0.0000 28.1256 0.0000
# 6 -5.6076 5.6076 0.0000 0.0000 0.0000 19.4212
#
#
#
# Elastic Compliance Matrix: (Units=1/GPa)
#
#
# Indices 1 2 3 4 5 6 
#
# 1 0.014369 -0.006837 -0.002657 0.000000 0.000000 0.006123
# 2 -0.006837 0.014369 -0.002657 0.000000 0.000000 -0.006123
# 3 -0.002657 -0.002657 0.012580 0.000000 0.000000 0.000000
# 4 0.000000 0.000000 0.000000 0.035555 0.000000 0.000000
# 5 0.000000 0.000000 0.000000 0.000000 0.035555 0.000000
# 6 0.006123 -0.006123 0.000000 0.000000 0.000000 0.055026
#
#
# Mechanical properties :
#
#
# Convention : Reuss Voigt Hill
#
# Bulk Modulus (GPa) = 58.76994 59.69677 59.23335
# Shear Modulus (GPa) = 25.32601 27.20891 26.26746
#
# Velocity S-wave (km/s) = 3.51263 3.64086 3.57732
# Velocity P-wave (km/s) = 6.71442 6.83799 6.77648
#
# Compressibility (1/GPa) = 0.01701550
#
# Stress axis : x y z
#
# Youngs Moduli (GPa) = 69.59630 69.59630 79.49350
#
# Poissons Ratio (x) = 0.47586 0.21118
# Poissons Ratio (y) = 0.47586 0.21118
# Poissons Ratio (z) = 0.18489 0.18489
#
# Static dielectric constant tensor:
#      x y z
#    x 1.767620 0.000000 0.000000 
#    y 0.000000 1.767620 0.000000 
#    z 0.000000 0.000000 -0.847300 
# 
# From -- ./inp_files/3042.got.cif
#   From: 2010.05.17/outbox.cif.g08.bks.cpg/sg83_2_cif.got.tgz:3042.got - 2010.06.03 18:55:12.
