data_PCOD9543024
_publ_section_title
;
Structure prediction by ZEFSAII (Michael W. Deem and Ramdas Pophale) SiO2 
 PCOD9543024
Probable space group: I -4 
;
_chemical_formula_sum "Si O2"
_cell_formula_units_Z 48
_cell_length_a 9.703379
_cell_length_b 9.703379
_cell_length_c 27.762189
_cell_angle_alpha 90.000000
_cell_angle_beta 90.000000
_cell_angle_gamma 90.000000
_cell_volume 2613.964564
_symmetry_space_group_name_H-M "I -4 "
_symmetry_group_IT_number 82
_symmetry_cell_setting 'tetragonal'
loop_
_space_group_symop_operation_xyz
x,y,z
y,-x,-z
-x,-y,z
-y,x,-z
1/2+x,1/2+y,1/2+z
1/2+y,1/2-x,1/2-z
1/2-x,1/2-y,1/2+z
1/2-y,1/2+x,1/2-z
loop_
_atom_site_type_symbol
_atom_site_label
_atom_site_fract_x
_atom_site_fract_y
_atom_site_fract_z
Si Si1 0.129173 0.730046 0.321467
Si Si2 0.914042 0.631415 0.082205
Si Si3 0.500000 0.000000 0.750000
Si Si4 0.382129 0.391471 0.394212
Si Si5 0.500000 0.000000 0.250000
Si Si6 0.199804 0.887365 0.007599
Si Si7 0.000000 0.000000 0.723604
Si Si8 0.724314 0.546599 0.696326
O O1 0.088452 0.687623 0.375338
O O2 0.295807 0.740183 0.320901
O O3 0.075734 0.612563 0.284152
O O4 0.061002 0.873627 0.306350
O O5 0.000000 0.500000 0.066026
O O6 0.018030 0.743566 0.106961
O O7 0.844922 0.699257 0.035246
O O8 0.500000 0.500000 0.411529
O O9 0.364550 0.276136 0.435601
O O10 0.444036 0.333878 0.344734
O O11 0.489707 0.133062 0.283513
O O12 0.051796 0.816774 0.999148
O O13 0.051228 0.880542 0.759260
#
# Coordination Sequence:
#
# PCOD9543024 Si02
#       8
#     8   8   2   8   2   8   4   8
#     4  12  23  39  60  93 123 168 214 264 313 374
#     4  11  22  36  61  95 129 154 206 271 316 372
#     4  12  24  36  64  90 124 156 220 256 296 382
#     4  11  19  36  69  93 116 162 212 265 315 374
#     4  12  28  40  56  82 140 172 204 256 312 390
#     4   9  15  33  60  87 112 148 198 255 310 361
#     4  12  24  36  64  86 133 177 208 258 326 376
#     4  12  23  41  61  91 127 169 213 265 317 380
#
# _framework density 18.362912999999999
#
# number of rings (size 3 to 8) (size 9 to 14) (size 15 to 20)
#    0.000    0.833   10.000    0.000    0.000    1.333 
#    1.500    0.000    0.000    0.000    0.000    0.000 
#    0.000    0.000    0.000    0.000    0.000    0.000 
#
# Total GULP energy -133901.615569 kJ/mol
# GULP energy per Si atom -5579.233982 kJ/mol
# Density = 1.832112 g / cm^3
# Si number density = 18.362913 Si / 1000 Ang^3
#
#
#
# Elastic Constant Matrix: (Units=GPa)
#
#
# Indices 1 2 3 4 5 6 
#
# 1 61.7726 -2.2065 16.0262 0.0000 0.0000 0.8750
# 2 -2.2065 61.7726 16.0262 0.0000 0.0000 -0.8750
# 3 16.0262 16.0262 101.1113 0.0000 0.0000 0.0000
# 4 0.0000 0.0000 0.0000 9.7908 0.0000 0.0000
# 5 0.0000 0.0000 0.0000 0.0000 9.7908 0.0000
# 6 0.8750 -0.8750 0.0000 0.0000 0.0000 18.7719
#
#
#
# Elastic Compliance Matrix: (Units=1/GPa)
#
#
# Indices 1 2 3 4 5 6 
#
# 1 0.017002 0.001352 -0.002909 0.000000 0.000000 -0.000729
# 2 0.001352 0.017002 -0.002909 0.000000 0.000000 0.000729
# 3 -0.002909 -0.002909 0.010812 0.000000 0.000000 0.000000
# 4 0.000000 0.000000 0.000000 0.102137 0.000000 0.000000
# 5 0.000000 0.000000 0.000000 0.000000 0.102137 0.000000
# 6 -0.000729 0.000729 0.000000 0.000000 0.000000 0.053339
#
#
# Mechanical properties :
#
#
# Convention : Reuss Voigt Hill
#
# Bulk Modulus (GPa) = 27.86839 31.59428 29.73133
# Shear Modulus (GPa) = 15.46443 20.65804 18.06123
#
# Velocity S-wave (km/s) = 2.90514 3.35772 3.13960
# Velocity P-wave (km/s) = 5.14417 5.68113 5.41931
#
# Compressibility (1/GPa) = 0.03588295
#
# Stress axis : x y z
#
# Youngs Moduli (GPa) = 58.81751 58.81750 92.48759
#
# Poissons Ratio (x) = -0.07950 0.26905
# Poissons Ratio (y) = -0.07950 0.26905
# Poissons Ratio (z) = 0.17110 0.17110
#
# Static dielectric constant tensor:
#      x y z
#    x 1.632890 0.000000 0.000000 
#    y 0.000000 1.632890 0.000000 
#    z 0.000000 0.000000 1.678410 
# 
# From -- ./inp_files/4099.got.cif
#   From: 2010.05.17/outbox.cif.g08.bks.cpg/sg82_3_cif.got.tgz:4099.got - 2010.06.03 18:52:26.
