data_PCOD9543956
_publ_section_title
;
Structure prediction by ZEFSAII (Michael W. Deem and Ramdas Pophale) SiO2 
 PCOD9543956
Probable space group: P 42/M
;
_chemical_formula_sum "Si O2"
_cell_formula_units_Z 32
_cell_length_a 14.324010
_cell_length_b 14.324010
_cell_length_c 8.241044
_cell_angle_alpha 90.000000
_cell_angle_beta 90.000000
_cell_angle_gamma 90.000000
_cell_volume 1690.874848
_symmetry_space_group_name_H-M "P 42/M"
_symmetry_group_IT_number 84
_symmetry_cell_setting 'tetragonal'
loop_
_space_group_symop_operation_xyz
x,y,z
-y,x,1/2+z
-x,-y,z
y,-x,1/2+z
-x,-y,-z
y,-x,1/2-z
x,y,-z
-y,x,1/2-z
loop_
_atom_site_type_symbol
_atom_site_label
_atom_site_fract_x
_atom_site_fract_y
_atom_site_fract_z
Si Si1 0.386408 0.906290 0.195442
Si Si2 0.749585 0.742148 0.690254
Si Si3 0.118314 0.591523 0.806372
Si Si4 0.382779 0.433459 0.678272
O O1 0.295757 0.848427 0.256248
O O2 0.487890 0.861218 0.237104
O O3 0.389094 0.010065 0.267363
O O4 0.381653 0.911344 0.000000
O O5 0.764589 0.767027 0.500000
O O6 0.678575 0.819893 0.758362
O O7 0.691383 0.646550 0.697458
O O8 0.132516 0.586073 0.000000
O O9 0.384367 0.516446 0.805755
O O10 0.371927 0.475989 0.500000
#
# Coordination Sequence:
#
# PCOD9543956 Si02
#       4
#     8   8   8   8
#     4  10  19  34  52  74 100 130 163 202 244 290
#     4   9  19  32  49  69  95 126 160 197 240 285
#     4  10  19  34  52  74 100 130 163 202 244 290
#     4  10  18  29  42  62  91 125 155 187 226 274
#
# _framework density 18.925113
#
# number of rings (size 3 to 8) (size 9 to 14) (size 15 to 20)
#    0.000    2.250    0.000    6.000    0.000    0.000 
#    0.000   12.500    0.000    0.750    0.000    5.250 
#    0.000    0.000    0.000    0.000    0.000    0.000 
#
# Total GULP energy -178257.244179 kJ/mol
# GULP energy per Si atom -5570.538881 kJ/mol
# Density = 1.888204 g / cm^3
# Si number density = 18.925113 Si / 1000 Ang^3
#
#
#
# Elastic Constant Matrix: (Units=GPa)
#
#
# Indices 1 2 3 4 5 6 
#
# 1 52.9854 62.2727 0.4677 0.0000 0.0000 0.7788
# 2 62.2727 52.9854 0.4677 0.0000 0.0000 -0.7788
# 3 0.4677 0.4677 28.8249 0.0000 0.0000 0.0000
# 4 0.0000 0.0000 0.0000 10.8427 0.0000 0.0000
# 5 0.0000 0.0000 0.0000 0.0000 10.8427 0.0000
# 6 0.7788 -0.7788 0.0000 0.0000 0.0000 41.7048
#
#
#
# Elastic Compliance Matrix: (Units=1/GPa)
#
#
# Indices 1 2 3 4 5 6 
#
# 1 -0.049330 0.058008 -0.000141 0.000000 0.000000 0.002004
# 2 0.058008 -0.049330 -0.000141 0.000000 0.000000 -0.002004
# 3 -0.000141 -0.000141 0.034697 0.000000 0.000000 0.000000
# 4 0.000000 0.000000 0.000000 0.092228 0.000000 0.000000
# 5 0.000000 0.000000 0.000000 0.000000 0.092228 0.000000
# 6 0.002004 -0.002004 0.000000 0.000000 0.000000 0.023903
#
#
# Mechanical properties :
#
#
# Convention : Reuss Voigt Hill
#
# Bulk Modulus (GPa) = 19.42189 29.02355 24.22272
# Shear Modulus (GPa) = 108.44618 17.45054 62.94836
#
# Velocity S-wave (km/s) = 7.57807 3.03988 5.77356
# Velocity P-wave (km/s) = 9.31957 5.26217 7.56785
#
# Compressibility (1/GPa) = 0.05148828
#
# Stress axis : x y z
#
# Youngs Moduli (GPa) = -20.27149 -20.27149 28.82110
#
# Poissons Ratio (x) = 1.17590 0.00406
# Poissons Ratio (y) = 1.17590 0.00406
# Poissons Ratio (z) = -0.00285 -0.00285
#
# Static dielectric constant tensor:
#      x y z
#    x 1.694360 0.000000 0.000000 
#    y 0.000000 1.694360 0.000000 
#    z 0.000000 0.000000 1.676300 
# 
# From -- ./inp_files/585.got.cif
#   From: 2010.05.17/outbox.cif.g08.bks.cpg/sg84_1_cif.got.tgz:585.got - 2010.06.03 18:57:40.
