data_PCOD9543003
_publ_section_title
;
Structure prediction by ZEFSAII (Michael W. Deem and Ramdas Pophale) SiO2 
 PCOD9543003
Probable space group: I -4 
;
_chemical_formula_sum "Si O2"
_cell_formula_units_Z 32
_cell_length_a 8.364899
_cell_length_b 8.364899
_cell_length_c 18.700932
_cell_angle_alpha 90.000000
_cell_angle_beta 90.000000
_cell_angle_gamma 90.000000
_cell_volume 1308.532923
_symmetry_space_group_name_H-M "I -4 "
_symmetry_group_IT_number 82
_symmetry_cell_setting 'tetragonal'
loop_
_space_group_symop_operation_xyz
x,y,z
y,-x,-z
-x,-y,z
-y,x,-z
1/2+x,1/2+y,1/2+z
1/2+y,1/2-x,1/2-z
1/2-x,1/2-y,1/2+z
1/2-y,1/2+x,1/2-z
loop_
_atom_site_type_symbol
_atom_site_label
_atom_site_fract_x
_atom_site_fract_y
_atom_site_fract_z
Si Si1 0.903242 0.162207 0.251826
Si Si2 0.178404 0.561471 0.643688
Si Si3 0.633012 0.767326 0.631053
Si Si4 0.762511 0.877449 0.491377
O O1 0.728169 0.129506 0.220423
O O2 0.883958 0.246885 0.326738
O O3 0.986916 0.257339 0.186701
O O4 0.000000 0.000000 0.261636
O O5 0.296861 0.413246 0.627506
O O6 0.186811 0.697186 0.583487
O O7 0.000000 0.500000 0.642293
O O8 0.629904 0.833287 0.551148
O O9 0.932187 0.795756 0.511231
#
# Coordination Sequence:
#
# PCOD9543003 Si02
#       4
#     8   8   8   8
#     4  10  27  46  73 109 143 188 245 311 362 436
#     4  11  25  46  73 104 135 196 242 299 366 432
#     4  11  26  47  72 104 149 189 239 304 368 434
#     4  11  26  45  73 106 146 191 244 300 360 435
#
# _framework density 24.45487
#
# number of rings (size 3 to 8) (size 9 to 14) (size 15 to 20)
#    0.000    1.250    2.500    0.000   17.500    0.500 
#    0.000    0.000    0.000    0.000    0.000    0.000 
#    0.000    0.000    0.000    0.000    0.000    0.000 
#
# Total GULP energy -89642.350667 kJ/mol
# GULP energy per Si atom -5602.646917 kJ/mol
# Density = 2.439921 g / cm^3
# Si number density = 24.454870 Si / 1000 Ang^3
#
#
#
# Elastic Constant Matrix: (Units=GPa)
#
#
# Indices 1 2 3 4 5 6 
#
# 1 53.8445 12.7152 9.4135 0.0000 0.0000 5.3543
# 2 12.7152 53.8445 9.4135 0.0000 0.0000 -5.3543
# 3 9.4135 9.4135 50.3304 0.0000 0.0000 0.0000
# 4 0.0000 0.0000 0.0000 34.0962 0.0000 0.0000
# 5 0.0000 0.0000 0.0000 0.0000 34.0962 0.0000
# 6 5.3543 -5.3543 0.0000 0.0000 0.0000 30.2672
#
#
#
# Elastic Compliance Matrix: (Units=1/GPa)
#
#
# Indices 1 2 3 4 5 6 
#
# 1 0.020675 -0.004812 -0.002967 0.000000 0.000000 -0.004509
# 2 -0.004812 0.020675 -0.002967 0.000000 0.000000 0.004509
# 3 -0.002967 -0.002967 0.020979 0.000000 0.000000 0.000000
# 4 0.000000 0.000000 0.000000 0.029329 0.000000 0.000000
# 5 0.000000 0.000000 0.000000 0.000000 0.029329 0.000000
# 6 -0.004509 0.004509 0.000000 0.000000 0.000000 0.034634
#
#
# Mechanical properties :
#
#
# Convention : Reuss Voigt Hill
#
# Bulk Modulus (GPa) = 24.48741 24.56709 24.52725
# Shear Modulus (GPa) = 26.21565 28.12374 27.16970
#
# Velocity S-wave (km/s) = 3.27769 3.39488 3.33680
# Velocity P-wave (km/s) = 4.93553 5.04328 4.98969
#
# Compressibility (1/GPa) = 0.04083731
#
# Stress axis : x y z
#
# Youngs Moduli (GPa) = 48.36662 48.36662 47.66769
#
# Poissons Ratio (x) = 0.23274 0.14143
# Poissons Ratio (y) = 0.23274 0.14143
# Poissons Ratio (z) = 0.14350 0.14350
#
# Static dielectric constant tensor:
#      x y z
#    x 1.970290 0.000000 0.000000 
#    y 0.000000 1.970290 0.000000 
#    z 0.000000 0.000000 1.844120 
# 
# From -- ./inp_files/2858.got.cif
#   From: 2010.05.17/outbox.cif.g08.bks.cpg/sg82_2_cif.got.tgz:2858.got - 2010.06.03 18:52:26.
