data_PCOD9543766
_publ_section_title
;
Structure prediction by ZEFSAII (Michael W. Deem and Ramdas Pophale) SiO2 
 PCOD9543766
Probable space group: P 4/M
;
_chemical_formula_sum "Si O2"
_cell_formula_units_Z 48
_cell_length_a 8.582529
_cell_length_b 8.582529
_cell_length_c 33.060299
_cell_angle_alpha 90.000000
_cell_angle_beta 90.000000
_cell_angle_gamma 90.000000
_cell_volume 2435.215146
_symmetry_space_group_name_H-M "P 4/M"
_symmetry_group_IT_number 83
_symmetry_cell_setting 'tetragonal'
loop_
_space_group_symop_operation_xyz
x,y,z
-y,x,z
-x,-y,z
y,-x,z
-x,-y,-z
y,-x,-z
x,y,-z
-y,x,-z
loop_
_atom_site_type_symbol
_atom_site_label
_atom_site_fract_x
_atom_site_fract_y
_atom_site_fract_z
Si Si1 0.555550 0.241584 0.611943
Si Si2 0.500000 0.000000 0.227218
Si Si3 0.754466 0.578884 0.910955
Si Si4 0.579304 0.249058 0.000000
Si Si5 0.257866 0.949388 0.156152
Si Si6 0.241019 0.478026 0.701092
Si Si7 0.251960 0.925215 0.453441
O O1 0.676806 0.386991 0.608523
O O2 0.551065 0.167435 0.656861
O O3 0.616309 0.125521 0.577827
O O4 0.645202 0.032537 0.197521
O O5 0.508717 0.140272 0.258994
O O6 0.597952 0.687428 0.907269
O O7 0.825169 0.603243 0.956103
O O8 0.881240 0.625990 0.877879
O O9 0.686830 0.403017 0.000000
O O10 0.116667 0.825352 0.152921
O O11 0.364048 0.338889 0.701894
O O12 0.304415 0.908797 0.500000
O O13 0.100029 0.813885 0.448005
#
# Coordination Sequence:
#
# PCOD9543766 Si02
#       7
#     8   4   8   4   8   8   8
#     4   9  19  35  54  79 110 140 176 228 286 335
#     4  12  22  38  62  81 101 142 188 224 276 350
#     4   9  17  33  59  88 117 154 198 237 277 330
#     4   7  12  26  52  85 116 147 192 244 278 313
#     4  11  24  39  54  79 116 149 183 235 292 342
#     4   9  20  38  58  82 109 136 174 228 283 335
#     4   9  19  35  53  77 113 155 196 232 264 311
#
# _framework density 19.710785999999999
#
# number of rings (size 3 to 8) (size 9 to 14) (size 15 to 20)
#    0.000    2.583    0.000    4.500    0.000    4.000 
#    0.000    5.000    0.000    6.500    0.000    0.000 
#    0.000    0.000    0.000    0.000    0.000    0.000 
#
# Total GULP energy -267328.540803 kJ/mol
# GULP energy per Si atom -5569.344600 kJ/mol
# Density = 1.966592 g / cm^3
# Si number density = 19.710786 Si / 1000 Ang^3
#
#
#
# Elastic Constant Matrix: (Units=GPa)
#
#
# Indices 1 2 3 4 5 6 
#
# 1 76.6619 53.8459 85.7742 0.0000 0.0000 -2.1363
# 2 53.8459 76.6619 85.7742 0.0000 0.0000 2.1363
# 3 85.7742 85.7742 195.0727 0.0000 0.0000 0.0000
# 4 0.0000 0.0000 0.0000 13.9464 0.0000 0.0000
# 5 0.0000 0.0000 0.0000 0.0000 13.9464 0.0000
# 6 -2.1363 2.1363 0.0000 0.0000 0.0000 35.2176
#
#
#
# Elastic Compliance Matrix: (Units=1/GPa)
#
#
# Indices 1 2 3 4 5 6 
#
# 1 0.031244 -0.013088 -0.007983 0.000000 0.000000 0.002689
# 2 -0.013088 0.031244 -0.007983 0.000000 0.000000 -0.002689
# 3 -0.007983 -0.007983 0.012147 0.000000 0.000000 0.000000
# 4 0.000000 0.000000 0.000000 0.071703 0.000000 0.000000
# 5 0.000000 0.000000 0.000000 0.000000 0.071703 0.000000
# 6 0.002689 -0.002689 0.000000 0.000000 0.000000 0.028721
#
#
# Mechanical properties :
#
#
# Convention : Reuss Voigt Hill
#
# Bulk Modulus (GPa) = 60.51078 88.79835 74.65456
# Shear Modulus (GPa) = 16.10918 20.82221 18.46569
#
# Velocity S-wave (km/s) = 2.86191 3.25374 3.06409
# Velocity P-wave (km/s) = 6.45652 7.69832 7.10461
#
# Compressibility (1/GPa) = 0.01652598
#
# Stress axis : x y z
#
# Youngs Moduli (GPa) = 32.00569 32.00569 82.32507
#
# Poissons Ratio (x) = 0.41889 0.65723
# Poissons Ratio (y) = 0.41889 0.65723
# Poissons Ratio (z) = 0.25551 0.25551
#
# Static dielectric constant tensor:
#      x y z
#    x 1.797920 0.000000 0.000000 
#    y 0.000000 1.797920 0.000000 
#    z 0.000000 0.000000 1.706070 
# 
# From -- ./inp_files/3455.got.cif
#   From: 2010.05.17/outbox.cif.g08.bks.cpg/sg83_2_cif.got.tgz:3455.got - 2010.06.03 18:55:12.
