data_PCOD9543888
_publ_section_title
;
Structure prediction by ZEFSAII (Michael W. Deem and Ramdas Pophale) SiO2 
 PCOD9543888
Probable space group: P 4/M
;
_chemical_formula_sum "Si O2"
_cell_formula_units_Z 42
_cell_length_a 8.292134
_cell_length_b 8.292134
_cell_length_c 29.252766
_cell_angle_alpha 90.000000
_cell_angle_beta 90.000000
_cell_angle_gamma 90.000000
_cell_volume 2011.405162
_symmetry_space_group_name_H-M "P 4/M"
_symmetry_group_IT_number 83
_symmetry_cell_setting 'tetragonal'
loop_
_space_group_symop_operation_xyz
x,y,z
-y,x,z
-x,-y,z
y,-x,z
-x,-y,-z
y,-x,-z
x,y,-z
-y,x,-z
loop_
_atom_site_type_symbol
_atom_site_label
_atom_site_fract_x
_atom_site_fract_y
_atom_site_fract_z
Si Si1 0.422114 0.239839 0.681865
Si Si2 0.000000 0.500000 0.500000
Si Si3 0.921152 0.260614 0.235334
Si Si4 0.760241 0.419539 0.949367
Si Si5 0.079972 0.739581 0.134203
Si Si6 0.573974 0.762869 0.421227
O O1 0.602795 0.307569 0.685493
O O2 0.372810 0.124139 0.722676
O O3 0.402800 0.174305 0.630408
O O4 0.894828 0.407057 0.459840
O O5 0.895476 0.333546 0.184780
O O6 0.102188 0.192679 0.237947
O O7 0.693367 0.601071 0.946560
O O8 0.872897 0.372571 0.907629
O O9 0.832643 0.394523 0.000000
O O10 0.898566 0.806826 0.131460
O O11 0.392336 0.690616 0.426551
#
# Coordination Sequence:
#
# PCOD9543888 Si02
#       6
#     8   2   8   8   8   8
#     4   9  19  35  54  77 105 137 176 218 257 305
#     4  12  20  30  60  86 100 138 184 214 254 306
#     4   9  19  35  53  75 107 143 175 214 266 319
#     4   9  19  35  52  72 101 135 172 220 276 326
#     4   9  19  35  52  73 103 138 176 216 262 320
#     4   9  20  38  56  78 110 143 177 218 261 308
#
# _framework density 20.880922999999999
#
# number of rings (size 3 to 8) (size 9 to 14) (size 15 to 20)
#    0.000    2.857    0.000    3.429    0.000    7.619 
#    0.000    8.571    0.000    4.571    0.000    0.000 
#    0.000    0.000    0.000    0.000    0.000    0.000 
#
# Total GULP energy -234143.848486 kJ/mol
# GULP energy per Si atom -5574.853535 kJ/mol
# Density = 2.083340 g / cm^3
# Si number density = 20.880923 Si / 1000 Ang^3
#
#
#
# Elastic Constant Matrix: (Units=GPa)
#
#
# Indices 1 2 3 4 5 6 
#
# 1 46.3655 28.7791 69.0737 0.0000 0.0000 2.9254
# 2 28.7791 46.3655 69.0737 0.0000 0.0000 -2.9254
# 3 69.0737 69.0737 237.0700 0.0000 0.0000 0.0000
# 4 0.0000 0.0000 0.0000 39.7979 0.0000 0.0000
# 5 0.0000 0.0000 0.0000 0.0000 39.7979 0.0000
# 6 2.9254 -2.9254 0.0000 0.0000 0.0000 33.2715
#
#
#
# Elastic Compliance Matrix: (Units=1/GPa)
#
#
# Indices 1 2 3 4 5 6 
#
# 1 0.043617 -0.014958 -0.008350 0.000000 0.000000 -0.005150
# 2 -0.014958 0.043617 -0.008350 0.000000 0.000000 0.005150
# 3 -0.008350 -0.008350 0.009084 0.000000 0.000000 0.000000
# 4 0.000000 0.000000 0.000000 0.025127 0.000000 0.000000
# 5 0.000000 0.000000 0.000000 0.000000 0.025127 0.000000
# 6 -0.005150 0.005150 0.000000 0.000000 0.000000 0.030961
#
#
# Mechanical properties :
#
#
# Convention : Reuss Voigt Hill
#
# Bulk Modulus (GPa) = 30.30207 73.73934 52.02070
# Shear Modulus (GPa) = 19.85297 33.43173 26.64235
#
# Velocity S-wave (km/s) = 3.08680 4.00567 3.57587
# Velocity P-wave (km/s) = 5.21994 7.53557 6.48200
#
# Compressibility (1/GPa) = 0.03300105
#
# Stress axis : x y z
#
# Youngs Moduli (GPa) = 22.92674 22.92674 110.08319
#
# Poissons Ratio (x) = 0.34295 0.91921
# Poissons Ratio (y) = 0.34295 0.91921
# Poissons Ratio (z) = 0.19144 0.19144
#
# Static dielectric constant tensor:
#      x y z
#    x 1.753880 0.000000 0.000000 
#    y 0.000000 1.753880 0.000000 
#    z 0.000000 0.000000 1.729210 
# 
# From -- ./inp_files/3261.got.cif
#   From: 2010.05.17/outbox.cif.g08.bks.cpg/sg83_2_cif.got.tgz:3261.got - 2010.06.03 18:55:12.
