data_PCOD9543037
_publ_section_title
;
Structure prediction by ZEFSAII (Michael W. Deem and Ramdas Pophale) SiO2 
 PCOD9543037
Probable space group: I -4 
;
_chemical_formula_sum "Si O2"
_cell_formula_units_Z 34
_cell_length_a 12.541424
_cell_length_b 12.541424
_cell_length_c 9.908709
_cell_angle_alpha 90.000000
_cell_angle_beta 90.000000
_cell_angle_gamma 90.000000
_cell_volume 1558.514243
_symmetry_space_group_name_H-M "I -4 "
_symmetry_group_IT_number 82
_symmetry_cell_setting 'tetragonal'
loop_
_space_group_symop_operation_xyz
x,y,z
y,-x,-z
-x,-y,z
-y,x,-z
1/2+x,1/2+y,1/2+z
1/2+y,1/2-x,1/2-z
1/2-x,1/2-y,1/2+z
1/2-y,1/2+x,1/2-z
loop_
_atom_site_type_symbol
_atom_site_label
_atom_site_fract_x
_atom_site_fract_y
_atom_site_fract_z
Si Si1 0.739798 0.209144 0.444083
Si Si2 0.876374 0.296593 0.665163
Si Si3 0.573033 0.351052 0.558337
Si Si4 0.116016 0.955481 0.340468
Si Si5 0.000000 0.500000 0.750000
O O1 0.818685 0.289484 0.521311
O O2 0.708851 0.206773 0.286893
O O3 0.627197 0.239493 0.515013
O O4 0.812643 0.102779 0.454995
O O5 0.949977 0.195452 0.699464
O O6 0.946286 0.403078 0.670038
O O7 0.449015 0.367066 0.520110
O O8 0.591153 0.377371 0.714860
O O9 0.000000 0.000000 0.371598
#
# Coordination Sequence:
#
# PCOD9543037 Si02
#       5
#     8   8   8   8   2
#     4  12  25  42  70 107 138 190 243 304 357 440
#     4  12  26  45  75 102 146 194 249 301 373 441
#     4  11  20  41  71  98 136 193 243 284 359 451
#     4  12  25  43  68 105 147 188 236 310 366 430
#     4  12  24  52  76 106 148 208 236 298 384 464
#
# _framework density 21.815649000000001
#
# number of rings (size 3 to 8) (size 9 to 14) (size 15 to 20)
#    0.000    0.235    9.412    0.000    3.294    0.000 
#    0.000    0.000    0.000    1.412    0.000    0.000 
#    0.000    0.000    0.000    0.000    0.000    0.000 
#
# Total GULP energy -94717.393010 kJ/mol
# GULP energy per Si atom -5571.611354 kJ/mol
# Density = 2.176600 g / cm^3
# Si number density = 21.815649 Si / 1000 Ang^3
#
#
#
# Elastic Constant Matrix: (Units=GPa)
#
#
# Indices 1 2 3 4 5 6 
#
# 1 102.6795 56.2531 29.4121 0.0000 0.0000 -0.4684
# 2 56.2531 102.6795 29.4121 0.0000 0.0000 0.4684
# 3 29.4121 29.4121 64.3979 0.0000 0.0000 0.0000
# 4 0.0000 0.0000 0.0000 15.3157 0.0000 0.0000
# 5 0.0000 0.0000 0.0000 0.0000 15.3157 0.0000
# 6 -0.4684 0.4684 0.0000 0.0000 0.0000 52.5871
#
#
#
# Elastic Compliance Matrix: (Units=1/GPa)
#
#
# Indices 1 2 3 4 5 6 
#
# 1 0.014558 -0.006986 -0.003458 0.000000 0.000000 0.000192
# 2 -0.006986 0.014558 -0.003458 0.000000 0.000000 -0.000192
# 3 -0.003458 -0.003458 0.018687 0.000000 0.000000 0.000000
# 4 0.000000 0.000000 0.000000 0.065293 0.000000 0.000000
# 5 0.000000 0.000000 0.000000 0.000000 0.065293 0.000000
# 6 0.000192 -0.000192 0.000000 0.000000 0.000000 0.019019
#
#
# Mechanical properties :
#
#
# Convention : Reuss Voigt Hill
#
# Bulk Modulus (GPa) = 50.00461 55.54573 52.77517
# Shear Modulus (GPa) = 21.56307 26.95567 24.25937
#
# Velocity S-wave (km/s) = 3.14733 3.51894 3.33831
# Velocity P-wave (km/s) = 6.01488 6.48284 6.25324
#
# Compressibility (1/GPa) = 0.01999816
#
# Stress axis : x y z
#
# Youngs Moduli (GPa) = 68.69241 68.69241 53.51180
#
# Poissons Ratio (x) = 0.47986 0.18506
# Poissons Ratio (y) = 0.47986 0.18506
# Poissons Ratio (z) = 0.23756 0.23756
#
# Static dielectric constant tensor:
#      x y z
#    x 1.880290 0.000000 0.000000 
#    y 0.000000 1.880290 0.000000 
#    z 0.000000 0.000000 1.859030 
# 
# From -- ./inp_files/1531.got.cif
#   From: 2010.05.17/outbox.cif.g08.bks.cpg/sg82_1_cif.got.tgz:1531.got - 2010.06.03 18:52:26.
