data_PCOD9543860
_publ_section_title
;
Structure prediction by ZEFSAII (Michael W. Deem and Ramdas Pophale) SiO2 
 PCOD9543860
Probable space group: P 4/M
;
_chemical_formula_sum "Si O2"
_cell_formula_units_Z 32
_cell_length_a 10.359166
_cell_length_b 10.359166
_cell_length_c 13.059804
_cell_angle_alpha 90.000000
_cell_angle_beta 90.000000
_cell_angle_gamma 90.000000
_cell_volume 1401.477869
_symmetry_space_group_name_H-M "P 4/M"
_symmetry_group_IT_number 83
_symmetry_cell_setting 'tetragonal'
loop_
_space_group_symop_operation_xyz
x,y,z
-y,x,z
-x,-y,z
y,-x,z
-x,-y,-z
y,-x,-z
x,y,-z
-y,x,-z
loop_
_atom_site_type_symbol
_atom_site_label
_atom_site_fract_x
_atom_site_fract_y
_atom_site_fract_z
Si Si1 0.931579 0.636155 0.386389
Si Si2 0.959133 0.212273 0.215531
Si Si3 0.294799 0.422273 0.772537
Si Si4 0.783884 0.956076 0.000000
Si Si5 0.425594 0.705307 0.000000
O O1 0.902458 0.688566 0.500000
O O2 0.037020 0.714825 0.321259
O O3 0.805669 0.616318 0.315137
O O4 0.000000 0.500000 0.397580
O O5 0.856951 0.098002 0.213828
O O6 0.940771 0.287160 0.108159
O O7 0.427613 0.339599 0.764718
O O8 0.236104 0.402203 0.887462
O O9 0.854850 0.096009 0.000000
O O10 0.341557 0.573945 0.000000
#
# Coordination Sequence:
#
# PCOD9543860 Si02
#       5
#     8   8   8   4   4
#     4  11  26  41  55  80 118 156 196 245 282 316
#     4   9  19  38  64  88 113 149 188 230 288 351
#     4   9  19  38  64  88 113 149 188 230 288 351
#     4   7  12  29  58  89 115 139 176 228 285 346
#     4   7  12  29  58  89 115 139 176 228 285 346
#
# _framework density 22.833041000000001
#
# number of rings (size 3 to 8) (size 9 to 14) (size 15 to 20)
#    0.000    3.000    0.000    3.000    3.500    3.000 
#    0.000    5.000    0.000    0.000    0.000    0.000 
#    0.000    0.000    0.000    0.000    0.000    0.000 
#
# Total GULP energy -178534.994425 kJ/mol
# GULP energy per Si atom -5579.218576 kJ/mol
# Density = 2.278107 g / cm^3
# Si number density = 22.833041 Si / 1000 Ang^3
#
#
#
# Elastic Constant Matrix: (Units=GPa)
#
#
# Indices 1 2 3 4 5 6 
#
# 1 268.0402 -210.1036 30.5337 0.0000 0.0000 -132.8956
# 2 -210.1036 268.0402 30.5337 0.0000 0.0000 132.8956
# 3 30.5337 30.5337 222.0963 0.0000 0.0000 0.0000
# 4 0.0000 0.0000 0.0000 -332.6812 0.0000 0.0000
# 5 0.0000 0.0000 0.0000 0.0000 -332.6812 0.0000
# 6 -132.8956 132.8956 0.0000 0.0000 0.0000 94.1010
#
#
#
# Elastic Compliance Matrix: (Units=1/GPa)
#
#
# Indices 1 2 3 4 5 6 
#
# 1 0.014958 0.005228 -0.002775 0.000000 0.000000 0.013741
# 2 0.005228 0.014958 -0.002775 0.000000 0.000000 -0.013741
# 3 -0.002775 -0.002775 0.005266 0.000000 0.000000 0.000000
# 4 0.000000 0.000000 0.000000 -0.003006 0.000000 0.000000
# 5 0.000000 0.000000 0.000000 0.000000 -0.003006 0.000000
# 6 0.013741 -0.013741 0.000000 0.000000 0.000000 0.049439
#
#
# Mechanical properties :
#
#
# Convention : Reuss Voigt Hill
#
# Bulk Modulus (GPa) = 28.95538 51.12272 40.03905
# Shear Modulus (GPa) = 55.08735 -53.77142 0.65797
#
# Velocity S-wave (km/s) = 4.91717 -4.85808 0.53739
# Velocity P-wave (km/s) = 6.70425 3.00492 4.23777
#
# Compressibility (1/GPa) = 0.03453589
#
# Stress axis : x y z
#
# Youngs Moduli (GPa) = 66.85574 66.85574 189.91251
#
# Poissons Ratio (x) = -0.34950 0.52702
# Poissons Ratio (y) = -0.34950 0.52702
# Poissons Ratio (z) = 0.18553 0.18553
#
# Static dielectric constant tensor:
#      x y z
#    x 1.875790 0.000000 0.000000 
#    y 0.000000 1.875790 0.000000 
#    z 0.000000 0.000000 1.962410 
# 
# From -- ./inp_files/1563.got.cif
#   From: 2010.05.17/outbox.cif.g08.bks.cpg/sg83_1_cif.got.tgz:1563.got - 2010.06.03 18:55:12.
