data_PCOD9543266
_publ_section_title
;
Structure prediction by ZEFSAII (Michael W. Deem and Ramdas Pophale) SiO2 
 PCOD9543266
Probable space group: P 4/M
;
_chemical_formula_sum "Si O2"
_cell_formula_units_Z 24
_cell_length_a 9.809771
_cell_length_b 9.809771
_cell_length_c 8.582808
_cell_angle_alpha 90.000000
_cell_angle_beta 90.000000
_cell_angle_gamma 90.000000
_cell_volume 825.937407
_symmetry_space_group_name_H-M "P 4/M"
_symmetry_group_IT_number 83
_symmetry_cell_setting 'tetragonal'
loop_
_space_group_symop_operation_xyz
x,y,z
-y,x,z
-x,-y,z
y,-x,z
-x,-y,-z
y,-x,-z
x,y,-z
-y,x,-z
loop_
_atom_site_type_symbol
_atom_site_label
_atom_site_fract_x
_atom_site_fract_y
_atom_site_fract_z
Si Si1 0.551375 0.236465 0.500000
Si Si2 0.237840 0.142713 0.500000
Si Si3 0.771926 0.545701 0.166134
Si Si4 0.275075 0.045839 0.830210
O O1 0.407520 0.154227 0.500000
O O2 0.704355 0.175388 0.500000
O O3 0.556441 0.303754 0.329943
O O4 0.203164 0.076220 0.666381
O O5 0.844079 0.398346 0.164779
O O6 0.898794 0.651406 0.173176
O O7 0.702818 0.569196 0.000000
O O8 0.205976 0.059780 0.000000
#
# Coordination Sequence:
#
# PCOD9543266 Si02
#       4
#     4   4   8   8
#     4  10  19  28  39  57  84 118 149 171 192 227
#     4  10  19  28  39  57  84 118 149 171 192 227
#     4   8  14  26  44  62  77  96 128 174 224 260
#     4   8  14  26  44  62  77  96 128 174 224 260
#
# _framework density 29.05789
#
# number of rings (size 3 to 8) (size 9 to 14) (size 15 to 20)
#    0.000    3.333    0.000    3.000    0.000    5.667 
#    0.000    0.000    0.000    0.000    0.000    9.333 
#    0.000   10.667    0.000   29.333    0.000    2.667 
#
# Total GULP energy -134029.363270 kJ/mol
# GULP energy per Si atom -5584.556803 kJ/mol
# Density = 2.899175 g / cm^3
# Si number density = 29.057890 Si / 1000 Ang^3
#
#
#
# Elastic Constant Matrix: (Units=GPa)
#
#
# Indices 1 2 3 4 5 6 
#
# 1 107.3256 48.0659 34.4936 0.0000 0.0000 -6.3731
# 2 48.0659 107.3256 34.4936 0.0000 0.0000 6.3731
# 3 34.4936 34.4936 435.0905 0.0000 0.0000 0.0000
# 4 0.0000 0.0000 0.0000 -17.0196 0.0000 0.0000
# 5 0.0000 0.0000 0.0000 0.0000 -17.0196 0.0000
# 6 -6.3731 6.3731 0.0000 0.0000 0.0000 49.6368
#
#
#
# Elastic Compliance Matrix: (Units=1/GPa)
#
#
# Indices 1 2 3 4 5 6 
#
# 1 0.012012 -0.005342 -0.000529 0.000000 0.000000 0.002228
# 2 -0.005342 0.012012 -0.000529 0.000000 0.000000 -0.002228
# 3 -0.000529 -0.000529 0.002382 0.000000 0.000000 0.000000
# 4 0.000000 0.000000 0.000000 -0.058756 0.000000 0.000000
# 5 0.000000 0.000000 0.000000 0.000000 -0.058756 0.000000
# 6 0.002228 -0.002228 0.000000 0.000000 0.000000 0.020719
#
#
# Mechanical properties :
#
#
# Convention : Reuss Voigt Hill
#
# Bulk Modulus (GPa) = 73.49016 98.20529 85.84773
# Shear Modulus (GPa) = -94.24816 38.63209 -27.80804
#
# Velocity S-wave (km/s) = -5.70132 3.65017 -3.09688
# Velocity P-wave (km/s) = 4.24196 7.18573 4.10125
#
# Compressibility (1/GPa) = 0.01360726
#
# Stress axis : x y z
#
# Youngs Moduli (GPa) = 83.24919 83.24919 419.77684
#
# Poissons Ratio (x) = 0.44472 0.22198
# Poissons Ratio (y) = 0.44472 0.22198
# Poissons Ratio (z) = 0.04402 0.04402
#
# Static dielectric constant tensor:
#      x y z
#    x 2.189840 0.000000 0.000000 
#    y 0.000000 2.189840 0.000000 
#    z 0.000000 0.000000 2.219850 
# 
# From -- ./inp_files/303.got.cif
#   From: 2010.05.17/outbox.cif.g08.bks.cpg/sg83_1_cif.got.tgz:303.got - 2010.06.03 18:55:12.
