data_PCOD9543292
_publ_section_title
;
Structure prediction by ZEFSAII (Michael W. Deem and Ramdas Pophale) SiO2 
 PCOD9543292
Probable space group: P 4/M
;
_chemical_formula_sum "Si O2"
_cell_formula_units_Z 48
_cell_length_a 15.730552
_cell_length_b 15.730552
_cell_length_c 13.585788
_cell_angle_alpha 90.000000
_cell_angle_beta 90.000000
_cell_angle_gamma 90.000000
_cell_volume 3361.806857
_symmetry_space_group_name_H-M "P 4/M"
_symmetry_group_IT_number 83
_symmetry_cell_setting 'tetragonal'
loop_
_space_group_symop_operation_xyz
x,y,z
-y,x,z
-x,-y,z
y,-x,z
-x,-y,-z
y,-x,-z
x,y,-z
-y,x,-z
loop_
_atom_site_type_symbol
_atom_site_label
_atom_site_fract_x
_atom_site_fract_y
_atom_site_fract_z
Si Si1 0.674150 0.699899 0.880008
Si Si2 0.745251 0.517997 0.119157
Si Si3 0.813915 0.834167 0.801419
Si Si4 0.067697 0.430728 0.119827
Si Si5 0.242784 0.984093 0.117470
Si Si6 0.102450 0.099223 0.615745
O O1 0.689861 0.600771 0.855009
O O2 0.577472 0.721824 0.850379
O O3 0.744377 0.762467 0.831130
O O4 0.683141 0.709427 0.000000
O O5 0.839632 0.541606 0.152915
O O6 0.744738 0.514934 0.000000
O O7 0.903529 0.814439 0.854504
O O8 0.838814 0.845081 0.686893
O O9 0.782595 0.926164 0.837209
O O10 0.041319 0.337295 0.151580
O O11 0.000000 0.500000 0.151440
O O12 0.069202 0.429588 0.000000
O O13 0.243226 0.993773 0.000000
O O14 0.117536 0.113863 0.500000
O O15 0.001909 0.115833 0.634929
#
# Coordination Sequence:
#
# PCOD9543292 Si02
#       6
#     8   8   8   8   8   8
#     4  10  19  31  46  67  98 128 163 201 234 279
#     4   9  17  29  44  62  90 130 165 199 232 266
#     4  12  20  31  46  68  94 126 161 193 237 278
#     4   9  16  28  42  57  83 125 169 195 220 263
#     4  11  21  29  41  64  99 132 158 190 227 276
#     4   9  18  34  51  66  86 117 160 205 239 279
#
# _framework density 14.278036
#
# number of rings (size 3 to 8) (size 9 to 14) (size 15 to 20)
#    0.000    2.000    3.333    3.000    0.000    3.333 
#    0.000    2.500    0.000    0.000    0.000    1.167 
#    0.000    5.333    0.000    1.500    0.000    0.167 
#
# Total GULP energy -267343.978358 kJ/mol
# GULP energy per Si atom -5569.666216 kJ/mol
# Density = 1.424554 g / cm^3
# Si number density = 14.278036 Si / 1000 Ang^3
#
#
#
# Elastic Constant Matrix: (Units=GPa)
#
#
# Indices 1 2 3 4 5 6 
#
# 1 90.4980 38.6563 15.9491 0.0000 0.0000 0.0626
# 2 38.6563 90.4980 15.9491 0.0000 0.0000 -0.0626
# 3 15.9491 15.9491 44.1056 0.0000 0.0000 0.0000
# 4 0.0000 0.0000 0.0000 8.1524 0.0000 0.0000
# 5 0.0000 0.0000 0.0000 0.0000 8.1524 0.0000
# 6 0.0626 -0.0626 0.0000 0.0000 0.0000 26.3671
#
#
#
# Elastic Compliance Matrix: (Units=1/GPa)
#
#
# Indices 1 2 3 4 5 6 
#
# 1 0.013896 -0.005394 -0.003074 0.000000 0.000000 -0.000046
# 2 -0.005394 0.013896 -0.003074 0.000000 0.000000 0.000046
# 3 -0.003074 -0.003074 0.024896 0.000000 0.000000 0.000000
# 4 0.000000 0.000000 0.000000 0.122663 0.000000 0.000000
# 5 0.000000 0.000000 0.000000 0.000000 0.122663 0.000000
# 6 -0.000046 0.000046 0.000000 0.000000 0.000000 0.037926
#
#
# Mechanical properties :
#
#
# Convention : Reuss Voigt Hill
#
# Bulk Modulus (GPa) = 33.78077 40.69007 37.23542
# Shear Modulus (GPa) = 13.55406 18.83753 16.19579
#
# Velocity S-wave (km/s) = 3.08440 3.63621 3.37161
# Velocity P-wave (km/s) = 6.03286 6.79629 6.42592
#
# Compressibility (1/GPa) = 0.02960264
#
# Stress axis : x y z
#
# Youngs Moduli (GPa) = 71.96422 71.96422 40.16656
#
# Poissons Ratio (x) = 0.38816 0.12349
# Poissons Ratio (y) = 0.38816 0.12349
# Poissons Ratio (z) = 0.22125 0.22125
#
# Static dielectric constant tensor:
#      x y z
#    x 1.483810 0.000000 0.000000 
#    y 0.000000 1.483810 0.000000 
#    z 0.000000 0.000000 1.448460 
# 
# From -- ./inp_files/1846.got.cif
#   From: 2010.05.17/outbox.cif.g08.bks.cpg/sg83_1_cif.got.tgz:1846.got - 2010.06.03 18:55:12.
