data_PCOD9543729
_publ_section_title
;
Structure prediction by ZEFSAII (Michael W. Deem and Ramdas Pophale) SiO2 
 PCOD9543729
Probable space group: P 4/M
;
_chemical_formula_sum "Si O2"
_cell_formula_units_Z 40
_cell_length_a 8.110662
_cell_length_b 8.110662
_cell_length_c 27.929994
_cell_angle_alpha 90.000000
_cell_angle_beta 90.000000
_cell_angle_gamma 90.000000
_cell_volume 1837.314273
_symmetry_space_group_name_H-M "P 4/M"
_symmetry_group_IT_number 83
_symmetry_cell_setting 'tetragonal'
loop_
_space_group_symop_operation_xyz
x,y,z
-y,x,z
-x,-y,z
y,-x,z
-x,-y,-z
y,-x,-z
x,y,-z
-y,x,-z
loop_
_atom_site_type_symbol
_atom_site_label
_atom_site_fract_x
_atom_site_fract_y
_atom_site_fract_z
Si Si1 0.238005 0.587068 0.352880
Si Si2 0.764685 0.577873 0.000000
Si Si3 0.739716 0.900000 0.553485
Si Si4 0.500000 0.000000 0.275206
Si Si5 0.736304 0.089249 0.091384
Si Si6 0.907655 0.737424 0.801776
O O1 0.299053 0.398866 0.349174
O O2 0.154865 0.622743 0.403866
O O3 0.108123 0.613299 0.310391
O O4 0.605941 0.697249 0.000000
O O5 0.863146 0.620412 0.047934
O O6 0.671000 0.872873 0.500000
O O7 0.909791 0.795765 0.557409
O O8 0.393190 0.884842 0.240117
O O9 0.666911 0.116887 0.144760
O O10 0.901978 0.199935 0.087872
O O11 0.097883 0.798600 0.797995
#
# Coordination Sequence:
#
# PCOD9543729 Si02
#       6
#     8   4   8   4   8   8
#     4  11  24  39  56  85 122 156 192 234 284 342
#     4  11  24  37  52  82 120 151 182 221 272 338
#     4   9  19  38  64  91 117 148 189 235 283 339
#     4  12  22  38  61  83 112 154 194 236 288 336
#     4   9  19  37  60  85 111 141 183 232 278 329
#     4   9  20  38  60  86 112 142 189 241 283 331
#
# _framework density 21.770907999999999
#
# number of rings (size 3 to 8) (size 9 to 14) (size 15 to 20)
#    0.000    2.100    0.000    4.800    0.000    6.400 
#    0.000    5.500    0.000    2.400    0.000    0.000 
#    0.000    0.000    0.000    0.000    0.000    0.000 
#
# Total GULP energy -223795.541404 kJ/mol
# GULP energy per Si atom -5594.888535 kJ/mol
# Density = 2.172136 g / cm^3
# Si number density = 21.770908 Si / 1000 Ang^3
#
#
#
# Elastic Constant Matrix: (Units=GPa)
#
#
# Indices 1 2 3 4 5 6 
#
# 1 55.5232 21.3635 54.3614 0.0000 0.0000 5.7728
# 2 21.3635 55.5232 54.3614 0.0000 0.0000 -5.7728
# 3 54.3614 54.3614 205.0072 0.0000 0.0000 0.0000
# 4 0.0000 0.0000 0.0000 -34.7762 0.0000 0.0000
# 5 0.0000 0.0000 0.0000 0.0000 -34.7762 0.0000
# 6 5.7728 -5.7728 0.0000 0.0000 0.0000 31.6830
#
#
#
# Elastic Compliance Matrix: (Units=1/GPa)
#
#
# Indices 1 2 3 4 5 6 
#
# 1 0.026002 -0.005193 -0.005518 0.000000 0.000000 -0.005684
# 2 -0.005193 0.026002 -0.005518 0.000000 0.000000 0.005684
# 3 -0.005518 -0.005518 0.007804 0.000000 0.000000 0.000000
# 4 0.000000 0.000000 0.000000 -0.028755 0.000000 0.000000
# 5 0.000000 0.000000 0.000000 0.000000 -0.028755 0.000000
# 6 -0.005684 0.005684 0.000000 0.000000 0.000000 0.033634
#
#
# Mechanical properties :
#
#
# Convention : Reuss Voigt Hill
#
# Bulk Modulus (GPa) = 36.56262 64.02514 50.29388
# Shear Modulus (GPa) = 64.51114 4.82397 34.66755
#
# Velocity S-wave (km/s) = 5.44942 1.49017 3.99479
# Velocity P-wave (km/s) = 7.51170 5.69502 6.66554
#
# Compressibility (1/GPa) = 0.02735034
#
# Stress axis : x y z
#
# Youngs Moduli (GPa) = 38.45859 38.45859 128.13653
#
# Poissons Ratio (x) = 0.19973 0.70703
# Poissons Ratio (y) = 0.19973 0.70703
# Poissons Ratio (z) = 0.21221 0.21221
#
# Static dielectric constant tensor:
#      x y z
#    x 1.797190 0.000000 0.000000 
#    y 0.000000 1.797190 0.000000 
#    z 0.000000 0.000000 1.770880 
# 
# From -- ./inp_files/3285.got.cif
#   From: 2010.05.17/outbox.cif.g08.bks.cpg/sg83_2_cif.got.tgz:3285.got - 2010.06.03 18:55:12.
