data_PCOD9543995
_publ_section_title
;
Structure prediction by ZEFSAII (Michael W. Deem and Ramdas Pophale) SiO2 
 PCOD9543995
Probable space group: P 42/M
;
_chemical_formula_sum "Si O2"
_cell_formula_units_Z 56
_cell_length_a 11.885531
_cell_length_b 11.885531
_cell_length_c 21.302337
_cell_angle_alpha 90.000000
_cell_angle_beta 90.000000
_cell_angle_gamma 90.000000
_cell_volume 3009.292683
_symmetry_space_group_name_H-M "P 42/M"
_symmetry_group_IT_number 84
_symmetry_cell_setting 'tetragonal'
loop_
_space_group_symop_operation_xyz
x,y,z
-y,x,1/2+z
-x,-y,z
y,-x,1/2+z
-x,-y,-z
y,-x,1/2-z
x,y,-z
-y,x,1/2-z
loop_
_atom_site_type_symbol
_atom_site_label
_atom_site_fract_x
_atom_site_fract_y
_atom_site_fract_z
Si Si1 0.985713 0.869131 0.616422
Si Si2 0.763298 0.754179 0.427315
Si Si3 0.238060 0.658433 0.718001
Si Si4 0.016119 0.256704 0.741718
Si Si5 0.220629 0.396989 0.689290
Si Si6 0.229372 0.852995 0.630381
Si Si7 0.618925 0.965415 0.426030
O O1 0.108809 0.820801 0.602472
O O2 0.884173 0.815402 0.578688
O O3 0.966266 0.840578 0.689923
O O4 0.000000 0.000000 0.604833
O O5 0.740347 0.727649 0.500000
O O6 0.768815 0.647346 0.381817
O O7 0.675781 0.849920 0.402994
O O8 0.232163 0.529175 0.699070
O O9 0.326786 0.686023 0.772247
O O10 0.275960 0.738857 0.660295
O O11 0.113223 0.702723 0.738864
O O12 0.100562 0.354648 0.717445
O O13 0.061460 0.219130 0.809501
O O14 0.302154 0.926742 0.583637
O O15 0.603412 0.946402 0.500000
O O16 0.500000 0.000000 0.396041
#
# Coordination Sequence:
#
# PCOD9543995 Si02
#       7
#     8   8   8   8   8   8   8
#     4  10  19  29  51  83 118 141 168 223 270 334
#     4  10  21  37  57  82 112 152 190 221 275 341
#     4  10  21  35  55  81 110 142 183 232 286 332
#     4   9  20  33  53  80 110 145 178 220 282 340
#     4  10  21  38  56  81 110 145 187 231 279 335
#     4  10  20  32  52  82 109 144 177 224 282 338
#     4  10  21  37  55  75 103 139 183 230 273 328
#
# _framework density 18.609024999999999
#
# number of rings (size 3 to 8) (size 9 to 14) (size 15 to 20)
#    0.000    2.143    1.429    1.286    6.000    5.714 
#    0.000    0.714    0.000   11.143    0.000    5.000 
#    0.000    0.000    0.000    0.000    0.000    0.000 
#
# Total GULP energy -312315.544085 kJ/mol
# GULP energy per Si atom -5577.063287 kJ/mol
# Density = 1.856667 g / cm^3
# Si number density = 18.609025 Si / 1000 Ang^3
#
#
#
# Elastic Constant Matrix: (Units=GPa)
#
#
# Indices 1 2 3 4 5 6 
#
# 1 93.5832 11.0932 15.8992 0.0000 0.0000 -6.2968
# 2 11.0932 93.5832 15.8992 0.0000 0.0000 6.2968
# 3 15.8992 15.8992 35.2946 0.0000 0.0000 0.0000
# 4 0.0000 0.0000 0.0000 10.4180 0.0000 0.0000
# 5 0.0000 0.0000 0.0000 0.0000 10.4180 0.0000
# 6 -6.2968 6.2968 0.0000 0.0000 0.0000 11.5195
#
#
#
# Elastic Compliance Matrix: (Units=1/GPa)
#
#
# Indices 1 2 3 4 5 6 
#
# 1 0.012147 -0.001079 -0.004986 0.000000 0.000000 0.007230
# 2 -0.001079 0.012147 -0.004986 0.000000 0.000000 -0.007230
# 3 -0.004986 -0.004986 0.032825 0.000000 0.000000 0.000000
# 4 0.000000 0.000000 0.000000 0.095988 0.000000 0.000000
# 5 0.000000 0.000000 0.000000 0.000000 0.095988 0.000000
# 6 0.007230 -0.007230 0.000000 0.000000 0.000000 0.094713
#
#
# Mechanical properties :
#
#
# Convention : Reuss Voigt Hill
#
# Bulk Modulus (GPa) = 28.55716 34.24935 31.40326
# Shear Modulus (GPa) = 13.24216 18.44240 15.84228
#
# Velocity S-wave (km/s) = 2.67048 3.15150 2.92091
# Velocity P-wave (km/s) = 4.98876 5.62915 5.31860
#
# Compressibility (1/GPa) = 0.03501748
#
# Stress axis : x y z
#
# Youngs Moduli (GPa) = 82.32400 82.32400 30.46479
#
# Poissons Ratio (x) = 0.08885 0.15189
# Poissons Ratio (y) = 0.08885 0.15189
# Poissons Ratio (z) = 0.41045 0.41045
#
# Static dielectric constant tensor:
#      x y z
#    x 1.668120 0.000000 0.000000 
#    y 0.000000 1.668120 0.000000 
#    z 0.000000 0.000000 1.674450 
# 
# From -- ./inp_files/4499.got.cif
#   From: 2010.05.17/outbox.cif.g08.bks.cpg/sg84_3_cif.got.tgz:4499.got - 2010.06.03 18:57:40.
