data_PCOD9543167
_publ_section_title
;
Structure prediction by ZEFSAII (Michael W. Deem and Ramdas Pophale) SiO2 
 PCOD9543167
Probable space group: I -4 
;
_chemical_formula_sum "Si O2"
_cell_formula_units_Z 20
_cell_length_a 6.852995
_cell_length_b 6.852995
_cell_length_c 18.560706
_cell_angle_alpha 90.000000
_cell_angle_beta 90.000000
_cell_angle_gamma 90.000000
_cell_volume 871.676467
_symmetry_space_group_name_H-M "I -4 "
_symmetry_group_IT_number 82
_symmetry_cell_setting 'tetragonal'
loop_
_space_group_symop_operation_xyz
x,y,z
y,-x,-z
-x,-y,z
-y,x,-z
1/2+x,1/2+y,1/2+z
1/2+y,1/2-x,1/2-z
1/2-x,1/2-y,1/2+z
1/2-y,1/2+x,1/2-z
loop_
_atom_site_type_symbol
_atom_site_label
_atom_site_fract_x
_atom_site_fract_y
_atom_site_fract_z
Si Si1 0.000000 0.500000 0.250000
Si Si2 0.780454 0.449236 0.478629
Si Si3 0.000000 0.500000 0.750000
Si Si4 0.836106 0.852120 0.652317
O O1 0.023146 0.692844 0.297071
O O2 0.650067 0.334603 0.537122
O O3 0.780290 0.302984 0.411638
O O4 0.000000 0.500000 0.499409
O O5 0.073400 0.323704 0.698752
O O6 0.000000 0.000000 0.623945
#
# Coordination Sequence:
#
# PCOD9543167 Si02
#       4
#     2   8   2   8
#     4  12  24  48  74 116 152 188 256 318 376 468
#     4  11  29  48  74 109 154 203 260 308 365 449
#     4  12  28  48  86 112 148 200 248 306 404 448
#     4  12  27  47  78 116 152 197 252 316 382 451
#
# _framework density 22.944289999999999
#
# number of rings (size 3 to 8) (size 9 to 14) (size 15 to 20)
#    0.000    0.400    6.000    0.000    8.400    9.600 
#    0.000    0.000    0.000    0.000    0.000    0.000 
#    0.000    0.000    0.000    0.000    0.000    0.000 
#
# Total GULP energy -55989.777310 kJ/mol
# GULP energy per Si atom -5598.977731 kJ/mol
# Density = 2.289207 g / cm^3
# Si number density = 22.944290 Si / 1000 Ang^3
#
#
#
# Elastic Constant Matrix: (Units=GPa)
#
#
# Indices 1 2 3 4 5 6 
#
# 1 170.5545 89.2396 47.6346 0.0000 0.0000 19.6011
# 2 89.2396 170.5545 47.6346 0.0000 0.0000 -19.6011
# 3 47.6346 47.6346 78.2226 0.0000 0.0000 0.0000
# 4 0.0000 0.0000 0.0000 18.2506 0.0000 0.0000
# 5 0.0000 0.0000 0.0000 0.0000 18.2506 0.0000
# 6 19.6011 -19.6011 0.0000 0.0000 0.0000 74.2078
#
#
#
# Elastic Compliance Matrix: (Units=1/GPa)
#
#
# Indices 1 2 3 4 5 6 
#
# 1 0.009524 -0.004568 -0.003018 0.000000 0.000000 -0.003722
# 2 -0.004568 0.009524 -0.003018 0.000000 0.000000 0.003722
# 3 -0.003018 -0.003018 0.016460 0.000000 0.000000 0.000000
# 4 0.000000 0.000000 0.000000 0.054793 0.000000 0.000000
# 5 0.000000 0.000000 0.000000 0.000000 0.054793 0.000000
# 6 -0.003722 0.003722 0.000000 0.000000 0.000000 0.015442
#
#
# Mechanical properties :
#
#
# Convention : Reuss Voigt Hill
#
# Bulk Modulus (GPa) = 69.93178 87.59439 78.76308
# Shear Modulus (GPa) = 26.80818 37.79667 32.30243
#
# Velocity S-wave (km/s) = 3.42190 4.06313 3.75622
# Velocity P-wave (km/s) = 6.79394 7.76350 7.29484
#
# Compressibility (1/GPa) = 0.01429965
#
# Stress axis : x y z
#
# Youngs Moduli (GPa) = 104.99604 104.99603 60.75448
#
# Poissons Ratio (x) = 0.47965 0.18336
# Poissons Ratio (y) = 0.47965 0.18336
# Poissons Ratio (z) = 0.31688 0.31688
#
# Static dielectric constant tensor:
#      x y z
#    x 1.883880 0.000000 0.000000 
#    y 0.000000 1.883880 0.000000 
#    z 0.000000 0.000000 1.867060 
# 
# From -- ./inp_files/3590.got.cif
#   From: 2010.05.17/outbox.cif.g08.bks.cpg/sg82_2_cif.got.tgz:3590.got - 2010.06.03 18:52:26.
