data_PCOD9543489
_publ_section_title
;
Structure prediction by ZEFSAII (Michael W. Deem and Ramdas Pophale) SiO2 
 PCOD9543489
Probable space group: P 4/M
;
_chemical_formula_sum "Si O2"
_cell_formula_units_Z 40
_cell_length_a 14.474508
_cell_length_b 14.474508
_cell_length_c 8.311112
_cell_angle_alpha 90.000000
_cell_angle_beta 90.000000
_cell_angle_gamma 90.000000
_cell_volume 1741.272560
_symmetry_space_group_name_H-M "P 4/M"
_symmetry_group_IT_number 83
_symmetry_cell_setting 'tetragonal'
loop_
_space_group_symop_operation_xyz
x,y,z
-y,x,z
-x,-y,z
y,-x,z
-x,-y,-z
y,-x,-z
x,y,-z
-y,x,-z
loop_
_atom_site_type_symbol
_atom_site_label
_atom_site_fract_x
_atom_site_fract_y
_atom_site_fract_z
Si Si1 0.809023 0.637954 0.190611
Si Si2 0.186563 0.713283 0.321540
Si Si3 0.909722 0.124635 0.818923
Si Si4 0.011446 0.610065 0.188091
Si Si5 0.476065 0.646994 0.803404
O O1 0.740785 0.724429 0.216706
O O2 0.913434 0.649647 0.255433
O O3 0.749343 0.550753 0.252773
O O4 0.821992 0.624268 0.000000
O O5 0.217695 0.689886 0.500000
O O6 0.131937 0.810206 0.313294
O O7 0.107675 0.642841 0.263694
O O8 0.019920 0.123441 0.808017
O O9 0.884403 0.157758 0.000000
O O10 0.000000 0.500000 0.199270
O O11 0.018024 0.636480 0.000000
O O12 0.397591 0.572951 0.753814
O O13 0.476908 0.648746 0.000000
#
# Coordination Sequence:
#
# PCOD9543489 Si02
#       5
#     8   8   8   8   8
#     4  10  21  37  63  92 121 160 205 257 310 369
#     4  12  25  38  55  82 119 163 202 245 298 366
#     4   9  18  34  57  82 108 141 187 245 300 348
#     4  10  23  42  65  93 123 160 209 265 322 375
#     4   8  15  29  55  92 124 147 185 248 313 366
#
# _framework density 22.971708
#
# number of rings (size 3 to 8) (size 9 to 14) (size 15 to 20)
#    0.000    2.200    0.000    4.200    2.800    6.800 
#    0.000    1.000    0.000    0.000    0.000    1.400 
#    0.000    0.000    0.000    0.000    0.000    0.000 
#
# Total GULP energy -223224.978565 kJ/mol
# GULP energy per Si atom -5580.624464 kJ/mol
# Density = 2.291942 g / cm^3
# Si number density = 22.971708 Si / 1000 Ang^3
#
#
#
# Elastic Constant Matrix: (Units=GPa)
#
#
# Indices 1 2 3 4 5 6 
#
# 1 41.3705 58.7036 -4.5220 0.0000 0.0000 17.7268
# 2 58.7036 41.3705 -4.5220 0.0000 0.0000 -17.7268
# 3 -4.5220 -4.5220 17.0115 0.0000 0.0000 0.0000
# 4 0.0000 0.0000 0.0000 -16.0935 0.0000 0.0000
# 5 0.0000 0.0000 0.0000 0.0000 -16.0935 0.0000
# 6 17.7268 -17.7268 0.0000 0.0000 0.0000 28.5705
#
#
#
# Elastic Compliance Matrix: (Units=1/GPa)
#
#
# Indices 1 2 3 4 5 6 
#
# 1 -0.007593 0.017832 0.002722 0.000000 0.000000 0.015775
# 2 0.017832 -0.007593 0.002722 0.000000 0.000000 -0.015775
# 3 0.002722 0.002722 0.060231 0.000000 0.000000 0.000000
# 4 0.000000 0.000000 0.000000 -0.062137 0.000000 0.000000
# 5 0.000000 0.000000 0.000000 0.000000 -0.062137 0.000000
# 6 0.015775 -0.015775 0.000000 0.000000 0.000000 0.015425
#
#
# Mechanical properties :
#
#
# Convention : Reuss Voigt Hill
#
# Bulk Modulus (GPa) = 10.91771 22.11906 16.51838
# Shear Modulus (GPa) = -62.63787 2.61621 -30.01083
#
# Velocity S-wave (km/s) = -5.22748 1.06834 -3.61837
# Velocity P-wave (km/s) = 5.62783 3.34239 3.20163
#
# Compressibility (1/GPa) = 0.09159433
#
# Stress axis : x y z
#
# Youngs Moduli (GPa) = -131.69199 -131.69199 16.60284
#
# Poissons Ratio (x) = 2.34834 -0.04519
# Poissons Ratio (y) = 2.34834 -0.04519
# Poissons Ratio (z) = 0.35842 0.35842
#
# Static dielectric constant tensor:
#      x y z
#    x 1.894840 0.000000 0.000000 
#    y 0.000000 1.894840 0.000000 
#    z 0.000000 0.000000 1.864460 
# 
# From -- ./inp_files/668.got.cif
#   From: 2010.05.17/outbox.cif.g08.bks.cpg/sg83_1_cif.got.tgz:668.got - 2010.06.03 18:55:12.
