data_PCOD9543048
_publ_section_title
;
Structure prediction by ZEFSAII (Michael W. Deem and Ramdas Pophale) SiO2 
 PCOD9543048
Probable space group: I -4 
;
_chemical_formula_sum "Si O2"
_cell_formula_units_Z 26
_cell_length_a 11.343579
_cell_length_b 11.343579
_cell_length_c 9.634202
_cell_angle_alpha 90.000000
_cell_angle_beta 90.000000
_cell_angle_gamma 90.000000
_cell_volume 1239.698135
_symmetry_space_group_name_H-M "I -4 "
_symmetry_group_IT_number 82
_symmetry_cell_setting 'tetragonal'
loop_
_space_group_symop_operation_xyz
x,y,z
y,-x,-z
-x,-y,z
-y,x,-z
1/2+x,1/2+y,1/2+z
1/2+y,1/2-x,1/2-z
1/2-x,1/2-y,1/2+z
1/2-y,1/2+x,1/2-z
loop_
_atom_site_type_symbol
_atom_site_label
_atom_site_fract_x
_atom_site_fract_y
_atom_site_fract_z
Si Si1 0.000000 0.500000 0.750000
Si Si2 0.070430 0.123131 0.328576
Si Si3 0.342092 0.955431 0.825991
Si Si4 0.200740 0.462387 0.943013
O O1 0.110434 0.533781 0.847033
O O2 0.044634 0.203839 0.196029
O O3 0.209648 0.106436 0.343625
O O4 0.027406 0.205136 0.457101
O O5 0.000000 0.000000 0.327016
O O6 0.411900 0.889788 0.697659
O O7 0.382239 0.884087 0.960698
#
# Coordination Sequence:
#
# PCOD9543048 Si02
#       4
#     2   8   8   8
#     4  12  28  36  66 100 132 164 224 258 320 372
#     4  11  21  39  68  90 127 169 212 257 325 374
#     4   9  20  39  65  87 121 172 214 253 316 380
#     4  11  22  41  59  97 126 167 209 266 310 379
#
# _framework density 20.972847999999999
#
# number of rings (size 3 to 8) (size 9 to 14) (size 15 to 20)
#    0.000    1.538    3.077    3.692    4.308    0.000 
#    0.000    0.000    0.000    1.846    0.000    0.000 
#    0.000    0.000    0.000    0.000    0.000    0.000 
#
# Total GULP energy -72443.261411 kJ/mol
# GULP energy per Si atom -5572.558570 kJ/mol
# Density = 2.092511 g / cm^3
# Si number density = 20.972848 Si / 1000 Ang^3
#
#
#
# Elastic Constant Matrix: (Units=GPa)
#
#
# Indices 1 2 3 4 5 6 
#
# 1 120.9897 43.3386 34.2075 0.0000 0.0000 -5.8846
# 2 43.3386 120.9897 34.2075 0.0000 0.0000 5.8846
# 3 34.2075 34.2075 42.9694 0.0000 0.0000 0.0000
# 4 0.0000 0.0000 0.0000 23.9485 0.0000 0.0000
# 5 0.0000 0.0000 0.0000 0.0000 23.9485 0.0000
# 6 -5.8846 5.8846 0.0000 0.0000 0.0000 15.3786
#
#
#
# Elastic Compliance Matrix: (Units=1/GPa)
#
#
# Indices 1 2 3 4 5 6 
#
# 1 0.011387 -0.002284 -0.007246 0.000000 0.000000 0.005231
# 2 -0.002284 0.011387 -0.007246 0.000000 0.000000 -0.005231
# 3 -0.007246 -0.007246 0.034809 0.000000 0.000000 0.000000
# 4 0.000000 0.000000 0.000000 0.041756 0.000000 0.000000
# 5 0.000000 0.000000 0.000000 0.000000 0.041756 0.000000
# 6 0.005231 -0.005231 0.000000 0.000000 0.000000 0.069029
#
#
# Mechanical properties :
#
#
# Convention : Reuss Voigt Hill
#
# Bulk Modulus (GPa) = 41.61588 56.49511 49.05549
# Shear Modulus (GPa) = 19.86593 24.20147 22.03370
#
# Velocity S-wave (km/s) = 3.08104 3.40066 3.24478
# Velocity P-wave (km/s) = 5.70463 6.51268 6.12201
#
# Compressibility (1/GPa) = 0.02402929
#
# Stress axis : x y z
#
# Youngs Moduli (GPa) = 87.82269 87.82269 28.72782
#
# Poissons Ratio (x) = 0.20062 0.20817
# Poissons Ratio (y) = 0.20062 0.20817
# Poissons Ratio (z) = 0.63637 0.63637
#
# Static dielectric constant tensor:
#      x y z
#    x 1.758640 0.000000 0.000000 
#    y 0.000000 1.758640 0.000000 
#    z 0.000000 0.000000 1.813250 
# 
# From -- ./inp_files/604.got.cif
#   From: 2010.05.17/outbox.cif.g08.bks.cpg/sg82_1_cif.got.tgz:604.got - 2010.06.03 18:52:26.
