data_PCOD9543431
_publ_section_title
;
Structure prediction by ZEFSAII (Michael W. Deem and Ramdas Pophale) SiO2 
 PCOD9543431
Probable space group: P 4/M
;
_chemical_formula_sum "Si O2"
_cell_formula_units_Z 52
_cell_length_a 18.001245
_cell_length_b 18.001245
_cell_length_c 7.627540
_cell_angle_alpha 90.000000
_cell_angle_beta 90.000000
_cell_angle_gamma 90.000000
_cell_volume 2471.664838
_symmetry_space_group_name_H-M "P 4/M"
_symmetry_group_IT_number 83
_symmetry_cell_setting 'tetragonal'
loop_
_space_group_symop_operation_xyz
x,y,z
-y,x,z
-x,-y,z
y,-x,z
-x,-y,-z
y,-x,-z
x,y,-z
-y,x,-z
loop_
_atom_site_type_symbol
_atom_site_label
_atom_site_fract_x
_atom_site_fract_y
_atom_site_fract_z
Si Si1 0.802852 0.659055 0.713525
Si Si2 0.332002 0.240813 0.707132
Si Si3 0.922526 0.785079 0.206768
Si Si4 0.491267 0.219401 0.695585
Si Si5 0.924293 0.899403 0.500000
Si Si6 0.076301 0.720527 0.201671
Si Si7 0.552988 0.936234 0.795429
O O1 0.806914 0.657260 0.500000
O O2 0.729192 0.702297 0.773083
O O3 0.872237 0.710815 0.770342
O O4 0.792187 0.573560 0.773878
O O5 0.340661 0.252879 0.500000
O O6 0.415692 0.252255 0.782427
O O7 0.295001 0.158744 0.726221
O O8 0.895944 0.852369 0.331075
O O9 0.007894 0.769688 0.266214
O O10 0.921911 0.803935 0.000000
O O11 0.501626 0.252130 0.500000
O O12 0.461703 0.135619 0.683954
O O13 0.014469 0.901865 0.500000
O O14 0.041298 0.638010 0.209896
O O15 0.088690 0.742025 0.000000
O O16 0.500000 0.000000 0.733996
O O17 0.535910 0.918765 0.000000
#
# Coordination Sequence:
#
# PCOD9543431 Si02
#       7
#     8   8   8   8   4   8   8
#     4  10  20  35  56  82 117 156 199 252 307 365
#     4   9  19  33  54  79 109 155 197 241 304 367
#     4  11  24  40  65  95 122 157 204 257 307 360
#     4   9  18  32  49  76 109 146 195 242 293 363
#     4  11  28  50  68  88 121 167 211 256 307 353
#     4   9  19  32  48  77 110 140 180 232 289 349
#     4   9  16  28  45  66 101 141 172 214 282 351
#
# _framework density 21.038450999999998
#
# number of rings (size 3 to 8) (size 9 to 14) (size 15 to 20)
#    0.000    2.385    0.769    0.923    3.231    3.385 
#    0.000    0.769    0.000    0.462    0.000    3.231 
#    0.000    0.000    0.000    9.077    0.000    9.538 
#
# Total GULP energy -289520.076982 kJ/mol
# GULP energy per Si atom -5567.693788 kJ/mol
# Density = 2.099057 g / cm^3
# Si number density = 21.038451 Si / 1000 Ang^3
#
#
#
# Elastic Constant Matrix: (Units=GPa)
#
#
# Indices 1 2 3 4 5 6 
#
# 1 100.9755 32.7386 19.0578 0.0000 0.0000 2.7238
# 2 32.7386 100.9755 19.0578 0.0000 0.0000 -2.7238
# 3 19.0578 19.0578 64.7948 0.0000 0.0000 0.0000
# 4 0.0000 0.0000 0.0000 4.9663 0.0000 0.0000
# 5 0.0000 0.0000 0.0000 0.0000 4.9663 0.0000
# 6 2.7238 -2.7238 0.0000 0.0000 0.0000 34.0866
#
#
#
# Elastic Compliance Matrix: (Units=1/GPa)
#
#
# Indices 1 2 3 4 5 6 
#
# 1 0.011456 -0.003293 -0.002401 0.000000 0.000000 -0.001179
# 2 -0.003293 0.011456 -0.002401 0.000000 0.000000 0.001179
# 3 -0.002401 -0.002401 0.016846 0.000000 0.000000 0.000000
# 4 0.000000 0.000000 0.000000 0.201357 0.000000 0.000000
# 5 0.000000 0.000000 0.000000 0.000000 0.201357 0.000000
# 6 -0.001179 0.001179 0.000000 0.000000 0.000000 0.029525
#
#
# Mechanical properties :
#
#
# Convention : Reuss Voigt Hill
#
# Bulk Modulus (GPa) = 42.43048 45.38378 43.90713
# Shear Modulus (GPa) = 10.07977 21.86328 15.97152
#
# Velocity S-wave (km/s) = 2.19124 3.22717 2.75827
# Velocity P-wave (km/s) = 5.15886 5.95859 5.57309
#
# Compressibility (1/GPa) = 0.02356796
#
# Stress axis : x y z
#
# Youngs Moduli (GPa) = 87.29062 87.29062 59.36234
#
# Poissons Ratio (x) = 0.28744 0.14253
# Poissons Ratio (y) = 0.28744 0.14253
# Poissons Ratio (z) = 0.20958 0.20958
#
# Static dielectric constant tensor:
#      x y z
#    x 1.746020 0.000000 0.000000 
#    y 0.000000 1.746020 0.000000 
#    z 0.000000 0.000000 1.826320 
# 
# From -- ./inp_files/1006.got.cif
#   From: 2010.05.17/outbox.cif.g08.bks.cpg/sg83_1_cif.got.tgz:1006.got - 2010.06.03 18:55:12.
