data_PCOD9543998
_publ_section_title
;
Structure prediction by ZEFSAII (Michael W. Deem and Ramdas Pophale) SiO2 
 PCOD9543998
Probable space group: P 42/M
;
_chemical_formula_sum "Si O2"
_cell_formula_units_Z 64
_cell_length_a 22.054858
_cell_length_b 22.054858
_cell_length_c 7.647942
_cell_angle_alpha 90.000000
_cell_angle_beta 90.000000
_cell_angle_gamma 90.000000
_cell_volume 3720.087179
_symmetry_space_group_name_H-M "P 42/M"
_symmetry_group_IT_number 84
_symmetry_cell_setting 'tetragonal'
loop_
_space_group_symop_operation_xyz
x,y,z
-y,x,1/2+z
-x,-y,z
y,-x,1/2+z
-x,-y,-z
y,-x,1/2-z
x,y,-z
-y,x,1/2-z
loop_
_atom_site_type_symbol
_atom_site_label
_atom_site_fract_x
_atom_site_fract_y
_atom_site_fract_z
Si Si1 0.939237 0.577340 0.711602
Si Si2 0.028283 0.087564 0.805914
Si Si3 0.293442 0.891892 0.705825
Si Si4 0.441237 0.078038 0.786506
Si Si5 0.225227 0.227650 0.196026
Si Si6 0.674087 0.857292 0.791301
Si Si7 0.751091 0.978019 0.290566
Si Si8 0.884814 0.153112 0.204860
O O1 0.938731 0.579551 0.500000
O O2 0.902230 0.634713 0.778157
O O3 0.915147 0.511207 0.766233
O O4 0.010134 0.579758 0.766808
O O5 0.082515 0.127981 0.736748
O O6 0.975065 0.066875 0.682507
O O7 0.006442 0.103255 0.000000
O O8 0.276707 0.889478 0.500000
O O9 0.271015 0.826666 0.778891
O O10 0.265625 0.955372 0.779692
O O11 0.393643 0.128571 0.725904
O O12 0.440314 0.077954 0.000000
O O13 0.287363 0.200312 0.279297
O O14 0.188611 0.164545 0.186394
O O15 0.239116 0.250819 0.000000
O O16 0.707873 0.922141 0.763597
O O17 0.671769 0.847789 0.000000
O O18 0.746205 0.982677 0.500000
O O19 0.817607 0.950604 0.249231
O O20 0.875627 0.166132 0.000000
#
# Coordination Sequence:
#
# PCOD9543998 Si02
#       8
#     8   8   8   8   8   8   8   8
#     4   9  16  27  43  63  84 107 132 166 208 246
#     4  11  22  36  49  60  72  88 113 152 203 255
#     4  10  19  30  41  60  86 110 132 163 208 248
#     4   8  14  25  43  64  84 103 131 172 209 239
#     4   9  19  31  44  60  80 109 139 170 204 242
#     4   9  15  28  46  61  76 102 141 174 201 242
#     4   9  18  29  41  56  79 105 126 160 205 240
#     4  10  20  33  46  61  76  97 130 164 202 247
#
# _framework density 17.203897999999999
#
# number of rings (size 3 to 8) (size 9 to 14) (size 15 to 20)
#    0.000    2.625    1.250    2.625    1.750    1.000 
#    0.000    1.875    0.000    0.000    0.000    0.000 
#    0.000    0.000    0.000    0.000    0.000    0.625 
#
# Total GULP energy -356285.141868 kJ/mol
# GULP energy per Si atom -5566.955342 kJ/mol
# Density = 1.716474 g / cm^3
# Si number density = 17.203898 Si / 1000 Ang^3
#
#
#
# Elastic Constant Matrix: (Units=GPa)
#
#
# Indices 1 2 3 4 5 6 
#
# 1 87.0408 41.4576 0.7253 0.0000 0.0000 -8.9599
# 2 41.4576 87.0408 0.7253 0.0000 0.0000 8.9599
# 3 0.7253 0.7253 42.4517 0.0000 0.0000 0.0000
# 4 0.0000 0.0000 0.0000 12.3364 0.0000 0.0000
# 5 0.0000 0.0000 0.0000 0.0000 12.3364 0.0000
# 6 -8.9599 8.9599 0.0000 0.0000 0.0000 21.2390
#
#
#
# Elastic Compliance Matrix: (Units=1/GPa)
#
#
# Indices 1 2 3 4 5 6 
#
# 1 0.017042 -0.009258 -0.000133 0.000000 0.000000 0.011095
# 2 -0.009258 0.017042 -0.000133 0.000000 0.000000 -0.011095
# 3 -0.000133 -0.000133 0.023561 0.000000 0.000000 0.000000
# 4 0.000000 0.000000 0.000000 0.081061 0.000000 0.000000
# 5 0.000000 0.000000 0.000000 0.000000 0.081061 0.000000
# 6 0.011095 -0.011095 0.000000 0.000000 0.000000 0.056444
#
#
# Mechanical properties :
#
#
# Convention : Reuss Voigt Hill
#
# Bulk Modulus (GPa) = 25.90931 33.59442 29.75187
# Shear Modulus (GPa) = 16.22727 20.75735 18.49231
#
# Velocity S-wave (km/s) = 3.07454 3.47731 3.28211
# Velocity P-wave (km/s) = 5.26275 5.97427 5.62976
#
# Compressibility (1/GPa) = 0.03859616
#
# Stress axis : x y z
#
# Youngs Moduli (GPa) = 58.67999 58.67999 42.44349
#
# Poissons Ratio (x) = 0.54325 0.00564
# Poissons Ratio (y) = 0.54325 0.00564
# Poissons Ratio (z) = 0.00780 0.00780
#
# Static dielectric constant tensor:
#      x y z
#    x 1.653900 0.000000 0.000000 
#    y 0.000000 1.653900 0.000000 
#    z 0.000000 0.000000 1.651370 
# 
# From -- ./inp_files/1377.got.cif
#   From: 2010.05.17/outbox.cif.g08.bks.cpg/sg84_1_cif.got.tgz:1377.got - 2010.06.03 18:57:40.
