data_PCOD9543889
_publ_section_title
;
Structure prediction by ZEFSAII (Michael W. Deem and Ramdas Pophale) SiO2 
 PCOD9543889
Probable space group: P 4/M
;
_chemical_formula_sum "Si O2"
_cell_formula_units_Z 29
_cell_length_a 8.322789
_cell_length_b 8.322789
_cell_length_c 19.377971
_cell_angle_alpha 90.000000
_cell_angle_beta 90.000000
_cell_angle_gamma 90.000000
_cell_volume 1342.289122
_symmetry_space_group_name_H-M "P 4/M"
_symmetry_group_IT_number 83
_symmetry_cell_setting 'tetragonal'
loop_
_space_group_symop_operation_xyz
x,y,z
-y,x,z
-x,-y,z
y,-x,z
-x,-y,-z
y,-x,-z
x,y,-z
-y,x,-z
loop_
_atom_site_type_symbol
_atom_site_label
_atom_site_fract_x
_atom_site_fract_y
_atom_site_fract_z
Si Si1 0.410779 0.243982 0.924487
Si Si2 0.110943 0.653103 0.500000
Si Si3 0.758821 0.867668 0.356259
Si Si4 0.103371 0.748672 0.205853
Si Si5 0.000000 0.000000 0.500000
O O1 0.593919 0.303684 0.921717
O O2 0.362161 0.142430 0.858569
O O3 0.382344 0.167194 0.000000
O O4 0.190667 0.664655 0.424075
O O5 0.000000 0.500000 0.500000
O O6 0.992773 0.806291 0.500000
O O7 0.679915 0.847781 0.281127
O O8 0.938628 0.792734 0.358482
O O9 0.916931 0.799262 0.202495
#
# Coordination Sequence:
#
# PCOD9543889 Si02
#       5
#     8   4   8   8   1
#     4   9  19  37  56  74 103 146 190 230 283 347
#     4  12  20  32  64  92 108 166 218 232 314 374
#     4   9  15  33  56  77 114 153 185 238 292 338
#     4   9  19  33  53  81 111 142 179 229 292 344
#     4  12  20  44  60  80 140 156 190 300 292 352
#
# _framework density 21.604882
#
# number of rings (size 3 to 8) (size 9 to 14) (size 15 to 20)
#    0.000    2.483    2.759    2.483    0.000    2.207 
#    9.931    4.138    0.000    0.414    0.000    0.000 
#    0.000    0.000    0.000    0.000    0.000    0.000 
#
# Total GULP energy -161438.349557 kJ/mol
# GULP energy per Si atom -5566.839640 kJ/mol
# Density = 2.155571 g / cm^3
# Si number density = 21.604882 Si / 1000 Ang^3
#
#
#
# Elastic Constant Matrix: (Units=GPa)
#
#
# Indices 1 2 3 4 5 6 
#
# 1 35.2983 11.0180 29.9748 0.0000 0.0000 -2.0322
# 2 11.0180 35.2983 29.9748 0.0000 0.0000 2.0322
# 3 29.9748 29.9748 225.5239 0.0000 0.0000 0.0000
# 4 0.0000 0.0000 0.0000 2235.4846 0.0000 0.0000
# 5 0.0000 0.0000 0.0000 0.0000 2235.4846 0.0000
# 6 -2.0322 2.0322 0.0000 0.0000 0.0000 19.9917
#
#
#
# Elastic Compliance Matrix: (Units=1/GPa)
#
#
# Indices 1 2 3 4 5 6 
#
# 1 0.033988 -0.007911 -0.003466 0.000000 0.000000 0.004259
# 2 -0.007911 0.033988 -0.003466 0.000000 0.000000 -0.004259
# 3 -0.003466 -0.003466 0.005355 0.000000 0.000000 0.000000
# 4 0.000000 0.000000 0.000000 0.000447 0.000000 0.000000
# 5 0.000000 0.000000 0.000000 0.000000 0.000447 0.000000
# 6 0.004259 -0.004259 0.000000 0.000000 0.000000 0.050887
#
#
# Mechanical properties :
#
#
# Convention : Reuss Voigt Hill
#
# Bulk Modulus (GPa) = 22.91200 48.67287 35.79243
# Shear Modulus (GPa) = 29.52536 913.20238 471.36387
#
# Velocity S-wave (km/s) = 3.70077 20.58157 14.78676
# Velocity P-wave (km/s) = 5.37485 24.23590 17.55374
#
# Compressibility (1/GPa) = 0.04364526
#
# Stress axis : x y z
#
# Youngs Moduli (GPa) = 29.42244 29.42244 186.72608
#
# Poissons Ratio (x) = 0.23276 0.64717
# Poissons Ratio (y) = 0.23276 0.64717
# Poissons Ratio (z) = 0.10198 0.10198
#
# Static dielectric constant tensor:
#      x y z
#    x 1.779880 0.000000 0.000000 
#    y 0.000000 1.779880 0.000000 
#    z 0.000000 0.000000 1.933070 
# 
# From -- ./inp_files/2775.got.cif
#   From: 2010.05.17/outbox.cif.g08.bks.cpg/sg83_2_cif.got.tgz:2775.got - 2010.06.03 18:55:12.
