data_PCOD9543139
_publ_section_title
;
Structure prediction by ZEFSAII (Michael W. Deem and Ramdas Pophale) SiO2 
 PCOD9543139
Probable space group: I -4 
;
_chemical_formula_sum "Si O2"
_cell_formula_units_Z 40
_cell_length_a 14.181565
_cell_length_b 14.181565
_cell_length_c 9.359780
_cell_angle_alpha 90.000000
_cell_angle_beta 90.000000
_cell_angle_gamma 90.000000
_cell_volume 1882.408870
_symmetry_space_group_name_H-M "I -4 "
_symmetry_group_IT_number 82
_symmetry_cell_setting 'tetragonal'
loop_
_space_group_symop_operation_xyz
x,y,z
y,-x,-z
-x,-y,z
-y,x,-z
1/2+x,1/2+y,1/2+z
1/2+y,1/2-x,1/2-z
1/2-x,1/2-y,1/2+z
1/2-y,1/2+x,1/2-z
loop_
_atom_site_type_symbol
_atom_site_label
_atom_site_fract_x
_atom_site_fract_y
_atom_site_fract_z
Si Si1 0.240739 0.452490 0.263658
Si Si2 0.627176 0.442566 0.062185
Si Si3 0.291059 0.204812 0.995261
Si Si4 0.129486 0.329625 0.062376
Si Si5 0.102273 0.386753 0.747900
O O1 0.337162 0.496546 0.199236
O O2 0.242603 0.358524 0.361500
O O3 0.176524 0.423307 0.128150
O O4 0.191137 0.533128 0.356826
O O5 0.525766 0.388798 0.057676
O O6 0.709128 0.364031 0.039356
O O7 0.203964 0.246588 0.083222
O O8 0.342492 0.138673 0.107387
O O9 0.121100 0.330751 0.892063
O O10 0.122889 0.493490 0.788219
#
# Coordination Sequence:
#
# PCOD9543139 Si02
#       5
#     8   8   8   8   8
#     4  12  25  47  74 112 145 194 261 322 381 473
#     4  11  25  47  76 109 150 206 259 310 392 475
#     4  12  25  48  73 105 153 200 252 319 389 469
#     4  12  26  44  73 106 144 195 249 317 392 459
#     4  11  25  43  66 101 141 185 235 306 386 450
#
# _framework density 21.249369000000002
#
# number of rings (size 3 to 8) (size 9 to 14) (size 15 to 20)
#    0.000    0.400    6.000    2.400    0.000    0.400 
#    0.000    0.000    0.000    0.000    0.000    0.000 
#    0.000    0.000    0.000    0.000    0.000    0.000 
#
# Total GULP energy -111629.494147 kJ/mol
# GULP energy per Si atom -5581.474707 kJ/mol
# Density = 2.120100 g / cm^3
# Si number density = 21.249369 Si / 1000 Ang^3
#
#
#
# Elastic Constant Matrix: (Units=GPa)
#
#
# Indices 1 2 3 4 5 6 
#
# 1 88.8626 18.9455 16.3991 0.0000 0.0000 1.0003
# 2 18.9455 88.8626 16.3991 0.0000 0.0000 -1.0003
# 3 16.3991 16.3991 55.7084 0.0000 0.0000 0.0000
# 4 0.0000 0.0000 0.0000 37.5603 0.0000 0.0000
# 5 0.0000 0.0000 0.0000 0.0000 37.5603 0.0000
# 6 1.0003 -1.0003 0.0000 0.0000 0.0000 37.4750
#
#
#
# Elastic Compliance Matrix: (Units=1/GPa)
#
#
# Indices 1 2 3 4 5 6 
#
# 1 0.012251 -0.002063 -0.002999 0.000000 0.000000 -0.000382
# 2 -0.002063 0.012251 -0.002999 0.000000 0.000000 0.000382
# 3 -0.002999 -0.002999 0.019716 0.000000 0.000000 0.000000
# 4 0.000000 0.000000 0.000000 0.026624 0.000000 0.000000
# 5 0.000000 0.000000 0.000000 0.000000 0.026624 0.000000
# 6 -0.000382 0.000382 0.000000 0.000000 0.000000 0.026705
#
#
# Mechanical properties :
#
#
# Convention : Reuss Voigt Hill
#
# Bulk Modulus (GPa) = 35.59206 37.43567 36.51387
# Shear Modulus (GPa) = 33.40949 34.63176 34.02062
#
# Velocity S-wave (km/s) = 3.96947 4.04143 4.00561
# Velocity P-wave (km/s) = 6.14777 6.27958 6.21402
#
# Compressibility (1/GPa) = 0.02809615
#
# Stress axis : x y z
#
# Youngs Moduli (GPa) = 81.62684 81.62684 50.71930
#
# Poissons Ratio (x) = 0.16837 0.15211
# Poissons Ratio (y) = 0.16837 0.15211
# Poissons Ratio (z) = 0.24481 0.24481
#
# Static dielectric constant tensor:
#      x y z
#    x 1.787980 0.000000 0.000000 
#    y 0.000000 1.787980 0.000000 
#    z 0.000000 0.000000 1.821560 
# 
# From -- ./inp_files/934.got.cif
#   From: 2010.05.17/outbox.cif.g08.bks.cpg/sg82_1_cif.got.tgz:934.got - 2010.06.03 18:52:26.
