data_PCOD9543411
_publ_section_title
;
Structure prediction by ZEFSAII (Michael W. Deem and Ramdas Pophale) SiO2 
 PCOD9543411
Probable space group: P 4/M
;
_chemical_formula_sum "Si O2"
_cell_formula_units_Z 40
_cell_length_a 14.189009
_cell_length_b 14.189009
_cell_length_c 10.449084
_cell_angle_alpha 90.000000
_cell_angle_beta 90.000000
_cell_angle_gamma 90.000000
_cell_volume 2103.692937
_symmetry_space_group_name_H-M "P 4/M"
_symmetry_group_IT_number 83
_symmetry_cell_setting 'tetragonal'
loop_
_space_group_symop_operation_xyz
x,y,z
-y,x,z
-x,-y,z
y,-x,z
-x,-y,-z
y,-x,-z
x,y,-z
-y,x,-z
loop_
_atom_site_type_symbol
_atom_site_label
_atom_site_fract_x
_atom_site_fract_y
_atom_site_fract_z
Si Si1 0.505767 0.893230 0.345535
Si Si2 0.155967 0.030632 0.145769
Si Si3 0.391206 0.614974 0.861144
Si Si4 0.243875 0.337127 0.649846
Si Si5 0.277915 0.127091 0.649220
O O1 0.498767 0.896248 0.500000
O O2 0.415284 0.831832 0.305681
O O3 0.611401 0.856750 0.318360
O O4 0.500000 0.000000 0.296744
O O5 0.232187 0.053471 0.253623
O O6 0.070857 0.106293 0.158806
O O7 0.193134 0.038229 0.000000
O O8 0.372625 0.503898 0.857072
O O9 0.350602 0.666987 0.740171
O O10 0.357006 0.651123 0.000000
O O11 0.265251 0.355172 0.500000
O O12 0.221798 0.226133 0.658966
O O13 0.274316 0.095924 0.500000
#
# Coordination Sequence:
#
# PCOD9543411 Si02
#       5
#     8   8   8   8   8
#     4   9  19  35  53  76 115 154 179 223 293 345
#     4   9  20  39  60  82 112 149 185 229 290 347
#     4   9  18  32  50  73 102 137 177 223 277 329
#     4  10  20  34  53  79 108 142 188 232 272 332
#     4  10  21  34  57  88 111 145 196 237 279 337
#
# _framework density 19.014182000000002
#
# number of rings (size 3 to 8) (size 9 to 14) (size 15 to 20)
#    0.000    2.600    0.000    2.400    2.800    4.000 
#    0.000    3.000    0.000    1.200    0.000    0.000 
#    0.000    0.000    0.000    0.000    0.000    0.000 
#
# Total GULP energy -222872.678230 kJ/mol
# GULP energy per Si atom -5571.816956 kJ/mol
# Density = 1.897090 g / cm^3
# Si number density = 19.014182 Si / 1000 Ang^3
#
#
#
# Elastic Constant Matrix: (Units=GPa)
#
#
# Indices 1 2 3 4 5 6 
#
# 1 46.2260 21.4311 22.8261 0.0000 0.0000 12.7507
# 2 21.4311 46.2260 22.8261 0.0000 0.0000 -12.7507
# 3 22.8261 22.8261 65.1201 0.0000 0.0000 0.0000
# 4 0.0000 0.0000 0.0000 5.7287 0.0000 0.0000
# 5 0.0000 0.0000 0.0000 0.0000 5.7287 0.0000
# 6 12.7507 -12.7507 0.0000 0.0000 0.0000 29.1957
#
#
#
# Elastic Compliance Matrix: (Units=1/GPa)
#
#
# Indices 1 2 3 4 5 6 
#
# 1 0.046289 -0.026930 -0.006786 0.000000 0.000000 -0.031977
# 2 -0.026930 0.046289 -0.006786 0.000000 0.000000 0.031977
# 3 -0.006786 -0.006786 0.020113 0.000000 0.000000 0.000000
# 4 0.000000 0.000000 0.000000 0.174558 0.000000 0.000000
# 5 0.000000 0.000000 0.000000 0.000000 0.174558 0.000000
# 6 -0.031977 0.031977 0.000000 0.000000 0.000000 0.062183
#
#
# Mechanical properties :
#
#
# Convention : Reuss Voigt Hill
#
# Bulk Modulus (GPa) = 31.55719 32.41539 31.98629
# Shear Modulus (GPa) = 8.12270 14.16323 11.14297
#
# Velocity S-wave (km/s) = 2.06910 2.73220 2.42344
# Velocity P-wave (km/s) = 4.72662 5.19983 4.96886
#
# Compressibility (1/GPa) = 0.03168850
#
# Stress axis : x y z
#
# Youngs Moduli (GPa) = 21.60321 21.60321 49.71802
#
# Poissons Ratio (x) = 0.58178 0.33738
# Poissons Ratio (y) = 0.58178 0.33738
# Poissons Ratio (z) = 0.14660 0.14660
#
# Static dielectric constant tensor:
#      x y z
#    x 1.677980 0.000000 0.000000 
#    y 0.000000 1.677980 0.000000 
#    z 0.000000 0.000000 1.646100 
# 
# From -- ./inp_files/641.got.cif
#   From: 2010.05.17/outbox.cif.g08.bks.cpg/sg83_1_cif.got.tgz:641.got - 2010.06.03 18:55:12.
