data_PCOD9543332
_publ_section_title
;
Structure prediction by ZEFSAII (Michael W. Deem and Ramdas Pophale) SiO2 
 PCOD9543332
Probable space group: P 4/M
;
_chemical_formula_sum "Si O2"
_cell_formula_units_Z 64
_cell_length_a 20.915760
_cell_length_b 20.915760
_cell_length_c 8.881892
_cell_angle_alpha 90.000000
_cell_angle_beta 90.000000
_cell_angle_gamma 90.000000
_cell_volume 3885.552557
_symmetry_space_group_name_H-M "P 4/M"
_symmetry_group_IT_number 83
_symmetry_cell_setting 'tetragonal'
loop_
_space_group_symop_operation_xyz
x,y,z
-y,x,z
-x,-y,z
y,-x,z
-x,-y,-z
y,-x,-z
x,y,-z
-y,x,-z
loop_
_atom_site_type_symbol
_atom_site_label
_atom_site_fract_x
_atom_site_fract_y
_atom_site_fract_z
Si Si1 0.895474 0.495366 0.822025
Si Si2 0.624226 0.062095 0.678843
Si Si3 0.496609 0.762840 0.672299
Si Si4 0.278010 0.614215 0.166307
Si Si5 0.736585 0.814993 0.172173
Si Si6 0.187543 0.295290 0.318829
Si Si7 0.354489 0.082625 0.678556
Si Si8 0.705169 0.612499 0.176353
O O1 0.936696 0.554744 0.758908
O O2 0.824147 0.516426 0.775362
O O3 0.903544 0.424781 0.749843
O O4 0.903668 0.490016 0.000000
O O5 0.611771 0.069581 0.500000
O O6 0.672268 0.119518 0.723760
O O7 0.655530 0.992942 0.703069
O O8 0.482698 0.778063 0.500000
O O9 0.569325 0.744434 0.701079
O O10 0.453291 0.706283 0.735198
O O11 0.234610 0.677246 0.165295
O O12 0.349487 0.639062 0.185244
O O13 0.270032 0.583356 0.000000
O O14 0.792944 0.774455 0.252872
O O15 0.703188 0.875353 0.253206
O O16 0.754619 0.830489 0.000000
O O17 0.190980 0.292473 0.500000
O O18 0.240725 0.344023 0.255190
O O19 0.358923 0.095350 0.500000
O O20 0.720532 0.604986 0.000000
#
# Coordination Sequence:
#
# PCOD9543332 Si02
#       8
#     8   8   8   8   8   8   8   8
#     4  12  23  34  49  71 102 139 177 212 249 296
#     4  10  22  37  52  74 104 138 175 212 251 301
#     4  12  22  32  51  74  99 128 164 207 253 303
#     4   9  19  34  51  71  96 124 159 204 254 303
#     4  10  20  34  52  74 101 131 169 213 252 295
#     4  10  19  33  53  74 100 132 168 209 254 298
#     4  11  22  36  53  73 103 140 176 212 252 299
#     4  10  20  34  52  73  97 125 161 208 257 306
#
# _framework density 16.471274000000001
#
# number of rings (size 3 to 8) (size 9 to 14) (size 15 to 20)
#    0.000    1.500    2.500    4.875    0.000    5.500 
#    0.000    0.000    0.000    0.375    0.000    2.625 
#    0.000    0.500    0.000    5.750    0.000    2.250 
#
# Total GULP energy -356875.379227 kJ/mol
# GULP energy per Si atom -5576.177800 kJ/mol
# Density = 1.643378 g / cm^3
# Si number density = 16.471274 Si / 1000 Ang^3
#
#
#
# Elastic Constant Matrix: (Units=GPa)
#
#
# Indices 1 2 3 4 5 6 
#
# 1 51.4861 30.1438 32.7136 0.0000 0.0000 0.6575
# 2 30.1438 51.4861 32.7136 0.0000 0.0000 -0.6575
# 3 32.7136 32.7136 79.6788 0.0000 0.0000 0.0000
# 4 0.0000 0.0000 0.0000 11.8590 0.0000 0.0000
# 5 0.0000 0.0000 0.0000 0.0000 11.8590 0.0000
# 6 0.6575 -0.6575 0.0000 0.0000 0.0000 24.0416
#
#
#
# Elastic Compliance Matrix: (Units=1/GPa)
#
#
# Indices 1 2 3 4 5 6 
#
# 1 0.032597 -0.014338 -0.007497 0.000000 0.000000 -0.001284
# 2 -0.014338 0.032597 -0.007497 0.000000 0.000000 0.001284
# 3 -0.007497 -0.007497 0.018706 0.000000 0.000000 0.000000
# 4 0.000000 0.000000 0.000000 0.084324 0.000000 0.000000
# 5 0.000000 0.000000 0.000000 0.000000 0.084324 0.000000
# 6 -0.001284 0.001284 0.000000 0.000000 0.000000 0.041665
#
#
# Mechanical properties :
#
#
# Convention : Reuss Voigt Hill
#
# Bulk Modulus (GPa) = 39.62309 41.53256 40.57783
# Shear Modulus (GPa) = 13.83942 15.35726 14.59834
#
# Velocity S-wave (km/s) = 2.90179 3.05678 2.98029
# Velocity P-wave (km/s) = 5.94435 6.14235 6.04416
#
# Compressibility (1/GPa) = 0.02523781
#
# Stress axis : x y z
#
# Youngs Moduli (GPa) = 30.67794 30.67794 53.45850
#
# Poissons Ratio (x) = 0.43985 0.40076
# Poissons Ratio (y) = 0.43985 0.40076
# Poissons Ratio (z) = 0.22998 0.22998
#
# Static dielectric constant tensor:
#      x y z
#    x 1.578660 0.000000 0.000000 
#    y 0.000000 1.578660 0.000000 
#    z 0.000000 0.000000 1.569380 
# 
# From -- ./inp_files/1320.got.cif
#   From: 2010.05.17/outbox.cif.g08.bks.cpg/sg83_1_cif.got.tgz:1320.got - 2010.06.03 18:55:12.
