data_PCOD9543788
_publ_section_title
;
Structure prediction by ZEFSAII (Michael W. Deem and Ramdas Pophale) SiO2 
 PCOD9543788
Probable space group: P 4/M
;
_chemical_formula_sum "Si O2"
_cell_formula_units_Z 50
_cell_length_a 8.083387
_cell_length_b 8.083387
_cell_length_c 34.486551
_cell_angle_alpha 90.000000
_cell_angle_beta 90.000000
_cell_angle_gamma 90.000000
_cell_volume 2253.390743
_symmetry_space_group_name_H-M "P 4/M"
_symmetry_group_IT_number 83
_symmetry_cell_setting 'tetragonal'
loop_
_space_group_symop_operation_xyz
x,y,z
-y,x,z
-x,-y,z
y,-x,z
-x,-y,-z
y,-x,-z
x,y,-z
-y,x,-z
loop_
_atom_site_type_symbol
_atom_site_label
_atom_site_fract_x
_atom_site_fract_y
_atom_site_fract_z
Si Si1 0.588072 0.235268 0.645586
Si Si2 0.915121 0.734252 0.957733
Si Si3 0.500000 0.000000 0.500000
Si Si4 0.088426 0.263624 0.278356
Si Si5 0.922969 0.731526 0.569855
Si Si6 0.764682 0.587452 0.116887
Si Si7 0.405740 0.763934 0.202304
O O1 0.701468 0.400420 0.643421
O O2 0.623829 0.144678 0.685952
O O3 0.642795 0.120279 0.610048
O O4 0.872254 0.629884 0.920187
O O5 0.101847 0.800822 0.956425
O O6 0.885130 0.654077 0.000000
O O7 0.392025 0.904867 0.534121
O O8 0.122951 0.351723 0.237634
O O9 0.901079 0.201561 0.280863
O O10 0.108993 0.803270 0.567341
O O11 0.599876 0.700159 0.115256
O O12 0.839842 0.619327 0.159476
O O13 0.297602 0.595117 0.204988
#
# Coordination Sequence:
#
# PCOD9543788 Si02
#       7
#     8   8   2   8   8   8   8
#     4  11  24  42  66  97 131 168 212 263 317 370
#     4   9  19  35  52  72 102 140 182 231 289 354
#     4  12  24  42  68  98 132 168 208 256 308 356
#     4  11  24  39  57  87 125 163 205 252 303 362
#     4  11  24  43  68  98 132 171 214 258 307 364
#     4   9  19  35  54  78 108 141 182 236 296 358
#     4   9  19  37  58  80 110 150 195 243 298 360
#
# _framework density 22.188782
#
# number of rings (size 3 to 8) (size 9 to 14) (size 15 to 20)
#    0.000    1.920    0.000    4.800    0.000    9.600 
#    0.000    7.200    0.000    2.880    0.000    0.000 
#    0.000    0.000    0.000    0.000    0.000    0.000 
#
# Total GULP energy -279443.366936 kJ/mol
# GULP energy per Si atom -5588.867339 kJ/mol
# Density = 2.213828 g / cm^3
# Si number density = 22.188782 Si / 1000 Ang^3
#
#
#
# Elastic Constant Matrix: (Units=GPa)
#
#
# Indices 1 2 3 4 5 6 
#
# 1 82.9123 43.0418 65.6908 0.0000 0.0000 2.9755
# 2 43.0418 82.9123 65.6908 0.0000 0.0000 -2.9755
# 3 65.6908 65.6908 235.7056 0.0000 0.0000 0.0000
# 4 0.0000 0.0000 0.0000 30.5798 0.0000 0.0000
# 5 0.0000 0.0000 0.0000 0.0000 30.5798 0.0000
# 6 2.9755 -2.9755 0.0000 0.0000 0.0000 40.6545
#
#
#
# Elastic Compliance Matrix: (Units=1/GPa)
#
#
# Indices 1 2 3 4 5 6 
#
# 1 0.018276 -0.007082 -0.003120 0.000000 0.000000 -0.001856
# 2 -0.007082 0.018276 -0.003120 0.000000 0.000000 0.001856
# 3 -0.003120 -0.003120 0.005981 0.000000 0.000000 0.000000
# 4 0.000000 0.000000 0.000000 0.032701 0.000000 0.000000
# 5 0.000000 0.000000 0.000000 0.000000 0.032701 0.000000
# 6 -0.001856 0.001856 0.000000 0.000000 0.000000 0.024869
#
#
# Mechanical properties :
#
#
# Convention : Reuss Voigt Hill
#
# Bulk Modulus (GPa) = 62.93307 83.37523 73.15415
# Shear Modulus (GPa) = 30.35001 35.50329 32.92665
#
# Velocity S-wave (km/s) = 3.70240 4.00441 3.85636
# Velocity P-wave (km/s) = 6.83383 7.68358 7.27113
#
# Compressibility (1/GPa) = 0.01588990
#
# Stress axis : x y z
#
# Youngs Moduli (GPa) = 54.71716 54.71716 167.18420
#
# Poissons Ratio (x) = 0.38753 0.52154
# Poissons Ratio (y) = 0.38753 0.52154
# Poissons Ratio (z) = 0.17069 0.17069
#
# Static dielectric constant tensor:
#      x y z
#    x 1.815380 0.000000 0.000000 
#    y 0.000000 1.815380 0.000000 
#    z 0.000000 0.000000 1.770680 
# 
# From -- ./inp_files/3441.got.cif
#   From: 2010.05.17/outbox.cif.g08.bks.cpg/sg83_2_cif.got.tgz:3441.got - 2010.06.03 18:55:12.
