data_PCOD9543538
_publ_section_title
;
Structure prediction by ZEFSAII (Michael W. Deem and Ramdas Pophale) SiO2 
 PCOD9543538
Probable space group: P 4/M
;
_chemical_formula_sum "Si O2"
_cell_formula_units_Z 48
_cell_length_a 9.426838
_cell_length_b 9.426838
_cell_length_c 30.306621
_cell_angle_alpha 90.000000
_cell_angle_beta 90.000000
_cell_angle_gamma 90.000000
_cell_volume 2693.206200
_symmetry_space_group_name_H-M "P 4/M"
_symmetry_group_IT_number 83
_symmetry_cell_setting 'tetragonal'
loop_
_space_group_symop_operation_xyz
x,y,z
-y,x,z
-x,-y,z
y,-x,z
-x,-y,-z
y,-x,-z
x,y,-z
-y,x,-z
loop_
_atom_site_type_symbol
_atom_site_label
_atom_site_fract_x
_atom_site_fract_y
_atom_site_fract_z
Si Si1 0.500000 0.000000 0.569742
Si Si2 0.145077 0.334450 0.862517
Si Si3 0.735733 0.454146 0.264517
Si Si4 0.362559 0.138534 0.177221
Si Si5 0.375298 0.705133 0.050733
Si Si6 0.737249 0.471332 0.365322
Si Si7 0.243662 0.982274 0.500000
O O1 0.470278 0.136198 0.600201
O O2 0.643383 0.022613 0.540612
O O3 0.146342 0.500922 0.853626
O O4 0.268963 0.272321 0.833141
O O5 0.186153 0.313205 0.913432
O O6 0.999179 0.281107 0.840938
O O7 0.659704 0.607255 0.259427
O O8 0.850989 0.416372 0.227369
O O9 0.789532 0.453977 0.314790
O O10 0.312854 0.545934 0.056700
O O11 0.350234 0.747511 0.000000
O O12 0.651450 0.619088 0.370676
O O13 0.127862 0.852561 0.500000
#
# Coordination Sequence:
#
# PCOD9543538 Si02
#       7
#     4   8   8   8   8   8   4
#     4  11  20  34  60  86 110 154 196 240 285 334
#     4  11  22  35  54  82 107 139 181 222 270 326
#     4   9  17  33  56  81 108 145 181 227 276 325
#     4  11  22  35  55  80 110 143 183 222 270 319
#     4   9  17  32  56  82 106 133 170 223 279 325
#     4   9  19  35  55  82 116 147 184 231 287 335
#     4  10  22  38  56  82 118 154 198 242 288 336
#
# _framework density 17.822624000000001
#
# number of rings (size 3 to 8) (size 9 to 14) (size 15 to 20)
#    0.000    2.083    3.333    2.500    0.000    2.000 
#    0.000    2.500    0.000    4.000    0.000    1.167 
#    0.000    0.000    0.000    0.000    0.000    0.000 
#
# Total GULP energy -267211.054504 kJ/mol
# GULP energy per Si atom -5566.896969 kJ/mol
# Density = 1.778206 g / cm^3
# Si number density = 17.822624 Si / 1000 Ang^3
#
#
#
# Elastic Constant Matrix: (Units=GPa)
#
#
# Indices 1 2 3 4 5 6 
#
# 1 65.2434 14.9241 48.9710 0.0000 0.0000 -2.3720
# 2 14.9241 65.2434 48.9710 0.0000 0.0000 2.3720
# 3 48.9710 48.9710 167.0096 0.0000 0.0000 0.0000
# 4 0.0000 0.0000 0.0000 8.6584 0.0000 0.0000
# 5 0.0000 0.0000 0.0000 0.0000 8.6584 0.0000
# 6 -2.3720 2.3720 0.0000 0.0000 0.0000 18.4168
#
#
#
# Elastic Compliance Matrix: (Units=1/GPa)
#
#
# Indices 1 2 3 4 5 6 
#
# 1 0.019777 -0.000340 -0.005699 0.000000 0.000000 0.002591
# 2 -0.000340 0.019777 -0.005699 0.000000 0.000000 -0.002591
# 3 -0.005699 -0.005699 0.009330 0.000000 0.000000 0.000000
# 4 0.000000 0.000000 0.000000 0.115495 0.000000 0.000000
# 5 0.000000 0.000000 0.000000 0.000000 0.115495 0.000000
# 6 0.002591 -0.002591 0.000000 0.000000 0.000000 0.054966
#
#
# Mechanical properties :
#
#
# Convention : Reuss Voigt Hill
#
# Bulk Modulus (GPa) = 39.36015 58.13653 48.74834
# Shear Modulus (GPa) = 13.63191 19.45541 16.54366
#
# Velocity S-wave (km/s) = 2.76862 3.30754 3.05001
# Velocity P-wave (km/s) = 5.68794 6.87581 6.30989
#
# Compressibility (1/GPa) = 0.02540641
#
# Stress axis : x y z
#
# Youngs Moduli (GPa) = 50.56356 50.56356 107.18083
#
# Poissons Ratio (x) = 0.01720 0.61086
# Poissons Ratio (y) = 0.01720 0.61086
# Poissons Ratio (z) = 0.28818 0.28818
#
# Static dielectric constant tensor:
#      x y z
#    x 1.701120 0.000000 0.000000 
#    y 0.000000 1.701120 0.000000 
#    z 0.000000 0.000000 1.628280 
# 
# From -- ./inp_files/3463.got.cif
#   From: 2010.05.17/outbox.cif.g08.bks.cpg/sg83_2_cif.got.tgz:3463.got - 2010.06.03 18:55:12.
