data_PCOD9543192
_publ_section_title
;
Structure prediction by ZEFSAII (Michael W. Deem and Ramdas Pophale) SiO2 
 PCOD9543192
Probable space group: I -4 
;
_chemical_formula_sum "Si O2"
_cell_formula_units_Z 52
_cell_length_a 21.985569
_cell_length_b 21.985569
_cell_length_c 5.172885
_cell_angle_alpha 90.000000
_cell_angle_beta 90.000000
_cell_angle_gamma 90.000000
_cell_volume 2500.392822
_symmetry_space_group_name_H-M "I -4 "
_symmetry_group_IT_number 82
_symmetry_cell_setting 'tetragonal'
loop_
_space_group_symop_operation_xyz
x,y,z
y,-x,-z
-x,-y,z
-y,x,-z
1/2+x,1/2+y,1/2+z
1/2+y,1/2-x,1/2-z
1/2-x,1/2-y,1/2+z
1/2-y,1/2+x,1/2-z
loop_
_atom_site_type_symbol
_atom_site_label
_atom_site_fract_x
_atom_site_fract_y
_atom_site_fract_z
Si Si1 0.405635 0.826871 0.999297
Si Si2 0.051596 0.079291 0.106814
Si Si3 0.230885 0.715892 0.435771
Si Si4 0.211264 0.913624 0.047688
Si Si5 0.729428 0.031617 0.546504
Si Si6 0.000000 0.000000 0.500000
Si Si7 0.590177 0.904658 0.996334
Si Si8 0.500000 0.000000 0.250000
O O1 0.459924 0.778772 0.989128
O O2 0.404812 0.859574 0.276789
O O3 0.340816 0.796769 0.943535
O O4 0.416801 0.877600 0.777309
O O5 0.083207 0.140899 0.031583
O O6 0.042408 0.055292 0.394451
O O7 0.980853 0.080785 0.019032
O O8 0.248694 0.766185 0.648053
O O9 0.264015 0.654443 0.524636
O O10 0.247317 0.952225 0.831194
O O11 0.226602 0.940115 0.329359
O O12 0.662152 0.060246 0.510031
O O13 0.541010 0.955281 0.075425
#
# Coordination Sequence:
#
# PCOD9543192 Si02
#       8
#     8   8   8   8   8   2   8   2
#     4  12  26  45  69  96 143 181 239 286 352 400
#     4   9  22  42  71 103 139 172 226 285 360 422
#     4  12  26  48  71  99 139 190 236 288 346 423
#     4  12  26  46  72 103 140 184 230 288 352 416
#     4  12  25  43  69  99 138 185 230 290 346 409
#     4   8  18  44  68 102 144 176 206 304 354 428
#     4  12  24  43  66  99 137 183 230 296 342 419
#     4  12  28  38  76 106 136 190 248 282 380 414
#
# _framework density 20.796735000000002
#
# number of rings (size 3 to 8) (size 9 to 14) (size 15 to 20)
#    0.000    0.769    4.615    2.769    6.462    3.077 
#    0.000    0.000    0.000    0.000    0.000    0.000 
#    0.000    0.000    0.000    0.000    0.000    0.000 
#
# Total GULP energy -145305.091714 kJ/mol
# GULP energy per Si atom -5588.657374 kJ/mol
# Density = 2.074940 g / cm^3
# Si number density = 20.796735 Si / 1000 Ang^3
#
#
#
# Elastic Constant Matrix: (Units=GPa)
#
#
# Indices 1 2 3 4 5 6 
#
# 1 9.2549 30.3046 -2.8250 0.0000 0.0000 -13.0580
# 2 30.3046 9.2549 -2.8250 0.0000 0.0000 13.0580
# 3 -2.8250 -2.8250 29.6552 0.0000 0.0000 0.0000
# 4 0.0000 0.0000 0.0000 30.8700 0.0000 0.0000
# 5 0.0000 0.0000 0.0000 0.0000 30.8700 0.0000
# 6 -13.0580 13.0580 0.0000 0.0000 0.0000 8.7390
#
#
#
# Elastic Compliance Matrix: (Units=1/GPa)
#
#
# Indices 1 2 3 4 5 6 
#
# 1 0.004490 0.021137 0.002441 0.000000 0.000000 -0.024874
# 2 0.021137 0.004490 0.002441 0.000000 0.000000 0.024874
# 3 0.002441 0.002441 0.034186 0.000000 0.000000 0.000000
# 4 0.000000 0.000000 0.000000 0.032394 0.000000 0.000000
# 5 0.000000 0.000000 0.000000 0.000000 0.032394 0.000000
# 6 -0.024874 0.024874 0.000000 0.000000 0.000000 0.040096
#
#
# Mechanical properties :
#
#
# Convention : Reuss Voigt Hill
#
# Bulk Modulus (GPa) = 10.50362 10.83046 10.66704
# Shear Modulus (GPa) = 39.13976 15.66317 27.40146
#
# Velocity S-wave (km/s) = 4.34293 2.74734 3.63379
# Velocity P-wave (km/s) = 5.49632 3.90934 4.76930
#
# Compressibility (1/GPa) = 0.09520528
#
# Stress axis : x y z
#
# Youngs Moduli (GPa) = 222.70255 222.70255 29.25171
#
# Poissons Ratio (x) = -4.70721 -0.07141
# Poissons Ratio (y) = -4.70721 -0.07141
# Poissons Ratio (z) = -0.54368 -0.54368
#
# Static dielectric constant tensor:
#      x y z
#    x 1.714220 0.000000 0.000000 
#    y 0.000000 1.714220 0.000000 
#    z 0.000000 0.000000 1.963600 
# 
# From -- ./inp_files/397.got.cif
#   From: 2010.05.17/outbox.cif.g08.bks.cpg/sg82_1_cif.got.tgz:397.got - 2010.06.03 18:52:26.
