data_PCOD9543852
_publ_section_title
;
Structure prediction by ZEFSAII (Michael W. Deem and Ramdas Pophale) SiO2 
 PCOD9543852
Probable space group: P 4/M
;
_chemical_formula_sum "Si O2"
_cell_formula_units_Z 49
_cell_length_a 8.486263
_cell_length_b 8.486263
_cell_length_c 33.567212
_cell_angle_alpha 90.000000
_cell_angle_beta 90.000000
_cell_angle_gamma 90.000000
_cell_volume 2417.398484
_symmetry_space_group_name_H-M "P 4/M"
_symmetry_group_IT_number 83
_symmetry_cell_setting 'tetragonal'
loop_
_space_group_symop_operation_xyz
x,y,z
-y,x,z
-x,-y,z
y,-x,z
-x,-y,-z
y,-x,-z
x,y,-z
-y,x,-z
loop_
_atom_site_type_symbol
_atom_site_label
_atom_site_fract_x
_atom_site_fract_y
_atom_site_fract_z
Si Si1 0.582716 0.245367 0.542578
Si Si2 0.079649 0.745631 0.244500
Si Si3 0.000000 0.000000 0.000000
Si Si4 0.396945 0.258332 0.915854
Si Si5 0.083954 0.748262 0.844382
Si Si6 0.098493 0.658726 0.000000
Si Si7 0.579021 0.244453 0.629952
Si Si8 0.000000 0.500000 0.693015
O O1 0.689561 0.403474 0.542467
O O2 0.611058 0.161957 0.500000
O O3 0.606070 0.170262 0.585877
O O4 0.105097 0.678855 0.199903
O O5 0.098215 0.615769 0.278323
O O6 0.899920 0.810593 0.247840
O O7 0.191820 0.983217 0.000000
O O8 0.579490 0.301317 0.911500
O O9 0.354801 0.135355 0.881418
O O10 0.350722 0.195448 0.959175
O O11 0.905589 0.809130 0.846828
O O12 0.000000 0.500000 0.000000
O O13 0.689097 0.399219 0.632816
O O14 0.597114 0.116757 0.664350
#
# Coordination Sequence:
#
# PCOD9543852 Si02
#       8
#     8   8   1   8   8   4   8   4
#     4   7  10  20  40  62  88 127 169 210 262 320
#     4   9  20  39  56  78 109 143 183 230 277 334
#     4  12  28  44  76 104 132 180 252 252 308 408
#     4  11  25  43  64  94 132 165 196 245 309 360
#     4   9  21  39  63  88 113 146 196 246 285 344
#     4  12  28  47  68 101 134 175 215 268 302 358
#     4   9  18  31  46  71 103 132 172 223 270 327
#     4  12  20  30  53  78 102 141 178 218 284 340
#
# _framework density 20.269722999999999
#
# number of rings (size 3 to 8) (size 9 to 14) (size 15 to 20)
#    0.000    2.449    0.000    4.898    4.571    3.265 
#    0.000    0.408    0.000    1.959    0.000    0.000 
#    0.000    0.000    0.000   19.918    0.000    1.306 
#
# Total GULP energy -273190.037472 kJ/mol
# GULP energy per Si atom -5575.306887 kJ/mol
# Density = 2.022359 g / cm^3
# Si number density = 20.269723 Si / 1000 Ang^3
#
#
#
# Elastic Constant Matrix: (Units=GPa)
#
#
# Indices 1 2 3 4 5 6 
#
# 1 33.9507 12.0022 39.0623 0.0000 0.0000 -6.0344
# 2 12.0022 33.9507 39.0623 0.0000 0.0000 6.0344
# 3 39.0623 39.0623 191.2920 0.0000 0.0000 0.0000
# 4 0.0000 0.0000 0.0000 -6.5891 0.0000 0.0000
# 5 0.0000 0.0000 0.0000 0.0000 -6.5891 0.0000
# 6 -6.0344 6.0344 0.0000 0.0000 0.0000 17.7845
#
#
#
# Elastic Compliance Matrix: (Units=1/GPa)
#
#
# Indices 1 2 3 4 5 6 
#
# 1 0.044673 -0.011339 -0.006807 0.000000 0.000000 0.019005
# 2 -0.011339 0.044673 -0.006807 0.000000 0.000000 -0.019005
# 3 -0.006807 -0.006807 0.008008 0.000000 0.000000 0.000000
# 4 0.000000 0.000000 0.000000 -0.151767 0.000000 0.000000
# 5 0.000000 0.000000 0.000000 0.000000 -0.151767 0.000000
# 6 0.019005 -0.019005 0.000000 0.000000 0.000000 0.069126
#
#
# Mechanical properties :
#
#
# Convention : Reuss Voigt Hill
#
# Bulk Modulus (GPa) = 21.07584 48.82743 34.95164
# Shear Modulus (GPa) = -70.09244 12.19239 -28.95002
#
# Velocity S-wave (km/s) = -5.88684 2.45523 -3.78331
# Velocity P-wave (km/s) = 5.98217 5.67262 1.34307
#
# Compressibility (1/GPa) = 0.04744768
#
# Stress axis : x y z
#
# Youngs Moduli (GPa) = 22.38513 22.38513 124.88217
#
# Poissons Ratio (x) = 0.25382 0.85005
# Poissons Ratio (y) = 0.25382 0.85005
# Poissons Ratio (z) = 0.15237 0.15237
#
# Static dielectric constant tensor:
#      x y z
#    x 1.684250 0.000000 0.000000 
#    y 0.000000 1.684250 0.000000 
#    z 0.000000 0.000000 1.760890 
# 
# From -- ./inp_files/3525.got.cif
#   From: 2010.05.17/outbox.cif.g08.bks.cpg/sg83_2_cif.got.tgz:3525.got - 2010.06.03 18:55:12.
