data_PCOD9543718
_publ_section_title
;
Structure prediction by ZEFSAII (Michael W. Deem and Ramdas Pophale) SiO2 
 PCOD9543718
Probable space group: P 4/M
;
_chemical_formula_sum "Si O2"
_cell_formula_units_Z 32
_cell_length_a 8.181420
_cell_length_b 8.181420
_cell_length_c 21.254728
_cell_angle_alpha 90.000000
_cell_angle_beta 90.000000
_cell_angle_gamma 90.000000
_cell_volume 1422.698678
_symmetry_space_group_name_H-M "P 4/M"
_symmetry_group_IT_number 83
_symmetry_cell_setting 'tetragonal'
loop_
_space_group_symop_operation_xyz
x,y,z
-y,x,z
-x,-y,z
y,-x,z
-x,-y,-z
y,-x,-z
x,y,-z
-y,x,-z
loop_
_atom_site_type_symbol
_atom_site_label
_atom_site_fract_x
_atom_site_fract_y
_atom_site_fract_z
Si Si1 0.238568 0.588759 0.118573
Si Si2 0.237041 0.582445 0.500000
Si Si3 0.083507 0.737997 0.379748
Si Si4 0.737278 0.922352 0.000000
Si Si5 0.239360 0.592439 0.259461
O O1 0.301563 0.402988 0.113352
O O2 0.171424 0.615410 0.188970
O O3 0.120683 0.638138 0.062610
O O4 0.302932 0.398459 0.500000
O O5 0.135376 0.626471 0.438095
O O6 0.120903 0.647789 0.314513
O O7 0.899345 0.802297 0.383134
O O8 0.895246 0.804334 0.000000
O O9 0.300124 0.405562 0.265193
#
# Coordination Sequence:
#
# PCOD9543718 Si02
#       5
#     8   4   8   4   8
#     4   9  19  37  60  83 107 139 183 232 276 323
#     4  11  24  41  62  86 110 141 186 235 276 320
#     4  11  24  39  56  83 118 151 183 222 270 325
#     4  11  24  37  50  76 114 149 182 225 276 330
#     4   9  19  37  60  85 111 141 182 229 274 324
#
# _framework density 22.492463000000001
#
# number of rings (size 3 to 8) (size 9 to 14) (size 15 to 20)
#    0.000    2.000    0.000    4.500    0.000   13.000 
#    0.000    7.500    0.000    0.000    0.000    0.000 
#    0.000    0.000    0.000    0.000    0.000    0.000 
#
# Total GULP energy -179350.622218 kJ/mol
# GULP energy per Si atom -5604.706944 kJ/mol
# Density = 2.244127 g / cm^3
# Si number density = 22.492463 Si / 1000 Ang^3
#
#
#
# Elastic Constant Matrix: (Units=GPa)
#
#
# Indices 1 2 3 4 5 6 
#
# 1 82.3940 58.4729 69.8539 0.0000 0.0000 0.0833
# 2 58.4729 82.3940 69.8539 0.0000 0.0000 -0.0833
# 3 69.8539 69.8539 197.1790 0.0000 0.0000 0.0000
# 4 0.0000 0.0000 0.0000 -381.1770 0.0000 0.0000
# 5 0.0000 0.0000 0.0000 0.0000 -381.1770 0.0000
# 6 0.0833 -0.0833 0.0000 0.0000 0.0000 47.0712
#
#
#
# Elastic Compliance Matrix: (Units=1/GPa)
#
#
# Indices 1 2 3 4 5 6 
#
# 1 0.026374 -0.015430 -0.003877 0.000000 0.000000 -0.000074
# 2 -0.015430 0.026374 -0.003877 0.000000 0.000000 0.000074
# 3 -0.003877 -0.003877 0.007819 0.000000 0.000000 0.000000
# 4 0.000000 0.000000 0.000000 -0.002623 0.000000 0.000000
# 5 0.000000 0.000000 0.000000 0.000000 -0.002623 0.000000
# 6 -0.000074 0.000074 0.000000 0.000000 0.000000 0.021245
#
#
# Mechanical properties :
#
#
# Convention : Reuss Voigt Hill
#
# Bulk Modulus (GPa) = 70.43082 84.25873 77.34477
# Shear Modulus (GPa) = 39.16432 -132.13748 -46.48658
#
# Velocity S-wave (km/s) = 4.17732 -7.67300 -4.55110
# Velocity P-wave (km/s) = 7.39241 6.39983 2.61629
#
# Compressibility (1/GPa) = 0.01419833
#
# Stress axis : x y z
#
# Youngs Moduli (GPa) = 37.91549 37.91549 127.89976
#
# Poissons Ratio (x) = 0.58505 0.49589
# Poissons Ratio (y) = 0.58505 0.49589
# Poissons Ratio (z) = 0.14700 0.14700
#
# Static dielectric constant tensor:
#      x y z
#    x 1.805110 0.000000 0.000000 
#    y 0.000000 1.805110 0.000000 
#    z 0.000000 0.000000 1.777480 
# 
# From -- ./inp_files/2802.got.cif
#   From: 2010.05.17/outbox.cif.g08.bks.cpg/sg83_2_cif.got.tgz:2802.got - 2010.06.03 18:55:12.
