data_PCOD9543326
_publ_section_title
;
Structure prediction by ZEFSAII (Michael W. Deem and Ramdas Pophale) SiO2 
 PCOD9543326
Probable space group: P 4/M
;
_chemical_formula_sum "Si O2"
_cell_formula_units_Z 56
_cell_length_a 15.247083
_cell_length_b 15.247083
_cell_length_c 14.532743
_cell_angle_alpha 90.000000
_cell_angle_beta 90.000000
_cell_angle_gamma 90.000000
_cell_volume 3378.478211
_symmetry_space_group_name_H-M "P 4/M"
_symmetry_group_IT_number 83
_symmetry_cell_setting 'tetragonal'
loop_
_space_group_symop_operation_xyz
x,y,z
-y,x,z
-x,-y,z
y,-x,z
-x,-y,-z
y,-x,-z
x,y,-z
-y,x,-z
loop_
_atom_site_type_symbol
_atom_site_label
_atom_site_fract_x
_atom_site_fract_y
_atom_site_fract_z
Si Si1 0.299231 0.682476 0.250000
Si Si2 0.871421 0.927256 0.750000
Si Si3 0.511399 0.235412 0.250000
Si Si4 0.847167 0.263630 0.390538
Si Si5 0.152833 0.736370 0.109462
Si Si6 0.907753 0.458901 0.391358
Si Si7 0.458901 0.092247 0.108642
O O1 0.398461 0.713308 0.250000
O O2 0.292484 0.577201 0.250000
O O3 0.244827 0.718839 0.338122
O O4 0.244827 0.718839 0.161878
O O5 0.815652 0.895041 0.661722
O O6 0.815652 0.895041 0.838278
O O7 0.968033 0.884535 0.750000
O O8 0.503658 0.171023 0.337148
O O9 0.503658 0.171023 0.162852
O O10 0.837895 0.250301 0.500000
O O11 0.900976 0.354352 0.374673
O O12 0.099024 0.645648 0.125327
O O13 0.162105 0.749699 0.000000
O O14 0.897879 0.472748 0.500000
O O15 0.000000 0.500000 0.362339
O O16 0.500000 0.000000 0.137661
O O17 0.472748 0.102121 0.000000
#
# Coordination Sequence:
#
# PCOD9543326 Si02
#       7
#     8   8   8   8   8   8   8
#     4   9  20  34  52  76 102 134 169 206 249 301
#     4  10  22  37  51  73 104 137 173 205 240 296
#     4  10  19  33  50  72 104 136 165 204 247 293
#     4   9  19  36  54  74 102 132 166 211 256 296
#     4   9  19  36  54  74 102 132 166 211 256 296
#     4   9  18  32  52  77 100 126 164 209 257 302
#     4   9  18  32  52  77 100 126 164 209 257 302
#
# _framework density 16.575510999999999
#
# number of rings (size 3 to 8) (size 9 to 14) (size 15 to 20)
#    0.000    2.714    0.000    1.286    0.000    7.143 
#    0.000    4.286    0.000    0.000    0.000    8.000 
#    0.000    0.000    0.000    0.000    0.000    0.000 
#
# Total GULP energy -312216.003217 kJ/mol
# GULP energy per Si atom -5575.285772 kJ/mol
# Density = 1.653778 g / cm^3
# Si number density = 16.575511 Si / 1000 Ang^3
#
#
#
# Elastic Constant Matrix: (Units=GPa)
#
#
# Indices 1 2 3 4 5 6 
#
# 1 142.7347 104.9852 67.0107 0.0000 0.0000 18.1882
# 2 104.9852 142.7347 67.0107 0.0000 0.0000 -18.1882
# 3 67.0107 67.0107 121.4664 0.0000 0.0000 0.0000
# 4 0.0000 0.0000 0.0000 17.6233 0.0000 0.0000
# 5 0.0000 0.0000 0.0000 0.0000 17.6233 0.0000
# 6 18.1882 -18.1882 0.0000 0.0000 0.0000 29.1614
#
#
#
# Elastic Compliance Matrix: (Units=1/GPa)
#
#
# Indices 1 2 3 4 5 6 
#
# 1 0.036075 -0.030320 -0.003175 0.000000 0.000000 -0.041411
# 2 -0.030320 0.036075 -0.003175 0.000000 0.000000 0.041411
# 3 -0.003175 -0.003175 0.011735 0.000000 0.000000 0.000000
# 4 0.000000 0.000000 0.000000 0.056743 0.000000 0.000000
# 5 0.000000 0.000000 0.000000 0.000000 0.056743 0.000000
# 6 -0.041411 0.041411 0.000000 0.000000 0.000000 0.085949
#
#
# Mechanical properties :
#
#
# Convention : Reuss Voigt Hill
#
# Bulk Modulus (GPa) = 94.82408 98.32767 96.57588
# Shear Modulus (GPa) = 13.88217 24.07688 18.97952
#
# Velocity S-wave (km/s) = 2.89712 3.81538 3.38751
# Velocity P-wave (km/s) = 8.27784 8.88028 8.58434
#
# Compressibility (1/GPa) = 0.01054584
#
# Stress axis : x y z
#
# Youngs Moduli (GPa) = 27.72019 27.72019 85.21232
#
# Poissons Ratio (x) = 0.84049 0.27051
# Poissons Ratio (y) = 0.84049 0.27051
# Poissons Ratio (z) = 0.08800 0.08800
#
# Static dielectric constant tensor:
#      x y z
#    x 1.538800 0.000000 0.000000 
#    y 0.000000 1.538800 0.000000 
#    z 0.000000 0.000000 1.566430 
# 
# From -- ./inp_files/2409.got.cif
#   From: 2010.05.17/outbox.cif.g08.bks.cpg/sg83_2_cif.got.tgz:2409.got - 2010.06.03 18:55:12.
