data_PCOD9543357
_publ_section_title
;
Structure prediction by ZEFSAII (Michael W. Deem and Ramdas Pophale) SiO2 
 PCOD9543357
Probable space group: P 4/M
;
_chemical_formula_sum "Si O2"
_cell_formula_units_Z 52
_cell_length_a 17.708112
_cell_length_b 17.708112
_cell_length_c 8.143429
_cell_angle_alpha 90.000000
_cell_angle_beta 90.000000
_cell_angle_gamma 90.000000
_cell_volume 2553.593913
_symmetry_space_group_name_H-M "P 4/M"
_symmetry_group_IT_number 83
_symmetry_cell_setting 'tetragonal'
loop_
_space_group_symop_operation_xyz
x,y,z
-y,x,z
-x,-y,z
y,-x,z
-x,-y,-z
y,-x,-z
x,y,-z
-y,x,-z
loop_
_atom_site_type_symbol
_atom_site_label
_atom_site_fract_x
_atom_site_fract_y
_atom_site_fract_z
Si Si1 0.915507 0.471732 0.302043
Si Si2 0.066278 0.692474 0.188334
Si Si3 0.215530 0.410315 0.699788
Si Si4 0.886753 0.165137 0.319012
Si Si5 0.118537 0.036045 0.000000
Si Si6 0.541859 0.383774 0.299688
Si Si7 0.895553 0.720080 0.303336
O O1 0.913593 0.463196 0.500000
O O2 0.908038 0.392140 0.216347
O O3 0.847244 0.527023 0.255795
O O4 0.000000 0.500000 0.261067
O O5 0.115182 0.744514 0.309949
O O6 0.976221 0.698930 0.225761
O O7 0.079865 0.714455 0.000000
O O8 0.219445 0.408137 0.500000
O O9 0.300809 0.429733 0.756400
O O10 0.174299 0.332519 0.752088
O O11 0.910874 0.139900 0.500000
O O12 0.806957 0.127651 0.278402
O O13 0.947404 0.152652 0.177228
O O14 0.048063 0.091554 0.000000
O O15 0.594309 0.455561 0.250896
O O16 0.542290 0.382407 0.500000
O O17 0.905119 0.708897 0.500000
#
# Coordination Sequence:
#
# PCOD9543357 Si02
#       7
#     8   8   8   8   4   8   8
#     4  10  19  35  57  82 115 154 202 252 304 369
#     4  12  24  38  60  85 121 162 203 255 313 380
#     4   9  17  31  53  81 114 155 203 256 307 370
#     4  11  24  41  63  91 123 161 207 259 314 374
#     4  11  24  42  64  90 121 157 203 256 310 374
#     4   8  14  25  44  74 113 153 193 243 304 363
#     4  10  21  38  60  85 115 155 204 254 312 376
#
# _framework density 20.363455999999999
#
# number of rings (size 3 to 8) (size 9 to 14) (size 15 to 20)
#    0.000    1.923    2.308    2.769    1.077    3.385 
#    0.000    5.385    0.000    0.000    0.000    0.000 
#    0.000    0.000    0.000    8.154    0.000    7.692 
#
# Total GULP energy -289938.684422 kJ/mol
# GULP energy per Si atom -5575.743931 kJ/mol
# Density = 2.031711 g / cm^3
# Si number density = 20.363456 Si / 1000 Ang^3
#
#
#
# Elastic Constant Matrix: (Units=GPa)
#
#
# Indices 1 2 3 4 5 6 
#
# 1 74.0278 14.3315 20.1879 0.0000 0.0000 3.1150
# 2 14.3315 74.0278 20.1879 0.0000 0.0000 -3.1150
# 3 20.1879 20.1879 27.7396 0.0000 0.0000 0.0000
# 4 0.0000 0.0000 0.0000 12.7498 0.0000 0.0000
# 5 0.0000 0.0000 0.0000 0.0000 12.7498 0.0000
# 6 3.1150 -3.1150 0.0000 0.0000 0.0000 32.6485
#
#
#
# Elastic Compliance Matrix: (Units=1/GPa)
#
#
# Indices 1 2 3 4 5 6 
#
# 1 0.016938 0.000018 -0.012340 0.000000 0.000000 -0.001614
# 2 0.000018 0.016938 -0.012340 0.000000 0.000000 0.001614
# 3 -0.012340 -0.012340 0.054011 0.000000 0.000000 0.000000
# 4 0.000000 0.000000 0.000000 0.078433 0.000000 0.000000
# 5 0.000000 0.000000 0.000000 0.000000 0.078433 0.000000
# 6 -0.001614 0.001614 0.000000 0.000000 0.000000 0.030937
#
#
# Mechanical properties :
#
#
# Convention : Reuss Voigt Hill
#
# Bulk Modulus (GPa) = 25.93170 31.68999 28.81084
# Shear Modulus (GPa) = 14.79866 19.70215 17.25041
#
# Velocity S-wave (km/s) = 2.69871 3.11388 2.91370
# Velocity P-wave (km/s) = 4.74055 5.34082 5.04961
#
# Compressibility (1/GPa) = 0.03856284
#
# Stress axis : x y z
#
# Youngs Moduli (GPa) = 59.03847 59.03847 18.51474
#
# Poissons Ratio (x) = -0.00107 0.22848
# Poissons Ratio (y) = -0.00107 0.22848
# Poissons Ratio (z) = 0.72855 0.72855
#
# Static dielectric constant tensor:
#      x y z
#    x 1.735480 0.000000 0.000000 
#    y 0.000000 1.735480 0.000000 
#    z 0.000000 0.000000 1.725430 
# 
# From -- ./inp_files/973.got.cif
#   From: 2010.05.17/outbox.cif.g08.bks.cpg/sg83_1_cif.got.tgz:973.got - 2010.06.03 18:55:12.
