data_PCOD9543764
_publ_section_title
;
Structure prediction by ZEFSAII (Michael W. Deem and Ramdas Pophale) SiO2 
 PCOD9543764
Probable space group: P 4/M
;
_chemical_formula_sum "Si O2"
_cell_formula_units_Z 48
_cell_length_a 8.081732
_cell_length_b 8.081732
_cell_length_c 32.106091
_cell_angle_alpha 90.000000
_cell_angle_beta 90.000000
_cell_angle_gamma 90.000000
_cell_volume 2096.989817
_symmetry_space_group_name_H-M "P 4/M"
_symmetry_group_IT_number 83
_symmetry_cell_setting 'tetragonal'
loop_
_space_group_symop_operation_xyz
x,y,z
-y,x,z
-x,-y,z
y,-x,z
-x,-y,-z
y,-x,-z
x,y,-z
-y,x,-z
loop_
_atom_site_type_symbol
_atom_site_label
_atom_site_fract_x
_atom_site_fract_y
_atom_site_fract_z
Si Si1 0.734974 0.085647 0.253709
Si Si2 0.763998 0.586754 0.827566
Si Si3 0.900017 0.737660 0.000000
Si Si4 0.736564 0.097522 0.090397
Si Si5 0.911236 0.735511 0.417594
Si Si6 0.587238 0.235156 0.335429
Si Si7 0.235659 0.410671 0.500000
O O1 0.638299 0.125572 0.211520
O O2 0.630251 0.134562 0.294021
O O3 0.898899 0.200396 0.254637
O O4 0.600186 0.701077 0.825400
O O5 0.852801 0.624965 0.871009
O O6 0.869475 0.656610 0.955144
O O7 0.091232 0.796347 0.000000
O O8 0.907141 0.203572 0.092818
O O9 0.866368 0.634033 0.376440
O O10 0.865375 0.634860 0.458816
O O11 0.098979 0.798346 0.417569
O O12 0.701048 0.399945 0.335636
O O13 0.401425 0.298124 0.500000
#
# Coordination Sequence:
#
# PCOD9543764 Si02
#       7
#     8   8   4   8   8   8   4
#     4  11  24  41  62  88 114 143 185 234 282 335
#     4  11  24  39  54  77 111 149 187 227 275 332
#     4   7  12  26  50  79 108 136 172 223 276 325
#     4   9  17  32  56  83 108 138 180 228 277 330
#     4  11  24  41  62  90 122 157 200 245 288 340
#     4  11  24  41  62  90 122 155 192 233 280 337
#     4  11  24  41  62  90 122 157 200 247 296 350
#
# _framework density 22.889953999999999
#
# number of rings (size 3 to 8) (size 9 to 14) (size 15 to 20)
#    0.000    1.667    0.000    5.500    0.000   15.333 
#    0.000    0.833    0.000    4.000    0.000    0.000 
#    0.000    0.000    0.000    0.000    0.000    0.000 
#
# Total GULP energy -269145.402540 kJ/mol
# GULP energy per Si atom -5607.195886 kJ/mol
# Density = 2.283786 g / cm^3
# Si number density = 22.889954 Si / 1000 Ang^3
#
#
#
# Elastic Constant Matrix: (Units=GPa)
#
#
# Indices 1 2 3 4 5 6 
#
# 1 94.2281 60.2908 59.7118 0.0000 0.0000 0.9336
# 2 60.2908 94.2281 59.7118 0.0000 0.0000 -0.9336
# 3 59.7118 59.7118 233.0454 0.0000 0.0000 0.0000
# 4 0.0000 0.0000 0.0000 267.1491 0.0000 0.0000
# 5 0.0000 0.0000 0.0000 0.0000 267.1491 0.0000
# 6 0.9336 -0.9336 0.0000 0.0000 0.0000 46.0110
#
#
#
# Elastic Compliance Matrix: (Units=1/GPa)
#
#
# Indices 1 2 3 4 5 6 
#
# 1 0.018784 -0.010715 -0.002068 0.000000 0.000000 -0.000599
# 2 -0.010715 0.018784 -0.002068 0.000000 0.000000 0.000599
# 3 -0.002068 -0.002068 0.005351 0.000000 0.000000 0.000000
# 4 0.000000 0.000000 0.000000 0.003743 0.000000 0.000000
# 5 0.000000 0.000000 0.000000 0.000000 0.003743 0.000000
# 6 -0.000599 0.000599 0.000000 0.000000 0.000000 0.021758
#
#
# Mechanical properties :
#
#
# Convention : Reuss Voigt Hill
#
# Bulk Modulus (GPa) = 75.64630 86.77005 81.20817
# Shear Modulus (GPa) = 47.04980 132.18098 89.61539
#
# Velocity S-wave (km/s) = 4.53866 7.60734 6.26383
# Velocity P-wave (km/s) = 7.78366 10.73089 9.37383
#
# Compressibility (1/GPa) = 0.01321942
#
# Stress axis : x y z
#
# Youngs Moduli (GPa) = 53.23575 53.23575 186.89575
#
# Poissons Ratio (x) = 0.57040 0.38644
# Poissons Ratio (y) = 0.57040 0.38644
# Poissons Ratio (z) = 0.11007 0.11007
#
# Static dielectric constant tensor:
#      x y z
#    x 1.825930 0.000000 0.000000 
#    y 0.000000 1.825930 0.000000 
#    z 0.000000 0.000000 1.795440 
# 
# From -- ./inp_files/3490.got.cif
#   From: 2010.05.17/outbox.cif.g08.bks.cpg/sg83_2_cif.got.tgz:3490.got - 2010.06.03 18:55:12.
