data_PCOD9543144
_publ_section_title
;
Structure prediction by ZEFSAII (Michael W. Deem and Ramdas Pophale) SiO2 
 PCOD9543144
Probable space group: I -4 
;
_chemical_formula_sum "Si O2"
_cell_formula_units_Z 34
_cell_length_a 10.683444
_cell_length_b 10.683444
_cell_length_c 12.643493
_cell_angle_alpha 90.000000
_cell_angle_beta 90.000000
_cell_angle_gamma 90.000000
_cell_volume 1443.077410
_symmetry_space_group_name_H-M "I -4 "
_symmetry_group_IT_number 82
_symmetry_cell_setting 'tetragonal'
loop_
_space_group_symop_operation_xyz
x,y,z
y,-x,-z
-x,-y,z
-y,x,-z
1/2+x,1/2+y,1/2+z
1/2+y,1/2-x,1/2-z
1/2-x,1/2-y,1/2+z
1/2-y,1/2+x,1/2-z
loop_
_atom_site_type_symbol
_atom_site_label
_atom_site_fract_x
_atom_site_fract_y
_atom_site_fract_z
Si Si1 0.139813 0.047943 0.845296
Si Si2 0.387870 0.871302 0.312738
Si Si3 0.792704 0.407576 0.529228
Si Si4 0.500000 0.000000 0.750000
Si Si5 0.367795 0.770148 0.852776
O O1 0.143450 0.190512 0.888052
O O2 0.183106 0.047959 0.723154
O O3 0.000000 0.000000 0.850525
O O4 0.214631 0.966817 0.931432
O O5 0.488945 0.841864 0.218932
O O6 0.475357 0.861659 0.416296
O O7 0.272795 0.777844 0.327408
O O8 0.871001 0.292743 0.479009
O O9 0.415166 0.905536 0.814829
#
# Coordination Sequence:
#
# PCOD9543144 Si02
#       5
#     8   8   8   2   8
#     4  12  22  42  78 111 145 202 264 305 377 470
#     4  11  25  45  74 114 148 197 264 320 374 459
#     4  12  22  44  74 112 149 203 254 308 387 456
#     4  12  28  40  64 108 166 188 244 320 384 436
#     4  12  26  45  70 116 155 198 251 330 375 455
#
# _framework density 23.560760999999999
#
# number of rings (size 3 to 8) (size 9 to 14) (size 15 to 20)
#    0.000    0.235    9.412    0.000    0.000    1.882 
#    0.000    0.000    0.000    0.000    6.118    0.000 
#    0.000    0.000    0.000    0.000    0.000    0.000 
#
# Total GULP energy -94822.719306 kJ/mol
# GULP energy per Si atom -5577.807018 kJ/mol
# Density = 2.350714 g / cm^3
# Si number density = 23.560761 Si / 1000 Ang^3
#
#
#
# Elastic Constant Matrix: (Units=GPa)
#
#
# Indices 1 2 3 4 5 6 
#
# 1 59.3015 17.1605 17.9515 0.0000 0.0000 2.2399
# 2 17.1605 59.3015 17.9515 0.0000 0.0000 -2.2399
# 3 17.9515 17.9515 111.3141 0.0000 0.0000 0.0000
# 4 0.0000 0.0000 0.0000 39.2857 0.0000 0.0000
# 5 0.0000 0.0000 0.0000 0.0000 39.2857 0.0000
# 6 2.2399 -2.2399 0.0000 0.0000 0.0000 45.8617
#
#
#
# Elastic Compliance Matrix: (Units=1/GPa)
#
#
# Indices 1 2 3 4 5 6 
#
# 1 0.019002 -0.004852 -0.002282 0.000000 0.000000 -0.001165
# 2 -0.004852 0.019002 -0.002282 0.000000 0.000000 0.001165
# 3 -0.002282 -0.002282 0.009720 0.000000 0.000000 0.000000
# 4 0.000000 0.000000 0.000000 0.025455 0.000000 0.000000
# 5 0.000000 0.000000 0.000000 0.000000 0.025455 0.000000
# 6 -0.001165 0.001165 0.000000 0.000000 0.000000 0.021918
#
#
# Mechanical properties :
#
#
# Convention : Reuss Voigt Hill
#
# Bulk Modulus (GPa) = 34.61210 37.33822 35.97516
# Shear Modulus (GPa) = 33.55416 36.67686 35.11551
#
# Velocity S-wave (km/s) = 3.77789 3.94977 3.86479
# Velocity P-wave (km/s) = 5.80968 6.05665 5.93445
#
# Compressibility (1/GPa) = 0.02889163
#
# Stress axis : x y z
#
# Youngs Moduli (GPa) = 52.62666 52.62666 102.88498
#
# Poissons Ratio (x) = 0.25534 0.23478
# Poissons Ratio (y) = 0.25534 0.23478
# Poissons Ratio (z) = 0.12009 0.12009
#
# Static dielectric constant tensor:
#      x y z
#    x 1.973790 0.000000 0.000000 
#    y 0.000000 1.973790 0.000000 
#    z 0.000000 0.000000 1.995590 
# 
# From -- ./inp_files/1588.got.cif
#   From: 2010.05.17/outbox.cif.g08.bks.cpg/sg82_1_cif.got.tgz:1588.got - 2010.06.03 18:52:26.
