data_PCOD9543710
_publ_section_title
;
Structure prediction by ZEFSAII (Michael W. Deem and Ramdas Pophale) SiO2 
 PCOD9543710
Probable space group: P 4/M
;
_chemical_formula_sum "Si O2"
_cell_formula_units_Z 48
_cell_length_a 8.196753
_cell_length_b 8.196753
_cell_length_c 32.149281
_cell_angle_alpha 90.000000
_cell_angle_beta 90.000000
_cell_angle_gamma 90.000000
_cell_volume 2160.006018
_symmetry_space_group_name_H-M "P 4/M"
_symmetry_group_IT_number 83
_symmetry_cell_setting 'tetragonal'
loop_
_space_group_symop_operation_xyz
x,y,z
-y,x,z
-x,-y,z
y,-x,z
-x,-y,-z
y,-x,-z
x,y,-z
-y,x,-z
loop_
_atom_site_type_symbol
_atom_site_label
_atom_site_fract_x
_atom_site_fract_y
_atom_site_fract_z
Si Si1 0.737935 0.916757 0.829464
Si Si2 0.421534 0.237508 0.000000
Si Si3 0.762265 0.416271 0.500000
Si Si4 0.584640 0.761587 0.248448
Si Si5 0.262415 0.086502 0.078477
Si Si6 0.591129 0.761086 0.659237
Si Si7 0.915736 0.261525 0.420335
O O1 0.628930 0.871994 0.790397
O O2 0.664690 0.888893 0.875381
O O3 0.899263 0.803656 0.827370
O O4 0.604027 0.304328 0.000000
O O5 0.378229 0.137126 0.958815
O O6 0.697296 0.600384 0.500000
O O7 0.864050 0.371791 0.459142
O O8 0.400307 0.696871 0.246201
O O9 0.613869 0.833065 0.294479
O O10 0.098576 0.197228 0.075386
O O11 0.404760 0.699031 0.655794
O O12 0.646397 0.877638 0.622477
O O13 0.099904 0.197720 0.422312
#
# Coordination Sequence:
#
# PCOD9543710 Si02
#       7
#     8   4   4   8   8   8   8
#     4   9  19  35  54  78 107 137 173 218 264 312
#     4  11  24  37  50  76 110 137 166 211 264 314
#     4  11  24  41  62  86 110 141 182 223 264 316
#     4   9  19  35  54  78 109 143 179 221 266 312
#     4   9  19  37  58  77 100 135 177 217 259 311
#     4   9  19  37  58  79 106 143 186 225 263 314
#     4  11  24  39  56  83 116 145 177 221 270 317
#
# _framework density 22.222159999999999
#
# number of rings (size 3 to 8) (size 9 to 14) (size 15 to 20)
#    0.000    2.333    0.000    4.000    0.000   10.667 
#    0.000   10.000    0.000    0.000    0.000    0.000 
#    0.000    0.000    0.000    0.000    0.000    0.000 
#
# Total GULP energy -268784.382698 kJ/mol
# GULP energy per Si atom -5599.674640 kJ/mol
# Density = 2.217158 g / cm^3
# Si number density = 22.222160 Si / 1000 Ang^3
#
#
#
# Elastic Constant Matrix: (Units=GPa)
#
#
# Indices 1 2 3 4 5 6 
#
# 1 72.6233 50.4539 70.2767 0.0000 0.0000 -0.4175
# 2 50.4539 72.6233 70.2767 0.0000 0.0000 0.4175
# 3 70.2767 70.2767 222.5283 0.0000 0.0000 0.0000
# 4 0.0000 0.0000 0.0000 224.5092 0.0000 0.0000
# 5 0.0000 0.0000 0.0000 0.0000 224.5092 0.0000
# 6 -0.4175 0.4175 0.0000 0.0000 0.0000 44.3817
#
#
#
# Elastic Compliance Matrix: (Units=1/GPa)
#
#
# Indices 1 2 3 4 5 6 
#
# 1 0.028916 -0.016207 -0.004013 0.000000 0.000000 0.000424
# 2 -0.016207 0.028916 -0.004013 0.000000 0.000000 -0.000424
# 3 -0.004013 -0.004013 0.007029 0.000000 0.000000 0.000000
# 4 0.000000 0.000000 0.000000 0.004454 0.000000 0.000000
# 5 0.000000 0.000000 0.000000 0.000000 0.004454 0.000000
# 6 0.000424 -0.000424 0.000000 0.000000 0.000000 0.022540
#
#
# Mechanical properties :
#
#
# Convention : Reuss Voigt Hill
#
# Bulk Modulus (GPa) = 61.00658 83.30994 72.15826
# Shear Modulus (GPa) = 33.27994 110.46454 71.87224
#
# Velocity S-wave (km/s) = 3.87408 7.05812 5.69323
# Velocity P-wave (km/s) = 6.89377 10.19773 8.70396
#
# Compressibility (1/GPa) = 0.01639167
#
# Stress axis : x y z
#
# Youngs Moduli (GPa) = 34.58329 34.58329 142.27278
#
# Poissons Ratio (x) = 0.56051 0.57100
# Poissons Ratio (y) = 0.56051 0.57100
# Poissons Ratio (z) = 0.13880 0.13880
#
# Static dielectric constant tensor:
#      x y z
#    x 1.801060 0.000000 0.000000 
#    y 0.000000 1.801060 0.000000 
#    z 0.000000 0.000000 1.782310 
# 
# From -- ./inp_files/3438.got.cif
#   From: 2010.05.17/outbox.cif.g08.bks.cpg/sg83_2_cif.got.tgz:3438.got - 2010.06.03 18:55:12.
