data_PCOD9543343
_publ_section_title
;
Structure prediction by ZEFSAII (Michael W. Deem and Ramdas Pophale) SiO2 
 PCOD9543343
Probable space group: P 4/M
;
_chemical_formula_sum "Si O2"
_cell_formula_units_Z 52
_cell_length_a 17.993508
_cell_length_b 17.993508
_cell_length_c 7.880525
_cell_angle_alpha 90.000000
_cell_angle_beta 90.000000
_cell_angle_gamma 90.000000
_cell_volume 2551.448659
_symmetry_space_group_name_H-M "P 4/M"
_symmetry_group_IT_number 83
_symmetry_cell_setting 'tetragonal'
loop_
_space_group_symop_operation_xyz
x,y,z
-y,x,z
-x,-y,z
y,-x,z
-x,-y,-z
y,-x,-z
x,y,-z
-y,x,-z
loop_
_atom_site_type_symbol
_atom_site_label
_atom_site_fract_x
_atom_site_fract_y
_atom_site_fract_z
Si Si1 0.706757 0.981362 0.295266
Si Si2 0.546795 0.927520 0.707297
Si Si3 0.380647 0.484670 0.292808
Si Si4 0.155067 0.291458 0.801787
Si Si5 0.786367 0.546393 0.295388
Si Si6 0.930303 0.898932 0.000000
Si Si7 0.863436 0.165871 0.692279
O O1 0.705668 0.987728 0.500000
O O2 0.631047 0.941423 0.238691
O O3 0.774352 0.925641 0.255448
O O4 0.707892 0.065816 0.229957
O O5 0.546034 0.926130 0.500000
O O6 0.508853 0.851435 0.766464
O O7 0.500000 0.000000 0.759251
O O8 0.437596 0.419103 0.241383
O O9 0.379474 0.484456 0.500000
O O10 0.296475 0.472656 0.233294
O O11 0.188590 0.370235 0.748079
O O12 0.191823 0.222054 0.703217
O O13 0.168523 0.280186 0.000000
O O14 0.784908 0.540519 0.500000
O O15 0.899812 0.864580 0.171982
O O16 0.017514 0.901141 0.000000
O O17 0.879271 0.141614 0.500000
#
# Coordination Sequence:
#
# PCOD9543343 Si02
#       7
#     8   8   8   8   8   4   8
#     4  10  21  38  62  87 116 159 206 252 311 380
#     4   9  16  31  55  85 118 151 195 250 301 363
#     4   8  15  29  52  85 120 152 196 257 315 368
#     4  12  24  38  58  83 121 160 202 258 316 370
#     4  10  19  33  58  86 117 158 206 256 312 377
#     4  11  24  42  64  90 121 157 203 256 312 372
#     4  11  24  41  63  91 123 161 208 258 313 375
#
# _framework density 20.380579000000001
#
# number of rings (size 3 to 8) (size 9 to 14) (size 15 to 20)
#    0.000    1.923    2.308    2.769    1.077    3.077 
#    0.000    6.923    0.000    0.923    0.000    1.077 
#    0.000    0.000    0.000    0.000    0.000    0.000 
#
# Total GULP energy -290319.743174 kJ/mol
# GULP energy per Si atom -5583.071984 kJ/mol
# Density = 2.033419 g / cm^3
# Si number density = 20.380579 Si / 1000 Ang^3
#
#
#
# Elastic Constant Matrix: (Units=GPa)
#
#
# Indices 1 2 3 4 5 6 
#
# 1 186.7172 22.1006 17.4698 0.0000 0.0000 -15.2676
# 2 22.1006 186.7172 17.4698 0.0000 0.0000 15.2676
# 3 17.4698 17.4698 42.2605 0.0000 0.0000 0.0000
# 4 0.0000 0.0000 0.0000 -69.3258 0.0000 0.0000
# 5 0.0000 0.0000 0.0000 0.0000 -69.3258 0.0000
# 6 -15.2676 15.2676 0.0000 0.0000 0.0000 41.2462
#
#
#
# Elastic Compliance Matrix: (Units=1/GPa)
#
#
# Indices 1 2 3 4 5 6 
#
# 1 0.005834 -0.000689 -0.002127 0.000000 0.000000 0.002414
# 2 -0.000689 0.005834 -0.002127 0.000000 0.000000 -0.002414
# 3 -0.002127 -0.002127 0.025421 0.000000 0.000000 0.000000
# 4 0.000000 0.000000 0.000000 -0.014425 0.000000 0.000000
# 5 0.000000 0.000000 0.000000 0.000000 -0.014425 0.000000
# 6 0.002414 -0.002414 0.000000 0.000000 0.000000 0.026032
#
#
# Mechanical properties :
#
#
# Convention : Reuss Voigt Hill
#
# Bulk Modulus (GPa) = 36.75992 58.86393 47.81193
# Shear Modulus (GPa) = 93.94285 4.42923 49.18604
#
# Velocity S-wave (km/s) = 6.79664 1.47580 4.91794
# Velocity P-wave (km/s) = 8.92571 5.64350 7.46718
#
# Compressibility (1/GPa) = 0.02720354
#
# Stress axis : x y z
#
# Youngs Moduli (GPa) = 171.41945 171.41945 39.33742
#
# Poissons Ratio (x) = 0.11810 0.08366
# Poissons Ratio (y) = 0.11810 0.08366
# Poissons Ratio (z) = 0.36457 0.36457
#
# Static dielectric constant tensor:
#      x y z
#    x 1.719100 0.000000 0.000000 
#    y 0.000000 1.719100 0.000000 
#    z 0.000000 0.000000 1.722640 
# 
# From -- ./inp_files/1015.got.cif
#   From: 2010.05.17/outbox.cif.g08.bks.cpg/sg83_1_cif.got.tgz:1015.got - 2010.06.03 18:55:12.
