data_PCOD9543131
_publ_section_title
;
Structure prediction by ZEFSAII (Michael W. Deem and Ramdas Pophale) SiO2 
 PCOD9543131
Probable space group: I -4 
;
_chemical_formula_sum "Si O2"
_cell_formula_units_Z 40
_cell_length_a 8.148038
_cell_length_b 8.148038
_cell_length_c 24.497203
_cell_angle_alpha 90.000000
_cell_angle_beta 90.000000
_cell_angle_gamma 90.000000
_cell_volume 1626.382125
_symmetry_space_group_name_H-M "I -4 "
_symmetry_group_IT_number 82
_symmetry_cell_setting 'tetragonal'
loop_
_space_group_symop_operation_xyz
x,y,z
y,-x,-z
-x,-y,z
-y,x,-z
1/2+x,1/2+y,1/2+z
1/2+y,1/2-x,1/2-z
1/2-x,1/2-y,1/2+z
1/2-y,1/2+x,1/2-z
loop_
_atom_site_type_symbol
_atom_site_label
_atom_site_fract_x
_atom_site_fract_y
_atom_site_fract_z
Si Si1 0.614439 0.131675 0.622785
Si Si2 0.639473 0.719693 0.984374
Si Si3 0.135111 0.147161 0.074212
Si Si4 0.322979 0.675284 0.206274
Si Si5 0.781882 0.189151 0.318724
O O1 0.757583 0.102997 0.579705
O O2 0.481681 0.196436 0.579641
O O3 0.682686 0.254980 0.668089
O O4 0.500000 0.000000 0.652543
O O5 0.756763 0.839847 0.019691
O O6 0.717444 0.539242 0.988734
O O7 0.251589 0.187190 0.126830
O O8 0.000000 0.000000 0.076893
O O9 0.280613 0.699402 0.268876
O O10 0.498502 0.751174 0.193478
O O11 0.310745 0.484302 0.185400
#
# Coordination Sequence:
#
# PCOD9543131 Si02
#       5
#     8   8   8   8   8
#     4  12  24  45  71 106 148 194 248 300 372 439
#     4  11  24  46  76 106 147 196 251 307 367 439
#     4  12  28  45  72 108 150 194 249 304 374 445
#     4  11  25  45  74 104 147 193 251 304 368 443
#     4  11  25  46  73 106 145 197 247 306 369 438
#
# _framework density 24.594467999999999
#
# number of rings (size 3 to 8) (size 9 to 14) (size 15 to 20)
#    0.000    0.600    4.000    2.400    8.400    3.600 
#    0.000    2.000    0.000    0.000    0.000    0.000 
#    0.000    0.000    0.000    0.000    0.000    0.000 
#
# Total GULP energy -111462.987943 kJ/mol
# GULP energy per Si atom -5573.149397 kJ/mol
# Density = 2.453849 g / cm^3
# Si number density = 24.594468 Si / 1000 Ang^3
#
#
#
# Elastic Constant Matrix: (Units=GPa)
#
#
# Indices 1 2 3 4 5 6 
#
# 1 80.1873 30.5602 40.4815 0.0000 0.0000 2.9088
# 2 30.5602 80.1874 40.4815 0.0000 0.0000 -2.9088
# 3 40.4815 40.4815 147.6353 0.0000 0.0000 0.0000
# 4 0.0000 0.0000 0.0000 27.5743 0.0000 0.0000
# 5 0.0000 0.0000 0.0000 0.0000 27.5743 0.0000
# 6 2.9088 -2.9088 0.0000 0.0000 0.0000 27.3630
#
#
#
# Elastic Compliance Matrix: (Units=1/GPa)
#
#
# Indices 1 2 3 4 5 6 
#
# 1 0.015849 -0.004556 -0.003097 0.000000 0.000000 -0.002169
# 2 -0.004556 0.015849 -0.003097 0.000000 0.000000 0.002169
# 3 -0.003097 -0.003097 0.008472 0.000000 0.000000 0.000000
# 4 0.000000 0.000000 0.000000 0.036266 0.000000 0.000000
# 5 0.000000 0.000000 0.000000 0.000000 0.036266 0.000000
# 6 -0.002169 0.002169 0.000000 0.000000 0.000000 0.037007
#
#
# Mechanical properties :
#
#
# Convention : Reuss Voigt Hill
#
# Bulk Modulus (GPa) = 53.55657 59.00624 56.28141
# Shear Modulus (GPa) = 28.18021 29.60143 28.89082
#
# Velocity S-wave (km/s) = 3.38863 3.47303 3.43109
# Velocity P-wave (km/s) = 6.09373 6.33454 6.21530
#
# Compressibility (1/GPa) = 0.01867184
#
# Stress axis : x y z
#
# Youngs Moduli (GPa) = 63.09566 63.09568 118.04089
#
# Poissons Ratio (x) = 0.28744 0.36553
# Poissons Ratio (y) = 0.28744 0.36553
# Poissons Ratio (z) = 0.19538 0.19538
#
# Static dielectric constant tensor:
#      x y z
#    x 2.228190 0.000000 0.000000 
#    y 0.000000 2.228190 0.000000 
#    z 0.000000 0.000000 2.111150 
# 
# From -- ./inp_files/3334.got.cif
#   From: 2010.05.17/outbox.cif.g08.bks.cpg/sg82_2_cif.got.tgz:3334.got - 2010.06.03 18:52:26.
