data_PCOD9543318
_publ_section_title
;
Structure prediction by ZEFSAII (Michael W. Deem and Ramdas Pophale) SiO2 
 PCOD9543318
Probable space group: P 4/M
;
_chemical_formula_sum "Si O2"
_cell_formula_units_Z 56
_cell_length_a 14.915691
_cell_length_b 14.915691
_cell_length_c 13.262898
_cell_angle_alpha 90.000000
_cell_angle_beta 90.000000
_cell_angle_gamma 90.000000
_cell_volume 2950.700873
_symmetry_space_group_name_H-M "P 4/M"
_symmetry_group_IT_number 83
_symmetry_cell_setting 'tetragonal'
loop_
_space_group_symop_operation_xyz
x,y,z
-y,x,z
-x,-y,z
y,-x,z
-x,-y,-z
y,-x,-z
x,y,-z
-y,x,-z
loop_
_atom_site_type_symbol
_atom_site_label
_atom_site_fract_x
_atom_site_fract_y
_atom_site_fract_z
Si Si1 0.623852 0.431673 0.825922
Si Si2 0.161840 0.670680 0.677369
Si Si3 0.185531 0.598892 0.888503
Si Si4 0.920156 0.572584 0.890027
Si Si5 0.299174 0.518841 0.617464
Si Si6 0.782099 0.673310 0.385622
Si Si7 0.974265 0.608106 0.670319
O O1 0.616319 0.534341 0.858691
O O2 0.709664 0.386721 0.873342
O O3 0.635694 0.443686 0.704442
O O4 0.143923 0.650279 0.795199
O O5 0.214021 0.585095 0.630239
O O6 0.234525 0.750956 0.668346
O O7 0.060754 0.665687 0.636381
O O8 0.164929 0.492942 0.874761
O O9 0.154761 0.624008 0.000000
O O10 0.943534 0.622772 0.787558
O O11 0.000000 0.500000 0.897865
O O12 0.913124 0.618139 0.000000
O O13 0.329088 0.520620 0.500000
O O14 0.268241 0.418377 0.645918
O O15 0.753135 0.690067 0.500000
O O16 0.885491 0.643350 0.384445
O O17 0.000000 0.500000 0.659953
#
# Coordination Sequence:
#
# PCOD9543318 Si02
#       7
#     8   8   8   8   8   8   8
#     4  10  21  34  45  62  97 145 193 231 263 318
#     4  11  21  36  57  83 116 146 185 238 285 338
#     4  10  19  32  53  77 105 142 182 230 285 336
#     4   9  16  29  53  85 111 137 177 228 284 335
#     4  10  19  33  52  74 103 139 180 229 290 342
#     4  11  24  37  54  85 117 146 189 241 291 339
#     4  11  19  38  62  85 112 152 195 235 289 348
#
# _framework density 18.978541
#
# number of rings (size 3 to 8) (size 9 to 14) (size 15 to 20)
#    0.000    1.714    4.286    3.000    0.000    3.714 
#    0.000    3.571    0.000    0.429    0.000    1.000 
#    0.000    0.000    0.000    2.571    0.000    0.000 
#
# Total GULP energy -311784.076028 kJ/mol
# GULP energy per Si atom -5567.572786 kJ/mol
# Density = 1.893535 g / cm^3
# Si number density = 18.978541 Si / 1000 Ang^3
#
#
#
# Elastic Constant Matrix: (Units=GPa)
#
#
# Indices 1 2 3 4 5 6 
#
# 1 77.2371 27.0956 3.8261 0.0000 0.0000 5.2530
# 2 27.0956 77.2371 3.8261 0.0000 0.0000 -5.2530
# 3 3.8261 3.8261 72.2809 0.0000 0.0000 0.0000
# 4 0.0000 0.0000 0.0000 6.5129 0.0000 0.0000
# 5 0.0000 0.0000 0.0000 0.0000 6.5129 0.0000
# 6 5.2530 -5.2530 0.0000 0.0000 0.0000 19.0107
#
#
#
# Elastic Compliance Matrix: (Units=1/GPa)
#
#
# Indices 1 2 3 4 5 6 
#
# 1 0.015396 -0.005774 -0.000509 0.000000 0.000000 -0.005849
# 2 -0.005774 0.015396 -0.000509 0.000000 0.000000 0.005849
# 3 -0.000509 -0.000509 0.013889 0.000000 0.000000 0.000000
# 4 0.000000 0.000000 0.000000 0.153540 0.000000 0.000000
# 5 0.000000 0.000000 0.000000 0.000000 0.153540 0.000000
# 6 -0.005849 0.005849 0.000000 0.000000 0.000000 0.055834
#
#
# Mechanical properties :
#
#
# Convention : Reuss Voigt Hill
#
# Bulk Modulus (GPa) = 32.15880 32.91672 32.53776
# Shear Modulus (GPa) = 11.58628 19.20782 15.39705
#
# Velocity S-wave (km/s) = 2.47350 3.18477 2.85140
# Velocity P-wave (km/s) = 5.01390 5.55927 5.29362
#
# Compressibility (1/GPa) = 0.03109569
#
# Stress axis : x y z
#
# Youngs Moduli (GPa) = 64.95351 64.95351 72.00026
#
# Poissons Ratio (x) = 0.37501 0.03667
# Poissons Ratio (y) = 0.37501 0.03667
# Poissons Ratio (z) = 0.03308 0.03308
#
# Static dielectric constant tensor:
#      x y z
#    x 1.709160 0.000000 0.000000 
#    y 0.000000 1.709160 0.000000 
#    z 0.000000 0.000000 1.757560 
# 
# From -- ./inp_files/2402.got.cif
#   From: 2010.05.17/outbox.cif.g08.bks.cpg/sg83_2_cif.got.tgz:2402.got - 2010.06.03 18:55:12.
