data_PCOD9543769
_publ_section_title
;
Structure prediction by ZEFSAII (Michael W. Deem and Ramdas Pophale) SiO2 
 PCOD9543769
Probable space group: P 4/M
;
_chemical_formula_sum "Si O2"
_cell_formula_units_Z 49
_cell_length_a 8.099346
_cell_length_b 8.099346
_cell_length_c 33.246745
_cell_angle_alpha 90.000000
_cell_angle_beta 90.000000
_cell_angle_gamma 90.000000
_cell_volume 2180.966711
_symmetry_space_group_name_H-M "P 4/M"
_symmetry_group_IT_number 83
_symmetry_cell_setting 'tetragonal'
loop_
_space_group_symop_operation_xyz
x,y,z
-y,x,z
-x,-y,z
y,-x,z
-x,-y,-z
y,-x,-z
x,y,-z
-y,x,-z
loop_
_atom_site_type_symbol
_atom_site_label
_atom_site_fract_x
_atom_site_fract_y
_atom_site_fract_z
Si Si1 0.000000 0.500000 0.067461
Si Si2 0.234986 0.580671 0.622427
Si Si3 0.307968 0.920530 0.000000
Si Si4 0.409875 0.237129 0.866061
Si Si5 0.000000 0.000000 0.000000
Si Si6 0.091967 0.736450 0.455176
Si Si7 0.080710 0.734910 0.699515
Si Si8 0.235780 0.591435 0.222710
O O1 0.117330 0.607308 0.096352
O O2 0.882686 0.647307 0.046428
O O3 0.301766 0.395822 0.623973
O O4 0.143222 0.619678 0.580943
O O5 0.126882 0.628066 0.660819
O O6 0.500000 0.000000 0.000000
O O7 0.174916 0.094372 0.000000
O O8 0.599066 0.299960 0.867700
O O9 0.381214 0.161448 0.821788
O O10 0.118326 0.666306 0.500000
O O11 0.903648 0.798744 0.452018
O O12 0.120893 0.641601 0.740724
O O13 0.895805 0.801728 0.698254
O O14 0.299025 0.403136 0.225502
#
# Coordination Sequence:
#
# PCOD9543769 Si02
#       8
#     4   8   4   8   1   8   8   8
#     4   9  20  36  56  88 120 146 214 256 285 388
#     4  11  24  39  56  82 113 147 189 236 285 343
#     4   8  24  36  60  94 122 166 222 256 326 394
#     4   9  19  35  57  82 114 154 189 243 304 348
#     4  12  20  44  68  80 148 180 204 300 340 360
#     4   9  19  37  60  85 114 147 185 230 282 342
#     4  11  24  39  57  82 113 145 187 240 292 349
#     4   9  19  36  57  83 110 144 189 228 286 353
#
# _framework density 22.467101
#
# number of rings (size 3 to 8) (size 9 to 14) (size 15 to 20)
#    0.490    1.796    0.000    3.429    2.286   10.449 
#    0.000    2.449    0.000    2.204    0.000    0.000 
#    0.000    0.000    0.000    0.000    0.000    0.000 
#
# Total GULP energy -273018.775147 kJ/mol
# GULP energy per Si atom -5571.811738 kJ/mol
# Density = 2.241597 g / cm^3
# Si number density = 22.467101 Si / 1000 Ang^3
#
#
#
# Elastic Constant Matrix: (Units=GPa)
#
#
# Indices 1 2 3 4 5 6 
#
# 1 74.3026 33.6332 45.3075 0.0000 0.0000 0.9039
# 2 33.6332 74.3026 45.3075 0.0000 0.0000 -0.9039
# 3 45.3075 45.3075 149.6775 0.0000 0.0000 0.0000
# 4 0.0000 0.0000 0.0000 54.2574 0.0000 0.0000
# 5 0.0000 0.0000 0.0000 0.0000 54.2574 0.0000
# 6 0.9039 -0.9039 0.0000 0.0000 0.0000 36.8730
#
#
#
# Elastic Compliance Matrix: (Units=1/GPa)
#
#
# Indices 1 2 3 4 5 6 
#
# 1 0.018518 -0.006097 -0.003760 0.000000 0.000000 -0.000603
# 2 -0.006097 0.018518 -0.003760 0.000000 0.000000 0.000603
# 3 -0.003760 -0.003760 0.008957 0.000000 0.000000 0.000000
# 4 0.000000 0.000000 0.000000 0.018431 0.000000 0.000000
# 5 0.000000 0.000000 0.000000 0.000000 0.018431 0.000000
# 6 -0.000603 0.000603 0.000000 0.000000 0.000000 0.027150
#
#
# Mechanical properties :
#
#
# Convention : Reuss Voigt Hill
#
# Bulk Modulus (GPa) = 53.30436 60.75326 57.02881
# Shear Modulus (GPa) = 34.84512 40.67989 37.76251
#
# Velocity S-wave (km/s) = 3.94247 4.25978 4.10419
# Velocity P-wave (km/s) = 6.67092 7.16198 6.92081
#
# Compressibility (1/GPa) = 0.01876019
#
# Stress axis : x y z
#
# Youngs Moduli (GPa) = 54.00057 54.00057 111.64062
#
# Poissons Ratio (x) = 0.32924 0.41976
# Poissons Ratio (y) = 0.32924 0.41976
# Poissons Ratio (z) = 0.20304 0.20304
#
# Static dielectric constant tensor:
#      x y z
#    x 1.876540 0.000000 0.000000 
#    y 0.000000 1.876540 0.000000 
#    z 0.000000 0.000000 1.634840 
# 
# From -- ./inp_files/3511.got.cif
#   From: 2010.05.17/outbox.cif.g08.bks.cpg/sg83_2_cif.got.tgz:3511.got - 2010.06.03 18:55:12.
