data_PCOD9543183
_publ_section_title
;
Structure prediction by ZEFSAII (Michael W. Deem and Ramdas Pophale) SiO2 
 PCOD9543183
Probable space group: I -4 
;
_chemical_formula_sum "Si O2"
_cell_formula_units_Z 44
_cell_length_a 13.685384
_cell_length_b 13.685384
_cell_length_c 11.680180
_cell_angle_alpha 90.000000
_cell_angle_beta 90.000000
_cell_angle_gamma 90.000000
_cell_volume 2187.577820
_symmetry_space_group_name_H-M "I -4 "
_symmetry_group_IT_number 82
_symmetry_cell_setting 'tetragonal'
loop_
_space_group_symop_operation_xyz
x,y,z
y,-x,-z
-x,-y,z
-y,x,-z
1/2+x,1/2+y,1/2+z
1/2+y,1/2-x,1/2-z
1/2-x,1/2-y,1/2+z
1/2-y,1/2+x,1/2-z
loop_
_atom_site_type_symbol
_atom_site_label
_atom_site_fract_x
_atom_site_fract_y
_atom_site_fract_z
Si Si1 0.384692 0.821862 0.157373
Si Si2 0.000000 0.500000 0.250000
Si Si3 0.342964 0.677123 0.720629
Si Si4 0.652191 0.532414 0.681515
Si Si5 0.158080 0.392771 0.100885
Si Si6 0.000000 0.500000 0.750000
Si Si7 0.796953 0.023682 0.923838
O O1 0.268536 0.822934 0.178064
O O2 0.566217 0.624250 0.251061
O O3 0.429600 0.928453 0.180592
O O4 0.415751 0.802980 0.026355
O O5 0.906974 0.526658 0.168844
O O6 0.075147 0.756229 0.748996
O O7 0.358849 0.750316 0.824632
O O8 0.414956 0.716505 0.622919
O O9 0.576029 0.618060 0.650764
O O10 0.675086 0.488222 0.555919
O O11 0.085785 0.300724 0.087092
#
# Coordination Sequence:
#
# PCOD9543183 Si02
#       7
#     8   2   8   8   8   2   8
#     4  12  25  45  71 104 143 181 234 295 358 415
#     4  12  26  48  72 102 140 198 248 284 358 428
#     4  12  25  43  68 104 137 180 234 289 352 418
#     4  12  24  44  73 103 134 182 234 289 347 422
#     4  12  25  46  69 104 142 185 233 295 353 423
#     4  12  22  48  72 106 136 182 240 288 350 432
#     4  12  23  44  75 101 135 182 239 287 344 426
#
# _framework density 20.113572000000001
#
# number of rings (size 3 to 8) (size 9 to 14) (size 15 to 20)
#    0.000    0.000    9.091    1.091    0.000    0.000 
#    6.545    0.000    0.000    0.000    0.000    0.000 
#    0.000    0.000    0.000    0.000    0.000    0.000 
#
# Total GULP energy -122865.753756 kJ/mol
# GULP energy per Si atom -5584.806989 kJ/mol
# Density = 2.006779 g / cm^3
# Si number density = 20.113572 Si / 1000 Ang^3
#
#
#
# Elastic Constant Matrix: (Units=GPa)
#
#
# Indices 1 2 3 4 5 6 
#
# 1 95.9445 12.8514 41.0923 0.0000 0.0000 2.9859
# 2 12.8514 95.9445 41.0923 0.0000 0.0000 -2.9859
# 3 41.0923 41.0923 106.3392 0.0000 0.0000 0.0000
# 4 0.0000 0.0000 0.0000 25.4326 0.0000 0.0000
# 5 0.0000 0.0000 0.0000 0.0000 25.4326 0.0000
# 6 2.9859 -2.9859 0.0000 0.0000 0.0000 15.8750
#
#
#
# Elastic Compliance Matrix: (Units=1/GPa)
#
#
# Indices 1 2 3 4 5 6 
#
# 1 0.012590 0.000391 -0.005016 0.000000 0.000000 -0.002295
# 2 0.000391 0.012590 -0.005016 0.000000 0.000000 0.002295
# 3 -0.005016 -0.005016 0.013281 0.000000 0.000000 0.000000
# 4 0.000000 0.000000 0.000000 0.039320 0.000000 0.000000
# 5 0.000000 0.000000 0.000000 0.000000 0.039320 0.000000
# 6 -0.002295 0.002295 0.000000 0.000000 0.000000 0.063855
#
#
# Mechanical properties :
#
#
# Convention : Reuss Voigt Hill
#
# Bulk Modulus (GPa) = 52.14415 54.25556 53.19985
# Shear Modulus (GPa) = 24.19774 26.89421 25.54598
#
# Velocity S-wave (km/s) = 3.47227 3.66063 3.56769
# Velocity P-wave (km/s) = 6.48511 6.70075 6.59382
#
# Compressibility (1/GPa) = 0.01917761
#
# Stress axis : x y z
#
# Youngs Moduli (GPa) = 79.42725 79.42725 75.29797
#
# Poissons Ratio (x) = -0.03102 0.37770
# Poissons Ratio (y) = -0.03102 0.37770
# Poissons Ratio (z) = 0.39841 0.39841
#
# Static dielectric constant tensor:
#      x y z
#    x 1.731390 0.000000 0.000000 
#    y 0.000000 1.731390 0.000000 
#    z 0.000000 0.000000 1.765020 
# 
# From -- ./inp_files/1742.got.cif
#   From: 2010.05.17/outbox.cif.g08.bks.cpg/sg82_1_cif.got.tgz:1742.got - 2010.06.03 18:52:26.
