data_PCOD9543720
_publ_section_title
;
Structure prediction by ZEFSAII (Michael W. Deem and Ramdas Pophale) SiO2 
 PCOD9543720
Probable space group: P 4/M
;
_chemical_formula_sum "Si O2"
_cell_formula_units_Z 48
_cell_length_a 8.137979
_cell_length_b 8.137979
_cell_length_c 31.876107
_cell_angle_alpha 90.000000
_cell_angle_beta 90.000000
_cell_angle_gamma 90.000000
_cell_volume 2111.049446
_symmetry_space_group_name_H-M "P 4/M"
_symmetry_group_IT_number 83
_symmetry_cell_setting 'tetragonal'
loop_
_space_group_symop_operation_xyz
x,y,z
-y,x,z
-x,-y,z
y,-x,z
-x,-y,-z
y,-x,-z
x,y,-z
-y,x,-z
loop_
_atom_site_type_symbol
_atom_site_label
_atom_site_fract_x
_atom_site_fract_y
_atom_site_fract_z
Si Si1 0.763896 0.578091 0.500000
Si Si2 0.762823 0.588775 0.917487
Si Si3 0.910879 0.737099 0.420218
Si Si4 0.907117 0.737959 0.673292
Si Si5 0.237180 0.414974 0.754280
Si Si6 0.910143 0.737441 0.000000
Si Si7 0.736696 0.086248 0.835466
O O1 0.605274 0.696753 0.500000
O O2 0.862689 0.620909 0.458113
O O3 0.597931 0.700514 0.917591
O O4 0.864149 0.636037 0.958703
O O5 0.864322 0.632860 0.876083
O O6 0.883007 0.667623 0.373493
O O7 0.097606 0.800606 0.423348
O O8 0.852879 0.621546 0.710666
O O9 0.094958 0.799131 0.676739
O O10 0.399649 0.300806 0.756531
O O11 0.126649 0.361913 0.793377
O O12 0.097165 0.799061 0.000000
O O13 0.900342 0.199485 0.836197
#
# Coordination Sequence:
#
# PCOD9543720 Si02
#       7
#     4   8   8   8   8   4   8
#     4  11  24  37  50  76 114 149 182 225 276 330
#     4  11  24  41  62  90 122 155 194 239 288 343
#     4   9  19  37  60  83 107 139 183 232 278 329
#     4   9  19  37  60  85 111 141 182 231 280 332
#     4  11  24  39  56  83 118 153 189 230 278 334
#     4  11  24  41  62  90 122 157 200 243 284 338
#     4  11  24  41  62  88 116 149 193 241 286 337
#
# _framework density 22.737504000000001
#
# number of rings (size 3 to 8) (size 9 to 14) (size 15 to 20)
#    0.000    1.667    0.000    5.000    0.000   15.333 
#    0.000    5.000    0.000    0.000    0.000    0.000 
#    0.000    0.000    0.000    0.000    0.000    0.000 
#
# Total GULP energy -269203.104659 kJ/mol
# GULP energy per Si atom -5608.398014 kJ/mol
# Density = 2.268575 g / cm^3
# Si number density = 22.737504 Si / 1000 Ang^3
#
#
#
# Elastic Constant Matrix: (Units=GPa)
#
#
# Indices 1 2 3 4 5 6 
#
# 1 90.7649 59.0539 65.0506 0.0000 0.0000 0.6514
# 2 59.0539 90.7649 65.0506 0.0000 0.0000 -0.6514
# 3 65.0506 65.0506 209.1109 0.0000 0.0000 0.0000
# 4 0.0000 0.0000 0.0000 1757.4359 0.0000 0.0000
# 5 0.0000 0.0000 0.0000 0.0000 1757.4359 0.0000
# 6 0.6514 -0.6514 0.0000 0.0000 0.0000 48.4883
#
#
#
# Elastic Compliance Matrix: (Units=1/GPa)
#
#
# Indices 1 2 3 4 5 6 
#
# 1 0.020349 -0.011203 -0.002845 0.000000 0.000000 -0.000424
# 2 -0.011203 0.020349 -0.002845 0.000000 0.000000 0.000424
# 3 -0.002845 -0.002845 0.006552 0.000000 0.000000 0.000000
# 4 0.000000 0.000000 0.000000 0.000569 0.000000 0.000000
# 5 0.000000 0.000000 0.000000 0.000000 0.000569 0.000000
# 6 -0.000424 0.000424 0.000000 0.000000 0.000000 0.020635
#
#
# Mechanical properties :
#
#
# Convention : Reuss Voigt Hill
#
# Bulk Modulus (GPa) = 74.27793 85.43900 79.85847
# Shear Modulus (GPa) = 46.59970 726.10437 386.35203
#
# Velocity S-wave (km/s) = 4.53201 17.88953 13.04942
# Velocity P-wave (km/s) = 7.75397 21.54929 16.19407
#
# Compressibility (1/GPa) = 0.01346295
#
# Stress axis : x y z
#
# Youngs Moduli (GPa) = 49.14315 49.14315 152.62154
#
# Poissons Ratio (x) = 0.55057 0.43420
# Poissons Ratio (y) = 0.55057 0.43420
# Poissons Ratio (z) = 0.13981 0.13981
#
# Static dielectric constant tensor:
#      x y z
#    x 1.817600 0.000000 0.000000 
#    y 0.000000 1.817600 0.000000 
#    z 0.000000 0.000000 1.777050 
# 
# From -- ./inp_files/3448.got.cif
#   From: 2010.05.17/outbox.cif.g08.bks.cpg/sg83_2_cif.got.tgz:3448.got - 2010.06.03 18:55:12.
