data_PCOD9543780
_publ_section_title
;
Structure prediction by ZEFSAII (Michael W. Deem and Ramdas Pophale) SiO2 
 PCOD9543780
Probable space group: P 4/M
;
_chemical_formula_sum "Si O2"
_cell_formula_units_Z 48
_cell_length_a 8.095490
_cell_length_b 8.095490
_cell_length_c 33.162399
_cell_angle_alpha 90.000000
_cell_angle_beta 90.000000
_cell_angle_gamma 90.000000
_cell_volume 2173.362762
_symmetry_space_group_name_H-M "P 4/M"
_symmetry_group_IT_number 83
_symmetry_cell_setting 'tetragonal'
loop_
_space_group_symop_operation_xyz
x,y,z
-y,x,z
-x,-y,z
y,-x,z
-x,-y,-z
y,-x,-z
x,y,-z
-y,x,-z
loop_
_atom_site_type_symbol
_atom_site_label
_atom_site_fract_x
_atom_site_fract_y
_atom_site_fract_z
Si Si1 0.260647 0.899479 0.955005
Si Si2 0.919483 0.265767 0.500000
Si Si3 0.262219 0.094525 0.745984
Si Si4 0.235420 0.582584 0.422434
Si Si5 0.000000 0.500000 0.810517
Si Si6 0.905292 0.262621 0.655673
Si Si7 0.587636 0.237736 0.124120
O O1 0.377154 0.844749 0.918937
O O2 0.090115 0.795290 0.951778
O O3 0.329944 0.871997 0.000000
O O4 0.895572 0.802005 0.500000
O O5 0.876575 0.366664 0.460006
O O6 0.394224 0.116924 0.781036
O O7 0.330589 0.120552 0.700821
O O8 0.096501 0.202507 0.749309
O O9 0.300931 0.397149 0.424733
O O10 0.147426 0.619515 0.380219
O O11 0.107224 0.385595 0.840200
O O12 0.094359 0.202339 0.652236
O O13 0.701479 0.398995 0.127339
#
# Coordination Sequence:
#
# PCOD9543780 Si02
#       7
#     8   4   8   8   4   8   8
#     4   9  19  38  64  91 117 149 193 241 287 342
#     4  11  24  41  62  88 116 151 196 239 280 332
#     4   9  20  38  60  86 113 145 193 247 293 343
#     4  11  24  39  57  86 122 155 190 232 281 341
#     4  12  22  38  61  84 114 157 198 240 294 350
#     4   9  19  37  60  86 114 145 188 239 286 338
#     4  11  24  39  56  85 123 159 196 240 293 351
#
# _framework density 22.085588000000001
#
# number of rings (size 3 to 8) (size 9 to 14) (size 15 to 20)
#    0.000    1.917    0.000    5.000    0.000    8.667 
#    0.000    4.583    0.000    2.000    0.000    0.000 
#    0.000    0.000    0.000    0.000    0.000    0.000 
#
# Total GULP energy -268740.054856 kJ/mol
# GULP energy per Si atom -5598.751143 kJ/mol
# Density = 2.203532 g / cm^3
# Si number density = 22.085588 Si / 1000 Ang^3
#
#
#
# Elastic Constant Matrix: (Units=GPa)
#
#
# Indices 1 2 3 4 5 6 
#
# 1 68.3152 30.3282 54.1787 0.0000 0.0000 -4.0833
# 2 30.3282 68.3152 54.1787 0.0000 0.0000 4.0833
# 3 54.1787 54.1787 195.1805 0.0000 0.0000 0.0000
# 4 0.0000 0.0000 0.0000 91.3291 0.0000 0.0000
# 5 0.0000 0.0000 0.0000 0.0000 91.3291 0.0000
# 6 -4.0833 4.0833 0.0000 0.0000 0.0000 35.1527
#
#
#
# Elastic Compliance Matrix: (Units=1/GPa)
#
#
# Indices 1 2 3 4 5 6 
#
# 1 0.020792 -0.006207 -0.004048 0.000000 0.000000 0.003136
# 2 -0.006207 0.020792 -0.004048 0.000000 0.000000 -0.003136
# 3 -0.004048 -0.004048 0.007371 0.000000 0.000000 0.000000
# 4 0.000000 0.000000 0.000000 0.010949 0.000000 0.000000
# 5 0.000000 0.000000 0.000000 0.000000 0.010949 0.000000
# 6 0.003136 -0.003136 0.000000 0.000000 0.000000 0.029176
#
#
# Mechanical properties :
#
#
# Convention : Reuss Voigt Hill
#
# Bulk Modulus (GPa) = 49.14842 67.68690 58.41766
# Shear Modulus (GPa) = 36.92222 56.43718 46.67970
#
# Velocity S-wave (km/s) = 4.09317 5.06057 4.60236
# Velocity P-wave (km/s) = 6.68137 8.05356 7.39934
#
# Compressibility (1/GPa) = 0.02034654
#
# Stress axis : x y z
#
# Youngs Moduli (GPa) = 48.09577 48.09577 135.66652
#
# Poissons Ratio (x) = 0.29854 0.54924
# Poissons Ratio (y) = 0.29854 0.54924
# Poissons Ratio (z) = 0.19471 0.19471
#
# Static dielectric constant tensor:
#      x y z
#    x 1.811940 0.000000 0.000000 
#    y 0.000000 1.811940 0.000000 
#    z 0.000000 0.000000 1.774910 
# 
# From -- ./inp_files/3507.got.cif
#   From: 2010.05.17/outbox.cif.g08.bks.cpg/sg83_2_cif.got.tgz:3507.got - 2010.06.03 18:55:12.
