data_PCOD9543422
_publ_section_title
;
Structure prediction by ZEFSAII (Michael W. Deem and Ramdas Pophale) SiO2 
 PCOD9543422
Probable space group: P 4/M
;
_chemical_formula_sum "Si O2"
_cell_formula_units_Z 52
_cell_length_a 15.158232
_cell_length_b 15.158232
_cell_length_c 12.308928
_cell_angle_alpha 90.000000
_cell_angle_beta 90.000000
_cell_angle_gamma 90.000000
_cell_volume 2828.246972
_symmetry_space_group_name_H-M "P 4/M"
_symmetry_group_IT_number 83
_symmetry_cell_setting 'tetragonal'
loop_
_space_group_symop_operation_xyz
x,y,z
-y,x,z
-x,-y,z
y,-x,z
-x,-y,-z
y,-x,-z
x,y,-z
-y,x,-z
loop_
_atom_site_type_symbol
_atom_site_label
_atom_site_fract_x
_atom_site_fract_y
_atom_site_fract_z
Si Si1 0.308880 0.426713 0.875615
Si Si2 0.602214 0.993436 0.868888
Si Si3 0.414886 0.296989 0.268063
Si Si4 0.355159 0.527313 0.500000
Si Si5 0.276116 0.148658 0.238568
Si Si6 0.154865 0.282061 0.122049
Si Si7 0.952015 0.135756 0.630373
O O1 0.267575 0.513817 0.822113
O O2 0.379265 0.387513 0.788945
O O3 0.234783 0.351898 0.882977
O O4 0.341281 0.441907 0.000000
O O5 0.655283 0.906654 0.833879
O O6 0.500000 0.000000 0.831073
O O7 0.663246 0.074235 0.827511
O O8 0.598844 0.998592 0.000000
O O9 0.459088 0.306902 0.385520
O O10 0.334821 0.229092 0.283685
O O11 0.399984 0.432274 0.500000
O O12 0.196019 0.196183 0.175989
O O13 0.226524 0.084273 0.321602
O O14 0.127770 0.257899 0.000000
O O15 0.950293 0.140154 0.500000
O O16 0.051822 0.109234 0.662432
#
# Coordination Sequence:
#
# PCOD9543422 Si02
#       7
#     8   8   8   4   8   8   8
#     4  10  20  35  53  79 111 140 182 232 281 330
#     4  10  20  35  56  81 113 153 187 220 275 342
#     4  11  22  35  53  80 104 148 182 231 279 329
#     4  11  22  40  58  70 107 144 197 231 278 341
#     4  11  21  33  57  82 111 141 187 229 274 327
#     4   9  19  34  52  79 114 146 180 225 274 333
#     4   9  19  37  59  82 107 137 178 229 281 329
#
# _framework density 18.385947999999999
#
# number of rings (size 3 to 8) (size 9 to 14) (size 15 to 20)
#    0.000    1.923    1.538    3.231    1.077    3.385 
#    0.000    0.769    0.000    0.462    0.000    6.462 
#    0.000    0.000    0.000    0.000    0.000    0.000 
#
# Total GULP energy -289611.275308 kJ/mol
# GULP energy per Si atom -5569.447602 kJ/mol
# Density = 1.834410 g / cm^3
# Si number density = 18.385948 Si / 1000 Ang^3
#
#
#
# Elastic Constant Matrix: (Units=GPa)
#
#
# Indices 1 2 3 4 5 6 
#
# 1 71.0557 20.5098 20.3585 0.0000 0.0000 -0.9749
# 2 20.5098 71.0557 20.3585 0.0000 0.0000 0.9749
# 3 20.3585 20.3585 65.7396 0.0000 0.0000 0.0000
# 4 0.0000 0.0000 0.0000 15.9431 0.0000 0.0000
# 5 0.0000 0.0000 0.0000 0.0000 15.9431 0.0000
# 6 -0.9749 0.9749 0.0000 0.0000 0.0000 26.9600
#
#
#
# Elastic Compliance Matrix: (Units=1/GPa)
#
#
# Indices 1 2 3 4 5 6 
#
# 1 0.016238 -0.003573 -0.003922 0.000000 0.000000 0.000716
# 2 -0.003573 0.016238 -0.003922 0.000000 0.000000 -0.000716
# 3 -0.003922 -0.003922 0.017641 0.000000 0.000000 0.000000
# 4 0.000000 0.000000 0.000000 0.062723 0.000000 0.000000
# 5 0.000000 0.000000 0.000000 0.000000 0.062723 0.000000
# 6 0.000716 -0.000716 0.000000 0.000000 0.000000 0.037144
#
#
# Mechanical properties :
#
#
# Convention : Reuss Voigt Hill
#
# Bulk Modulus (GPa) = 36.65360 36.70051 36.67705
# Shear Modulus (GPa) = 20.43841 21.54416 20.99129
#
# Velocity S-wave (km/s) = 3.33773 3.42683 3.38257
# Velocity P-wave (km/s) = 5.90194 5.97177 5.93696
#
# Compressibility (1/GPa) = 0.02728245
#
# Stress axis : x y z
#
# Youngs Moduli (GPa) = 61.58220 61.58220 56.68670
#
# Poissons Ratio (x) = 0.22004 0.22234
# Poissons Ratio (y) = 0.22004 0.22234
# Poissons Ratio (z) = 0.24154 0.24154
#
# Static dielectric constant tensor:
#      x y z
#    x 1.672030 0.000000 0.000000 
#    y 0.000000 1.672030 0.000000 
#    z 0.000000 0.000000 1.622420 
# 
# From -- ./inp_files/1950.got.cif
#   From: 2010.05.17/outbox.cif.g08.bks.cpg/sg83_1_cif.got.tgz:1950.got - 2010.06.03 18:55:12.
