data_PCOD9543459
_publ_section_title
;
Structure prediction by ZEFSAII (Michael W. Deem and Ramdas Pophale) SiO2 
 PCOD9543459
Probable space group: P 4/M
;
_chemical_formula_sum "Si O2"
_cell_formula_units_Z 40
_cell_length_a 15.387080
_cell_length_b 15.387080
_cell_length_c 7.958508
_cell_angle_alpha 90.000000
_cell_angle_beta 90.000000
_cell_angle_gamma 90.000000
_cell_volume 1884.274109
_symmetry_space_group_name_H-M "P 4/M"
_symmetry_group_IT_number 83
_symmetry_cell_setting 'tetragonal'
loop_
_space_group_symop_operation_xyz
x,y,z
-y,x,z
-x,-y,z
y,-x,z
-x,-y,-z
y,-x,-z
x,y,-z
-y,x,-z
loop_
_atom_site_type_symbol
_atom_site_label
_atom_site_fract_x
_atom_site_fract_y
_atom_site_fract_z
Si Si1 0.578344 0.940018 0.304990
Si Si2 0.089565 0.309699 0.196328
Si Si3 0.258268 0.581646 0.199888
Si Si4 0.388135 0.730196 0.206476
Si Si5 0.121966 0.930095 0.702783
O O1 0.558395 0.925300 0.500000
O O2 0.590305 0.845029 0.228200
O O3 0.500000 0.000000 0.232203
O O4 0.662354 0.001232 0.287041
O O5 0.172505 0.362837 0.260566
O O6 0.108856 0.208395 0.220752
O O7 0.077510 0.328434 0.000000
O O8 0.317381 0.660244 0.266033
O O9 0.287471 0.486548 0.261945
O O10 0.271678 0.581197 0.000000
O O11 0.386503 0.731356 0.000000
O O12 0.127166 0.926448 0.500000
O O13 0.031522 0.885749 0.752374
#
# Coordination Sequence:
#
# PCOD9543459 Si02
#       5
#     8   8   8   8   8
#     4  11  23  39  59  85 114 150 194 236 289 349
#     4  11  22  36  56  86 118 151 193 242 291 344
#     4  10  20  39  62  88 120 154 192 239 291 348
#     4   9  20  36  59  88 118 151 193 239 290 345
#     4   9  20  39  58  79 113 155 195 237 290 348
#
# _framework density 21.228334
#
# number of rings (size 3 to 8) (size 9 to 14) (size 15 to 20)
#    0.000    2.000    2.000    1.800    2.800    2.000 
#    0.000    5.000    0.000    0.000    0.000    1.400 
#    0.000    0.000    0.000    0.000    0.000    0.000 
#
# Total GULP energy -223396.566426 kJ/mol
# GULP energy per Si atom -5584.914161 kJ/mol
# Density = 2.118002 g / cm^3
# Si number density = 21.228334 Si / 1000 Ang^3
#
#
#
# Elastic Constant Matrix: (Units=GPa)
#
#
# Indices 1 2 3 4 5 6 
#
# 1 98.2630 43.5631 0.5520 0.0000 0.0000 -12.7169
# 2 43.5631 98.2630 0.5520 0.0000 0.0000 12.7169
# 3 0.5520 0.5520 15.2790 0.0000 0.0000 0.0000
# 4 0.0000 0.0000 0.0000 11.5465 0.0000 0.0000
# 5 0.0000 0.0000 0.0000 0.0000 11.5465 0.0000
# 6 -12.7169 12.7169 0.0000 0.0000 0.0000 33.2166
#
#
#
# Elastic Compliance Matrix: (Units=1/GPa)
#
#
# Indices 1 2 3 4 5 6 
#
# 1 0.014647 -0.007594 -0.000255 0.000000 0.000000 0.008515
# 2 -0.007594 0.014647 -0.000255 0.000000 0.000000 -0.008515
# 3 -0.000255 -0.000255 0.065468 0.000000 0.000000 0.000000
# 4 0.000000 0.000000 0.000000 0.086606 0.000000 0.000000
# 5 0.000000 0.000000 0.000000 0.000000 0.086606 0.000000
# 6 0.008515 -0.008515 0.000000 0.000000 0.000000 0.036625
#
#
# Mechanical properties :
#
#
# Convention : Reuss Voigt Hill
#
# Bulk Modulus (GPa) = 12.73005 33.45989 23.09497
# Shear Modulus (GPa) = 14.40962 22.40446 18.40704
#
# Velocity S-wave (km/s) = 2.60819 3.25222 2.94785
# Velocity P-wave (km/s) = 3.88329 5.46797 4.74229
#
# Compressibility (1/GPa) = 0.07855428
#
# Stress axis : x y z
#
# Youngs Moduli (GPa) = 68.27436 68.27436 15.27471
#
# Poissons Ratio (x) = 0.51847 0.00389
# Poissons Ratio (y) = 0.51847 0.00389
# Poissons Ratio (z) = 0.01740 0.01740
#
# Static dielectric constant tensor:
#      x y z
#    x 1.759490 0.000000 0.000000 
#    y 0.000000 1.759490 0.000000 
#    z 0.000000 0.000000 1.772500 
# 
# From -- ./inp_files/635.got.cif
#   From: 2010.05.17/outbox.cif.g08.bks.cpg/sg83_1_cif.got.tgz:635.got - 2010.06.03 18:55:12.
