data_PCOD9543792
_publ_section_title
;
Structure prediction by ZEFSAII (Michael W. Deem and Ramdas Pophale) SiO2 
 PCOD9543792
Probable space group: P 4/M
;
_chemical_formula_sum "Si O2"
_cell_formula_units_Z 56
_cell_length_a 10.820606
_cell_length_b 10.820606
_cell_length_c 22.160011
_cell_angle_alpha 90.000000
_cell_angle_beta 90.000000
_cell_angle_gamma 90.000000
_cell_volume 2594.616283
_symmetry_space_group_name_H-M "P 4/M"
_symmetry_group_IT_number 83
_symmetry_cell_setting 'tetragonal'
loop_
_space_group_symop_operation_xyz
x,y,z
-y,x,z
-x,-y,z
y,-x,z
-x,-y,-z
y,-x,-z
x,y,-z
-y,x,-z
loop_
_atom_site_type_symbol
_atom_site_label
_atom_site_fract_x
_atom_site_fract_y
_atom_site_fract_z
Si Si1 0.803122 0.570667 0.066917
Si Si2 0.581718 0.308734 0.434523
Si Si3 0.358238 0.046478 0.296195
Si Si4 0.074419 0.691631 0.935061
Si Si5 0.951266 0.195185 0.189780
Si Si6 0.786555 0.707719 0.317811
Si Si7 0.403477 0.682839 0.804810
O O1 0.834032 0.424777 0.072434
O O2 0.737563 0.615708 0.128043
O O3 0.936654 0.635227 0.064738
O O4 0.743972 0.590074 0.000000
O O5 0.655095 0.438234 0.433292
O O6 0.607563 0.248121 0.500000
O O7 0.618990 0.239932 0.374167
O O8 0.322754 0.063621 0.225544
O O9 0.273115 0.933692 0.319606
O O10 0.500000 0.000000 0.303852
O O11 0.304372 0.173996 0.323120
O O12 0.075194 0.782755 0.879862
O O13 0.100344 0.750267 0.000000
O O14 0.857034 0.086133 0.205336
O O15 0.758982 0.642091 0.253261
O O16 0.339442 0.549769 0.799776
#
# Coordination Sequence:
#
# PCOD9543792 Si02
#       7
#     8   8   8   8   8   8   8
#     4   9  20  37  57  83 116 158 207 262 333 410
#     4   9  18  37  68 103 142 184 225 280 342 396
#     4  12  26  42  68  96 132 180 221 276 342 396
#     4   9  20  37  58  83 113 154 208 268 327 403
#     4  11  24  41  60  88 125 164 213 275 338 395
#     4  12  25  43  65  99 136 176 230 277 330 405
#     4  11  24  39  58  88 125 162 209 278 342 403
#
# _framework density 21.583154
#
# number of rings (size 3 to 8) (size 9 to 14) (size 15 to 20)
#    0.000    1.571    1.429    4.714    6.000    2.571 
#    0.000    5.000    0.000    2.571    0.000    1.000 
#    0.000    0.000    0.000    0.000    0.000    0.000 
#
# Total GULP energy -312805.267865 kJ/mol
# GULP energy per Si atom -5585.808355 kJ/mol
# Density = 2.153403 g / cm^3
# Si number density = 21.583154 Si / 1000 Ang^3
#
#
#
# Elastic Constant Matrix: (Units=GPa)
#
#
# Indices 1 2 3 4 5 6 
#
# 1 74.2462 11.6819 26.3857 0.0000 0.0000 -2.8997
# 2 11.6819 74.2462 26.3857 0.0000 0.0000 2.8997
# 3 26.3857 26.3857 128.0228 0.0000 0.0000 0.0000
# 4 0.0000 0.0000 0.0000 24.2048 0.0000 0.0000
# 5 0.0000 0.0000 0.0000 0.0000 24.2048 0.0000
# 6 -2.8997 2.8997 0.0000 0.0000 0.0000 27.3796
#
#
#
# Elastic Compliance Matrix: (Units=1/GPa)
#
#
# Indices 1 2 3 4 5 6 
#
# 1 0.014733 -0.001409 -0.002746 0.000000 0.000000 0.001710
# 2 -0.001409 0.014733 -0.002746 0.000000 0.000000 -0.001710
# 3 -0.002746 -0.002746 0.008943 0.000000 0.000000 0.000000
# 4 0.000000 0.000000 0.000000 0.041314 0.000000 0.000000
# 5 0.000000 0.000000 0.000000 0.000000 0.041314 0.000000
# 6 0.001710 -0.001710 0.000000 0.000000 0.000000 0.036886
#
#
# Mechanical properties :
#
#
# Convention : Reuss Voigt Hill
#
# Bulk Modulus (GPa) = 40.63914 45.04688 42.84301
# Shear Modulus (GPa) = 27.78893 29.29529 28.54211
#
# Velocity S-wave (km/s) = 3.59211 3.68818 3.64046
# Velocity P-wave (km/s) = 6.00619 6.24928 6.12894
#
# Compressibility (1/GPa) = 0.02460682
#
# Stress axis : x y z
#
# Youngs Moduli (GPa) = 67.87444 67.87444 111.81837
#
# Poissons Ratio (x) = 0.09563 0.30707
# Poissons Ratio (y) = 0.09563 0.30707
# Poissons Ratio (z) = 0.18639 0.18639
#
# Static dielectric constant tensor:
#      x y z
#    x 1.818340 0.000000 0.000000 
#    y 0.000000 1.818340 0.000000 
#    z 0.000000 0.000000 1.805830 
# 
# From -- ./inp_files/2987.got.cif
#   From: 2010.05.17/outbox.cif.g08.bks.cpg/sg83_2_cif.got.tgz:2987.got - 2010.06.03 18:55:12.
