data_PCOD9543277
_publ_section_title
;
Structure prediction by ZEFSAII (Michael W. Deem and Ramdas Pophale) SiO2 
 PCOD9543277
Probable space group: P 4/M
;
_chemical_formula_sum "Si O2"
_cell_formula_units_Z 52
_cell_length_a 17.560045
_cell_length_b 17.560045
_cell_length_c 7.253835
_cell_angle_alpha 90.000000
_cell_angle_beta 90.000000
_cell_angle_gamma 90.000000
_cell_volume 2236.757600
_symmetry_space_group_name_H-M "P 4/M"
_symmetry_group_IT_number 83
_symmetry_cell_setting 'tetragonal'
loop_
_space_group_symop_operation_xyz
x,y,z
-y,x,z
-x,-y,z
y,-x,z
-x,-y,-z
y,-x,-z
x,y,-z
-y,x,-z
loop_
_atom_site_type_symbol
_atom_site_label
_atom_site_fract_x
_atom_site_fract_y
_atom_site_fract_z
Si Si1 0.166081 0.688833 0.224444
Si Si2 0.477915 0.232104 0.221861
Si Si3 0.369773 0.502401 0.500000
Si Si4 0.460242 0.926756 0.789707
Si Si5 0.906680 0.921570 0.278183
Si Si6 0.161709 0.225642 0.204815
Si Si7 0.291624 0.991739 0.211009
O O1 0.199550 0.606201 0.269630
O O2 0.225840 0.754207 0.287799
O O3 0.077729 0.700526 0.287791
O O4 0.164270 0.691527 0.000000
O O5 0.494887 0.310429 0.327973
O O6 0.530845 0.159526 0.277991
O O7 0.483323 0.243847 0.000000
O O8 0.424725 0.427651 0.500000
O O9 0.374723 0.954879 0.795456
O O10 0.500000 0.000000 0.699824
O O11 0.492529 0.921829 0.000000
O O12 0.900118 0.919177 0.500000
O O13 0.847885 0.865306 0.191478
O O14 0.991505 0.897916 0.224539
O O15 0.081138 0.247375 0.296383
O O16 0.163702 0.261062 0.000000
O O17 0.263664 0.999645 0.000000
#
# Coordination Sequence:
#
# PCOD9543277 Si02
#       7
#     8   8   4   8   8   8   8
#     4   9  17  31  53  85 123 161 206 262 319 380
#     4  10  21  41  73 104 132 174 224 271 330 408
#     4  11  28  52  73 100 140 178 219 280 348 413
#     4   9  15  29  59  94 126 167 212 256 318 396
#     4   9  18  32  46  59  85 132 189 242 288 342
#     4  10  19  29  46  75 110 147 191 246 305 367
#     4   9  16  27  48  80 119 160 201 252 317 381
#
# _framework density 23.247938000000001
#
# number of rings (size 3 to 8) (size 9 to 14) (size 15 to 20)
#    0.000    2.538    1.538    1.385    0.000    3.692 
#    1.385    5.000    3.385    0.000    0.000    0.000 
#    0.000    0.000    0.000    0.000    0.000    0.000 
#
# Total GULP energy -289744.104179 kJ/mol
# GULP energy per Si atom -5572.002003 kJ/mol
# Density = 2.319502 g / cm^3
# Si number density = 23.247938 Si / 1000 Ang^3
#
#
#
# Elastic Constant Matrix: (Units=GPa)
#
#
# Indices 1 2 3 4 5 6 
#
# 1 118.6578 44.8382 27.1618 0.0000 0.0000 -9.0721
# 2 44.8382 118.6578 27.1618 0.0000 0.0000 9.0721
# 3 27.1618 27.1618 117.2128 0.0000 0.0000 0.0000
# 4 0.0000 0.0000 0.0000 -1.1125 0.0000 0.0000
# 5 0.0000 0.0000 0.0000 0.0000 -1.1125 0.0000
# 6 -9.0721 9.0721 0.0000 0.0000 0.0000 41.5532
#
#
#
# Elastic Compliance Matrix: (Units=1/GPa)
#
#
# Indices 1 2 3 4 5 6 
#
# 1 0.010471 -0.003844 -0.001536 0.000000 0.000000 0.003125
# 2 -0.003844 0.010471 -0.001536 0.000000 0.000000 -0.003125
# 3 -0.001536 -0.001536 0.009243 0.000000 0.000000 0.000000
# 4 0.000000 0.000000 0.000000 -0.898875 0.000000 0.000000
# 5 0.000000 0.000000 0.000000 0.000000 -0.898875 0.000000
# 6 0.003125 -0.003125 0.000000 0.000000 0.000000 0.025430
#
#
# Mechanical properties :
#
#
# Convention : Reuss Voigt Hill
#
# Bulk Modulus (GPa) = 61.14714 61.42801 61.28757
# Shear Modulus (GPa) = -2.90216 24.89008 10.99396
#
# Velocity S-wave (km/s) = -1.11851 3.27561 2.17699
# Velocity P-wave (km/s) = 4.96902 6.38643 5.72179
#
# Compressibility (1/GPa) = 0.01635400
#
# Stress axis : x y z
#
# Youngs Moduli (GPa) = 95.50514 95.50514 108.18790
#
# Poissons Ratio (x) = 0.36713 0.16613
# Poissons Ratio (y) = 0.36713 0.16613
# Poissons Ratio (z) = 0.14666 0.14666
#
# Static dielectric constant tensor:
#      x y z
#    x 1.954260 0.000000 0.000000 
#    y 0.000000 1.954260 0.000000 
#    z 0.000000 0.000000 1.950820 
# 
# From -- ./inp_files/994.got.cif
#   From: 2010.05.17/outbox.cif.g08.bks.cpg/sg83_1_cif.got.tgz:994.got - 2010.06.03 18:55:12.
