data_PCOD9543587
_publ_section_title
;
Structure prediction by ZEFSAII (Michael W. Deem and Ramdas Pophale) SiO2 
 PCOD9543587
Probable space group: P 4/M
;
_chemical_formula_sum "Si O2"
_cell_formula_units_Z 40
_cell_length_a 14.968980
_cell_length_b 14.968980
_cell_length_c 7.894294
_cell_angle_alpha 90.000000
_cell_angle_beta 90.000000
_cell_angle_gamma 90.000000
_cell_volume 1768.877316
_symmetry_space_group_name_H-M "P 4/M"
_symmetry_group_IT_number 83
_symmetry_cell_setting 'tetragonal'
loop_
_space_group_symop_operation_xyz
x,y,z
-y,x,z
-x,-y,z
y,-x,z
-x,-y,-z
y,-x,-z
x,y,-z
-y,x,-z
loop_
_atom_site_type_symbol
_atom_site_label
_atom_site_fract_x
_atom_site_fract_y
_atom_site_fract_z
Si Si1 0.584010 0.876365 0.000000
Si Si2 0.196055 0.346571 0.691947
Si Si3 0.637807 0.540908 0.706229
Si Si4 0.375670 0.919971 0.000000
Si Si5 0.137915 0.049204 0.795035
Si Si6 0.695250 0.837302 0.315048
O O1 0.622189 0.833054 0.169141
O O2 0.479108 0.890883 0.000000
O O3 0.627267 0.974809 0.000000
O O4 0.165116 0.367130 0.500000
O O5 0.265879 0.422261 0.754502
O O6 0.119736 0.334346 0.829783
O O7 0.252991 0.256306 0.684747
O O8 0.557900 0.607763 0.760535
O O9 0.637512 0.541360 0.500000
O O10 0.228495 0.088419 0.718903
O O11 0.052102 0.110772 0.747472
O O12 0.144819 0.052165 0.000000
O O13 0.654005 0.851780 0.500000
#
# Coordination Sequence:
#
# PCOD9543587 Si02
#       6
#     4   8   8   4   8   8
#     4  11  27  48  64  89 130 172 222 267 311 372
#     4  10  23  41  66  97 126 162 212 264 321 380
#     4   8  15  31  57  89 125 159 191 243 315 379
#     4  11  27  46  68  89 122 180 220 265 315 362
#     4   9  19  36  61  93 129 167 203 254 324 388
#     4  11  24  40  67  97 125 166 210 263 325 379
#
# _framework density 22.613213999999999
#
# number of rings (size 3 to 8) (size 9 to 14) (size 15 to 20)
#    0.000    2.200    1.000    1.800    5.600    2.400 
#    0.000    3.000    0.000    1.200    0.000    0.000 
#    0.000    0.000    0.000    0.000    0.000    0.000 
#
# Total GULP energy -223763.647622 kJ/mol
# GULP energy per Si atom -5594.091191 kJ/mol
# Density = 2.256175 g / cm^3
# Si number density = 22.613214 Si / 1000 Ang^3
#
#
#
# Elastic Constant Matrix: (Units=GPa)
#
#
# Indices 1 2 3 4 5 6 
#
# 1 57.5318 -8.3899 20.2526 0.0000 0.0000 -2.2830
# 2 -8.3899 57.5318 20.2526 0.0000 0.0000 2.2830
# 3 20.2526 20.2526 103.8683 0.0000 0.0000 0.0000
# 4 0.0000 0.0000 0.0000 61.6805 0.0000 0.0000
# 5 0.0000 0.0000 0.0000 0.0000 61.6805 0.0000
# 6 -2.2830 2.2830 0.0000 0.0000 0.0000 27.3264
#
#
#
# Elastic Compliance Matrix: (Units=1/GPa)
#
#
# Indices 1 2 3 4 5 6 
#
# 1 0.019752 0.004494 -0.004728 0.000000 0.000000 0.001275
# 2 0.004494 0.019752 -0.004728 0.000000 0.000000 -0.001275
# 3 -0.004728 -0.004728 0.011471 0.000000 0.000000 0.000000
# 4 0.000000 0.000000 0.000000 0.016213 0.000000 0.000000
# 5 0.000000 0.000000 0.000000 0.000000 0.016213 0.000000
# 6 0.001275 -0.001275 0.000000 0.000000 0.000000 0.036808
#
#
# Mechanical properties :
#
#
# Convention : Reuss Voigt Hill
#
# Bulk Modulus (GPa) = 24.35892 31.46252 27.91072
# Shear Modulus (GPa) = 34.76714 42.59191 38.67953
#
# Velocity S-wave (km/s) = 3.92531 4.34464 4.14029
# Velocity P-wave (km/s) = 5.59817 6.25391 5.93510
#
# Compressibility (1/GPa) = 0.04105273
#
# Stress axis : x y z
#
# Youngs Moduli (GPa) = 50.62820 50.62820 87.17511
#
# Poissons Ratio (x) = -0.22752 0.41212
# Poissons Ratio (y) = -0.22752 0.41212
# Poissons Ratio (z) = 0.23935 0.23935
#
# Static dielectric constant tensor:
#      x y z
#    x 1.831490 0.000000 0.000000 
#    y 0.000000 1.831490 0.000000 
#    z 0.000000 0.000000 1.834200 
# 
# From -- ./inp_files/748.got.cif
#   From: 2010.05.17/outbox.cif.g08.bks.cpg/sg83_1_cif.got.tgz:748.got - 2010.06.03 18:55:12.
