data_PCOD9543737
_publ_section_title
;
Structure prediction by ZEFSAII (Michael W. Deem and Ramdas Pophale) SiO2 
 PCOD9543737
Probable space group: P 4/M
;
_chemical_formula_sum "Si O2"
_cell_formula_units_Z 32
_cell_length_a 7.807825
_cell_length_b 7.807825
_cell_length_c 22.959071
_cell_angle_alpha 90.000000
_cell_angle_beta 90.000000
_cell_angle_gamma 90.000000
_cell_volume 1399.633899
_symmetry_space_group_name_H-M "P 4/M"
_symmetry_group_IT_number 83
_symmetry_cell_setting 'tetragonal'
loop_
_space_group_symop_operation_xyz
x,y,z
-y,x,z
-x,-y,z
y,-x,z
-x,-y,-z
y,-x,-z
x,y,-z
-y,x,-z
loop_
_atom_site_type_symbol
_atom_site_label
_atom_site_fract_x
_atom_site_fract_y
_atom_site_fract_z
Si Si1 0.610395 0.231980 0.125630
Si Si2 0.000000 0.500000 0.340890
Si Si3 0.267615 0.902619 0.246465
Si Si4 0.614205 0.232175 0.000000
Si Si5 0.608290 0.768077 0.435004
O O1 0.713956 0.411371 0.127843
O O2 0.658759 0.126492 0.182213
O O3 0.648917 0.147545 0.062533
O O4 0.129253 0.403471 0.297357
O O5 0.097518 0.631294 0.383562
O O6 0.099244 0.788906 0.252575
O O7 0.714124 0.413806 0.000000
O O8 0.407969 0.713001 0.430591
O O9 0.638500 0.839241 0.500000
#
# Coordination Sequence:
#
# PCOD9543737 Si02
#       5
#     8   4   8   4   8
#     4   9  17  33  58  84 108 139 180 223 269 324
#     4  12  21  36  58  79 104 146 188 214 256 323
#     4  11  24  38  51  74 111 148 183 227 272 314
#     4   7  12  26  52  83 108 131 170 224 272 317
#     4   9  19  36  58  85 112 135 168 219 270 313
#
# _framework density 22.863125
#
# number of rings (size 3 to 8) (size 9 to 14) (size 15 to 20)
#    0.000    2.375    0.000    5.625    0.000    0.000 
#    0.000    3.750    0.000    6.750    0.000   10.500 
#    0.000    0.000    0.000    0.000    0.000    0.000 
#
# Total GULP energy -178858.966048 kJ/mol
# GULP energy per Si atom -5589.342689 kJ/mol
# Density = 2.281109 g / cm^3
# Si number density = 22.863125 Si / 1000 Ang^3
#
#
#
# Elastic Constant Matrix: (Units=GPa)
#
#
# Indices 1 2 3 4 5 6 
#
# 1 48.8601 -0.8213 29.9803 0.0000 0.0000 4.8750
# 2 -0.8213 48.8601 29.9803 0.0000 0.0000 -4.8750
# 3 29.9803 29.9803 217.0873 0.0000 0.0000 0.0000
# 4 0.0000 0.0000 0.0000 28.2104 0.0000 0.0000
# 5 0.0000 0.0000 0.0000 0.0000 28.2104 0.0000
# 6 4.8750 -4.8750 0.0000 0.0000 0.0000 22.7296
#
#
#
# Elastic Compliance Matrix: (Units=1/GPa)
#
#
# Indices 1 2 3 4 5 6 
#
# 1 0.023082 0.002070 -0.003474 0.000000 0.000000 -0.004507
# 2 0.002070 0.023082 -0.003474 0.000000 0.000000 0.004507
# 3 -0.003474 -0.003474 0.005566 0.000000 0.000000 0.000000
# 4 0.000000 0.000000 0.000000 0.035448 0.000000 0.000000
# 5 0.000000 0.000000 0.000000 0.000000 0.035448 0.000000
# 6 -0.004507 0.004507 0.000000 0.000000 0.000000 0.045929
#
#
# Mechanical properties :
#
#
# Convention : Reuss Voigt Hill
#
# Bulk Modulus (GPa) = 23.82324 48.12066 35.97195
# Shear Modulus (GPa) = 26.00079 32.87465 29.43772
#
# Velocity S-wave (km/s) = 3.37595 3.79607 3.59216
# Velocity P-wave (km/s) = 5.06346 6.34874 5.74217
#
# Compressibility (1/GPa) = 0.04197581
#
# Stress axis : x y z
#
# Youngs Moduli (GPa) = 43.32302 43.32302 179.66689
#
# Poissons Ratio (x) = -0.08967 0.62408
# Poissons Ratio (y) = -0.08967 0.62408
# Poissons Ratio (z) = 0.15049 0.15049
#
# Static dielectric constant tensor:
#      x y z
#    x 1.873690 0.000000 0.000000 
#    y 0.000000 1.873690 0.000000 
#    z 0.000000 0.000000 1.873040 
# 
# From -- ./inp_files/3076.got.cif
#   From: 2010.05.17/outbox.cif.g08.bks.cpg/sg83_2_cif.got.tgz:3076.got - 2010.06.03 18:55:12.
