data_PCOD9543636
_publ_section_title
;
Structure prediction by ZEFSAII (Michael W. Deem and Ramdas Pophale) SiO2 
 PCOD9543636
Probable space group: P 4/M
;
_chemical_formula_sum "Si O2"
_cell_formula_units_Z 34
_cell_length_a 12.124970
_cell_length_b 12.124970
_cell_length_c 14.225415
_cell_angle_alpha 90.000000
_cell_angle_beta 90.000000
_cell_angle_gamma 90.000000
_cell_volume 2091.347928
_symmetry_space_group_name_H-M "P 4/M"
_symmetry_group_IT_number 83
_symmetry_cell_setting 'tetragonal'
loop_
_space_group_symop_operation_xyz
x,y,z
-y,x,z
-x,-y,z
y,-x,z
-x,-y,-z
y,-x,-z
x,y,-z
-y,x,-z
loop_
_atom_site_type_symbol
_atom_site_label
_atom_site_fract_x
_atom_site_fract_y
_atom_site_fract_z
Si Si1 0.207846 0.599111 0.389498
Si Si2 0.740860 0.014156 0.608436
Si Si3 0.220011 0.360949 0.295013
Si Si4 0.000000 0.000000 0.627357
Si Si5 0.665072 0.585536 0.891652
O O1 0.228667 0.582654 0.500000
O O2 0.090509 0.660825 0.380121
O O3 0.206657 0.482699 0.337482
O O4 0.300020 0.678136 0.345312
O O5 0.729807 0.054759 0.500000
O O6 0.706010 0.110231 0.679157
O O7 0.866374 0.976111 0.622075
O O8 0.250092 0.371174 0.185378
O O9 0.545355 0.642836 0.878470
O O10 0.698665 0.603021 0.000000
#
# Coordination Sequence:
#
# PCOD9543636 Si02
#       5
#     8   8   8   2   8
#     4  11  23  35  51  80 118 155 184 222 274 335
#     4  11  22  37  55  79 112 150 195 235 268 318
#     4  12  21  35  56  82 114 148 184 228 282 335
#     4  12  21  36  60  80 101 150 209 236 252 316
#     4   9  18  35  57  81 109 144 188 230 273 334
#
# _framework density 16.257459000000001
#
# number of rings (size 3 to 8) (size 9 to 14) (size 15 to 20)
#    0.000    1.176    4.706    4.588    0.000    2.353 
#    0.000    1.176    0.000    4.235    0.000    0.824 
#    0.000    0.000    0.000    0.000    0.000    0.000 
#
# Total GULP energy -189359.801436 kJ/mol
# GULP energy per Si atom -5569.405925 kJ/mol
# Density = 1.622046 g / cm^3
# Si number density = 16.257459 Si / 1000 Ang^3
#
#
#
# Elastic Constant Matrix: (Units=GPa)
#
#
# Indices 1 2 3 4 5 6 
#
# 1 68.5964 7.1280 34.8438 0.0000 0.0000 9.7802
# 2 7.1280 68.5964 34.8438 0.0000 0.0000 -9.7802
# 3 34.8438 34.8438 109.5928 0.0000 0.0000 0.0000
# 4 0.0000 0.0000 0.0000 -9.7002 0.0000 0.0000
# 5 0.0000 0.0000 0.0000 0.0000 -9.7002 0.0000
# 6 9.7802 -9.7802 0.0000 0.0000 0.0000 34.6372
#
#
#
# Elastic Compliance Matrix: (Units=1/GPa)
#
#
# Indices 1 2 3 4 5 6 
#
# 1 0.018271 0.000397 -0.005935 0.000000 0.000000 -0.005047
# 2 0.000397 0.018271 -0.005935 0.000000 0.000000 0.005047
# 3 -0.005935 -0.005935 0.012899 0.000000 0.000000 0.000000
# 4 0.000000 0.000000 0.000000 -0.103091 0.000000 0.000000
# 5 0.000000 0.000000 0.000000 0.000000 -0.103091 0.000000
# 6 -0.005047 0.005047 0.000000 0.000000 0.000000 0.031721
#
#
# Mechanical properties :
#
#
# Convention : Reuss Voigt Hill
#
# Bulk Modulus (GPa) = 37.74505 44.49076 41.11791
# Shear Modulus (GPa) = -53.62450 14.37872 -19.62289
#
# Velocity S-wave (km/s) = -5.74945 2.97718 -3.47797
# Velocity P-wave (km/s) = 4.56151 6.26449 3.03616
#
# Compressibility (1/GPa) = 0.02649354
#
# Stress axis : x y z
#
# Youngs Moduli (GPa) = 54.73090 54.73090 77.52682
#
# Poissons Ratio (x) = -0.02171 0.46014
# Poissons Ratio (y) = -0.02171 0.46014
# Poissons Ratio (z) = 0.32484 0.32484
#
# Static dielectric constant tensor:
#      x y z
#    x 1.536000 0.000000 0.000000 
#    y 0.000000 1.536000 0.000000 
#    z 0.000000 0.000000 1.535370 
# 
# From -- ./inp_files/1617.got.cif
#   From: 2010.05.17/outbox.cif.g08.bks.cpg/sg83_1_cif.got.tgz:1617.got - 2010.06.03 18:55:12.
