data_PCOD9543529
_publ_section_title
;
Structure prediction by ZEFSAII (Michael W. Deem and Ramdas Pophale) SiO2 
 PCOD9543529
Probable space group: P 4/M
;
_chemical_formula_sum "Si O2"
_cell_formula_units_Z 28
_cell_length_a 7.080253
_cell_length_b 7.080253
_cell_length_c 20.592873
_cell_angle_alpha 90.000000
_cell_angle_beta 90.000000
_cell_angle_gamma 90.000000
_cell_volume 1032.320364
_symmetry_space_group_name_H-M "P 4/M"
_symmetry_group_IT_number 83
_symmetry_cell_setting 'tetragonal'
loop_
_space_group_symop_operation_xyz
x,y,z
-y,x,z
-x,-y,z
y,-x,z
-x,-y,-z
y,-x,-z
x,y,-z
-y,x,-z
loop_
_atom_site_type_symbol
_atom_site_label
_atom_site_fract_x
_atom_site_fract_y
_atom_site_fract_z
Si Si1 0.713512 0.134918 0.500000
Si Si2 0.658761 0.779224 0.860889
Si Si3 0.782351 0.351241 0.720761
Si Si4 0.221556 0.661008 0.000000
Si Si5 0.000000 0.500000 0.387476
O O1 0.591612 0.156754 0.565125
O O2 0.762440 0.911172 0.500000
O O3 0.432196 0.745104 0.860908
O O4 0.701010 0.869190 0.791022
O O5 0.708697 0.869265 0.930413
O O6 0.740898 0.576917 0.718996
O O7 0.912716 0.335737 0.658112
O O8 0.254276 0.433978 0.000000
#
# Coordination Sequence:
#
# PCOD9543529 Si02
#       5
#     4   8   8   4   4
#     4  10  22  38  52  68  90 114 142 176 214 260
#     4   7  10  17  31  53  81 111 142 175 208 243
#     4   9  17  29  45  67  93 117 144 180 218 255
#     4   7   8  12  26  49  76 108 144 174 202 240
#     4  11  20  32  52  71  88 114 144 175 216 264
#
# _framework density 27.123366000000001
#
# number of rings (size 3 to 8) (size 9 to 14) (size 15 to 20)
#    0.000    3.429    0.000    5.143    0.000    0.000 
#    0.000    0.000    0.000    7.714    0.000    0.000 
#    0.000    0.000    0.000    0.000    0.000   87.429 
#
# Total GULP energy -156434.328759 kJ/mol
# GULP energy per Si atom -5586.940313 kJ/mol
# Density = 2.706163 g / cm^3
# Si number density = 27.123366 Si / 1000 Ang^3
#
#
#
# Elastic Constant Matrix: (Units=GPa)
#
#
# Indices 1 2 3 4 5 6 
#
# 1 80.6151 2.0525 13.2518 0.0000 0.0000 10.5020
# 2 2.0525 80.6151 13.2518 0.0000 0.0000 -10.5020
# 3 13.2518 13.2518 243.0688 0.0000 0.0000 0.0000
# 4 0.0000 0.0000 0.0000 8.5386 0.0000 0.0000
# 5 0.0000 0.0000 0.0000 0.0000 8.5386 0.0000
# 6 10.5020 -10.5020 0.0000 0.0000 0.0000 19.3145
#
#
#
# Elastic Compliance Matrix: (Units=1/GPa)
#
#
# Indices 1 2 3 4 5 6 
#
# 1 0.013603 -0.001291 -0.000671 0.000000 0.000000 -0.008098
# 2 -0.001291 0.013603 -0.000671 0.000000 0.000000 0.008098
# 3 -0.000671 -0.000671 0.004187 0.000000 0.000000 0.000000
# 4 0.000000 0.000000 0.000000 0.117115 0.000000 0.000000
# 5 0.000000 0.000000 0.000000 0.000000 0.117115 0.000000
# 6 -0.008098 0.008098 0.000000 0.000000 0.000000 0.060581
#
#
# Mechanical properties :
#
#
# Convention : Reuss Voigt Hill
#
# Bulk Modulus (GPa) = 38.27603 51.26791 44.77197
# Shear Modulus (GPa) = 14.69808 32.32786 23.51297
#
# Velocity S-wave (km/s) = 2.33039 3.45611 2.94749
# Velocity P-wave (km/s) = 4.62422 5.90500 5.30342
#
# Compressibility (1/GPa) = 0.02612601
#
# Stress axis : x y z
#
# Youngs Moduli (GPa) = 73.51408 73.51408 238.82021
#
# Poissons Ratio (x) = 0.09491 0.16030
# Poissons Ratio (y) = 0.09491 0.16030
# Poissons Ratio (z) = 0.04934 0.04934
#
# Static dielectric constant tensor:
#      x y z
#    x 2.093120 0.000000 0.000000 
#    y 0.000000 2.093120 0.000000 
#    z 0.000000 0.000000 2.229930 
# 
# From -- ./inp_files/2778.got.cif
#   From: 2010.05.17/outbox.cif.g08.bks.cpg/sg83_2_cif.got.tgz:2778.got - 2010.06.03 18:55:12.
