data_PCOD9543851
_publ_section_title
;
Structure prediction by ZEFSAII (Michael W. Deem and Ramdas Pophale) SiO2 
 PCOD9543851
Probable space group: P 4/M
;
_chemical_formula_sum "Si O2"
_cell_formula_units_Z 41
_cell_length_a 8.630440
_cell_length_b 8.630440
_cell_length_c 27.386337
_cell_angle_alpha 90.000000
_cell_angle_beta 90.000000
_cell_angle_gamma 90.000000
_cell_volume 2039.857470
_symmetry_space_group_name_H-M "P 4/M"
_symmetry_group_IT_number 83
_symmetry_cell_setting 'tetragonal'
loop_
_space_group_symop_operation_xyz
x,y,z
-y,x,z
-x,-y,z
y,-x,z
-x,-y,-z
y,-x,-z
x,y,-z
-y,x,-z
loop_
_atom_site_type_symbol
_atom_site_label
_atom_site_fract_x
_atom_site_fract_y
_atom_site_fract_z
Si Si1 0.500000 0.500000 0.500000
Si Si2 0.415551 0.253625 0.686957
Si Si3 0.423062 0.748303 0.056795
Si Si4 0.000000 0.500000 0.871343
Si Si5 0.749736 0.420965 0.798102
Si Si6 0.844019 0.401271 0.500000
Si Si7 0.100459 0.761536 0.397646
O O1 0.690813 0.506488 0.500000
O O2 0.591339 0.311444 0.682051
O O3 0.398634 0.194591 0.742393
O O4 0.359742 0.142938 0.644441
O O5 0.314549 0.598898 0.064689
O O6 0.400122 0.889497 0.093313
O O7 0.408641 0.793847 0.000000
O O8 0.887158 0.401737 0.836308
O O9 0.686007 0.597697 0.804396
O O10 0.854449 0.303438 0.450424
O O11 0.000000 0.500000 0.500000
O O12 0.920966 0.804851 0.392601
#
# Coordination Sequence:
#
# PCOD9543851 Si02
#       7
#     1   8   8   4   8   4   8
#     4  12  28  44  76 104 132 172 244 268 332 424
#     4   9  21  39  63  89 118 156 208 260 306 375
#     4   9  19  36  56  81 115 155 201 252 302 361
#     4  12  19  28  58  90 112 149 198 248 304 360
#     4   9  20  39  57  83 119 155 198 251 302 360
#     4  12  28  47  68 101 132 173 217 280 326 390
#     4  11  25  43  64  93 131 168 205 259 330 392
#
# _framework density 20.099444999999999
#
# number of rings (size 3 to 8) (size 9 to 14) (size 15 to 20)
#    0.000    1.951    0.000    4.976    5.463    5.463 
#    0.000    0.000    0.000    9.366    0.000   10.927 
#    0.000    0.000    0.000    0.000    0.000    0.000 
#
# Total GULP energy -228882.232912 kJ/mol
# GULP energy per Si atom -5582.493486 kJ/mol
# Density = 2.005370 g / cm^3
# Si number density = 20.099445 Si / 1000 Ang^3
#
#
#
# Elastic Constant Matrix: (Units=GPa)
#
#
# Indices 1 2 3 4 5 6 
#
# 1 75.5961 27.9613 66.0399 0.0000 0.0000 4.3158
# 2 27.9613 75.5961 66.0399 0.0000 0.0000 -4.3158
# 3 66.0399 66.0399 164.5528 0.0000 0.0000 0.0000
# 4 0.0000 0.0000 0.0000 32.8944 0.0000 0.0000
# 5 0.0000 0.0000 0.0000 0.0000 32.8944 0.0000
# 6 4.3158 -4.3158 0.0000 0.0000 0.0000 19.0163
#
#
#
# Elastic Compliance Matrix: (Units=1/GPa)
#
#
# Indices 1 2 3 4 5 6 
#
# 1 0.020838 -0.001055 -0.007939 0.000000 0.000000 -0.004969
# 2 -0.001055 0.020838 -0.007939 0.000000 0.000000 0.004969
# 3 -0.007939 -0.007939 0.012450 0.000000 0.000000 0.000000
# 4 0.000000 0.000000 0.000000 0.030400 0.000000 0.000000
# 5 0.000000 0.000000 0.000000 0.000000 0.030400 0.000000
# 6 -0.004969 0.004969 0.000000 0.000000 0.000000 0.054842
#
#
# Mechanical properties :
#
#
# Convention : Reuss Voigt Hill
#
# Bulk Modulus (GPa) = 49.36469 70.64743 60.00606
# Shear Modulus (GPa) = 23.76555 27.34127 25.55341
#
# Velocity S-wave (km/s) = 3.44233 3.69223 3.56947
# Velocity P-wave (km/s) = 6.35713 7.30766 6.84891
#
# Compressibility (1/GPa) = 0.02025739
#
# Stress axis : x y z
#
# Youngs Moduli (GPa) = 47.98938 47.98938 80.32382
#
# Poissons Ratio (x) = 0.05065 0.63771
# Poissons Ratio (y) = 0.05065 0.63771
# Poissons Ratio (z) = 0.38100 0.38100
#
# Static dielectric constant tensor:
#      x y z
#    x 1.710490 0.000000 0.000000 
#    y 0.000000 1.710490 0.000000 
#    z 0.000000 0.000000 1.732040 
# 
# From -- ./inp_files/3311.got.cif
#   From: 2010.05.17/outbox.cif.g08.bks.cpg/sg83_2_cif.got.tgz:3311.got - 2010.06.03 18:55:12.
