data_PCOD9543413
_publ_section_title
;
Structure prediction by ZEFSAII (Michael W. Deem and Ramdas Pophale) SiO2 
 PCOD9543413
Probable space group: P 4/M
;
_chemical_formula_sum "Si O2"
_cell_formula_units_Z 56
_cell_length_a 15.393827
_cell_length_b 15.393827
_cell_length_c 13.375478
_cell_angle_alpha 90.000000
_cell_angle_beta 90.000000
_cell_angle_gamma 90.000000
_cell_volume 3169.585814
_symmetry_space_group_name_H-M "P 4/M"
_symmetry_group_IT_number 83
_symmetry_cell_setting 'tetragonal'
loop_
_space_group_symop_operation_xyz
x,y,z
-y,x,z
-x,-y,z
y,-x,z
-x,-y,-z
y,-x,-z
x,y,-z
-y,x,-z
loop_
_atom_site_type_symbol
_atom_site_label
_atom_site_fract_x
_atom_site_fract_y
_atom_site_fract_z
Si Si1 0.136472 0.695583 0.880537
Si Si2 0.567010 0.369980 0.111123
Si Si3 0.882872 0.928292 0.121154
Si Si4 0.313227 0.300779 0.743296
Si Si5 0.975819 0.399239 0.275440
Si Si6 0.441032 0.200099 0.384222
Si Si7 0.845988 0.644589 0.619110
O O1 0.118713 0.795413 0.852538
O O2 0.229005 0.677134 0.830630
O O3 0.059660 0.641850 0.827224
O O4 0.137048 0.684124 0.000000
O O5 0.612245 0.464683 0.117749
O O6 0.607425 0.315247 0.199952
O O7 0.584810 0.333661 0.000000
O O8 0.971864 0.884371 0.155486
O O9 0.885846 0.929694 0.000000
O O10 0.395928 0.279003 0.674211
O O11 0.225851 0.297793 0.676800
O O12 0.890623 0.398984 0.346305
O O13 0.000000 0.500000 0.260021
O O14 0.059661 0.354606 0.326672
O O15 0.422335 0.211459 0.500000
O O16 0.544545 0.188011 0.372815
O O17 0.852914 0.664136 0.500000
#
# Coordination Sequence:
#
# PCOD9543413 Si02
#       7
#     8   8   8   8   8   8   8
#     4  10  21  33  49  75 107 136 167 206 248 302
#     4   9  18  33  51  69  95 136 179 211 244 299
#     4   8  15  29  48  67  90 124 161 195 230 277
#     4  11  20  31  49  77 106 130 164 211 266 305
#     4   9  19  35  53  73  99 135 175 211 252 301
#     4   9  18  34  53  72 100 134 167 211 262 310
#     4  10  20  34  54  77  99 129 173 216 256 307
#
# _framework density 17.667923999999999
#
# number of rings (size 3 to 8) (size 9 to 14) (size 15 to 20)
#    0.000    2.571    0.000    3.000    2.000    2.000 
#    0.000    0.714    0.000    0.857    0.000    6.000 
#    0.000    1.143    0.000    0.000    0.000    0.000 
#
# Total GULP energy -311914.990202 kJ/mol
# GULP energy per Si atom -5569.910539 kJ/mol
# Density = 1.762771 g / cm^3
# Si number density = 17.667924 Si / 1000 Ang^3
#
#
#
# Elastic Constant Matrix: (Units=GPa)
#
#
# Indices 1 2 3 4 5 6 
#
# 1 25.6569 -1.8212 25.5241 0.0000 0.0000 1.8578
# 2 -1.8212 25.6569 25.5241 0.0000 0.0000 -1.8578
# 3 25.5241 25.5241 109.7430 0.0000 0.0000 0.0000
# 4 0.0000 0.0000 0.0000 19.7743 0.0000 0.0000
# 5 0.0000 0.0000 0.0000 0.0000 19.7743 0.0000
# 6 1.8578 -1.8578 0.0000 0.0000 0.0000 21.6432
#
#
#
# Elastic Compliance Matrix: (Units=1/GPa)
#
#
# Indices 1 2 3 4 5 6 
#
# 1 0.060206 0.023386 -0.019442 0.000000 0.000000 -0.003161
# 2 0.023386 0.060206 -0.019442 0.000000 0.000000 0.003161
# 3 -0.019442 -0.019442 0.018156 0.000000 0.000000 0.000000
# 4 0.000000 0.000000 0.000000 0.050571 0.000000 0.000000
# 5 0.000000 0.000000 0.000000 0.000000 0.050571 0.000000
# 6 -0.003161 0.003161 0.000000 0.000000 0.000000 0.046746
#
#
# Mechanical properties :
#
#
# Convention : Reuss Voigt Hill
#
# Bulk Modulus (GPa) = 9.29607 28.83455 19.06531
# Shear Modulus (GPa) = 14.15192 19.69368 16.92280
#
# Velocity S-wave (km/s) = 2.83326 3.34227 3.09823
# Velocity P-wave (km/s) = 3.99701 5.59018 4.85933
#
# Compressibility (1/GPa) = 0.10757239
#
# Stress axis : x y z
#
# Youngs Moduli (GPa) = 16.60961 16.60961 55.07866
#
# Poissons Ratio (x) = -0.38843 1.07084
# Poissons Ratio (y) = -0.38843 1.07084
# Poissons Ratio (z) = 0.32292 0.32292
#
# Static dielectric constant tensor:
#      x y z
#    x 1.610050 0.000000 0.000000 
#    y 0.000000 1.610050 0.000000 
#    z 0.000000 0.000000 1.597870 
# 
# From -- ./inp_files/1947.got.cif
#   From: 2010.05.17/outbox.cif.g08.bks.cpg/sg83_1_cif.got.tgz:1947.got - 2010.06.03 18:55:12.
