data_PCOD9543105
_publ_section_title
;
Structure prediction by ZEFSAII (Michael W. Deem and Ramdas Pophale) SiO2 
 PCOD9543105
Probable space group: I -4 
;
_chemical_formula_sum "Si O2"
_cell_formula_units_Z 40
_cell_length_a 9.017626
_cell_length_b 9.017626
_cell_length_c 22.227901
_cell_angle_alpha 90.000000
_cell_angle_beta 90.000000
_cell_angle_gamma 90.000000
_cell_volume 1807.519088
_symmetry_space_group_name_H-M "I -4 "
_symmetry_group_IT_number 82
_symmetry_cell_setting 'tetragonal'
loop_
_space_group_symop_operation_xyz
x,y,z
y,-x,-z
-x,-y,z
-y,x,-z
1/2+x,1/2+y,1/2+z
1/2+y,1/2-x,1/2-z
1/2-x,1/2-y,1/2+z
1/2-y,1/2+x,1/2-z
loop_
_atom_site_type_symbol
_atom_site_label
_atom_site_fract_x
_atom_site_fract_y
_atom_site_fract_z
Si Si1 0.404155 0.355188 0.158101
Si Si2 0.348847 0.422365 0.392355
Si Si3 0.411737 0.846615 0.067218
Si Si4 0.377827 0.789919 0.736059
Si Si5 0.364878 0.111877 0.566103
O O1 0.500000 0.500000 0.171378
O O2 0.511769 0.251610 0.118598
O O3 0.331523 0.300725 0.220751
O O4 0.261282 0.388180 0.116174
O O5 0.500000 0.500000 0.373104
O O6 0.368812 0.262985 0.422626
O O7 0.255729 0.386721 0.332776
O O8 0.266465 0.545325 0.433009
O O9 0.500000 0.000000 0.068420
O O10 0.426096 0.792674 0.998191
O O11 0.549037 0.805459 0.756968
O O12 0.500000 0.000000 0.578968
#
# Coordination Sequence:
#
# PCOD9543105 Si02
#       5
#     8   8   8   8   8
#     4  12  25  44  71 106 143 190 243 310 369 433
#     4  12  26  45  74 106 140 194 242 303 368 446
#     4  11  28  45  68 108 148 184 239 309 380 442
#     4  11  23  45  74 105 140 190 252 301 364 454
#     4  11  25  45  72 102 143 193 244 295 366 457
#
# _framework density 22.129781000000001
#
# number of rings (size 3 to 8) (size 9 to 14) (size 15 to 20)
#    0.000    0.600    2.000    5.400   11.200    0.000 
#    0.000    0.000    0.000    0.000    0.000    0.000 
#    0.000    0.000    0.000    0.000    0.000    0.000 
#
# Total GULP energy -111880.842550 kJ/mol
# GULP energy per Si atom -5594.042128 kJ/mol
# Density = 2.207941 g / cm^3
# Si number density = 22.129781 Si / 1000 Ang^3
#
#
#
# Elastic Constant Matrix: (Units=GPa)
#
#
# Indices 1 2 3 4 5 6 
#
# 1 71.2439 -4.5397 13.5245 0.0000 0.0000 11.1331
# 2 -4.5397 71.2439 13.5245 0.0000 0.0000 -11.1331
# 3 13.5245 13.5245 92.9209 0.0000 0.0000 0.0000
# 4 0.0000 0.0000 0.0000 -2.1579 0.0000 0.0000
# 5 0.0000 0.0000 0.0000 0.0000 -2.1579 0.0000
# 6 11.1331 -11.1331 0.0000 0.0000 0.0000 40.7839
#
#
#
# Elastic Compliance Matrix: (Units=1/GPa)
#
#
# Indices 1 2 3 4 5 6 
#
# 1 0.015139 0.000793 -0.002319 0.000000 0.000000 -0.003916
# 2 0.000793 0.015139 -0.002319 0.000000 0.000000 0.003916
# 3 -0.002319 -0.002319 0.011437 0.000000 0.000000 0.000000
# 4 0.000000 0.000000 0.000000 -0.463411 0.000000 0.000000
# 5 0.000000 0.000000 0.000000 0.000000 -0.463410 0.000000
# 6 -0.003916 0.003916 0.000000 0.000000 0.000000 0.026658
#
#
# Mechanical properties :
#
#
# Convention : Reuss Voigt Hill
#
# Bulk Modulus (GPa) = 29.39004 31.15861 30.27433
# Shear Modulus (GPa) = -5.95651 21.48691 7.76520
#
# Velocity S-wave (km/s) = -1.64240 3.11939 1.87525
# Velocity P-wave (km/s) = 3.11656 5.20429 4.28938
#
# Compressibility (1/GPa) = 0.03402513
#
# Stress axis : x y z
#
# Youngs Moduli (GPa) = 66.05467 66.05468 87.43661
#
# Poissons Ratio (x) = -0.05237 0.20275
# Poissons Ratio (y) = -0.05237 0.20275
# Poissons Ratio (z) = 0.15317 0.15317
#
# Static dielectric constant tensor:
#      x y z
#    x 1.810420 0.000000 0.000000 
#    y 0.000000 1.810420 0.000000 
#    z 0.000000 0.000000 1.822550 
# 
# From -- ./inp_files/3319.got.cif
#   From: 2010.05.17/outbox.cif.g08.bks.cpg/sg82_2_cif.got.tgz:3319.got - 2010.06.03 18:52:26.
