data_PCOD9543513
_publ_section_title
;
Structure prediction by ZEFSAII (Michael W. Deem and Ramdas Pophale) SiO2 
 PCOD9543513
Probable space group: P 4/M
;
_chemical_formula_sum "Si O2"
_cell_formula_units_Z 40
_cell_length_a 14.648027
_cell_length_b 14.648027
_cell_length_c 8.152450
_cell_angle_alpha 90.000000
_cell_angle_beta 90.000000
_cell_angle_gamma 90.000000
_cell_volume 1749.227948
_symmetry_space_group_name_H-M "P 4/M"
_symmetry_group_IT_number 83
_symmetry_cell_setting 'tetragonal'
loop_
_space_group_symop_operation_xyz
x,y,z
-y,x,z
-x,-y,z
y,-x,z
-x,-y,-z
y,-x,-z
x,y,-z
-y,x,-z
loop_
_atom_site_type_symbol
_atom_site_label
_atom_site_fract_x
_atom_site_fract_y
_atom_site_fract_z
Si Si1 0.231513 0.551528 0.682413
Si Si2 0.650366 0.944784 0.808530
Si Si3 0.158862 0.373790 0.810978
Si Si4 0.557571 0.643999 0.000000
Si Si5 0.170051 0.171883 0.180051
Si Si6 0.132374 0.929159 0.500000
O O1 0.265378 0.575477 0.500000
O O2 0.130523 0.594391 0.708911
O O3 0.211967 0.443745 0.698910
O O4 0.296869 0.575873 0.835481
O O5 0.753440 0.905176 0.800604
O O6 0.637166 0.051129 0.763694
O O7 0.623213 0.938098 0.000000
O O8 0.206868 0.275083 0.815309
O O9 0.158967 0.408116 0.000000
O O10 0.450238 0.614664 0.000000
O O11 0.102162 0.173576 0.330538
O O12 0.125900 0.160586 0.000000
O O13 0.034988 0.881239 0.500000
#
# Coordination Sequence:
#
# PCOD9543513 Si02
#       6
#     8   8   8   4   8   4
#     4  12  26  42  72 107 137 172 223 276 336 413
#     4  10  21  40  66  97 137 184 230 281 340 397
#     4  10  21  40  66  97 137 184 230 281 340 397
#     4  11  28  54  79  98 138 180 211 274 338 403
#     4  10  23  41  65  92 128 179 231 279 327 402
#     4  11  24  40  60  90 130 174 223 282 340 398
#
# _framework density 22.867232999999999
#
# number of rings (size 3 to 8) (size 9 to 14) (size 15 to 20)
#    0.000    1.400    2.000    1.800    5.600    6.400 
#    0.000    2.000    0.000    0.000    0.000    0.000 
#    0.000    0.000    0.000    0.000    0.000    0.000 
#
# Total GULP energy -223516.831288 kJ/mol
# GULP energy per Si atom -5587.920782 kJ/mol
# Density = 2.281519 g / cm^3
# Si number density = 22.867233 Si / 1000 Ang^3
#
#
#
# Elastic Constant Matrix: (Units=GPa)
#
#
# Indices 1 2 3 4 5 6 
#
# 1 83.8874 0.2753 38.2720 0.0000 0.0000 9.8271
# 2 0.2753 83.8874 38.2720 0.0000 0.0000 -9.8271
# 3 38.2720 38.2720 144.1587 0.0000 0.0000 0.0000
# 4 0.0000 0.0000 0.0000 26.0772 0.0000 0.0000
# 5 0.0000 0.0000 0.0000 0.0000 26.0772 0.0000
# 6 9.8271 -9.8271 0.0000 0.0000 0.0000 31.0193
#
#
#
# Elastic Compliance Matrix: (Units=1/GPa)
#
#
# Indices 1 2 3 4 5 6 
#
# 1 0.014293 0.001371 -0.004159 0.000000 0.000000 -0.004094
# 2 0.001371 0.014293 -0.004159 0.000000 0.000000 0.004094
# 3 -0.004159 -0.004159 0.009145 0.000000 0.000000 0.000000
# 4 0.000000 0.000000 0.000000 0.038348 0.000000 0.000000
# 5 0.000000 0.000000 0.000000 0.000000 0.038348 0.000000
# 6 -0.004094 0.004094 0.000000 0.000000 0.000000 0.034832
#
#
# Mechanical properties :
#
#
# Convention : Reuss Voigt Hill
#
# Bulk Modulus (GPa) = 41.94909 51.73026 46.83968
# Shear Modulus (GPa) = 29.22317 32.30900 30.76608
#
# Velocity S-wave (km/s) = 3.57872 3.76293 3.67198
# Velocity P-wave (km/s) = 5.95489 6.44598 6.20530
#
# Compressibility (1/GPa) = 0.02383842
#
# Stress axis : x y z
#
# Youngs Moduli (GPa) = 69.96395 69.96395 109.35114
#
# Poissons Ratio (x) = -0.09590 0.45474
# Poissons Ratio (y) = -0.09590 0.45474
# Poissons Ratio (z) = 0.29095 0.29095
#
# Static dielectric constant tensor:
#      x y z
#    x 1.853680 0.000000 0.000000 
#    y 0.000000 1.853680 0.000000 
#    z 0.000000 0.000000 1.682220 
# 
# From -- ./inp_files/760.got.cif
#   From: 2010.05.17/outbox.cif.g08.bks.cpg/sg83_1_cif.got.tgz:760.got - 2010.06.03 18:55:12.
