data_PCOD9543164
_publ_section_title
;
Structure prediction by ZEFSAII (Michael W. Deem and Ramdas Pophale) SiO2 
 PCOD9543164
Probable space group: I -4 
;
_chemical_formula_sum "Si O2"
_cell_formula_units_Z 32
_cell_length_a 11.378347
_cell_length_b 11.378347
_cell_length_c 11.034560
_cell_angle_alpha 90.000000
_cell_angle_beta 90.000000
_cell_angle_gamma 90.000000
_cell_volume 1428.608957
_symmetry_space_group_name_H-M "I -4 "
_symmetry_group_IT_number 82
_symmetry_cell_setting 'tetragonal'
loop_
_space_group_symop_operation_xyz
x,y,z
y,-x,-z
-x,-y,z
-y,x,-z
1/2+x,1/2+y,1/2+z
1/2+y,1/2-x,1/2-z
1/2-x,1/2-y,1/2+z
1/2-y,1/2+x,1/2-z
loop_
_atom_site_type_symbol
_atom_site_label
_atom_site_fract_x
_atom_site_fract_y
_atom_site_fract_z
Si Si1 0.860751 0.524840 0.567258
Si Si2 0.573641 0.166810 0.706949
Si Si3 0.308557 0.208182 0.268950
Si Si4 0.574781 0.397529 0.092909
O O1 0.813667 0.538758 0.431979
O O2 0.801878 0.417603 0.639873
O O3 0.839606 0.640160 0.647012
O O4 0.000000 0.500000 0.561980
O O5 0.455765 0.144975 0.782217
O O6 0.659252 0.267818 0.752525
O O7 0.846298 0.024015 0.500318
O O8 0.199393 0.139773 0.331622
O O9 0.500000 0.500000 0.162054
#
# Coordination Sequence:
#
# PCOD9543164 Si02
#       4
#     8   8   8   8
#     4  12  26  46  72 113 148 192 241 307 375 427
#     4  11  28  50  75 103 148 197 250 296 376 445
#     4  12  24  45  78 107 152 193 247 312 362 447
#     4   6  18  36  62 109 139 188 246 285 348 448
#
# _framework density 22.399412999999999
#
# number of rings (size 3 to 8) (size 9 to 14) (size 15 to 20)
#    1.500    0.250    5.000    0.000    7.000    2.000 
#    0.000    0.000    0.000    0.000    0.000    0.000 
#    0.000    0.000    0.000    0.000    0.000    0.000 
#
# Total GULP energy -89412.858452 kJ/mol
# GULP energy per Si atom -5588.303653 kJ/mol
# Density = 2.234843 g / cm^3
# Si number density = 22.399413 Si / 1000 Ang^3
#
#
#
# Elastic Constant Matrix: (Units=GPa)
#
#
# Indices 1 2 3 4 5 6 
#
# 1 73.1463 31.4396 3.7641 0.0000 0.0000 10.5497
# 2 31.4396 73.1463 3.7641 0.0000 0.0000 -10.5497
# 3 3.7641 3.7641 41.2486 0.0000 0.0000 0.0000
# 4 0.0000 0.0000 0.0000 -11.6191 0.0000 0.0000
# 5 0.0000 0.0000 0.0000 0.0000 -11.6191 0.0000
# 6 10.5497 -10.5497 0.0000 0.0000 0.0000 49.3930
#
#
#
# Elastic Compliance Matrix: (Units=1/GPa)
#
#
# Indices 1 2 3 4 5 6 
#
# 1 0.018253 -0.008628 -0.000878 0.000000 0.000000 -0.005742
# 2 -0.008628 0.018253 -0.000878 0.000000 0.000000 0.005742
# 3 -0.000878 -0.000878 0.024404 0.000000 0.000000 0.000000
# 4 0.000000 0.000000 0.000000 -0.086065 0.000000 0.000000
# 5 0.000000 0.000000 0.000000 0.000000 -0.086065 0.000000
# 6 -0.005742 0.005742 0.000000 0.000000 0.000000 0.022698
#
#
# Mechanical properties :
#
#
# Convention : Reuss Voigt Hill
#
# Bulk Modulus (GPa) = 24.91292 29.49743 27.20518
# Shear Modulus (GPa) = -91.95850 15.13586 -38.41132
#
# Velocity S-wave (km/s) = -6.41429 2.60229 -4.14555
# Velocity P-wave (km/s) = 6.61144 4.71452 3.27754
#
# Compressibility (1/GPa) = 0.04013982
#
# Stress axis : x y z
#
# Youngs Moduli (GPa) = 54.78501 54.78501 40.97770
#
# Poissons Ratio (x) = 0.47271 0.03599
# Poissons Ratio (y) = 0.47271 0.03599
# Poissons Ratio (z) = 0.04812 0.04812
#
# Static dielectric constant tensor:
#      x y z
#    x 1.849830 0.000000 0.000000 
#    y 0.000000 1.849830 0.000000 
#    z 0.000000 0.000000 1.789530 
# 
# From -- ./inp_files/1522.got.cif
#   From: 2010.05.17/outbox.cif.g08.bks.cpg/sg82_1_cif.got.tgz:1522.got - 2010.06.03 18:52:26.
