data_PCOD9543845
_publ_section_title
;
Structure prediction by ZEFSAII (Michael W. Deem and Ramdas Pophale) SiO2 
 PCOD9543845
Probable space group: P 4/M
;
_chemical_formula_sum "Si O2"
_cell_formula_units_Z 37
_cell_length_a 8.453273
_cell_length_b 8.453273
_cell_length_c 24.957761
_cell_angle_alpha 90.000000
_cell_angle_beta 90.000000
_cell_angle_gamma 90.000000
_cell_volume 1783.427303
_symmetry_space_group_name_H-M "P 4/M"
_symmetry_group_IT_number 83
_symmetry_cell_setting 'tetragonal'
loop_
_space_group_symop_operation_xyz
x,y,z
-y,x,z
-x,-y,z
y,-x,z
-x,-y,-z
y,-x,-z
x,y,-z
-y,x,-z
loop_
_atom_site_type_symbol
_atom_site_label
_atom_site_fract_x
_atom_site_fract_y
_atom_site_fract_z
Si Si1 0.251643 0.090519 0.211882
Si Si2 0.000000 0.000000 0.000000
Si Si3 0.253620 0.091692 0.557448
Si Si4 0.339386 0.096922 0.000000
Si Si5 0.393074 0.258756 0.113083
Si Si6 0.746741 0.908434 0.327743
O O1 0.348724 0.138899 0.160233
O O2 0.331822 0.120400 0.270048
O O3 0.090392 0.193918 0.209949
O O4 0.191644 0.978216 0.000000
O O5 0.335411 0.121565 0.500000
O O6 0.335504 0.121638 0.614881
O O7 0.090644 0.193488 0.557457
O O8 0.347222 0.193729 0.055062
O O9 0.500000 0.000000 0.000000
O O10 0.577097 0.299233 0.118517
O O11 0.909409 0.806605 0.327722
#
# Coordination Sequence:
#
# PCOD9543845 Si02
#       6
#     8   1   8   4   8   8
#     4   9  19  32  53  80 109 144 187 232 275 335
#     4  12  28  44  76 104 124 164 212 236 286 384
#     4   7   8  10  21  43  77 123 168 206 255 320
#     4  12  28  47  70  99 124 153 191 244 292 344
#     4  11  25  43  61  84 116 150 184 231 292 347
#     4   7  10  19  32  55  91 129 169 218 268 315
#
# _framework density 20.746569999999998
#
# number of rings (size 3 to 8) (size 9 to 14) (size 15 to 20)
#    0.000    3.027    0.000    5.189    6.054    0.865 
#    0.000    0.000    0.000    0.000    0.000    0.000 
#    0.000    1.730    0.000   19.243    0.000   17.297 
#
# Total GULP energy -205987.161823 kJ/mol
# GULP energy per Si atom -5567.220590 kJ/mol
# Density = 2.069935 g / cm^3
# Si number density = 20.746570 Si / 1000 Ang^3
#
#
#
# Elastic Constant Matrix: (Units=GPa)
#
#
# Indices 1 2 3 4 5 6 
#
# 1 29.9313 25.5395 38.4384 0.0000 0.0000 -6.2920
# 2 25.5395 29.9313 38.4384 0.0000 0.0000 6.2920
# 3 38.4384 38.4384 224.4623 0.0000 0.0000 0.0000
# 4 0.0000 0.0000 0.0000 -31.7882 0.0000 0.0000
# 5 0.0000 0.0000 0.0000 0.0000 -31.7882 0.0000
# 6 -6.2920 6.2920 0.0000 0.0000 0.0000 15.7441
#
#
#
# Elastic Compliance Matrix: (Units=1/GPa)
#
#
# Indices 1 2 3 4 5 6 
#
# 1 -0.772873 0.796510 -0.004048 0.000000 0.000000 -0.627188
# 2 0.796510 -0.772873 -0.004048 0.000000 0.000000 0.627188
# 3 -0.004048 -0.004048 0.005841 0.000000 0.000000 0.000000
# 4 0.000000 0.000000 0.000000 -0.031458 0.000000 0.000000
# 5 0.000000 0.000000 0.000000 0.000000 -0.031458 0.000000
# 6 -0.627188 0.627188 0.000000 0.000000 0.000000 -0.437782
#
#
# Mechanical properties :
#
#
# Convention : Reuss Voigt Hill
#
# Bulk Modulus (GPa) = 27.08199 54.35085 40.71642
# Shear Modulus (GPa) = -1.38691 2.56076 0.58692
#
# Velocity S-wave (km/s) = -0.81851 1.11220 0.53246
# Velocity P-wave (km/s) = 3.49124 5.28240 4.47730
#
# Compressibility (1/GPa) = 0.03692491
#
# Stress axis : x y z
#
# Youngs Moduli (GPa) = -1.29387 -1.29387 171.19049
#
# Poissons Ratio (x) = 1.03058 0.69295
# Poissons Ratio (y) = 1.03058 0.69295
# Poissons Ratio (z) = -0.00524 -0.00524
#
# Static dielectric constant tensor:
#      x y z
#    x 1.645680 0.000000 0.000000 
#    y 0.000000 1.645680 0.000000 
#    z 0.000000 0.000000 1.835860 
# 
# From -- ./inp_files/3114.got.cif
#   From: 2010.05.17/outbox.cif.g08.bks.cpg/sg83_2_cif.got.tgz:3114.got - 2010.06.03 18:55:12.
