data_PCOD9543782
_publ_section_title
;
Structure prediction by ZEFSAII (Michael W. Deem and Ramdas Pophale) SiO2 
 PCOD9543782
Probable space group: P 4/M
;
_chemical_formula_sum "Si O2"
_cell_formula_units_Z 48
_cell_length_a 8.075381
_cell_length_b 8.075381
_cell_length_c 33.150710
_cell_angle_alpha 90.000000
_cell_angle_beta 90.000000
_cell_angle_gamma 90.000000
_cell_volume 2161.816751
_symmetry_space_group_name_H-M "P 4/M"
_symmetry_group_IT_number 83
_symmetry_cell_setting 'tetragonal'
loop_
_space_group_symop_operation_xyz
x,y,z
-y,x,z
-x,-y,z
y,-x,z
-x,-y,-z
y,-x,-z
x,y,-z
-y,x,-z
loop_
_atom_site_type_symbol
_atom_site_label
_atom_site_fract_x
_atom_site_fract_y
_atom_site_fract_z
Si Si1 0.903756 0.262718 0.235659
Si Si2 0.904030 0.262605 0.674008
Si Si3 0.265724 0.083769 0.078742
Si Si4 0.584832 0.764489 0.842982
Si Si5 0.765845 0.415787 0.000000
Si Si6 0.000000 0.500000 0.609603
Si Si7 0.596244 0.237728 0.454635
O O1 0.877591 0.330936 0.280799
O O2 0.850716 0.379830 0.199573
O O3 0.093590 0.203321 0.232283
O O4 0.095882 0.203485 0.670649
O O5 0.880966 0.395935 0.639132
O O6 0.361720 0.122473 0.119779
O O7 0.371833 0.132717 0.039921
O O8 0.102552 0.199731 0.077650
O O9 0.398429 0.700370 0.845628
O O10 0.699949 0.602338 0.000000
O O11 0.103770 0.380655 0.580082
O O12 0.703586 0.404368 0.451120
O O13 0.621898 0.171176 0.500000
#
# Coordination Sequence:
#
# PCOD9543782 Si02
#       7
#     8   8   8   8   4   4   8
#     4   9  19  37  58  78 104 142 185 224 270 334
#     4   9  20  36  52  76 110 142 176 224 279 334
#     4  11  24  41  62  89 118 152 196 238 280 340
#     4  11  24  39  57  85 117 146 184 235 285 331
#     4  11  24  41  62  90 124 157 192 237 288 340
#     4  12  19  30  56  84 104 138 188 231 276 332
#     4   9  19  35  52  74 108 146 184 229 279 332
#
# _framework density 22.203545999999999
#
# number of rings (size 3 to 8) (size 9 to 14) (size 15 to 20)
#    0.000    1.917    0.000    5.250    0.000   11.333 
#    0.000    0.000    0.000    2.000    0.000    7.000 
#    0.000    0.000    0.000    0.000    0.000    0.000 
#
# Total GULP energy -268755.356806 kJ/mol
# GULP energy per Si atom -5599.069933 kJ/mol
# Density = 2.215301 g / cm^3
# Si number density = 22.203546 Si / 1000 Ang^3
#
#
#
# Elastic Constant Matrix: (Units=GPa)
#
#
# Indices 1 2 3 4 5 6 
#
# 1 67.0130 28.3808 43.2166 0.0000 0.0000 -3.1915
# 2 28.3808 67.0130 43.2166 0.0000 0.0000 3.1915
# 3 43.2166 43.2166 180.4320 0.0000 0.0000 0.0000
# 4 0.0000 0.0000 0.0000 61.8183 0.0000 0.0000
# 5 0.0000 0.0000 0.0000 0.0000 61.8183 0.0000
# 6 -3.1915 3.1915 0.0000 0.0000 0.0000 33.4235
#
#
#
# Elastic Compliance Matrix: (Units=1/GPa)
#
#
# Indices 1 2 3 4 5 6 
#
# 1 0.019844 -0.006456 -0.003207 0.000000 0.000000 0.002511
# 2 -0.006456 0.019844 -0.003207 0.000000 0.000000 -0.002511
# 3 -0.003207 -0.003207 0.007078 0.000000 0.000000 0.000000
# 4 0.000000 0.000000 0.000000 0.016176 0.000000 0.000000
# 5 0.000000 0.000000 0.000000 0.000000 0.016176 0.000000
# 6 0.002511 -0.002511 0.000000 0.000000 0.000000 0.030399
#
#
# Mechanical properties :
#
#
# Convention : Reuss Voigt Hill
#
# Bulk Modulus (GPa) = 47.55524 60.45400 54.00462
# Shear Modulus (GPa) = 35.14532 44.72162 39.93347
#
# Velocity S-wave (km/s) = 3.98285 4.49281 4.24549
# Velocity P-wave (km/s) = 6.52802 7.36207 6.95756
#
# Compressibility (1/GPa) = 0.02102818
#
# Stress axis : x y z
#
# Youngs Moduli (GPa) = 50.39251 50.39251 141.27487
#
# Poissons Ratio (x) = 0.32533 0.45303
# Poissons Ratio (y) = 0.32533 0.45303
# Poissons Ratio (z) = 0.16160 0.16160
#
# Static dielectric constant tensor:
#      x y z
#    x 1.813180 0.000000 0.000000 
#    y 0.000000 1.813180 0.000000 
#    z 0.000000 0.000000 1.782800 
# 
# From -- ./inp_files/3480.got.cif
#   From: 2010.05.17/outbox.cif.g08.bks.cpg/sg83_2_cif.got.tgz:3480.got - 2010.06.03 18:55:12.
