data_PCOD9543515
_publ_section_title
;
Structure prediction by ZEFSAII (Michael W. Deem and Ramdas Pophale) SiO2 
 PCOD9543515
Probable space group: P 4/M
;
_chemical_formula_sum "Si O2"
_cell_formula_units_Z 36
_cell_length_a 13.505517
_cell_length_b 13.505517
_cell_length_c 8.306331
_cell_angle_alpha 90.000000
_cell_angle_beta 90.000000
_cell_angle_gamma 90.000000
_cell_volume 1515.066380
_symmetry_space_group_name_H-M "P 4/M"
_symmetry_group_IT_number 83
_symmetry_cell_setting 'tetragonal'
loop_
_space_group_symop_operation_xyz
x,y,z
-y,x,z
-x,-y,z
y,-x,z
-x,-y,-z
y,-x,-z
x,y,-z
-y,x,-z
loop_
_atom_site_type_symbol
_atom_site_label
_atom_site_fract_x
_atom_site_fract_y
_atom_site_fract_z
Si Si1 0.884248 0.475913 0.326082
Si Si2 0.331280 0.827313 0.183385
Si Si3 0.738328 0.958884 0.315722
Si Si4 0.853854 0.926278 0.000000
Si Si5 0.623707 0.603930 0.693401
O O1 0.836746 0.501322 0.500000
O O2 0.845846 0.549850 0.193050
O O3 0.000000 0.500000 0.338495
O O4 0.890989 0.359734 0.306936
O O5 0.287573 0.924374 0.276744
O O6 0.328174 0.715144 0.249541
O O7 0.296742 0.829673 0.000000
O O8 0.776416 0.954100 0.500000
O O9 0.802123 0.913149 0.171995
O O10 0.874203 0.042622 0.000000
O O11 0.512186 0.635192 0.744271
O O12 0.623051 0.606390 0.500000
#
# Coordination Sequence:
#
# PCOD9543515 Si02
#       5
#     8   8   8   4   8
#     4   8  16  31  55  85 117 156 194 236 299 360
#     4  11  20  32  57  91 125 161 202 255 307 352
#     4  10  21  41  66  92 124 157 198 251 306 368
#     4  11  26  48  69  92 124 155 196 253 313 389
#     4   9  19  37  56  75 112 167 215 249 289 349
#
# _framework density 23.761334999999999
#
# number of rings (size 3 to 8) (size 9 to 14) (size 15 to 20)
#    0.000    2.333    1.111    4.000    1.556    3.111 
#    4.000    2.222    0.000    0.000    0.000    0.000 
#    0.000    0.000    0.000    0.000    0.000    0.000 
#
# Total GULP energy -200825.266797 kJ/mol
# GULP energy per Si atom -5578.479633 kJ/mol
# Density = 2.370725 g / cm^3
# Si number density = 23.761335 Si / 1000 Ang^3
#
#
#
# Elastic Constant Matrix: (Units=GPa)
#
#
# Indices 1 2 3 4 5 6 
#
# 1 57.2080 -3.6494 1.3755 0.0000 0.0000 12.8059
# 2 -3.6494 57.2080 1.3755 0.0000 0.0000 -12.8059
# 3 1.3755 1.3755 100.1952 0.0000 0.0000 0.0000
# 4 0.0000 0.0000 0.0000 -16.1595 0.0000 0.0000
# 5 0.0000 0.0000 0.0000 0.0000 -16.1595 0.0000
# 6 12.8059 -12.8059 0.0000 0.0000 0.0000 32.3113
#
#
#
# Elastic Compliance Matrix: (Units=1/GPa)
#
#
# Indices 1 2 3 4 5 6 
#
# 1 0.019203 -0.000518 -0.000257 0.000000 0.000000 -0.007816
# 2 -0.000518 0.019203 -0.000257 0.000000 0.000000 0.007816
# 3 -0.000257 -0.000257 0.009988 0.000000 0.000000 0.000000
# 4 0.000000 0.000000 0.000000 -0.061883 0.000000 0.000000
# 5 0.000000 0.000000 0.000000 0.000000 -0.061883 0.000000
# 6 -0.007816 0.007816 0.000000 0.000000 0.000000 0.037144
#
#
# Mechanical properties :
#
#
# Convention : Reuss Voigt Hill
#
# Bulk Modulus (GPa) = 21.58421 23.64606 22.61513
# Shear Modulus (GPa) = -241.28078 14.36579 -113.45750
#
# Velocity S-wave (km/s) = -10.08781 2.46150 -6.91755
# Velocity P-wave (km/s) = 11.25085 4.24873 7.36648
#
# Compressibility (1/GPa) = 0.04633017
#
# Stress axis : x y z
#
# Youngs Moduli (GPa) = 52.07580 52.07580 100.12458
#
# Poissons Ratio (x) = 0.02700 0.02568
# Poissons Ratio (y) = 0.02700 0.02568
# Poissons Ratio (z) = 0.01336 0.01336
#
# Static dielectric constant tensor:
#      x y z
#    x 1.961600 0.000000 0.000000 
#    y 0.000000 1.961600 0.000000 
#    z 0.000000 0.000000 1.930780 
# 
# From -- ./inp_files/518.got.cif
#   From: 2010.05.17/outbox.cif.g08.bks.cpg/sg83_1_cif.got.tgz:518.got - 2010.06.03 18:55:12.
