data_PCOD9543598
_publ_section_title
;
Structure prediction by ZEFSAII (Michael W. Deem and Ramdas Pophale) SiO2 
 PCOD9543598
Probable space group: P 4/M
;
_chemical_formula_sum "Si O2"
_cell_formula_units_Z 46
_cell_length_a 11.994987
_cell_length_b 11.994987
_cell_length_c 19.885923
_cell_angle_alpha 90.000000
_cell_angle_beta 90.000000
_cell_angle_gamma 90.000000
_cell_volume 2861.180897
_symmetry_space_group_name_H-M "P 4/M"
_symmetry_group_IT_number 83
_symmetry_cell_setting 'tetragonal'
loop_
_space_group_symop_operation_xyz
x,y,z
-y,x,z
-x,-y,z
y,-x,z
-x,-y,-z
y,-x,-z
x,y,-z
-y,x,-z
loop_
_atom_site_type_symbol
_atom_site_label
_atom_site_fract_x
_atom_site_fract_y
_atom_site_fract_z
Si Si1 0.101273 0.291348 0.641770
Si Si2 0.082630 0.830601 0.000000
Si Si3 0.057553 0.179249 0.500000
Si Si4 0.170617 0.083235 0.852085
Si Si5 0.863653 0.281710 0.285748
Si Si6 0.682069 0.444391 0.500000
Si Si7 0.484566 0.242439 0.643886
Si Si8 0.500000 0.500000 0.664680
O O1 0.081304 0.250073 0.566224
O O2 0.182417 0.203936 0.678496
O O3 0.159068 0.411598 0.641664
O O4 0.984660 0.292352 0.680646
O O5 0.107033 0.780602 0.073264
O O6 0.951020 0.857727 0.000000
O O7 0.930691 0.135072 0.500000
O O8 0.249376 0.121565 0.792015
O O9 0.049233 0.143028 0.846551
O O10 0.798730 0.394955 0.302304
O O11 0.632950 0.571525 0.500000
O O12 0.749027 0.430319 0.568944
O O13 0.528207 0.365984 0.660317
#
# Coordination Sequence:
#
# PCOD9543598 Si02
#       8
#     8   4   4   8   8   4   8   2
#     4  12  24  39  55  80 112 145 192 234 284 337
#     4   7  12  24  46  82 115 144 181 219 254 319
#     4  11  23  39  58  77 106 149 190 231 281 357
#     4   9  16  29  53  82 117 151 181 215 268 331
#     4  12  23  36  56  81 115 152 181 226 282 343
#     4  11  17  35  60  75  89 128 181 245 299 333
#     4  12  24  39  58  80 106 139 193 245 291 333
#     4  12  20  41  60  76 100 145 188 242 292 333
#
# _framework density 16.077278
#
# number of rings (size 3 to 8) (size 9 to 14) (size 15 to 20)
#    0.000    1.130    6.957    2.087    0.000    1.739 
#    0.000    1.739    0.000    0.000    0.000    3.652 
#    0.000    0.696    0.000    0.000    0.000    0.000 
#
# Total GULP energy -256277.864946 kJ/mol
# GULP energy per Si atom -5571.257934 kJ/mol
# Density = 1.604069 g / cm^3
# Si number density = 16.077278 Si / 1000 Ang^3
#
#
#
# Elastic Constant Matrix: (Units=GPa)
#
#
# Indices 1 2 3 4 5 6 
#
# 1 58.8948 7.5705 36.0266 0.0000 0.0000 0.3706
# 2 7.5705 58.8948 36.0266 0.0000 0.0000 -0.3706
# 3 36.0266 36.0266 162.2860 0.0000 0.0000 0.0000
# 4 0.0000 0.0000 0.0000 8.3478 0.0000 0.0000
# 5 0.0000 0.0000 0.0000 0.0000 8.3478 0.0000
# 6 0.3706 -0.3706 0.0000 0.0000 0.0000 35.4015
#
#
#
# Elastic Compliance Matrix: (Units=1/GPa)
#
#
# Indices 1 2 3 4 5 6 
#
# 1 0.019650 0.000163 -0.004399 0.000000 0.000000 -0.000204
# 2 0.000163 0.019650 -0.004399 0.000000 0.000000 0.000204
# 3 -0.004399 -0.004399 0.008115 0.000000 0.000000 0.000000
# 4 0.000000 0.000000 0.000000 0.119792 0.000000 0.000000
# 5 0.000000 0.000000 0.000000 0.000000 0.119792 0.000000
# 6 -0.000204 0.000204 0.000000 0.000000 0.000000 0.028252
#
#
# Mechanical properties :
#
#
# Convention : Reuss Voigt Hill
#
# Bulk Modulus (GPa) = 33.16942 48.81368 40.99155
# Shear Modulus (GPa) = 14.59564 23.78289 19.18926
#
# Velocity S-wave (km/s) = 3.01631 3.85032 3.45855
# Velocity P-wave (km/s) = 5.72773 7.08480 6.44210
#
# Compressibility (1/GPa) = 0.03014825
#
# Stress axis : x y z
#
# Youngs Moduli (GPa) = 50.88971 50.88971 123.23047
#
# Poissons Ratio (x) = -0.00832 0.54204
# Poissons Ratio (y) = -0.00832 0.54204
# Poissons Ratio (z) = 0.22384 0.22384
#
# Static dielectric constant tensor:
#      x y z
#    x 1.532550 0.000000 0.000000 
#    y 0.000000 1.532550 0.000000 
#    z 0.000000 0.000000 1.548840 
# 
# From -- ./inp_files/2689.got.cif
#   From: 2010.05.17/outbox.cif.g08.bks.cpg/sg83_2_cif.got.tgz:2689.got - 2010.06.03 18:55:12.
