data_PCOD9543474
_publ_section_title
;
Structure prediction by ZEFSAII (Michael W. Deem and Ramdas Pophale) SiO2 
 PCOD9543474
Probable space group: P 4/M
;
_chemical_formula_sum "Si O2"
_cell_formula_units_Z 36
_cell_length_a 14.731644
_cell_length_b 14.731644
_cell_length_c 7.415858
_cell_angle_alpha 90.000000
_cell_angle_beta 90.000000
_cell_angle_gamma 90.000000
_cell_volume 1609.399403
_symmetry_space_group_name_H-M "P 4/M"
_symmetry_group_IT_number 83
_symmetry_cell_setting 'tetragonal'
loop_
_space_group_symop_operation_xyz
x,y,z
-y,x,z
-x,-y,z
y,-x,z
-x,-y,-z
y,-x,-z
x,y,-z
-y,x,-z
loop_
_atom_site_type_symbol
_atom_site_label
_atom_site_fract_x
_atom_site_fract_y
_atom_site_fract_z
Si Si1 0.343238 0.238605 0.282308
Si Si2 0.498977 0.895779 0.720014
Si Si3 0.623950 0.415019 0.000000
Si Si4 0.141991 0.971190 0.216371
Si Si5 0.151944 0.300592 0.712359
O O1 0.348398 0.245100 0.500000
O O2 0.409605 0.156722 0.226353
O O3 0.382472 0.325188 0.179140
O O4 0.237537 0.240311 0.224371
O O5 0.497699 0.894622 0.500000
O O6 0.403341 0.852664 0.784234
O O7 0.500000 0.000000 0.776948
O O8 0.621628 0.522887 0.000000
O O9 0.242598 0.939495 0.263823
O O10 0.068136 0.896122 0.280289
O O11 0.138006 0.973154 0.000000
O O12 0.165248 0.311005 0.500000
#
# Coordination Sequence:
#
# PCOD9543474 Si02
#       5
#     8   8   4   8   8
#     4  10  22  41  62  86 123 164 202 249 307 373
#     4   9  19  37  59  85 122 159 196 252 314 367
#     4  11  24  40  63  92 118 151 203 260 310 364
#     4   9  20  38  57  80 117 161 200 244 304 368
#     4  10  21  35  60  89 113 155 202 243 305 364
#
# _framework density 22.368594000000002
#
# number of rings (size 3 to 8) (size 9 to 14) (size 15 to 20)
#    0.000    2.333    0.000    2.000    4.667    3.556 
#    2.000    2.778    0.000    0.000    0.000    0.000 
#    0.000    0.000    0.000    0.000    0.000    0.000 
#
# Total GULP energy -200952.269528 kJ/mol
# GULP energy per Si atom -5582.007487 kJ/mol
# Density = 2.231768 g / cm^3
# Si number density = 22.368594 Si / 1000 Ang^3
#
#
#
# Elastic Constant Matrix: (Units=GPa)
#
#
# Indices 1 2 3 4 5 6 
#
# 1 116.5621 -13.2547 -1.8063 0.0000 0.0000 22.3635
# 2 -13.2547 116.5621 -1.8063 0.0000 0.0000 -22.3635
# 3 -1.8063 -1.8063 66.0150 0.0000 0.0000 0.0000
# 4 0.0000 0.0000 0.0000 23.1743 0.0000 0.0000
# 5 0.0000 0.0000 0.0000 0.0000 23.1743 0.0000
# 6 22.3635 -22.3635 0.0000 0.0000 0.0000 56.4226
#
#
#
# Elastic Compliance Matrix: (Units=1/GPa)
#
#
# Indices 1 2 3 4 5 6 
#
# 1 0.009305 0.000384 0.000265 0.000000 0.000000 -0.003536
# 2 0.000384 0.009305 0.000265 0.000000 0.000000 0.003536
# 3 0.000265 0.000265 0.015163 0.000000 0.000000 0.000000
# 4 0.000000 0.000000 0.000000 0.043151 0.000000 0.000000
# 5 0.000000 0.000000 0.000000 0.000000 0.043151 0.000000
# 6 -0.003536 0.003536 0.000000 0.000000 0.000000 0.020527
#
#
# Mechanical properties :
#
#
# Convention : Reuss Voigt Hill
#
# Bulk Modulus (GPa) = 28.08887 29.48939 28.78913
# Shear Modulus (GPa) = 33.19149 41.62136 37.40643
#
# Velocity S-wave (km/s) = 3.85625 4.31827 4.09378
# Velocity P-wave (km/s) = 5.69316 6.17052 5.93664
#
# Compressibility (1/GPa) = 0.03560129
#
# Stress axis : x y z
#
# Youngs Moduli (GPa) = 107.46563 107.46563 65.95182
#
# Poissons Ratio (x) = -0.04125 -0.01749
# Poissons Ratio (y) = -0.04125 -0.01749
# Poissons Ratio (z) = -0.02849 -0.02849
#
# Static dielectric constant tensor:
#      x y z
#    x 1.819700 0.000000 0.000000 
#    y 0.000000 1.819700 0.000000 
#    z 0.000000 0.000000 1.825090 
# 
# From -- ./inp_files/529.got.cif
#   From: 2010.05.17/outbox.cif.g08.bks.cpg/sg83_1_cif.got.tgz:529.got - 2010.06.03 18:55:12.
