data_PCOD9543082
_publ_section_title
;
Structure prediction by ZEFSAII (Michael W. Deem and Ramdas Pophale) SiO2 
 PCOD9543082
Probable space group: I -4 
;
_chemical_formula_sum "Si O2"
_cell_formula_units_Z 34
_cell_length_a 8.635573
_cell_length_b 8.635573
_cell_length_c 20.215389
_cell_angle_alpha 90.000000
_cell_angle_beta 90.000000
_cell_angle_gamma 90.000000
_cell_volume 1507.524651
_symmetry_space_group_name_H-M "I -4 "
_symmetry_group_IT_number 82
_symmetry_cell_setting 'tetragonal'
loop_
_space_group_symop_operation_xyz
x,y,z
y,-x,-z
-x,-y,z
-y,x,-z
1/2+x,1/2+y,1/2+z
1/2+y,1/2-x,1/2-z
1/2-x,1/2-y,1/2+z
1/2-y,1/2+x,1/2-z
loop_
_atom_site_type_symbol
_atom_site_label
_atom_site_fract_x
_atom_site_fract_y
_atom_site_fract_z
Si Si1 0.894129 0.343631 0.909833
Si Si2 0.000000 0.000000 0.000000
Si Si3 0.169110 0.422578 0.445133
Si Si4 0.269839 0.670965 0.670710
Si Si5 0.335386 0.550603 0.808432
O O1 0.752517 0.342234 0.859982
O O2 0.000000 0.500000 0.908738
O O3 0.021768 0.231057 0.877617
O O4 0.833293 0.338907 0.984698
O O5 0.833926 0.012593 0.960489
O O6 0.197170 0.333731 0.377128
O O7 0.000000 0.500000 0.440098
O O8 0.358832 0.629097 0.737385
O O9 0.099813 0.723317 0.696323
O O10 0.500000 0.500000 0.835171
#
# Coordination Sequence:
#
# PCOD9543082 Si02
#       5
#     8   2   8   8   8
#     4   9  20  42  71  99 141 190 245 309 370 455
#     4  12  24  44  80 112 152 220 244 322 416 456
#     4  11  25  45  74 115 154 197 266 323 387 472
#     4  11  22  45  73 102 143 197 251 310 379 466
#     4  11  24  43  70 105 143 198 247 310 388 458
#
# _framework density 22.553528
#
# number of rings (size 3 to 8) (size 9 to 14) (size 15 to 20)
#    0.000    1.412    4.706    0.000    1.647    1.882 
#    4.235    0.000    0.000    0.000    0.000    0.000 
#    0.000    0.000    0.000    0.000    0.000    0.000 
#
# Total GULP energy -94675.608164 kJ/mol
# GULP energy per Si atom -5569.153421 kJ/mol
# Density = 2.250220 g / cm^3
# Si number density = 22.553528 Si / 1000 Ang^3
#
#
#
# Elastic Constant Matrix: (Units=GPa)
#
#
# Indices 1 2 3 4 5 6 
#
# 1 90.0450 9.1539 36.8431 0.0000 0.0000 -16.1443
# 2 9.1539 90.0450 36.8431 0.0000 0.0000 16.1443
# 3 36.8431 36.8431 175.6313 0.0000 0.0000 0.0000
# 4 0.0000 0.0000 0.0000 25.7669 0.0000 0.0000
# 5 0.0000 0.0000 0.0000 0.0000 25.7669 0.0000
# 6 -16.1443 16.1443 0.0000 0.0000 0.0000 32.9841
#
#
#
# Elastic Compliance Matrix: (Units=1/GPa)
#
#
# Indices 1 2 3 4 5 6 
#
# 1 0.013653 -0.001711 -0.002505 0.000000 0.000000 0.007520
# 2 -0.001711 0.013653 -0.002505 0.000000 0.000000 -0.007520
# 3 -0.002505 -0.002505 0.006745 0.000000 0.000000 0.000000
# 4 0.000000 0.000000 0.000000 0.038809 0.000000 0.000000
# 5 0.000000 0.000000 0.000000 0.000000 0.038809 0.000000
# 6 0.007520 -0.007520 0.000000 0.000000 0.000000 0.037679
#
#
# Mechanical properties :
#
#
# Convention : Reuss Voigt Hill
#
# Bulk Modulus (GPa) = 48.52566 57.93349 53.22957
# Shear Modulus (GPa) = 29.47070 35.09567 32.28318
#
# Velocity S-wave (km/s) = 3.61875 3.94903 3.78749
# Velocity P-wave (km/s) = 6.24684 6.82173 6.54060
#
# Compressibility (1/GPa) = 0.02060765
#
# Stress axis : x y z
#
# Youngs Moduli (GPa) = 73.24525 73.24525 148.26383
#
# Poissons Ratio (x) = 0.12534 0.37141
# Poissons Ratio (y) = 0.12534 0.37141
# Poissons Ratio (z) = 0.18348 0.18348
#
# Static dielectric constant tensor:
#      x y z
#    x 1.901680 0.000000 0.000000 
#    y 0.000000 1.901680 0.000000 
#    z 0.000000 0.000000 1.838110 
# 
# From -- ./inp_files/2969.got.cif
#   From: 2010.05.17/outbox.cif.g08.bks.cpg/sg82_2_cif.got.tgz:2969.got - 2010.06.03 18:52:26.
