data_PCOD9543985
_publ_section_title
;
Structure prediction by ZEFSAII (Michael W. Deem and Ramdas Pophale) SiO2 
 PCOD9543985
Probable space group: P 42/M
;
_chemical_formula_sum "Si O2"
_cell_formula_units_Z 34
_cell_length_a 9.298805
_cell_length_b 9.298805
_cell_length_c 20.155372
_cell_angle_alpha 90.000000
_cell_angle_beta 90.000000
_cell_angle_gamma 90.000000
_cell_volume 1742.790160
_symmetry_space_group_name_H-M "P 42/M"
_symmetry_group_IT_number 84
_symmetry_cell_setting 'tetragonal'
loop_
_space_group_symop_operation_xyz
x,y,z
-y,x,1/2+z
-x,-y,z
y,-x,1/2+z
-x,-y,-z
y,-x,1/2-z
x,y,-z
-y,x,1/2-z
loop_
_atom_site_type_symbol
_atom_site_label
_atom_site_fract_x
_atom_site_fract_y
_atom_site_fract_z
Si Si1 0.065403 0.339219 0.358365
Si Si2 0.082864 0.152289 0.000000
Si Si3 0.118002 0.201717 0.147823
Si Si4 0.000000 0.000000 0.250000
Si Si5 0.614315 0.287233 0.743890
Si Si6 0.048241 0.336992 0.500000
O O1 0.185777 0.332854 0.303142
O O2 0.128251 0.308221 0.431589
O O3 0.000000 0.500000 0.356357
O O4 0.932229 0.230405 0.351697
O O5 0.060319 0.221743 0.927286
O O6 0.000000 0.000000 0.000000
O O7 0.247918 0.099944 0.000000
O O8 0.203073 0.337043 0.177565
O O9 0.004233 0.139145 0.201406
O O10 0.443704 0.312313 0.750934
O O11 0.000000 0.500000 0.500000
#
# Coordination Sequence:
#
# PCOD9543985 Si02
#       6
#     8   4   8   2   8   4
#     4  10  18  35  57  79 106 145 189 239 282 334
#     4  10  20  34  55  85 121 147 188 248 293 340
#     4  11  21  35  57  86 115 151 194 241 293 341
#     4  12  20  30  60  92 108 146 200 236 280 346
#     4  11  23  37  55  84 120 154 193 239 292 347
#     4   8  18  32  55  81 105 141 188 228 281 338
#
# _framework density 19.508949000000001
#
# number of rings (size 3 to 8) (size 9 to 14) (size 15 to 20)
#    0.000    1.647    5.882    0.000    0.000    0.000 
#    0.000    1.176    0.000    2.824    0.000    5.765 
#    0.000    0.000    0.000    0.000    0.000    0.000 
#
# Total GULP energy -189506.132327 kJ/mol
# GULP energy per Si atom -5573.709774 kJ/mol
# Density = 1.946455 g / cm^3
# Si number density = 19.508949 Si / 1000 Ang^3
#
#
#
# Elastic Constant Matrix: (Units=GPa)
#
#
# Indices 1 2 3 4 5 6 
#
# 1 43.1020 7.0418 23.8427 0.0000 0.0000 3.5907
# 2 7.0418 43.1020 23.8427 0.0000 0.0000 -3.5907
# 3 23.8427 23.8427 183.3625 0.0000 0.0000 0.0000
# 4 0.0000 0.0000 0.0000 20.6082 0.0000 0.0000
# 5 0.0000 0.0000 0.0000 0.0000 20.6082 0.0000
# 6 3.5907 -3.5907 0.0000 0.0000 0.0000 22.2914
#
#
#
# Elastic Compliance Matrix: (Units=1/GPa)
#
#
# Indices 1 2 3 4 5 6 
#
# 1 0.025704 -0.002947 -0.002959 0.000000 0.000000 -0.004615
# 2 -0.002947 0.025704 -0.002959 0.000000 0.000000 0.004615
# 3 -0.002959 -0.002959 0.006223 0.000000 0.000000 0.000000
# 4 0.000000 0.000000 0.000000 0.048524 0.000000 0.000000
# 5 0.000000 0.000000 0.000000 0.000000 0.048524 0.000000
# 6 -0.004615 0.004615 0.000000 0.000000 0.000000 0.046347
#
#
# Mechanical properties :
#
#
# Convention : Reuss Voigt Hill
#
# Bulk Modulus (GPa) = 25.06252 42.11343 33.58798
# Shear Modulus (GPa) = 21.54650 27.02418 24.28534
#
# Velocity S-wave (km/s) = 3.32692 3.72589 3.53204
# Velocity P-wave (km/s) = 5.25666 6.33587 5.82133
#
# Compressibility (1/GPa) = 0.03990021
#
# Stress axis : x y z
#
# Youngs Moduli (GPa) = 38.90517 38.90517 160.68884
#
# Poissons Ratio (x) = 0.11465 0.47549
# Poissons Ratio (y) = 0.11465 0.47549
# Poissons Ratio (z) = 0.11512 0.11512
#
# Static dielectric constant tensor:
#      x y z
#    x 1.711000 0.000000 0.000000 
#    y 0.000000 1.711000 0.000000 
#    z 0.000000 0.000000 1.776220 
# 
# From -- ./inp_files/4295.got.cif
#   From: 2010.05.17/outbox.cif.g08.bks.cpg/sg84_3_cif.got.tgz:4295.got - 2010.06.03 18:57:40.
