data_PCOD9543476
_publ_section_title
;
Structure prediction by ZEFSAII (Michael W. Deem and Ramdas Pophale) SiO2 
 PCOD9543476
Probable space group: P 4/M
;
_chemical_formula_sum "Si O2"
_cell_formula_units_Z 52
_cell_length_a 17.785164
_cell_length_b 17.785164
_cell_length_c 8.022514
_cell_angle_alpha 90.000000
_cell_angle_beta 90.000000
_cell_angle_gamma 90.000000
_cell_volume 2537.617918
_symmetry_space_group_name_H-M "P 4/M"
_symmetry_group_IT_number 83
_symmetry_cell_setting 'tetragonal'
loop_
_space_group_symop_operation_xyz
x,y,z
-y,x,z
-x,-y,z
y,-x,z
-x,-y,-z
y,-x,-z
x,y,-z
-y,x,-z
loop_
_atom_site_type_symbol
_atom_site_label
_atom_site_fract_x
_atom_site_fract_y
_atom_site_fract_z
Si Si1 0.808248 0.655755 0.810844
Si Si2 0.323279 0.241780 0.697189
Si Si3 0.919119 0.788507 0.204063
Si Si4 0.487299 0.215743 0.682514
Si Si5 0.922833 0.898874 0.500000
Si Si6 0.078664 0.725256 0.190649
Si Si7 0.556498 0.932632 0.814626
O O1 0.731828 0.702553 0.791338
O O2 0.872209 0.713488 0.743592
O O3 0.790150 0.572146 0.747044
O O4 0.831899 0.644594 0.000000
O O5 0.323207 0.258598 0.500000
O O6 0.409768 0.247966 0.761942
O O7 0.288541 0.157655 0.717818
O O8 0.896074 0.855178 0.331392
O O9 0.008252 0.776689 0.235662
O O10 0.909009 0.800465 0.000000
O O11 0.492176 0.250227 0.500000
O O12 0.462454 0.128790 0.679762
O O13 0.014063 0.899579 0.500000
O O14 0.042218 0.641879 0.195155
O O15 0.099756 0.743575 0.000000
O O16 0.500000 0.000000 0.802025
O O17 0.547059 0.897336 0.000000
#
# Coordination Sequence:
#
# PCOD9543476 Si02
#       7
#     8   8   8   8   4   8   8
#     4  11  23  39  61  89 119 157 205 252 306 368
#     4  10  22  37  58  88 121 160 200 246 307 371
#     4  10  24  41  64  96 125 161 211 267 319 371
#     4  10  21  36  54  84 121 155 194 243 302 365
#     4  11  28  48  66  90 121 171 221 264 323 371
#     4   9  18  33  52  80 116 151 193 243 298 359
#     4   9  16  29  49  72 108 152 188 227 284 354
#
# _framework density 20.491657
#
# number of rings (size 3 to 8) (size 9 to 14) (size 15 to 20)
#    0.000    2.077    0.000    2.308    5.385    5.231 
#    0.000    0.769    0.000    0.462    0.000    3.231 
#    0.000    0.000    0.000    0.000    0.000    0.000 
#
# Total GULP energy -289479.718989 kJ/mol
# GULP energy per Si atom -5566.917673 kJ/mol
# Density = 2.044502 g / cm^3
# Si number density = 20.491657 Si / 1000 Ang^3
#
#
#
# Elastic Constant Matrix: (Units=GPa)
#
#
# Indices 1 2 3 4 5 6 
#
# 1 95.4045 20.2022 14.1757 0.0000 0.0000 0.7320
# 2 20.2022 95.4045 14.1757 0.0000 0.0000 -0.7320
# 3 14.1757 14.1757 39.1223 0.0000 0.0000 0.0000
# 4 0.0000 0.0000 0.0000 20.3631 0.0000 0.0000
# 5 0.0000 0.0000 0.0000 0.0000 20.3631 0.0000
# 6 0.7320 -0.7320 0.0000 0.0000 0.0000 26.2250
#
#
#
# Elastic Compliance Matrix: (Units=1/GPa)
#
#
# Indices 1 2 3 4 5 6 
#
# 1 0.011399 -0.001906 -0.003440 0.000000 0.000000 -0.000371
# 2 -0.001906 0.011399 -0.003440 0.000000 0.000000 0.000371
# 3 -0.003440 -0.003440 0.028054 0.000000 0.000000 0.000000
# 4 0.000000 0.000000 0.000000 0.049109 0.000000 0.000000
# 5 0.000000 0.000000 0.000000 0.000000 0.049109 0.000000
# 6 -0.000371 0.000371 0.000000 0.000000 0.000000 0.038152
#
#
# Mechanical properties :
#
#
# Convention : Reuss Voigt Hill
#
# Bulk Modulus (GPa) = 30.04699 36.33761 33.19230
# Shear Modulus (GPa) = 23.16037 25.48208 24.32122
#
# Velocity S-wave (km/s) = 3.36554 3.53020 3.44886
# Velocity P-wave (km/s) = 5.45870 5.86411 5.66503
#
# Compressibility (1/GPa) = 0.03328120
#
# Stress axis : x y z
#
# Youngs Moduli (GPa) = 87.72578 87.72578 35.64589
#
# Poissons Ratio (x) = 0.16716 0.12262
# Poissons Ratio (y) = 0.16716 0.12262
# Poissons Ratio (z) = 0.30177 0.30177
#
# Static dielectric constant tensor:
#      x y z
#    x 1.774060 0.000000 0.000000 
#    y 0.000000 1.774060 0.000000 
#    z 0.000000 0.000000 1.986360 
# 
# From -- ./inp_files/1005.got.cif
#   From: 2010.05.17/outbox.cif.g08.bks.cpg/sg83_1_cif.got.tgz:1005.got - 2010.06.03 18:55:12.
