data_PCOD9543358
_publ_section_title
;
Structure prediction by ZEFSAII (Michael W. Deem and Ramdas Pophale) SiO2 
 PCOD9543358
Probable space group: P 4/M
;
_chemical_formula_sum "Si O2"
_cell_formula_units_Z 54
_cell_length_a 15.221387
_cell_length_b 15.221387
_cell_length_c 12.913624
_cell_angle_alpha 90.000000
_cell_angle_beta 90.000000
_cell_angle_gamma 90.000000
_cell_volume 2991.965579
_symmetry_space_group_name_H-M "P 4/M"
_symmetry_group_IT_number 83
_symmetry_cell_setting 'tetragonal'
loop_
_space_group_symop_operation_xyz
x,y,z
-y,x,z
-x,-y,z
y,-x,z
-x,-y,-z
y,-x,-z
x,y,-z
-y,x,-z
loop_
_atom_site_type_symbol
_atom_site_label
_atom_site_fract_x
_atom_site_fract_y
_atom_site_fract_z
Si Si1 0.500000 0.500000 0.813181
Si Si2 0.377062 0.165525 0.877563
Si Si3 0.971756 0.854617 0.000000
Si Si4 0.547818 0.252937 0.622496
Si Si5 0.386171 0.335189 0.743207
Si Si6 0.990794 0.724327 0.188597
Si Si7 0.456257 0.907125 0.233682
Si Si8 0.852460 0.006168 0.620687
O O1 0.432690 0.414610 0.804884
O O2 0.359511 0.256062 0.818081
O O3 0.314400 0.087179 0.837940
O O4 0.477062 0.137849 0.847775
O O5 0.367600 0.174290 0.000000
O O6 0.964483 0.793994 0.101021
O O7 0.901016 0.932689 0.000000
O O8 0.555434 0.257446 0.500000
O O9 0.458144 0.299001 0.661674
O O10 0.625201 0.305672 0.679382
O O11 0.547729 0.155203 0.667259
O O12 0.926720 0.640291 0.190410
O O13 0.991087 0.773480 0.298615
O O14 0.500000 0.000000 0.260618
O O15 0.825060 0.007349 0.500000
O O16 0.919018 0.088014 0.637120
#
# Coordination Sequence:
#
# PCOD9543358 Si02
#       8
#     2   8   4   8   8   8   8   8
#     4   8  16  36  58  76 116 146 180 224 274 336
#     4  10  21  40  60  79 113 151 193 244 290 340
#     4  11  24  38  55  84 118 147 177 236 298 336
#     4  10  19  35  57  84 117 152 186 234 288 338
#     4   9  19  35  57  87 113 147 191 233 282 342
#     4  11  21  37  59  85 109 148 196 238 282 349
#     4   9  22  38  57  81 110 150 194 235 280 341
#     4   9  19  37  60  83 114 156 192 232 293 358
#
# _framework density 18.048335000000002
#
# number of rings (size 3 to 8) (size 9 to 14) (size 15 to 20)
#    0.000    2.296    0.741    1.778    1.037    5.333 
#    0.000   17.407    0.000    0.000    0.000    0.000 
#    0.000    0.000    0.000    0.000    0.000    0.000 
#
# Total GULP energy -300837.317077 kJ/mol
# GULP energy per Si atom -5571.061427 kJ/mol
# Density = 1.800726 g / cm^3
# Si number density = 18.048335 Si / 1000 Ang^3
#
#
#
# Elastic Constant Matrix: (Units=GPa)
#
#
# Indices 1 2 3 4 5 6 
#
# 1 64.2654 -6.6544 22.7576 0.0000 0.0000 1.4107
# 2 -6.6544 64.2654 22.7576 0.0000 0.0000 -1.4107
# 3 22.7576 22.7576 82.5869 0.0000 0.0000 0.0000
# 4 0.0000 0.0000 0.0000 12.0719 0.0000 0.0000
# 5 0.0000 0.0000 0.0000 0.0000 12.0719 0.0000
# 6 1.4107 -1.4107 0.0000 0.0000 0.0000 12.7792
#
#
#
# Elastic Compliance Matrix: (Units=1/GPa)
#
#
# Indices 1 2 3 4 5 6 
#
# 1 0.018175 0.004013 -0.006114 0.000000 0.000000 -0.001563
# 2 0.004013 0.018175 -0.006114 0.000000 0.000000 0.001563
# 3 -0.006114 -0.006114 0.015478 0.000000 0.000000 0.000000
# 4 0.000000 0.000000 0.000000 0.082837 0.000000 0.000000
# 5 0.000000 0.000000 0.000000 0.000000 0.082837 0.000000
# 6 -0.001563 0.001563 0.000000 0.000000 0.000000 0.078597
#
#
# Mechanical properties :
#
#
# Convention : Reuss Voigt Hill
#
# Bulk Modulus (GPa) = 28.25027 32.09326 30.17176
# Shear Modulus (GPa) = 15.41639 18.86841 17.14240
#
# Velocity S-wave (km/s) = 2.92579 3.23683 3.08523
# Velocity P-wave (km/s) = 5.20579 5.63825 5.42633
#
# Compressibility (1/GPa) = 0.03539790
#
# Stress axis : x y z
#
# Youngs Moduli (GPa) = 55.01922 55.01922 64.60731
#
# Poissons Ratio (x) = -0.22078 0.39502
# Poissons Ratio (y) = -0.22078 0.39502
# Poissons Ratio (z) = 0.33640 0.33640
#
# Static dielectric constant tensor:
#      x y z
#    x 1.614980 0.000000 0.000000 
#    y 0.000000 1.614980 0.000000 
#    z 0.000000 0.000000 1.582500 
# 
# From -- ./inp_files/1969.got.cif
#   From: 2010.05.17/outbox.cif.g08.bks.cpg/sg83_1_cif.got.tgz:1969.got - 2010.06.03 18:55:12.
