data_PCOD9543545
_publ_section_title
;
Structure prediction by ZEFSAII (Michael W. Deem and Ramdas Pophale) SiO2 
 PCOD9543545
Probable space group: P 4/M
;
_chemical_formula_sum "Si O2"
_cell_formula_units_Z 36
_cell_length_a 13.136017
_cell_length_b 13.136017
_cell_length_c 9.391969
_cell_angle_alpha 90.000000
_cell_angle_beta 90.000000
_cell_angle_gamma 90.000000
_cell_volume 1620.630672
_symmetry_space_group_name_H-M "P 4/M"
_symmetry_group_IT_number 83
_symmetry_cell_setting 'tetragonal'
loop_
_space_group_symop_operation_xyz
x,y,z
-y,x,z
-x,-y,z
y,-x,z
-x,-y,-z
y,-x,-z
x,y,-z
-y,x,-z
loop_
_atom_site_type_symbol
_atom_site_label
_atom_site_fract_x
_atom_site_fract_y
_atom_site_fract_z
Si Si1 0.951798 0.717879 0.153841
Si Si2 0.674468 0.273480 0.174679
Si Si3 0.225701 0.535614 0.666582
Si Si4 0.159556 0.065298 0.652526
Si Si5 0.500000 0.000000 0.243239
O O1 0.836437 0.724606 0.214185
O O2 0.054463 0.760322 0.224539
O O3 0.969871 0.597668 0.152349
O O4 0.945891 0.767079 0.000000
O O5 0.734629 0.365496 0.248539
O O6 0.562449 0.268391 0.246616
O O7 0.670280 0.280378 0.000000
O O8 0.257416 0.536093 0.500000
O O9 0.102518 0.526567 0.670891
O O10 0.208434 0.087334 0.500000
O O11 0.123873 0.945964 0.657998
#
# Coordination Sequence:
#
# PCOD9543545 Si02
#       5
#     8   8   8   8   4
#     4  10  22  39  61  89 120 162 209 254 305 370
#     4  10  23  42  63  91 128 164 204 255 316 371
#     4  11  23  42  67  96 126 163 211 259 308 371
#     4   9  20  38  57  82 119 159 198 247 308 368
#     4  10  24  42  62  92 128 166 204 258 318 364
#
# _framework density 22.213574000000001
#
# number of rings (size 3 to 8) (size 9 to 14) (size 15 to 20)
#    0.000    2.000    0.000    2.667    3.111    9.333 
#    0.000    3.333    0.000    0.000    0.000    0.000 
#    0.000    0.000    0.000    0.000    0.000    0.000 
#
# Total GULP energy -200583.466105 kJ/mol
# GULP energy per Si atom -5571.762947 kJ/mol
# Density = 2.216301 g / cm^3
# Si number density = 22.213574 Si / 1000 Ang^3
#
#
#
# Elastic Constant Matrix: (Units=GPa)
#
#
# Indices 1 2 3 4 5 6 
#
# 1 76.9414 26.9821 6.2281 0.0000 0.0000 -7.9243
# 2 26.9821 76.9414 6.2281 0.0000 0.0000 7.9243
# 3 6.2281 6.2281 61.9837 0.0000 0.0000 0.0000
# 4 0.0000 0.0000 0.0000 76.0678 0.0000 0.0000
# 5 0.0000 0.0000 0.0000 0.0000 76.0678 0.0000
# 6 -7.9243 7.9243 0.0000 0.0000 0.0000 43.4176
#
#
#
# Elastic Compliance Matrix: (Units=1/GPa)
#
#
# Indices 1 2 3 4 5 6 
#
# 1 0.015493 -0.005753 -0.000979 0.000000 0.000000 0.003878
# 2 -0.005753 0.015493 -0.000979 0.000000 0.000000 -0.003878
# 3 -0.000979 -0.000979 0.016330 0.000000 0.000000 0.000000
# 4 0.000000 0.000000 0.000000 0.013146 0.000000 0.000000
# 5 0.000000 0.000000 0.000000 0.000000 0.013146 0.000000
# 6 0.003878 -0.003878 0.000000 0.000000 0.000000 0.024448
#
#
# Mechanical properties :
#
#
# Convention : Reuss Voigt Hill
#
# Bulk Modulus (GPa) = 31.35300 32.74925 32.05112
# Shear Modulus (GPa) = 40.28717 50.87250 45.57984
#
# Velocity S-wave (km/s) = 4.26329 4.79075 4.53469
# Velocity P-wave (km/s) = 6.19509 6.73621 6.47131
#
# Compressibility (1/GPa) = 0.03189487
#
# Stress axis : x y z
#
# Youngs Moduli (GPa) = 64.54488 64.54488 61.23716
#
# Poissons Ratio (x) = 0.37135 0.05993
# Poissons Ratio (y) = 0.37135 0.05993
# Poissons Ratio (z) = 0.06317 0.06317
#
# Static dielectric constant tensor:
#      x y z
#    x 1.856430 0.000000 0.000000 
#    y 0.000000 1.856430 0.000000 
#    z 0.000000 0.000000 1.929850 
# 
# From -- ./inp_files/542.got.cif
#   From: 2010.05.17/outbox.cif.g08.bks.cpg/sg83_1_cif.got.tgz:542.got - 2010.06.03 18:55:12.
