data_PCOD9543864
_publ_section_title
;
Structure prediction by ZEFSAII (Michael W. Deem and Ramdas Pophale) SiO2 
 PCOD9543864
Probable space group: P 4/M
;
_chemical_formula_sum "Si O2"
_cell_formula_units_Z 28
_cell_length_a 12.917339
_cell_length_b 12.917339
_cell_length_c 7.172565
_cell_angle_alpha 90.000000
_cell_angle_beta 90.000000
_cell_angle_gamma 90.000000
_cell_volume 1196.797318
_symmetry_space_group_name_H-M "P 4/M"
_symmetry_group_IT_number 83
_symmetry_cell_setting 'tetragonal'
loop_
_space_group_symop_operation_xyz
x,y,z
-y,x,z
-x,-y,z
y,-x,z
-x,-y,-z
y,-x,-z
x,y,-z
-y,x,-z
loop_
_atom_site_type_symbol
_atom_site_label
_atom_site_fract_x
_atom_site_fract_y
_atom_site_fract_z
Si Si1 0.079019 0.157858 0.500000
Si Si2 0.416082 0.357758 0.773860
Si Si3 0.859836 0.430702 0.225511
Si Si4 0.079635 0.339231 0.223904
O O1 0.106499 0.232878 0.325878
O O2 0.954658 0.133294 0.500000
O O3 0.536033 0.364893 0.715945
O O4 0.377876 0.246373 0.713321
O O5 0.411547 0.359853 0.000000
O O6 0.864317 0.552499 0.277763
O O7 0.961544 0.368562 0.277394
O O8 0.861682 0.433038 0.000000
O O9 0.089687 0.328023 0.000000
#
# Coordination Sequence:
#
# PCOD9543864 Si02
#       4
#     4   8   8   8
#     4  11  26  43  56  78 110 143 190 245 290 338
#     4   8  13  21  36  65 107 145 170 201 250 307
#     4   8  15  29  52  83 111 137 178 223 263 323
#     4   9  19  37  60  83 107 139 179 227 284 335
#
# _framework density 23.395772000000001
#
# number of rings (size 3 to 8) (size 9 to 14) (size 15 to 20)
#    0.000    3.286    0.000    2.571    0.000    5.714 
#    0.000    7.143    0.000    0.000    0.000    0.000 
#    0.000    6.857    0.000    0.571    0.000    0.000 
#
# Total GULP energy -156247.602472 kJ/mol
# GULP energy per Si atom -5580.271517 kJ/mol
# Density = 2.334252 g / cm^3
# Si number density = 23.395772 Si / 1000 Ang^3
#
#
#
# Elastic Constant Matrix: (Units=GPa)
#
#
# Indices 1 2 3 4 5 6 
#
# 1 95.3437 -14.7628 4.6682 0.0000 0.0000 11.0485
# 2 -14.7628 95.3437 4.6682 0.0000 0.0000 -11.0485
# 3 4.6682 4.6682 132.9137 0.0000 0.0000 0.0000
# 4 0.0000 0.0000 0.0000 24.1628 0.0000 0.0000
# 5 0.0000 0.0000 0.0000 0.0000 24.1628 0.0000
# 6 11.0485 -11.0485 0.0000 0.0000 0.0000 -15.0318
#
#
#
# Elastic Compliance Matrix: (Units=1/GPa)
#
#
# Indices 1 2 3 4 5 6 
#
# 1 0.010188 0.002273 -0.000438 0.000000 0.000000 0.005817
# 2 0.002273 0.010188 -0.000438 0.000000 0.000000 -0.005817
# 3 -0.000438 -0.000438 0.007554 0.000000 0.000000 0.000000
# 4 0.000000 0.000000 0.000000 0.041386 0.000000 0.000000
# 5 0.000000 0.000000 0.000000 0.000000 0.041386 0.000000
# 6 0.005817 -0.005817 0.000000 0.000000 0.000000 -0.057974
#
#
# Mechanical properties :
#
#
# Convention : Reuss Voigt Hill
#
# Bulk Modulus (GPa) = 32.54675 34.74982 33.64829
# Shear Modulus (GPa) = 83.09278 28.59393 55.84335
#
# Velocity S-wave (km/s) = 5.96601 3.49977 4.89089
# Velocity P-wave (km/s) = 7.83577 5.58717 6.80499
#
# Compressibility (1/GPa) = 0.03072503
#
# Stress axis : x y z
#
# Youngs Moduli (GPa) = 98.15834 98.15834 132.37282
#
# Poissons Ratio (x) = -0.22311 0.05793
# Poissons Ratio (y) = -0.22311 0.05793
# Poissons Ratio (z) = 0.04296 0.04296
#
# Static dielectric constant tensor:
#      x y z
#    x 1.860800 0.000000 0.000000 
#    y 0.000000 1.860800 0.000000 
#    z 0.000000 0.000000 1.925630 
# 
# From -- ./inp_files/384.got.cif
#   From: 2010.05.17/outbox.cif.g08.bks.cpg/sg83_1_cif.got.tgz:384.got - 2010.06.03 18:55:12.
