data_PCOD9543184
_publ_section_title
;
Structure prediction by ZEFSAII (Michael W. Deem and Ramdas Pophale) SiO2 
 PCOD9543184
Probable space group: I -4 
;
_chemical_formula_sum "Si O2"
_cell_formula_units_Z 38
_cell_length_a 8.551129
_cell_length_b 8.551129
_cell_length_c 22.039644
_cell_angle_alpha 90.000000
_cell_angle_beta 90.000000
_cell_angle_gamma 90.000000
_cell_volume 1611.578599
_symmetry_space_group_name_H-M "I -4 "
_symmetry_group_IT_number 82
_symmetry_cell_setting 'tetragonal'
loop_
_space_group_symop_operation_xyz
x,y,z
y,-x,-z
-x,-y,z
-y,x,-z
1/2+x,1/2+y,1/2+z
1/2+y,1/2-x,1/2-z
1/2-x,1/2-y,1/2+z
1/2-y,1/2+x,1/2-z
loop_
_atom_site_type_symbol
_atom_site_label
_atom_site_fract_x
_atom_site_fract_y
_atom_site_fract_z
Si Si1 0.000000 0.000000 0.264824
Si Si2 0.589846 0.861182 0.537272
Si Si3 0.763684 0.621872 0.157905
Si Si4 0.500000 0.000000 0.750000
Si Si5 0.686101 0.977938 0.180338
Si Si6 0.139107 0.870773 0.074353
O O1 0.165890 0.996303 0.227469
O O2 0.997056 0.147585 0.309308
O O3 0.715333 0.913160 0.586606
O O4 0.457613 0.786509 0.580959
O O5 0.637621 0.729818 0.489559
O O6 0.500000 0.000000 0.503755
O O7 0.912362 0.614498 0.203207
O O8 0.702772 0.798571 0.160583
O O9 0.500000 0.000000 0.192491
O O10 0.737226 0.089941 0.125509
O O11 0.000000 0.000000 0.075916
#
# Coordination Sequence:
#
# PCOD9543184 Si02
#       6
#     4   8   8   2   8   8
#     4  12  28  46  72 115 169 206 266 344 408 504
#     4  12  24  43  77 113 153 210 269 335 422 504
#     4  12  26  46  75 112 157 217 265 337 421 505
#     4  12  24  48  76 108 160 220 264 316 434 512
#     4  12  27  47  80 117 157 215 282 343 413 503
#     4  12  22  48  80 110 152 203 275 343 416 497
#
# _framework density 23.579367000000001
#
# number of rings (size 3 to 8) (size 9 to 14) (size 15 to 20)
#    0.000    0.000    8.421    0.632    2.947    1.684 
#    0.000    0.000    0.000    0.000    0.000    0.000 
#    0.000    0.000    0.000    0.000    0.000    0.000 
#
# Total GULP energy -106053.754604 kJ/mol
# GULP energy per Si atom -5581.776558 kJ/mol
# Density = 2.352570 g / cm^3
# Si number density = 23.579367 Si / 1000 Ang^3
#
#
#
# Elastic Constant Matrix: (Units=GPa)
#
#
# Indices 1 2 3 4 5 6 
#
# 1 76.1380 -15.2016 14.2782 0.0000 0.0000 9.7966
# 2 -15.2016 76.1380 14.2782 0.0000 0.0000 -9.7966
# 3 14.2782 14.2782 119.2725 0.0000 0.0000 0.0000
# 4 0.0000 0.0000 0.0000 16.9800 0.0000 0.0000
# 5 0.0000 0.0000 0.0000 0.0000 16.9800 0.0000
# 6 9.7966 -9.7966 0.0000 0.0000 0.0000 36.9202
#
#
#
# Elastic Compliance Matrix: (Units=1/GPa)
#
#
# Indices 1 2 3 4 5 6 
#
# 1 0.014497 0.002888 -0.002081 0.000000 0.000000 -0.003080
# 2 0.002888 0.014497 -0.002081 0.000000 0.000000 0.003080
# 3 -0.002081 -0.002081 0.008882 0.000000 0.000000 0.000000
# 4 0.000000 0.000000 0.000000 0.058893 0.000000 0.000000
# 5 0.000000 0.000000 0.000000 0.000000 0.058893 0.000000
# 6 -0.003080 0.003080 0.000000 0.000000 0.000000 0.028720
#
#
# Mechanical properties :
#
#
# Convention : Reuss Voigt Hill
#
# Bulk Modulus (GPa) = 28.30525 33.13981 30.72253
# Shear Modulus (GPa) = 25.16257 31.38892 28.27574
#
# Velocity S-wave (km/s) = 3.27026 3.65252 3.46666
# Velocity P-wave (km/s) = 5.12736 5.64562 5.39272
#
# Compressibility (1/GPa) = 0.03532914
#
# Stress axis : x y z
#
# Youngs Moduli (GPa) = 68.97779 68.97779 112.58132
#
# Poissons Ratio (x) = -0.19924 0.23431
# Poissons Ratio (y) = -0.19924 0.23431
# Poissons Ratio (z) = 0.14356 0.14356
#
# Static dielectric constant tensor:
#      x y z
#    x 2.026840 0.000000 0.000000 
#    y 0.000000 2.026840 0.000000 
#    z 0.000000 0.000000 1.901700 
# 
# From -- ./inp_files/3383.got.cif
#   From: 2010.05.17/outbox.cif.g08.bks.cpg/sg82_2_cif.got.tgz:3383.got - 2010.06.03 18:52:26.
