data_PCOD9543171
_publ_section_title
;
Structure prediction by ZEFSAII (Michael W. Deem and Ramdas Pophale) SiO2 
 PCOD9543171
Probable space group: I -4 
;
_chemical_formula_sum "Si O2"
_cell_formula_units_Z 36
_cell_length_a 12.651443
_cell_length_b 12.651443
_cell_length_c 9.792458
_cell_angle_alpha 90.000000
_cell_angle_beta 90.000000
_cell_angle_gamma 90.000000
_cell_volume 1567.371133
_symmetry_space_group_name_H-M "I -4 "
_symmetry_group_IT_number 82
_symmetry_cell_setting 'tetragonal'
loop_
_space_group_symop_operation_xyz
x,y,z
y,-x,-z
-x,-y,z
-y,x,-z
1/2+x,1/2+y,1/2+z
1/2+y,1/2-x,1/2-z
1/2-x,1/2-y,1/2+z
1/2-y,1/2+x,1/2-z
loop_
_atom_site_type_symbol
_atom_site_label
_atom_site_fract_x
_atom_site_fract_y
_atom_site_fract_z
Si Si1 0.094575 0.150394 0.322712
Si Si2 0.000000 0.500000 0.250000
Si Si3 0.319830 0.932870 0.915692
Si Si4 0.687233 0.445750 0.678580
Si Si5 0.000000 0.000000 0.000000
Si Si6 0.305679 0.361641 0.094333
O O1 0.157440 0.046799 0.271184
O O2 0.157064 0.191422 0.454393
O O3 0.084453 0.225743 0.192496
O O4 0.975156 0.137883 0.380894
O O5 0.015097 0.599922 0.151559
O O6 0.180989 0.377123 0.082538
O O7 0.277079 0.960992 0.065200
O O8 0.580035 0.432081 0.590075
O O9 0.705292 0.345923 0.776256
#
# Coordination Sequence:
#
# PCOD9543171 Si02
#       6
#     8   2   8   8   2   8
#     4  12  24  42  74 108 143 188 242 308 377 444
#     4  12  28  52  68  98 152 212 252 302 392 472
#     4  12  27  47  72 101 147 204 246 302 380 470
#     4  12  23  41  72 109 145 183 249 312 371 445
#     4  12  20  36  70 112 136 172 238 312 356 424
#     4  12  24  44  71 109 148 186 236 312 381 446
#
# _framework density 22.968398000000001
#
# number of rings (size 3 to 8) (size 9 to 14) (size 15 to 20)
#    0.000    0.000    8.889    1.333    0.000    1.778 
#    0.000    0.000    0.000    1.333    0.000    0.000 
#    0.000    0.000    0.000    0.000    0.000    0.000 
#
# Total GULP energy -100641.436680 kJ/mol
# GULP energy per Si atom -5591.190927 kJ/mol
# Density = 2.291612 g / cm^3
# Si number density = 22.968398 Si / 1000 Ang^3
#
#
#
# Elastic Constant Matrix: (Units=GPa)
#
#
# Indices 1 2 3 4 5 6 
#
# 1 60.8742 -5.8158 22.5850 0.0000 0.0000 6.1331
# 2 -5.8158 60.8742 22.5850 0.0000 0.0000 -6.1331
# 3 22.5850 22.5850 138.5339 0.0000 0.0000 0.0000
# 4 0.0000 0.0000 0.0000 30.7069 0.0000 0.0000
# 5 0.0000 0.0000 0.0000 0.0000 30.7069 0.0000
# 6 6.1331 -6.1331 0.0000 0.0000 0.0000 18.4913
#
#
#
# Elastic Compliance Matrix: (Units=1/GPa)
#
#
# Indices 1 2 3 4 5 6 
#
# 1 0.018468 0.002499 -0.003418 0.000000 0.000000 -0.005297
# 2 0.002499 0.018468 -0.003418 0.000000 0.000000 0.005297
# 3 -0.003418 -0.003418 0.008333 0.000000 0.000000 0.000000
# 4 0.000000 0.000000 0.000000 0.032566 0.000000 0.000000
# 5 0.000000 0.000000 0.000000 0.000000 0.032566 0.000000
# 6 -0.005297 0.005297 0.000000 0.000000 0.000000 0.057593
#
#
# Mechanical properties :
#
#
# Convention : Reuss Voigt Hill
#
# Bulk Modulus (GPa) = 27.32699 37.66562 32.49630
# Shear Modulus (GPa) = 26.47369 30.70953 28.59161
#
# Velocity S-wave (km/s) = 3.39870 3.66051 3.53203
# Velocity P-wave (km/s) = 5.22733 5.85665 5.55092
#
# Compressibility (1/GPa) = 0.03659386
#
# Stress axis : x y z
#
# Youngs Moduli (GPa) = 54.14803 54.14803 120.00510
#
# Poissons Ratio (x) = -0.13531 0.41020
# Poissons Ratio (y) = -0.13531 0.41020
# Poissons Ratio (z) = 0.18509 0.18509
#
# Static dielectric constant tensor:
#      x y z
#    x 1.888660 0.000000 0.000000 
#    y 0.000000 1.888660 0.000000 
#    z 0.000000 0.000000 1.862150 
# 
# From -- ./inp_files/882.got.cif
#   From: 2010.05.17/outbox.cif.g08.bks.cpg/sg82_1_cif.got.tgz:882.got - 2010.06.03 18:52:26.
