data_PCOD9543401
_publ_section_title
;
Structure prediction by ZEFSAII (Michael W. Deem and Ramdas Pophale) SiO2 
 PCOD9543401
Probable space group: P 4/M
;
_chemical_formula_sum "Si O2"
_cell_formula_units_Z 36
_cell_length_a 15.530292
_cell_length_b 15.530292
_cell_length_c 7.810548
_cell_angle_alpha 90.000000
_cell_angle_beta 90.000000
_cell_angle_gamma 90.000000
_cell_volume 1883.825835
_symmetry_space_group_name_H-M "P 4/M"
_symmetry_group_IT_number 83
_symmetry_cell_setting 'tetragonal'
loop_
_space_group_symop_operation_xyz
x,y,z
-y,x,z
-x,-y,z
y,-x,z
-x,-y,-z
y,-x,-z
x,y,-z
-y,x,-z
loop_
_atom_site_type_symbol
_atom_site_label
_atom_site_fract_x
_atom_site_fract_y
_atom_site_fract_z
Si Si1 0.752778 0.632795 0.299758
Si Si2 0.627656 0.570088 0.000000
Si Si3 0.982515 0.243653 0.803513
Si Si4 0.841738 0.810752 0.696358
Si Si5 0.576615 0.063337 0.792145
O O1 0.726027 0.633754 0.500000
O O2 0.681627 0.598920 0.167766
O O3 0.783590 0.729562 0.246521
O O4 0.840389 0.576735 0.281113
O O5 0.533015 0.613166 0.000000
O O6 0.067860 0.185248 0.794254
O O7 0.016971 0.335141 0.738542
O O8 0.900478 0.207028 0.708541
O O9 0.955798 0.254462 0.000000
O O10 0.863994 0.792141 0.500000
O O11 0.500000 0.000000 0.743247
O O12 0.577440 0.071714 0.000000
#
# Coordination Sequence:
#
# PCOD9543401 Si02
#       5
#     8   4   8   8   8
#     4  10  22  41  65  91 123 161 201 247 301 362
#     4  11  26  46  67  90 120 157 199 252 308 362
#     4  10  20  33  55  82 114 156 200 244 290 350
#     4  10  21  37  56  83 121 158 197 244 294 347
#     4   9  18  35  59  90 123 155 197 249 304 358
#
# _framework density 19.110047000000002
#
# number of rings (size 3 to 8) (size 9 to 14) (size 15 to 20)
#    0.000    2.111    1.111    1.333    3.111    4.444 
#    0.000    5.556    0.000    0.000    0.000    0.000 
#    0.000    0.000    0.000    0.000    0.000    0.000 
#
# Total GULP energy -200884.067430 kJ/mol
# GULP energy per Si atom -5580.112984 kJ/mol
# Density = 1.906655 g / cm^3
# Si number density = 19.110047 Si / 1000 Ang^3
#
#
#
# Elastic Constant Matrix: (Units=GPa)
#
#
# Indices 1 2 3 4 5 6 
#
# 1 104.2585 66.0788 43.0164 0.0000 0.0000 13.9938
# 2 66.0788 104.2585 43.0164 0.0000 0.0000 -13.9938
# 3 43.0164 43.0164 81.9639 0.0000 0.0000 0.0000
# 4 0.0000 0.0000 0.0000 17.9529 0.0000 0.0000
# 5 0.0000 0.0000 0.0000 0.0000 17.9529 0.0000
# 6 13.9938 -13.9938 0.0000 0.0000 0.0000 30.2368
#
#
#
# Elastic Compliance Matrix: (Units=1/GPa)
#
#
# Indices 1 2 3 4 5 6 
#
# 1 0.023814 -0.015826 -0.004192 0.000000 0.000000 -0.018346
# 2 -0.015826 0.023814 -0.004192 0.000000 0.000000 0.018346
# 3 -0.004192 -0.004192 0.016601 0.000000 0.000000 0.000000
# 4 0.000000 0.000000 0.000000 0.055701 0.000000 0.000000
# 5 0.000000 0.000000 0.000000 0.000000 0.055701 0.000000
# 6 -0.018346 0.018346 0.000000 0.000000 0.000000 0.050054
#
#
# Mechanical properties :
#
#
# Convention : Reuss Voigt Hill
#
# Bulk Modulus (GPa) = 63.25965 66.07822 64.66894
# Shear Modulus (GPa) = 17.89697 22.45313 20.17505
#
# Velocity S-wave (km/s) = 3.06358 3.43146 3.25272
# Velocity P-wave (km/s) = 6.75935 7.09596 6.92970
#
# Compressibility (1/GPa) = 0.01580786
#
# Stress axis : x y z
#
# Youngs Moduli (GPa) = 41.99154 41.99154 60.23749
#
# Poissons Ratio (x) = 0.66457 0.25254
# Poissons Ratio (y) = 0.66457 0.25254
# Poissons Ratio (z) = 0.17604 0.17604
#
# Static dielectric constant tensor:
#      x y z
#    x 1.656260 0.000000 0.000000 
#    y 0.000000 1.656260 0.000000 
#    z 0.000000 0.000000 1.666400 
# 
# From -- ./inp_files/548.got.cif
#   From: 2010.05.17/outbox.cif.g08.bks.cpg/sg83_1_cif.got.tgz:548.got - 2010.06.03 18:55:12.
