data_PCOD9543114
_publ_section_title
;
Structure prediction by ZEFSAII (Michael W. Deem and Ramdas Pophale) SiO2 
 PCOD9543114
Probable space group: I -4 
;
_chemical_formula_sum "Si O2"
_cell_formula_units_Z 48
_cell_length_a 20.248561
_cell_length_b 20.248561
_cell_length_c 5.361091
_cell_angle_alpha 90.000000
_cell_angle_beta 90.000000
_cell_angle_gamma 90.000000
_cell_volume 2198.069948
_symmetry_space_group_name_H-M "I -4 "
_symmetry_group_IT_number 82
_symmetry_cell_setting 'tetragonal'
loop_
_space_group_symop_operation_xyz
x,y,z
y,-x,-z
-x,-y,z
-y,x,-z
1/2+x,1/2+y,1/2+z
1/2+y,1/2-x,1/2-z
1/2-x,1/2-y,1/2+z
1/2-y,1/2+x,1/2-z
loop_
_atom_site_type_symbol
_atom_site_label
_atom_site_fract_x
_atom_site_fract_y
_atom_site_fract_z
Si Si1 0.905346 0.446442 0.742628
Si Si2 0.690528 0.465085 0.322877
Si Si3 0.241645 0.293264 0.327069
Si Si4 0.409344 0.167197 0.753119
Si Si5 0.896278 0.144403 0.047297
Si Si6 0.907369 0.025119 0.431510
O O1 0.915335 0.523857 0.696992
O O2 0.879796 0.416245 0.485018
O O3 0.860275 0.435715 0.984601
O O4 0.767047 0.449632 0.320619
O O5 0.670028 0.528105 0.496750
O O6 0.654111 0.394209 0.363305
O O7 0.663087 0.486733 0.053052
O O8 0.243260 0.251142 0.583514
O O9 0.167545 0.318406 0.292866
O O10 0.294235 0.353260 0.350188
O O11 0.905999 0.083949 0.239122
O O12 0.957887 0.055777 0.642399
#
# Coordination Sequence:
#
# PCOD9543114 Si02
#       6
#     8   8   8   8   8   8
#     4  11  27  51  79 106 144 185 240 312 383 436
#     4  11  24  42  65 103 142 188 247 296 358 437
#     4  12  26  48  71 103 149 196 238 293 370 428
#     4  12  26  47  74 112 145 189 247 300 362 458
#     4  11  24  41  68  99 138 195 232 308 353 435
#     4   9  19  38  63  93 134 184 238 292 347 411
#
# _framework density 21.837337999999999
#
# number of rings (size 3 to 8) (size 9 to 14) (size 15 to 20)
#    0.000    1.000    1.667    4.000    7.000    3.000 
#    0.000    0.000    0.000    0.000    0.000    0.000 
#    0.000    0.000    0.000    0.000    0.000    0.000 
#
# Total GULP energy -133934.414576 kJ/mol
# GULP energy per Si atom -5580.600607 kJ/mol
# Density = 2.178764 g / cm^3
# Si number density = 21.837338 Si / 1000 Ang^3
#
#
#
# Elastic Constant Matrix: (Units=GPa)
#
#
# Indices 1 2 3 4 5 6 
#
# 1 67.2673 84.4030 22.6512 0.0000 0.0000 17.5871
# 2 84.4030 67.2673 22.6512 0.0000 0.0000 -17.5871
# 3 22.6512 22.6512 87.8401 0.0000 0.0000 0.0000
# 4 0.0000 0.0000 0.0000 34.1098 0.0000 0.0000
# 5 0.0000 0.0000 0.0000 0.0000 34.1098 0.0000
# 6 17.5871 -17.5871 0.0000 0.0000 0.0000 21.0537
#
#
#
# Elastic Compliance Matrix: (Units=1/GPa)
#
#
# Indices 1 2 3 4 5 6 
#
# 1 -0.007177 0.014320 -0.001842 0.000000 0.000000 0.017957
# 2 0.014320 -0.007177 -0.001842 0.000000 0.000000 -0.017957
# 3 -0.001842 -0.001842 0.012334 0.000000 0.000000 0.000000
# 4 0.000000 0.000000 0.000000 0.029317 0.000000 0.000000
# 5 0.000000 0.000000 0.000000 0.000000 0.029317 0.000000
# 6 0.017957 -0.017957 0.000000 0.000000 0.000000 0.017497
#
#
# Mechanical properties :
#
#
# Convention : Reuss Voigt Hill
#
# Bulk Modulus (GPa) = 51.94007 53.53175 52.73591
# Shear Modulus (GPa) = 84.37787 24.03259 54.20523
#
# Velocity S-wave (km/s) = 6.22279 3.32102 4.98760
# Velocity P-wave (km/s) = 8.68720 6.26679 7.57430
#
# Compressibility (1/GPa) = 0.01925296
#
# Stress axis : x y z
#
# Youngs Moduli (GPa) = -139.33933 -139.33933 81.07442
#
# Poissons Ratio (x) = 1.99536 0.14935
# Poissons Ratio (y) = 1.99536 0.14935
# Poissons Ratio (z) = -0.25667 -0.25667
#
# Static dielectric constant tensor:
#      x y z
#    x 1.818950 0.000000 0.000000 
#    y 0.000000 1.818950 0.000000 
#    z 0.000000 0.000000 1.837930 
# 
# From -- ./inp_files/357.got.cif
#   From: 2010.05.17/outbox.cif.g08.bks.cpg/sg82_1_cif.got.tgz:357.got - 2010.06.03 18:52:26.
