data_PCOD9543935
_publ_section_title
;
Structure prediction by ZEFSAII (Michael W. Deem and Ramdas Pophale) SiO2 
 PCOD9543935
Probable space group: P 4/M
;
_chemical_formula_sum "Si O2"
_cell_formula_units_Z 48
_cell_length_a 9.000000
_cell_length_b 9.000000
_cell_length_c 30.000000
_cell_angle_alpha 90.000000
_cell_angle_beta 90.000000
_cell_angle_gamma 90.000000
_cell_volume 2430.000000
_symmetry_space_group_name_H-M "P 4/M"
_symmetry_group_IT_number 83
_symmetry_cell_setting 'tetragonal'
loop_
_space_group_symop_operation_xyz
x,y,z
-y,x,z
-x,-y,z
y,-x,z
-x,-y,-z
y,-x,-z
x,y,-z
-y,x,-z
loop_
_atom_site_type_symbol
_atom_site_label
_atom_site_fract_x
_atom_site_fract_y
_atom_site_fract_z
Si Si1 0.265543 0.413644 0.877062
Si Si2 0.089298 0.234703 0.051633
Si Si3 0.247049 0.960190 0.286916
Si Si4 0.037461 0.752610 0.389866
Si Si5 0.421994 0.739601 0.772315
Si Si6 0.427144 0.260478 0.553062
O O1 0.415694 0.315879 0.883772
O O2 0.145253 0.352854 0.912025
O O3 0.220916 0.402495 0.824826
O O4 0.917722 0.184807 0.057185
O O5 0.108557 0.284798 0.000000
O O6 0.376381 0.879499 0.258504
O O7 0.115393 0.838393 0.277910
O O8 0.291676 0.998412 0.338401
O O9 0.117436 0.621933 0.417959
O O10 0.883296 0.839804 0.398953
O O11 0.319150 0.591400 0.764839
O O12 0.594952 0.320879 0.561791
O O13 0.416432 0.227355 0.500000
#
# Coordination Sequence:
#
# PCOD9543935 Si02
#       6
#     8   8   8   8   8   8
#     4   9  19  35  54  79 111 144 181 230 285 339
#     4   9  19  35  52  74 109 150 190 232 278 332
#     4   9  19  37  55  77 111 147 183 227 277 329
#     4   9  19  37  55  79 116 152 187 228 274 327
#     4   9  19  37  59  83 111 142 182 233 286 341
#     4   9  19  37  61  90 122 153 189 234 280 328
#
# _framework density 19.753086
#
# number of rings (size 3 to 8) (size 9 to 14) (size 15 to 20)
#    0.000    3.000    0.000    3.000    0.000    4.667 
#    0.000   26.667    0.000    8.000    0.000    0.000 
#    0.000    0.000    0.000    0.000    0.000    0.000 
#
# Total GULP energy -267288.087929 kJ/mol
# GULP energy per Si atom -5568.501832 kJ/mol
# Density = 1.970813 g / cm^3
# Si number density = 19.753086 Si / 1000 Ang^3
#
#
#
# Elastic Constant Matrix: (Units=GPa)
#
#
# Indices 1 2 3 4 5 6 
#
# 1 58.0466 48.4618 62.3342 0.0000 0.0000 -0.2367
# 2 48.4618 58.0466 62.3342 0.0000 0.0000 0.2367
# 3 62.3342 62.3342 105.1294 0.0000 0.0000 0.0000
# 4 0.0000 0.0000 0.0000 16.9142 0.0000 0.0000
# 5 0.0000 0.0000 0.0000 0.0000 16.9142 0.0000
# 6 -0.2367 0.2367 0.0000 0.0000 0.0000 54.2040
#
#
#
# Elastic Compliance Matrix: (Units=1/GPa)
#
#
# Indices 1 2 3 4 5 6 
#
# 1 0.067520 -0.036835 -0.018194 0.000000 0.000000 0.000456
# 2 -0.036835 0.067520 -0.018194 0.000000 0.000000 -0.000456
# 3 -0.018194 -0.018194 0.031088 0.000000 0.000000 0.000000
# 4 0.000000 0.000000 0.000000 0.059122 0.000000 0.000000
# 5 0.000000 0.000000 0.000000 0.000000 0.059122 0.000000
# 6 0.000456 -0.000456 0.000000 0.000000 0.000000 0.018453
#
#
# Mechanical properties :
#
#
# Convention : Reuss Voigt Hill
#
# Bulk Modulus (GPa) = 50.80886 63.05367 56.93126
# Shear Modulus (GPa) = 10.96900 20.81264 15.89082
#
# Velocity S-wave (km/s) = 2.35905 3.24950 2.83940
# Velocity P-wave (km/s) = 5.76177 6.78743 6.29552
#
# Compressibility (1/GPa) = 0.01968161
#
# Stress axis : x y z
#
# Youngs Moduli (GPa) = 14.81048 14.81048 32.16714
#
# Poissons Ratio (x) = 0.54554 0.58525
# Poissons Ratio (y) = 0.54554 0.58525
# Poissons Ratio (z) = 0.26946 0.26946
#
# Static dielectric constant tensor:
#      x y z
#    x 1.724710 0.000000 0.000000 
#    y 0.000000 1.724710 0.000000 
#    z 0.000000 0.000000 1.692850 
# 
# From -- ./inp_files/3423.got.cif
#   From: 2010.05.17/outbox.ucp.g08.bks.cvg/sg83_2_cif.got.tgz:3423.got - 2010.06.11 10:34:49.
