data_PCOD9543327
_publ_section_title
;
Structure prediction by ZEFSAII (Michael W. Deem and Ramdas Pophale) SiO2 
 PCOD9543327
Probable space group: P 4/M
;
_chemical_formula_sum "Si O2"
_cell_formula_units_Z 64
_cell_length_a 11.852232
_cell_length_b 11.852232
_cell_length_c 25.081829
_cell_angle_alpha 90.000000
_cell_angle_beta 90.000000
_cell_angle_gamma 90.000000
_cell_volume 3523.380046
_symmetry_space_group_name_H-M "P 4/M"
_symmetry_group_IT_number 83
_symmetry_cell_setting 'tetragonal'
loop_
_space_group_symop_operation_xyz
x,y,z
-y,x,z
-x,-y,z
y,-x,z
-x,-y,-z
y,-x,-z
x,y,-z
-y,x,-z
loop_
_atom_site_type_symbol
_atom_site_label
_atom_site_fract_x
_atom_site_fract_y
_atom_site_fract_z
Si Si1 0.978495 0.179359 0.063923
Si Si2 0.451221 0.321538 0.291546
Si Si3 0.397592 0.088141 0.875916
Si Si4 0.539221 0.685606 0.937107
Si Si5 0.996461 0.361973 0.645573
Si Si6 0.606636 0.767752 0.406674
Si Si7 0.610181 0.921870 0.755928
Si Si8 0.638175 0.178742 0.442025
O O1 0.958701 0.301487 0.086021
O O2 0.095320 0.121755 0.081057
O O3 0.978600 0.181352 0.000000
O O4 0.576666 0.365552 0.278376
O O5 0.439316 0.298329 0.354669
O O6 0.422984 0.203162 0.264116
O O7 0.437272 0.209601 0.898372
O O8 0.346713 0.091863 0.815968
O O9 0.500000 0.000000 0.876826
O O10 0.415869 0.629355 0.928863
O O11 0.546569 0.719058 0.000000
O O12 0.881707 0.334827 0.614673
O O13 0.981593 0.322887 0.706896
O O14 0.000000 0.500000 0.648443
O O15 0.102152 0.328745 0.609047
O O16 0.699170 0.694383 0.436223
O O17 0.496496 0.804266 0.438919
O O18 0.500000 0.000000 0.761507
O O19 0.667187 0.128539 0.500000
#
# Coordination Sequence:
#
# PCOD9543327 Si02
#       8
#     8   8   8   8   8   8   8   8
#     4   9  20  40  62  83 111 149 192 237 288 348
#     4  10  19  34  57  81 108 147 189 220 271 343
#     4  11  23  36  56  89 118 146 192 249 298 340
#     4   9  20  38  58  83 122 166 198 232 285 347
#     4   8  18  36  55  69 100 145 186 216 255 322
#     4  10  19  33  50  78 109 136 172 222 268 319
#     4   9  20  38  53  77 111 148 187 236 275 315
#     4  11  21  32  52  80 110 141 173 217 274 333
#
# _framework density 18.164375
#
# number of rings (size 3 to 8) (size 9 to 14) (size 15 to 20)
#    0.000    2.375    1.250    2.250    1.750    5.000 
#    2.250    1.875    0.000    0.375    0.000    0.875 
#    0.000    0.000    0.000    0.000    0.000    0.000 
#
# Total GULP energy -356596.710588 kJ/mol
# GULP energy per Si atom -5571.823603 kJ/mol
# Density = 1.812303 g / cm^3
# Si number density = 18.164375 Si / 1000 Ang^3
#
#
#
# Elastic Constant Matrix: (Units=GPa)
#
#
# Indices 1 2 3 4 5 6 
#
# 1 66.1162 23.6320 33.5285 0.0000 0.0000 8.0540
# 2 23.6320 66.1162 33.5285 0.0000 0.0000 -8.0540
# 3 33.5285 33.5285 90.8280 0.0000 0.0000 0.0000
# 4 0.0000 0.0000 0.0000 -23.9287 0.0000 0.0000
# 5 0.0000 0.0000 0.0000 0.0000 -23.9287 0.0000
# 6 8.0540 -8.0540 0.0000 0.0000 0.0000 0.0024
#
#
#
# Elastic Compliance Matrix: (Units=1/GPa)
#
#
# Indices 1 2 3 4 5 6 
#
# 1 0.007684 0.007702 -0.005680 0.000000 0.000000 0.062130
# 2 0.007702 0.007684 -0.005680 0.000000 0.000000 -0.062130
# 3 -0.005680 -0.005680 0.015203 0.000000 0.000000 0.000000
# 4 0.000000 0.000000 0.000000 -0.041791 0.000000 0.000000
# 5 0.000000 0.000000 0.000000 0.000000 -0.041791 0.000000
# 6 0.062130 -0.062130 0.000000 0.000000 0.000000 -0.327731
#
#
# Mechanical properties :
#
#
# Convention : Reuss Voigt Hill
#
# Bulk Modulus (GPa) = 42.99891 44.93760 43.96825
# Shear Modulus (GPa) = -13.67331 -0.74624 -7.20977
#
# Velocity S-wave (km/s) = -2.74661 -0.64165 -1.99444
# Velocity P-wave (km/s) = 3.69662 4.92384 4.35369
#
# Compressibility (1/GPa) = 0.02325640
#
# Stress axis : x y z
#
# Youngs Moduli (GPa) = 130.14582 130.14582 65.77660
#
# Poissons Ratio (x) = -1.00241 0.37358
# Poissons Ratio (y) = -1.00241 0.37358
# Poissons Ratio (z) = 0.73917 0.73917
#
# Static dielectric constant tensor:
#      x y z
#    x 1.613480 0.000000 0.000000 
#    y 0.000000 1.613480 0.000000 
#    z 0.000000 0.000000 1.669990 
# 
# From -- ./inp_files/3206.got.cif
#   From: 2010.05.17/outbox.cif.g08.bks.cpg/sg83_2_cif.got.tgz:3206.got - 2010.06.03 18:55:12.
