data_PCOD9543594
_publ_section_title
;
Structure prediction by ZEFSAII (Michael W. Deem and Ramdas Pophale) SiO2 
 PCOD9543594
Probable space group: P 4/M
;
_chemical_formula_sum "Si O2"
_cell_formula_units_Z 40
_cell_length_a 14.350091
_cell_length_b 14.350091
_cell_length_c 8.906076
_cell_angle_alpha 90.000000
_cell_angle_beta 90.000000
_cell_angle_gamma 90.000000
_cell_volume 1833.984695
_symmetry_space_group_name_H-M "P 4/M"
_symmetry_group_IT_number 83
_symmetry_cell_setting 'tetragonal'
loop_
_space_group_symop_operation_xyz
x,y,z
-y,x,z
-x,-y,z
y,-x,z
-x,-y,-z
y,-x,-z
x,y,-z
-y,x,-z
loop_
_atom_site_type_symbol
_atom_site_label
_atom_site_fract_x
_atom_site_fract_y
_atom_site_fract_z
Si Si1 0.797293 0.642389 0.179132
Si Si2 0.177229 0.717297 0.327918
Si Si3 0.905271 0.123298 0.834752
Si Si4 0.007046 0.611190 0.177230
Si Si5 0.474966 0.650918 0.679639
O O1 0.733883 0.726819 0.239495
O O2 0.905741 0.650552 0.228094
O O3 0.747298 0.549631 0.241051
O O4 0.797559 0.639929 0.000000
O O5 0.196614 0.693872 0.500000
O O6 0.131623 0.818752 0.303263
O O7 0.098054 0.650122 0.260182
O O8 0.016656 0.125083 0.831647
O O9 0.874787 0.161094 0.000000
O O10 0.000000 0.500000 0.193387
O O11 0.016671 0.633010 0.000000
O O12 0.397280 0.572775 0.718388
O O13 0.472730 0.663751 0.500000
#
# Coordination Sequence:
#
# PCOD9543594 Si02
#       5
#     8   8   8   8   8
#     4  11  24  41  66  96 129 173 222 273 328 391
#     4  12  25  39  59  89 124 165 210 260 319 388
#     4   9  18  34  57  83 113 152 198 250 307 364
#     4  10  24  46  68  93 128 169 218 276 333 392
#     4   9  20  40  65  95 133 171 209 264 331 395
#
# _framework density 21.810433
#
# number of rings (size 3 to 8) (size 9 to 14) (size 15 to 20)
#    0.000    1.800    0.000    4.800    2.800    8.400 
#    0.000    2.000    0.000    0.000    0.000    0.000 
#    0.000    0.000    0.000    0.000    0.000    0.000 
#
# Total GULP energy -223499.383598 kJ/mol
# GULP energy per Si atom -5587.484590 kJ/mol
# Density = 2.176079 g / cm^3
# Si number density = 21.810433 Si / 1000 Ang^3
#
#
#
# Elastic Constant Matrix: (Units=GPa)
#
#
# Indices 1 2 3 4 5 6 
#
# 1 55.3175 53.8230 20.9171 0.0000 0.0000 14.2236
# 2 53.8230 55.3175 20.9171 0.0000 0.0000 -14.2236
# 3 20.9171 20.9171 47.4334 0.0000 0.0000 0.0000
# 4 0.0000 0.0000 0.0000 -8.0716 0.0000 0.0000
# 5 0.0000 0.0000 0.0000 0.0000 -8.0716 0.0000
# 6 14.2236 -14.2236 0.0000 0.0000 0.0000 38.5174
#
#
#
# Elastic Compliance Matrix: (Units=1/GPa)
#
#
# Indices 1 2 3 4 5 6 
#
# 1 -0.049978 0.061004 -0.004862 0.000000 0.000000 0.040983
# 2 0.061004 -0.049978 -0.004862 0.000000 0.000000 -0.040983
# 3 -0.004862 -0.004862 0.025371 0.000000 0.000000 0.000000
# 4 0.000000 0.000000 0.000000 -0.123891 0.000000 0.000000
# 5 0.000000 0.000000 0.000000 0.000000 -0.123891 0.000000
# 6 0.040983 -0.040983 0.000000 0.000000 0.000000 -0.004306
#
#
# Mechanical properties :
#
#
# Convention : Reuss Voigt Hill
#
# Bulk Modulus (GPa) = 35.74786 38.82033 37.28409
# Shear Modulus (GPa) = -11.90736 8.63559 -1.63588
#
# Velocity S-wave (km/s) = -2.33909 1.99198 -0.86699
# Velocity P-wave (km/s) = 3.02171 4.80918 4.01615
#
# Compressibility (1/GPa) = 0.02797371
#
# Stress axis : x y z
#
# Youngs Moduli (GPa) = -20.00880 -20.00880 39.41580
#
# Poissons Ratio (x) = 1.22062 0.19165
# Poissons Ratio (y) = 1.22062 0.19165
# Poissons Ratio (z) = -0.09729 -0.09729
#
# Static dielectric constant tensor:
#      x y z
#    x 1.822490 0.000000 0.000000 
#    y 0.000000 1.822490 0.000000 
#    z 0.000000 0.000000 1.756470 
# 
# From -- ./inp_files/688.got.cif
#   From: 2010.05.17/outbox.cif.g08.bks.cpg/sg83_1_cif.got.tgz:688.got - 2010.06.03 18:55:12.
