data_PCOD9543923
_publ_section_title
;
Structure prediction by ZEFSAII (Michael W. Deem and Ramdas Pophale) SiO2 
 PCOD9543923
Probable space group: P 4/M
;
_chemical_formula_sum "Si O2"
_cell_formula_units_Z 40
_cell_length_a 11.393254
_cell_length_b 11.393254
_cell_length_c 16.216461
_cell_angle_alpha 90.000000
_cell_angle_beta 90.000000
_cell_angle_gamma 90.000000
_cell_volume 2104.997775
_symmetry_space_group_name_H-M "P 4/M"
_symmetry_group_IT_number 83
_symmetry_cell_setting 'tetragonal'
loop_
_space_group_symop_operation_xyz
x,y,z
-y,x,z
-x,-y,z
y,-x,z
-x,-y,-z
y,-x,-z
x,y,-z
-y,x,-z
loop_
_atom_site_type_symbol
_atom_site_label
_atom_site_fract_x
_atom_site_fract_y
_atom_site_fract_z
Si Si1 0.065578 0.608131 0.795282
Si Si2 0.079561 0.822181 0.096617
Si Si3 0.335383 0.389454 0.408107
Si Si4 0.179392 0.390735 0.255908
Si Si5 0.325355 0.404264 0.092515
O O1 0.114244 0.709937 0.850873
O O2 0.157074 0.532852 0.742660
O O3 0.000000 0.500000 0.844861
O O4 0.954196 0.655980 0.743975
O O5 0.942301 0.851111 0.113019
O O6 0.091066 0.796438 0.000000
O O7 0.468882 0.344981 0.402241
O O8 0.290913 0.359755 0.500000
O O9 0.255322 0.349877 0.332534
O O10 0.243675 0.370131 0.168776
O O11 0.454918 0.347381 0.098307
O O12 0.278547 0.378966 0.000000
#
# Coordination Sequence:
#
# PCOD9543923 Si02
#       5
#     8   8   8   8   8
#     4   8  21  34  42  68  95 116 158 194 247 287
#     4   9  18  33  51  67  87 124 172 216 250 278
#     4   9  17  29  48  75 101 125 157 191 226 283
#     4   9  18  31  44  62  94 127 156 189 244 288
#     4   9  17  27  40  63  93 125 159 185 216 275
#
# _framework density 19.002395
#
# number of rings (size 3 to 8) (size 9 to 14) (size 15 to 20)
#    1.200    1.800    0.000    3.000    0.000    6.800 
#    0.000    6.000    0.000    0.000    0.000    0.000 
#    0.000    0.000    0.000    8.800    0.000    0.000 
#
# Total GULP energy -222724.474310 kJ/mol
# GULP energy per Si atom -5568.111858 kJ/mol
# Density = 1.895914 g / cm^3
# Si number density = 19.002395 Si / 1000 Ang^3
#
#
#
# Elastic Constant Matrix: (Units=GPa)
#
#
# Indices 1 2 3 4 5 6 
#
# 1 53.3900 -6.0380 16.7389 0.0000 0.0000 -5.7314
# 2 -6.0380 53.3900 16.7389 0.0000 0.0000 5.7314
# 3 16.7389 16.7389 90.7036 0.0000 0.0000 0.0000
# 4 0.0000 0.0000 0.0000 -13.1158 0.0000 0.0000
# 5 0.0000 0.0000 0.0000 0.0000 -13.1158 0.0000
# 6 -5.7314 5.7314 0.0000 0.0000 0.0000 11.9770
#
#
#
# Elastic Compliance Matrix: (Units=1/GPa)
#
#
# Indices 1 2 3 4 5 6 
#
# 1 0.021413 0.002875 -0.004482 0.000000 0.000000 0.008871
# 2 0.002875 0.021413 -0.004482 0.000000 0.000000 -0.008871
# 3 -0.004482 -0.004482 0.012679 0.000000 0.000000 0.000000
# 4 0.000000 0.000000 0.000000 -0.076244 0.000000 0.000000
# 5 0.000000 0.000000 0.000000 0.000000 -0.076244 0.000000
# 6 0.008871 -0.008871 0.000000 0.000000 0.000000 0.091984
#
#
# Mechanical properties :
#
#
# Convention : Reuss Voigt Hill
#
# Bulk Modulus (GPa) = 23.08114 28.04034 25.56074
# Shear Modulus (GPa) = 231.25088 8.48533 119.86810
#
# Velocity S-wave (km/s) = 11.04354 2.11544 7.95094
# Velocity P-wave (km/s) = 13.22066 4.55577 9.88790
#
# Compressibility (1/GPa) = 0.04332542
#
# Stress axis : x y z
#
# Youngs Moduli (GPa) = 46.70114 46.70114 78.86917
#
# Poissons Ratio (x) = -0.13425 0.35350
# Poissons Ratio (y) = -0.13425 0.35350
# Poissons Ratio (z) = 0.20932 0.20932
#
# Static dielectric constant tensor:
#      x y z
#    x 1.705850 0.000000 0.000000 
#    y 0.000000 1.705850 0.000000 
#    z 0.000000 0.000000 1.646220 
# 
# From -- ./inp_files/2260.got.cif
#   From: 2010.05.17/outbox.cif.g08.bks.cpg/sg83_2_cif.got.tgz:2260.got - 2010.06.03 18:55:12.
