data_PCOD9543282
_publ_section_title
;
Structure prediction by ZEFSAII (Michael W. Deem and Ramdas Pophale) SiO2 
 PCOD9543282
Probable space group: P 4/M
;
_chemical_formula_sum "Si O2"
_cell_formula_units_Z 40
_cell_length_a 14.701105
_cell_length_b 14.701105
_cell_length_c 7.219024
_cell_angle_alpha 90.000000
_cell_angle_beta 90.000000
_cell_angle_gamma 90.000000
_cell_volume 1560.193429
_symmetry_space_group_name_H-M "P 4/M"
_symmetry_group_IT_number 83
_symmetry_cell_setting 'tetragonal'
loop_
_space_group_symop_operation_xyz
x,y,z
-y,x,z
-x,-y,z
y,-x,z
-x,-y,-z
y,-x,-z
x,y,-z
-y,x,-z
loop_
_atom_site_type_symbol
_atom_site_label
_atom_site_fract_x
_atom_site_fract_y
_atom_site_fract_z
Si Si1 0.359655 0.198601 0.773910
Si Si2 0.816029 0.701413 0.795620
Si Si3 0.606762 0.004020 0.223627
Si Si4 0.915257 0.880526 0.276930
Si Si5 0.477789 0.355251 0.775674
O O1 0.279265 0.266375 0.711173
O O2 0.451775 0.252694 0.721506
O O3 0.352881 0.093570 0.712906
O O4 0.355762 0.196083 0.000000
O O5 0.899185 0.645167 0.708299
O O6 0.862228 0.799817 0.812042
O O7 0.795750 0.660854 0.000000
O O8 0.500000 0.000000 0.261132
O O9 0.619899 0.006766 0.000000
O O10 0.909615 0.872655 0.500000
O O11 0.020961 0.877957 0.226253
O O12 0.572676 0.399841 0.717619
O O13 0.478268 0.355954 0.000000
#
# Coordination Sequence:
#
# PCOD9543282 Si02
#       5
#     8   8   8   8   8
#     4   9  17  26  40  61  88 122 159 193 234 286
#     4  10  19  30  46  69  96 125 157 196 236 281
#     4   9  18  29  41  61  93 128 158 191 238 290
#     4   9  18  32  49  68  91 121 157 196 237 281
#     4   8  14  23  36  55  82 117 154 193 237 282
#
# _framework density 25.637847000000001
#
# number of rings (size 3 to 8) (size 9 to 14) (size 15 to 20)
#    0.000    3.000    0.000    2.400    2.800    2.400 
#    0.000    1.000    0.000    0.600    0.000    0.000 
#    0.000    0.000    0.000    2.200    0.000    2.800 
#
# Total GULP energy -223399.063856 kJ/mol
# GULP energy per Si atom -5584.976596 kJ/mol
# Density = 2.557949 g / cm^3
# Si number density = 25.637847 Si / 1000 Ang^3
#
#
#
# Elastic Constant Matrix: (Units=GPa)
#
#
# Indices 1 2 3 4 5 6 
#
# 1 -22.2751 186.7446 1.7589 0.0000 0.0000 -104.6167
# 2 186.7446 -22.2751 1.7589 0.0000 0.0000 104.6167
# 3 1.7589 1.7589 116.9553 0.0000 0.0000 0.0000
# 4 0.0000 0.0000 0.0000 10.2664 0.0000 0.0000
# 5 0.0000 0.0000 0.0000 0.0000 10.2664 0.0000
# 6 -104.6167 104.6167 0.0000 0.0000 0.0000 -17.9938
#
#
#
# Elastic Compliance Matrix: (Units=1/GPa)
#
#
# Indices 1 2 3 4 5 6 
#
# 1 0.003537 0.002545 -0.000091 0.000000 0.000000 -0.005771
# 2 0.002545 0.003537 -0.000091 0.000000 0.000000 0.005771
# 3 -0.000091 -0.000091 0.008553 0.000000 0.000000 0.000000
# 4 0.000000 0.000000 0.000000 0.097405 0.000000 0.000000
# 5 0.000000 0.000000 0.000000 0.000000 0.097405 0.000000
# 6 -0.005771 0.005771 0.000000 0.000000 0.000000 0.011530
#
#
# Mechanical properties :
#
#
# Convention : Reuss Voigt Hill
#
# Bulk Modulus (GPa) = 49.13676 50.32557 49.73116
# Shear Modulus (GPa) = 22.31863 -7.34935 7.48464
#
# Velocity S-wave (km/s) = 2.95368 -1.69494 1.71047
# Velocity P-wave (km/s) = 5.55335 3.98015 4.83121
#
# Compressibility (1/GPa) = 0.02035136
#
# Stress axis : x y z
#
# Youngs Moduli (GPa) = 282.69779 282.69779 116.91770
#
# Poissons Ratio (x) = -0.71940 0.01069
# Poissons Ratio (y) = -0.71940 0.01069
# Poissons Ratio (z) = 0.02586 0.02586
#
# Static dielectric constant tensor:
#      x y z
#    x 1.996000 0.000000 0.000000 
#    y 0.000000 1.996000 0.000000 
#    z 0.000000 0.000000 2.000760 
# 
# From -- ./inp_files/664.got.cif
#   From: 2010.05.17/outbox.cif.g08.bks.cpg/sg83_1_cif.got.tgz:664.got - 2010.06.03 18:55:12.
