data_PCOD9543453
_publ_section_title
;
Structure prediction by ZEFSAII (Michael W. Deem and Ramdas Pophale) SiO2 
 PCOD9543453
Probable space group: P 4/M
;
_chemical_formula_sum "Si O2"
_cell_formula_units_Z 36
_cell_length_a 15.169157
_cell_length_b 15.169157
_cell_length_c 7.678812
_cell_angle_alpha 90.000000
_cell_angle_beta 90.000000
_cell_angle_gamma 90.000000
_cell_volume 1766.920166
_symmetry_space_group_name_H-M "P 4/M"
_symmetry_group_IT_number 83
_symmetry_cell_setting 'tetragonal'
loop_
_space_group_symop_operation_xyz
x,y,z
-y,x,z
-x,-y,z
y,-x,z
-x,-y,-z
y,-x,-z
x,y,-z
-y,x,-z
loop_
_atom_site_type_symbol
_atom_site_label
_atom_site_fract_x
_atom_site_fract_y
_atom_site_fract_z
Si Si1 0.130722 0.068263 0.500000
Si Si2 0.271481 0.624091 0.211749
Si Si3 0.958714 0.592989 0.706266
Si Si4 0.732840 0.901636 0.198972
Si Si5 0.425569 0.753892 0.210995
O O1 0.186536 0.093023 0.330279
O O2 0.036427 0.114747 0.500000
O O3 0.178684 0.669410 0.255297
O O4 0.351360 0.685635 0.272475
O O5 0.272252 0.523339 0.272591
O O6 0.275709 0.621380 0.000000
O O7 0.975714 0.598919 0.500000
O O8 0.854441 0.593990 0.737329
O O9 0.000000 0.500000 0.769324
O O10 0.010210 0.674057 0.791083
O O11 0.760945 0.886050 0.000000
O O12 0.425714 0.751638 0.000000
#
# Coordination Sequence:
#
# PCOD9543453 Si02
#       5
#     4   8   8   8   8
#     4  11  28  50  67  92 130 169 212 265 331 400
#     4   9  20  36  59  90 125 164 212 258 314 381
#     4  11  22  37  60  93 125 163 213 267 328 381
#     4  11  23  41  67  98 128 166 216 269 323 387
#     4  10  20  37  59  88 124 166 208 260 319 379
#
# _framework density 20.374434999999998
#
# number of rings (size 3 to 8) (size 9 to 14) (size 15 to 20)
#    0.000    1.667    3.333    0.667    3.111    2.222 
#    0.000    3.333    0.000    0.000    0.000    1.556 
#    0.000    0.000    0.000    0.000    0.000    0.000 
#
# Total GULP energy -201312.761187 kJ/mol
# GULP energy per Si atom -5592.021144 kJ/mol
# Density = 2.032806 g / cm^3
# Si number density = 20.374435 Si / 1000 Ang^3
#
#
#
# Elastic Constant Matrix: (Units=GPa)
#
#
# Indices 1 2 3 4 5 6 
#
# 1 102.1628 97.4783 15.2877 0.0000 0.0000 28.9934
# 2 97.4783 102.1628 15.2877 0.0000 0.0000 -28.9934
# 3 15.2877 15.2877 69.4589 0.0000 0.0000 0.0000
# 4 0.0000 0.0000 0.0000 9.5276 0.0000 0.0000
# 5 0.0000 0.0000 0.0000 0.0000 9.5276 0.0000
# 6 28.9934 -28.9934 0.0000 0.0000 0.0000 18.1229
#
#
#
# Elastic Compliance Matrix: (Units=1/GPa)
#
#
# Indices 1 2 3 4 5 6 
#
# 1 -0.003085 0.008268 -0.001141 0.000000 0.000000 0.018162
# 2 0.008268 -0.003085 -0.001141 0.000000 0.000000 -0.018162
# 3 -0.001141 -0.001141 0.014899 0.000000 0.000000 0.000000
# 4 0.000000 0.000000 0.000000 0.104958 0.000000 0.000000
# 5 0.000000 0.000000 0.000000 0.000000 0.104958 0.000000
# 6 0.018162 -0.018162 0.000000 0.000000 0.000000 -0.002934
#
#
# Mechanical properties :
#
#
# Convention : Reuss Voigt Hill
#
# Bulk Modulus (GPa) = 48.30224 58.87691 53.58957
# Shear Modulus (GPa) = 23.73708 17.15099 20.44404
#
# Velocity S-wave (km/s) = 3.41697 2.90451 3.17111
# Velocity P-wave (km/s) = 6.27107 6.34101 6.30614
#
# Compressibility (1/GPa) = 0.02070297
#
# Stress axis : x y z
#
# Youngs Moduli (GPa) = -324.19893 -324.19893 67.11758
#
# Poissons Ratio (x) = 2.68056 0.07658
# Poissons Ratio (y) = 2.68056 0.07658
# Poissons Ratio (z) = -0.36989 -0.36989
#
# Static dielectric constant tensor:
#      x y z
#    x 1.690970 0.000000 0.000000 
#    y 0.000000 1.690970 0.000000 
#    z 0.000000 0.000000 1.721270 
# 
# From -- ./inp_files/546.got.cif
#   From: 2010.05.17/outbox.cif.g08.bks.cpg/sg83_1_cif.got.tgz:546.got - 2010.06.03 18:55:12.
