data_PCOD9543313
_publ_section_title
;
Structure prediction by ZEFSAII (Michael W. Deem and Ramdas Pophale) SiO2 
 PCOD9543313
Probable space group: P 4/M
;
_chemical_formula_sum "Si O2"
_cell_formula_units_Z 48
_cell_length_a 15.943266
_cell_length_b 15.943266
_cell_length_c 11.597697
_cell_angle_alpha 90.000000
_cell_angle_beta 90.000000
_cell_angle_gamma 90.000000
_cell_volume 2947.992282
_symmetry_space_group_name_H-M "P 4/M"
_symmetry_group_IT_number 83
_symmetry_cell_setting 'tetragonal'
loop_
_space_group_symop_operation_xyz
x,y,z
-y,x,z
-x,-y,z
y,-x,z
-x,-y,-z
y,-x,-z
x,y,-z
-y,x,-z
loop_
_atom_site_type_symbol
_atom_site_label
_atom_site_fract_x
_atom_site_fract_y
_atom_site_fract_z
Si Si1 0.982601 0.399758 0.131232
Si Si2 0.382954 0.927650 0.500000
Si Si3 0.583531 0.384826 0.500000
Si Si4 0.350827 0.669306 0.758880
Si Si5 0.377588 0.432380 0.000000
Si Si6 0.814411 0.430638 0.257596
Si Si7 0.851214 0.630833 0.741180
Si Si8 0.116196 0.581234 0.500000
O O1 0.894029 0.389600 0.193828
O O2 0.000000 0.500000 0.139710
O O3 0.066266 0.358039 0.181611
O O4 0.972821 0.375925 0.000000
O O5 0.350896 0.883618 0.613606
O O6 0.483349 0.911004 0.500000
O O7 0.370798 0.027664 0.500000
O O8 0.614310 0.481819 0.500000
O O9 0.611489 0.346555 0.627141
O O10 0.407656 0.661074 0.874938
O O11 0.275175 0.604207 0.777546
O O12 0.320516 0.765700 0.763302
O O13 0.468598 0.389886 0.000000
O O14 0.824586 0.531656 0.249458
O O15 0.828282 0.405039 0.389280
#
# Coordination Sequence:
#
# PCOD9543313 Si02
#       8
#     8   4   4   8   4   8   8   4
#     4   9  18  31  49  69  93 127 163 202 254 317
#     4   9  15  28  49  71  92 121 161 201 249 308
#     4  11  22  38  54  68  96 142 188 223 254 286
#     4  12  24  35  52  78 104 133 176 226 260 298
#     4  11  24  40  52  66  98 146 188 217 250 290
#     4  10  19  32  50  72  98 129 166 208 256 304
#     4  10  19  32  50  72  98 129 166 208 256 304
#     4   9  15  28  49  71  92 121 161 201 249 308
#
# _framework density 16.282267000000001
#
# number of rings (size 3 to 8) (size 9 to 14) (size 15 to 20)
#    0.000    1.833    1.667    4.000    2.333    2.667 
#    0.000    0.000    0.000    0.000    0.000    0.000 
#    0.000    0.667    0.000    3.000    0.000    0.000 
#
# Total GULP energy -267225.256206 kJ/mol
# GULP energy per Si atom -5567.192838 kJ/mol
# Density = 1.624521 g / cm^3
# Si number density = 16.282267 Si / 1000 Ang^3
#
#
#
# Elastic Constant Matrix: (Units=GPa)
#
#
# Indices 1 2 3 4 5 6 
#
# 1 -2.7736 34.1462 19.0405 0.0000 0.0000 -6.8781
# 2 34.1462 -2.7736 19.0405 0.0000 0.0000 6.8781
# 3 19.0405 19.0405 113.2854 0.0000 0.0000 0.0000
# 4 0.0000 0.0000 0.0000 7.8047 0.0000 0.0000
# 5 0.0000 0.0000 0.0000 0.0000 7.8047 0.0000
# 6 -6.8781 6.8781 0.0000 0.0000 0.0000 8.4757
#
#
#
# Elastic Compliance Matrix: (Units=1/GPa)
#
#
# Indices 1 2 3 4 5 6 
#
# 1 0.009624 0.030421 -0.006731 0.000000 0.000000 -0.016877
# 2 0.030421 0.009624 -0.006731 0.000000 0.000000 0.016877
# 3 -0.006731 -0.006731 0.011090 0.000000 0.000000 0.000000
# 4 0.000000 0.000000 0.000000 0.128128 0.000000 0.000000
# 5 0.000000 0.000000 0.000000 0.000000 0.128128 0.000000
# 6 -0.016877 0.016877 0.000000 0.000000 0.000000 0.090593
#
#
# Mechanical properties :
#
#
# Convention : Reuss Voigt Hill
#
# Bulk Modulus (GPa) = 15.56252 28.02138 21.79195
# Shear Modulus (GPa) = 13.71050 7.18443 10.44746
#
# Velocity S-wave (km/s) = 2.90496 2.10286 2.53582
# Velocity P-wave (km/s) = 4.56404 4.81073 4.68901
#
# Compressibility (1/GPa) = 0.06425694
#
# Stress axis : x y z
#
# Youngs Moduli (GPa) = 103.91079 103.91079 90.17353
#
# Poissons Ratio (x) = -3.16107 0.60691
# Poissons Ratio (y) = -3.16107 0.60691
# Poissons Ratio (z) = 0.69937 0.69937
#
# Static dielectric constant tensor:
#      x y z
#    x 1.572370 0.000000 0.000000 
#    y 0.000000 1.572370 0.000000 
#    z 0.000000 0.000000 1.594230 
# 
# From -- ./inp_files/1914.got.cif
#   From: 2010.05.17/outbox.cif.g08.bks.cpg/sg83_1_cif.got.tgz:1914.got - 2010.06.03 18:55:12.
