data_PCOD9543469
_publ_section_title
;
Structure prediction by ZEFSAII (Michael W. Deem and Ramdas Pophale) SiO2 
 PCOD9543469
Probable space group: P 4/M
;
_chemical_formula_sum "Si O2"
_cell_formula_units_Z 48
_cell_length_a 10.423167
_cell_length_b 10.423167
_cell_length_c 24.582287
_cell_angle_alpha 90.000000
_cell_angle_beta 90.000000
_cell_angle_gamma 90.000000
_cell_volume 2670.678911
_symmetry_space_group_name_H-M "P 4/M"
_symmetry_group_IT_number 83
_symmetry_cell_setting 'tetragonal'
loop_
_space_group_symop_operation_xyz
x,y,z
-y,x,z
-x,-y,z
y,-x,z
-x,-y,-z
y,-x,-z
x,y,-z
-y,x,-z
loop_
_atom_site_type_symbol
_atom_site_label
_atom_site_fract_x
_atom_site_fract_y
_atom_site_fract_z
Si Si1 0.648456 0.035757 0.712551
Si Si2 0.251987 0.300478 0.559474
Si Si3 0.974044 0.346714 0.406487
Si Si4 0.217995 0.013635 0.058600
Si Si5 0.013649 0.784468 0.176080
Si Si6 0.684829 0.599633 0.323942
O O1 0.699878 0.974018 0.656437
O O2 0.707358 0.987615 0.768353
O O3 0.657021 0.189758 0.704649
O O4 0.500000 0.000000 0.713651
O O5 0.283128 0.354206 0.500000
O O6 0.098085 0.286912 0.564899
O O7 0.293630 0.385351 0.611123
O O8 0.314731 0.160940 0.566901
O O9 0.000000 0.500000 0.406795
O O10 0.286206 0.017997 0.117306
O O11 0.129979 0.885345 0.058586
O O12 0.287448 0.018082 0.000000
O O13 0.130292 0.884740 0.176674
O O14 0.550866 0.668676 0.310578
#
# Coordination Sequence:
#
# PCOD9543469 Si02
#       6
#     8   8   8   8   8   8
#     4  10  21  34  53  71 102 137 167 200 256 303
#     4  11  22  37  58  78 102 132 167 208 259 316
#     4  10  23  39  54  76 104 137 170 211 263 319
#     4   7  10  20  38  63  98 134 163 196 244 294
#     4   9  18  28  46  77 104 130 169 210 244 295
#     4  10  22  38  55  75  98 127 169 212 253 301
#
# _framework density 17.972958999999999
#
# number of rings (size 3 to 8) (size 9 to 14) (size 15 to 20)
#    0.000    2.500    0.000    5.000    7.000    3.667 
#    0.000    1.667    0.000    0.500    0.000    0.000 
#    0.000    0.000    0.000    1.833    0.000    0.000 
#
# Total GULP energy -267541.216244 kJ/mol
# GULP energy per Si atom -5573.775338 kJ/mol
# Density = 1.793205 g / cm^3
# Si number density = 17.972959 Si / 1000 Ang^3
#
#
#
# Elastic Constant Matrix: (Units=GPa)
#
#
# Indices 1 2 3 4 5 6 
#
# 1 39.4911 -7.2313 -0.9786 0.0000 0.0000 18.2450
# 2 -7.2313 39.4911 -0.9786 0.0000 0.0000 -18.2450
# 3 -0.9786 -0.9786 118.4367 0.0000 0.0000 0.0000
# 4 0.0000 0.0000 0.0000 -17.1471 0.0000 0.0000
# 5 0.0000 0.0000 0.0000 0.0000 -17.1471 0.0000
# 6 18.2450 -18.2450 0.0000 0.0000 0.0000 68.0240
#
#
#
# Elastic Compliance Matrix: (Units=1/GPa)
#
#
# Indices 1 2 3 4 5 6 
#
# 1 0.029044 0.001970 0.000256 0.000000 0.000000 -0.007262
# 2 0.001970 0.029044 0.000256 0.000000 0.000000 0.007262
# 3 0.000256 0.000256 0.008448 0.000000 0.000000 0.000000
# 4 0.000000 0.000000 0.000000 -0.058319 0.000000 0.000000
# 5 0.000000 0.000000 0.000000 0.000000 -0.058319 0.000000
# 6 -0.007262 0.007262 0.000000 0.000000 0.000000 0.018596
#
#
# Mechanical properties :
#
#
# Convention : Reuss Voigt Hill
#
# Bulk Modulus (GPa) = 13.98594 19.89355 16.93974
# Shear Modulus (GPa) = -395.66711 20.51978 -187.57366
#
# Velocity S-wave (km/s) = -14.85341 3.38258 -10.22697
# Velocity P-wave (km/s) = 16.92236 5.13307 11.40215
#
# Compressibility (1/GPa) = 0.07150038
#
# Stress axis : x y z
#
# Youngs Moduli (GPa) = 34.43034 34.43034 118.37730
#
# Poissons Ratio (x) = -0.06782 -0.03033
# Poissons Ratio (y) = -0.06782 -0.03033
# Poissons Ratio (z) = -0.00882 -0.00882
#
# Static dielectric constant tensor:
#      x y z
#    x 1.620480 0.000000 0.000000 
#    y 0.000000 1.620480 0.000000 
#    z 0.000000 0.000000 1.682630 
# 
# From -- ./inp_files/2941.got.cif
#   From: 2010.05.17/outbox.cif.g08.bks.cpg/sg83_2_cif.got.tgz:2941.got - 2010.06.03 18:55:12.
