data_PCOD9543458
_publ_section_title
;
Structure prediction by ZEFSAII (Michael W. Deem and Ramdas Pophale) SiO2 
 PCOD9543458
Probable space group: P 4/M
;
_chemical_formula_sum "Si O2"
_cell_formula_units_Z 64
_cell_length_a 11.325886
_cell_length_b 11.325886
_cell_length_c 28.495414
_cell_angle_alpha 90.000000
_cell_angle_beta 90.000000
_cell_angle_gamma 90.000000
_cell_volume 3655.268998
_symmetry_space_group_name_H-M "P 4/M"
_symmetry_group_IT_number 83
_symmetry_cell_setting 'tetragonal'
loop_
_space_group_symop_operation_xyz
x,y,z
-y,x,z
-x,-y,z
y,-x,z
-x,-y,-z
y,-x,-z
x,y,-z
-y,x,-z
loop_
_atom_site_type_symbol
_atom_site_label
_atom_site_fract_x
_atom_site_fract_y
_atom_site_fract_z
Si Si1 0.120590 0.716140 0.553418
Si Si2 0.563978 0.688177 0.409510
Si Si3 0.097309 0.261748 0.616031
Si Si4 0.690676 0.561086 0.050377
Si Si5 0.561172 0.309078 0.154192
Si Si6 0.491824 0.856065 0.666303
Si Si7 0.114344 0.428565 0.232841
Si Si8 0.813474 0.038298 0.281972
O O1 0.096830 0.752050 0.500000
O O2 0.213940 0.608935 0.554107
O O3 0.180044 0.820493 0.584076
O O4 0.001329 0.686022 0.581191
O O5 0.430165 0.641607 0.414105
O O6 0.575769 0.765889 0.361408
O O7 0.167091 0.366026 0.642006
O O8 0.039014 0.200114 0.661367
O O9 0.572954 0.641755 0.050133
O O10 0.744857 0.578542 0.101781
O O11 0.752960 0.581053 0.000000
O O12 0.642653 0.426279 0.158269
O O13 0.586502 0.213002 0.193699
O O14 0.496554 0.833742 0.721563
O O15 0.500000 0.000000 0.661538
O O16 0.068325 0.306957 0.255810
O O17 0.000000 0.500000 0.215261
O O18 0.910933 0.135545 0.269218
#
# Coordination Sequence:
#
# PCOD9543458 Si02
#       8
#     8   8   8   8   8   8   8   8
#     4  12  25  40  62  88 112 134 162 210 272 324
#     4  11  24  42  62  84 109 140 176 211 248 308
#     4  11  21  40  63  84 110 130 166 216 268 317
#     4   7  10  20  42  71 103 145 192 229 270 327
#     4   9  18  32  50  78 118 153 184 232 284 328
#     4  10  20  39  61  79 103 139 178 212 254 314
#     4  10  23  34  55  80 111 148 183 224 277 327
#     4  10  21  38  62  82 103 139 182 226 267 318
#
# _framework density 17.508972
#
# number of rings (size 3 to 8) (size 9 to 14) (size 15 to 20)
#    0.000    2.000    3.750    1.500    1.750    1.750 
#    0.000    3.125    0.000    0.375    0.000    0.000 
#    0.000    0.000    0.000    1.375    0.000    0.000 
#
# Total GULP energy -356362.205733 kJ/mol
# GULP energy per Si atom -5568.159465 kJ/mol
# Density = 1.746912 g / cm^3
# Si number density = 17.508972 Si / 1000 Ang^3
#
#
#
# Elastic Constant Matrix: (Units=GPa)
#
#
# Indices 1 2 3 4 5 6 
#
# 1 48.4094 13.9682 23.8595 0.0000 0.0000 -3.1363
# 2 13.9682 48.4094 23.8595 0.0000 0.0000 3.1363
# 3 23.8595 23.8595 112.5601 0.0000 0.0000 0.0000
# 4 0.0000 0.0000 0.0000 16.1070 0.0000 0.0000
# 5 0.0000 0.0000 0.0000 0.0000 16.1070 0.0000
# 6 -3.1363 3.1363 0.0000 0.0000 0.0000 9.1451
#
#
#
# Elastic Compliance Matrix: (Units=1/GPa)
#
#
# Indices 1 2 3 4 5 6 
#
# 1 0.025052 -0.005918 -0.004056 0.000000 0.000000 0.010621
# 2 -0.005918 0.025052 -0.004056 0.000000 0.000000 -0.010621
# 3 -0.004056 -0.004056 0.010604 0.000000 0.000000 0.000000
# 4 0.000000 0.000000 0.000000 0.062085 0.000000 0.000000
# 5 0.000000 0.000000 0.000000 0.000000 0.062085 0.000000
# 6 0.010621 -0.010621 0.000000 0.000000 0.000000 0.116633
#
#
# Mechanical properties :
#
#
# Convention : Reuss Voigt Hill
#
# Bulk Modulus (GPa) = 30.62939 36.97260 33.80100
# Shear Modulus (GPa) = 14.68638 18.11792 16.40215
#
# Velocity S-wave (km/s) = 2.89933 3.22029 3.06402
# Velocity P-wave (km/s) = 5.36094 5.91517 5.64486
#
# Compressibility (1/GPa) = 0.03264838
#
# Stress axis : x y z
#
# Youngs Moduli (GPa) = 39.91740 39.91740 94.30746
#
# Poissons Ratio (x) = 0.23621 0.38250
# Poissons Ratio (y) = 0.23621 0.38250
# Poissons Ratio (z) = 0.16190 0.16190
#
# Static dielectric constant tensor:
#      x y z
#    x 1.634560 0.000000 0.000000 
#    y 0.000000 1.634560 0.000000 
#    z 0.000000 0.000000 1.615650 
# 
# From -- ./inp_files/3336.got.cif
#   From: 2010.05.17/outbox.cif.g08.bks.cpg/sg83_2_cif.got.tgz:3336.got - 2010.06.03 18:55:12.
