data_PCOD9543504
_publ_section_title
;
Structure prediction by ZEFSAII (Michael W. Deem and Ramdas Pophale) SiO2 
 PCOD9543504
Probable space group: P 4/M
;
_chemical_formula_sum "Si O2"
_cell_formula_units_Z 40
_cell_length_a 14.993025
_cell_length_b 14.993025
_cell_length_c 9.588971
_cell_angle_alpha 90.000000
_cell_angle_beta 90.000000
_cell_angle_gamma 90.000000
_cell_volume 2155.512449
_symmetry_space_group_name_H-M "P 4/M"
_symmetry_group_IT_number 83
_symmetry_cell_setting 'tetragonal'
loop_
_space_group_symop_operation_xyz
x,y,z
-y,x,z
-x,-y,z
y,-x,z
-x,-y,-z
y,-x,-z
x,y,-z
-y,x,-z
loop_
_atom_site_type_symbol
_atom_site_label
_atom_site_fract_x
_atom_site_fract_y
_atom_site_fract_z
Si Si1 0.760417 0.117867 0.665292
Si Si2 0.792171 0.606958 0.835376
Si Si3 0.625314 0.581900 0.658646
Si Si4 0.912498 0.441230 0.834467
Si Si5 0.258105 0.085492 0.334679
O O1 0.741393 0.128951 0.500000
O O2 0.675056 0.143738 0.755950
O O3 0.840227 0.185049 0.702286
O O4 0.780316 0.013796 0.688364
O O5 0.694783 0.617918 0.769450
O O6 0.828968 0.507032 0.811328
O O7 0.793042 0.623541 0.000000
O O8 0.525186 0.618073 0.673629
O O9 0.655382 0.601623 0.500000
O O10 0.905562 0.350168 0.749342
O O11 0.000000 0.500000 0.796707
O O12 0.919177 0.421796 0.000000
O O13 0.277276 0.094323 0.500000
#
# Coordination Sequence:
#
# PCOD9543504 Si02
#       5
#     8   8   8   8   8
#     4  10  22  40  60  87 118 151 196 244 294 351
#     4  11  23  37  57  85 116 153 193 240 291 343
#     4   9  20  39  59  80 112 153 193 236 286 342
#     4  10  21  39  59  82 116 151 187 232 284 337
#     4  10  22  39  62  89 117 152 193 240 293 350
#
# _framework density 18.557071000000001
#
# number of rings (size 3 to 8) (size 9 to 14) (size 15 to 20)
#    0.000    2.000    2.000    1.200    2.800    4.000 
#    0.000    3.000    0.000    0.000    0.000    2.800 
#    0.000    0.000    0.000    0.000    0.000    0.000 
#
# Total GULP energy -223350.104220 kJ/mol
# GULP energy per Si atom -5583.752606 kJ/mol
# Density = 1.851483 g / cm^3
# Si number density = 18.557071 Si / 1000 Ang^3
#
#
#
# Elastic Constant Matrix: (Units=GPa)
#
#
# Indices 1 2 3 4 5 6 
#
# 1 78.3104 36.8791 49.3385 0.0000 0.0000 11.8404
# 2 36.8791 78.3104 49.3385 0.0000 0.0000 -11.8404
# 3 49.3385 49.3385 57.6771 0.0000 0.0000 0.0000
# 4 0.0000 0.0000 0.0000 5.2100 0.0000 0.0000
# 5 0.0000 0.0000 0.0000 0.0000 5.2100 0.0000
# 6 11.8404 -11.8404 0.0000 0.0000 0.0000 22.0577
#
#
#
# Elastic Compliance Matrix: (Units=1/GPa)
#
#
# Indices 1 2 3 4 5 6 
#
# 1 0.033655 -0.001165 -0.027793 0.000000 0.000000 -0.018691
# 2 -0.001165 0.033655 -0.027793 0.000000 0.000000 0.018691
# 3 -0.027793 -0.027793 0.064887 0.000000 0.000000 0.000000
# 4 0.000000 0.000000 0.000000 0.191938 0.000000 0.000000
# 5 0.000000 0.000000 0.000000 0.000000 0.191938 0.000000
# 6 -0.018691 0.018691 0.000000 0.000000 0.000000 0.065402
#
#
# Mechanical properties :
#
#
# Convention : Reuss Voigt Hill
#
# Bulk Modulus (GPa) = 53.48709 53.93445 53.71077
# Shear Modulus (GPa) = 7.13056 11.74499 9.43778
#
# Velocity S-wave (km/s) = 1.96236 2.51850 2.25762
# Velocity P-wave (km/s) = 5.83267 6.13061 5.98349
#
# Compressibility (1/GPa) = 0.01869610
#
# Stress axis : x y z
#
# Youngs Moduli (GPa) = 29.71358 29.71358 15.41138
#
# Poissons Ratio (x) = 0.03461 0.42832
# Poissons Ratio (y) = 0.03461 0.42832
# Poissons Ratio (z) = 0.82582 0.82582
#
# Static dielectric constant tensor:
#      x y z
#    x 1.634000 0.000000 0.000000 
#    y 0.000000 1.634000 0.000000 
#    z 0.000000 0.000000 1.614150 
# 
# From -- ./inp_files/634.got.cif
#   From: 2010.05.17/outbox.cif.g08.bks.cpg/sg83_1_cif.got.tgz:634.got - 2010.06.03 18:55:12.
