data_PCOD9543449
_publ_section_title
;
Structure prediction by ZEFSAII (Michael W. Deem and Ramdas Pophale) SiO2 
 PCOD9543449
Probable space group: P 4/M
;
_chemical_formula_sum "Si O2"
_cell_formula_units_Z 60
_cell_length_a 14.644967
_cell_length_b 14.644967
_cell_length_c 16.915446
_cell_angle_alpha 90.000000
_cell_angle_beta 90.000000
_cell_angle_gamma 90.000000
_cell_volume 3627.941269
_symmetry_space_group_name_H-M "P 4/M"
_symmetry_group_IT_number 83
_symmetry_cell_setting 'tetragonal'
loop_
_space_group_symop_operation_xyz
x,y,z
-y,x,z
-x,-y,z
y,-x,z
-x,-y,-z
y,-x,-z
x,y,-z
-y,x,-z
loop_
_atom_site_type_symbol
_atom_site_label
_atom_site_fract_x
_atom_site_fract_y
_atom_site_fract_z
Si Si1 0.908910 0.439715 0.091331
Si Si2 0.634286 0.577724 0.586454
Si Si3 0.422904 0.633905 0.761276
Si Si4 0.150445 0.039688 0.672038
Si Si5 0.239059 0.403821 0.910570
Si Si6 0.220498 0.878116 0.090771
Si Si7 0.039556 0.850949 0.500000
Si Si8 0.072388 0.749535 0.170822
O O1 0.821117 0.504640 0.098189
O O2 0.905744 0.354780 0.149931
O O3 0.000000 0.500000 0.104025
O O4 0.913438 0.405459 0.000000
O O5 0.531878 0.619444 0.586454
O O6 0.676216 0.602071 0.500000
O O7 0.674114 0.600506 0.673531
O O8 0.380157 0.532530 0.764893
O O9 0.394997 0.691739 0.837764
O O10 0.193622 0.051343 0.584963
O O11 0.224037 0.059369 0.738413
O O12 0.062251 0.106916 0.679630
O O13 0.168730 0.319737 0.907348
O O14 0.280115 0.403524 0.000000
O O15 0.151067 0.813738 0.136651
O O16 0.226456 0.977554 0.128074
O O17 0.191173 0.884943 0.000000
O O18 0.938319 0.893765 0.500000
#
# Coordination Sequence:
#
# PCOD9543449 Si02
#       8
#     8   8   8   8   8   8   4   8
#     4  10  20  37  55  68  92 135 184 215 234 281
#     4   7  10  20  41  69  97 123 152 190 248 319
#     4   9  18  31  48  75 104 126 158 213 273 307
#     4   9  16  29  47  78 111 136 164 203 256 315
#     4  10  22  37  51  69  95 137 186 217 242 295
#     4  11  23  36  51  75 107 137 171 213 261 312
#     4   7  12  24  46  70 103 140 168 196 240 303
#     4  12  21  34  54  81 106 134 170 213 265 310
#
# _framework density 16.538304
#
# number of rings (size 3 to 8) (size 9 to 14) (size 15 to 20)
#    0.000    2.467    2.667    3.200    1.867    0.800 
#    0.000    1.333    0.000    0.000    5.200    0.467 
#    0.000    0.000    0.000    0.000    0.000    0.000 
#
# Total GULP energy -334137.259189 kJ/mol
# GULP energy per Si atom -5568.954320 kJ/mol
# Density = 1.650066 g / cm^3
# Si number density = 16.538304 Si / 1000 Ang^3
#
#
#
# Elastic Constant Matrix: (Units=GPa)
#
#
# Indices 1 2 3 4 5 6 
#
# 1 52.7753 5.4171 44.8507 0.0000 0.0000 8.2229
# 2 5.4171 52.7753 44.8507 0.0000 0.0000 -8.2229
# 3 44.8507 44.8507 198.2523 0.0000 0.0000 0.0000
# 4 0.0000 0.0000 0.0000 61.7377 0.0000 0.0000
# 5 0.0000 0.0000 0.0000 0.0000 61.7377 0.0000
# 6 8.2229 -8.2229 0.0000 0.0000 0.0000 10.7270
#
#
#
# Elastic Compliance Matrix: (Units=1/GPa)
#
#
# Indices 1 2 3 4 5 6 
#
# 1 0.027581 -0.001195 -0.005969 0.000000 0.000000 -0.022058
# 2 -0.001195 0.027581 -0.005969 0.000000 0.000000 0.022058
# 3 -0.005969 -0.005969 0.007745 0.000000 0.000000 0.000000
# 4 0.000000 0.000000 0.000000 0.016198 0.000000 0.000000
# 5 0.000000 0.000000 0.000000 0.000000 0.016198 0.000000
# 6 -0.022058 0.022058 0.000000 0.000000 0.000000 0.127041
#
#
# Mechanical properties :
#
#
# Convention : Reuss Voigt Hill
#
# Bulk Modulus (GPa) = 27.29301 54.89334 41.09318
# Shear Modulus (GPa) = 19.17007 40.75275 29.96141
#
# Velocity S-wave (km/s) = 3.40830 4.96940 4.26095
# Velocity P-wave (km/s) = 5.65927 8.13574 7.00777
#
# Compressibility (1/GPa) = 0.03663942
#
# Stress axis : x y z
#
# Youngs Moduli (GPa) = 36.25713 36.25713 129.11652
#
# Poissons Ratio (x) = 0.04333 0.77073
# Poissons Ratio (y) = 0.04333 0.77073
# Poissons Ratio (z) = 0.21643 0.21643
#
# Static dielectric constant tensor:
#      x y z
#    x 1.544950 0.000000 0.000000 
#    y 0.000000 1.544950 0.000000 
#    z 0.000000 0.000000 1.603380 
# 
# From -- ./inp_files/2471.got.cif
#   From: 2010.05.17/outbox.cif.g08.bks.cpg/sg83_2_cif.got.tgz:2471.got - 2010.06.03 18:55:12.
