data_PCOD9543997
_publ_section_title
;
Structure prediction by ZEFSAII (Michael W. Deem and Ramdas Pophale) SiO2 
 PCOD9543997
Probable space group: P 42/M
;
_chemical_formula_sum "Si O2"
_cell_formula_units_Z 64
_cell_length_a 14.884100
_cell_length_b 14.884100
_cell_length_c 18.334547
_cell_angle_alpha 90.000000
_cell_angle_beta 90.000000
_cell_angle_gamma 90.000000
_cell_volume 4061.770140
_symmetry_space_group_name_H-M "P 42/M"
_symmetry_group_IT_number 84
_symmetry_cell_setting 'tetragonal'
loop_
_space_group_symop_operation_xyz
x,y,z
-y,x,1/2+z
-x,-y,z
y,-x,1/2+z
-x,-y,-z
y,-x,1/2-z
x,y,-z
-y,x,1/2-z
loop_
_atom_site_type_symbol
_atom_site_label
_atom_site_fract_x
_atom_site_fract_y
_atom_site_fract_z
Si Si1 0.108962 0.509522 0.083252
Si Si2 0.460496 0.600717 0.580898
Si Si3 0.373265 0.561025 0.224038
Si Si4 0.882296 0.639267 0.201854
Si Si5 0.285916 0.236954 0.782998
Si Si6 0.900485 0.499279 0.673371
Si Si7 0.651059 0.912605 0.302474
Si Si8 0.599420 0.755774 0.914374
O O1 0.141258 0.429978 0.136353
O O2 0.124667 0.602972 0.125131
O O3 0.000000 0.500000 0.083011
O O4 0.140130 0.505102 0.000000
O O5 0.500000 0.500000 0.579720
O O6 0.473602 0.639945 0.500000
O O7 0.516589 0.647212 0.645470
O O8 0.353043 0.595082 0.594310
O O9 0.470785 0.610773 0.227007
O O10 0.298988 0.631800 0.250793
O O11 0.805031 0.710405 0.208549
O O12 0.884819 0.587434 0.278842
O O13 0.983222 0.674102 0.187594
O O14 0.274956 0.153437 0.728957
O O15 0.317691 0.212711 0.864542
O O16 0.907708 0.423989 0.737669
O O17 0.817105 0.479462 0.620364
O O18 0.000000 0.500000 0.637891
O O19 0.607280 0.773043 0.000000
#
# Coordination Sequence:
#
# PCOD9543997 Si02
#       8
#     8   8   8   8   8   8   8   8
#     4   8  14  27  49  74 100 125 148 187 243 295
#     4  10  19  30  41  59  90 127 156 193 225 252
#     4  11  20  30  44  64  88 123 162 186 212 277
#     4   9  18  30  49  70  90 121 161 194 231 282
#     4  11  21  30  51  67  88 125 158 196 234 276
#     4   8  16  30  48  66  90 121 154 193 228 266
#     4   8  17  32  45  69  96 118 154 195 236 278
#     4  10  20  30  43  66  93 118 155 194 230 272
#
# _framework density 15.756677
#
# number of rings (size 3 to 8) (size 9 to 14) (size 15 to 20)
#    0.000    2.625    2.500    1.500    7.000    0.750 
#    0.000    1.875    0.000    1.125    0.000    0.000 
#    0.000    0.000    0.000   16.375    0.000    0.000 
#
# Total GULP energy -356277.344617 kJ/mol
# GULP energy per Si atom -5566.833510 kJ/mol
# Density = 1.572081 g / cm^3
# Si number density = 15.756677 Si / 1000 Ang^3
#
#
#
# Elastic Constant Matrix: (Units=GPa)
#
#
# Indices 1 2 3 4 5 6 
#
# 1 60.3449 25.2101 35.1832 0.0000 0.0000 -1.7555
# 2 25.2101 60.3449 35.1832 0.0000 0.0000 1.7555
# 3 35.1832 35.1832 119.7146 0.0000 0.0000 0.0000
# 4 0.0000 0.0000 0.0000 11.9425 0.0000 0.0000
# 5 0.0000 0.0000 0.0000 0.0000 11.9425 0.0000
# 6 -1.7555 1.7555 0.0000 0.0000 0.0000 22.3644
#
#
#
# Elastic Compliance Matrix: (Units=1/GPa)
#
#
# Indices 1 2 3 4 5 6 
#
# 1 0.022051 -0.006636 -0.004530 0.000000 0.000000 0.002252
# 2 -0.006636 0.022051 -0.004530 0.000000 0.000000 -0.002252
# 3 -0.004530 -0.004530 0.011016 0.000000 0.000000 0.000000
# 4 0.000000 0.000000 0.000000 0.083735 0.000000 0.000000
# 5 0.000000 0.000000 0.000000 0.000000 0.083735 0.000000
# 6 0.002252 -0.002252 0.000000 0.000000 0.000000 0.045067
#
#
# Mechanical properties :
#
#
# Convention : Reuss Voigt Hill
#
# Bulk Modulus (GPa) = 42.15145 47.95081 45.05113
# Shear Modulus (GPa) = 16.28902 18.90505 17.59703
#
# Velocity S-wave (km/s) = 3.21874 3.46759 3.34548
# Velocity P-wave (km/s) = 6.37364 6.82132 6.60127
#
# Compressibility (1/GPa) = 0.02372398
#
# Stress axis : x y z
#
# Youngs Moduli (GPa) = 45.35030 45.35030 90.77749
#
# Poissons Ratio (x) = 0.30096 0.41124
# Poissons Ratio (y) = 0.30096 0.41124
# Poissons Ratio (z) = 0.20544 0.20544
#
# Static dielectric constant tensor:
#      x y z
#    x 1.551690 0.000000 0.000000 
#    y 0.000000 1.551690 0.000000 
#    z 0.000000 0.000000 1.564980 
# 
# From -- ./inp_files/3875.got.cif
#   From: 2010.05.17/outbox.cif.g08.bks.cpg/sg84_2_cif.got.tgz:3875.got - 2010.06.03 18:57:40.
