data_PCOD9543099
_publ_section_title
;
Structure prediction by ZEFSAII (Michael W. Deem and Ramdas Pophale) SiO2 
 PCOD9543099
Probable space group: I -4 
;
_chemical_formula_sum "Si O2"
_cell_formula_units_Z 40
_cell_length_a 12.535924
_cell_length_b 12.535924
_cell_length_c 9.889493
_cell_angle_alpha 90.000000
_cell_angle_beta 90.000000
_cell_angle_gamma 90.000000
_cell_volume 1554.127798
_symmetry_space_group_name_H-M "I -4 "
_symmetry_group_IT_number 82
_symmetry_cell_setting 'tetragonal'
loop_
_space_group_symop_operation_xyz
x,y,z
y,-x,-z
-x,-y,z
-y,x,-z
1/2+x,1/2+y,1/2+z
1/2+y,1/2-x,1/2-z
1/2-x,1/2-y,1/2+z
1/2-y,1/2+x,1/2-z
loop_
_atom_site_type_symbol
_atom_site_label
_atom_site_fract_x
_atom_site_fract_y
_atom_site_fract_z
Si Si1 0.921611 0.338099 0.543491
Si Si2 0.169747 0.120589 0.233517
Si Si3 0.597689 0.412455 0.600430
Si Si4 0.809173 0.642469 0.261561
Si Si5 0.934984 0.353430 0.959965
O O1 0.895437 0.236677 0.630642
O O2 0.907251 0.311114 0.386367
O O3 0.848683 0.440905 0.577165
O O4 0.038292 0.379068 0.585561
O O5 0.132767 0.242486 0.251380
O O6 0.108628 0.008463 0.209733
O O7 0.255140 0.124951 0.109270
O O8 0.481771 0.370827 0.537441
O O9 0.649775 0.311206 0.674378
O O10 0.862682 0.572818 0.378463
#
# Coordination Sequence:
#
# PCOD9543099 Si02
#       5
#     8   8   8   8   8
#     4  11  25  42  72 111 150 187 256 338 380 446
#     4  12  25  43  74 106 147 200 254 308 384 468
#     4  11  26  47  74 107 149 209 256 299 385 483
#     4  12  25  44  74 108 152 203 257 316 388 471
#     4  11  23  44  71 107 152 198 253 314 402 464
#
# _framework density 25.737911
#
# number of rings (size 3 to 8) (size 9 to 14) (size 15 to 20)
#    0.000    0.600    2.000    6.000    2.800    6.400 
#    0.000    0.000    0.000    0.000    0.000    0.000 
#    0.000    0.000    0.000    0.000    0.000    0.000 
#
# Total GULP energy -111587.524964 kJ/mol
# GULP energy per Si atom -5579.376248 kJ/mol
# Density = 2.567933 g / cm^3
# Si number density = 25.737911 Si / 1000 Ang^3
#
#
#
# Elastic Constant Matrix: (Units=GPa)
#
#
# Indices 1 2 3 4 5 6 
#
# 1 100.5727 20.2525 8.3963 0.0000 0.0000 1.0486
# 2 20.2525 100.5727 8.3963 0.0000 0.0000 -1.0486
# 3 8.3963 8.3963 123.5133 0.0000 0.0000 0.0000
# 4 0.0000 0.0000 0.0000 -16.2657 0.0000 0.0000
# 5 0.0000 0.0000 0.0000 0.0000 -16.2657 0.0000
# 6 1.0486 -1.0486 0.0000 0.0000 0.0000 36.2404
#
#
#
# Elastic Compliance Matrix: (Units=1/GPa)
#
#
# Indices 1 2 3 4 5 6 
#
# 1 0.010407 -0.002052 -0.000568 0.000000 0.000000 -0.000361
# 2 -0.002052 0.010407 -0.000568 0.000000 0.000000 0.000361
# 3 -0.000568 -0.000568 0.008174 0.000000 0.000000 0.000000
# 4 0.000000 0.000000 0.000000 -0.061479 0.000000 0.000000
# 5 0.000000 0.000000 0.000000 0.000000 -0.061479 0.000000
# 6 -0.000361 0.000361 0.000000 0.000000 0.000000 0.027614
#
#
# Mechanical properties :
#
#
# Convention : Reuss Voigt Hill
#
# Bulk Modulus (GPa) = 44.22376 44.30544 44.26460
# Shear Modulus (GPa) = -95.34326 19.91608 -37.71359
#
# Velocity S-wave (km/s) = -6.09297 2.78475 -3.83207
# Velocity P-wave (km/s) = 5.68150 5.25273 1.53105
#
# Compressibility (1/GPa) = 0.02261228
#
# Stress axis : x y z
#
# Youngs Moduli (GPa) = 96.08487 96.08487 122.34641
#
# Poissons Ratio (x) = 0.19718 0.06949
# Poissons Ratio (y) = 0.19718 0.06949
# Poissons Ratio (z) = 0.05457 0.05457
#
# Static dielectric constant tensor:
#      x y z
#    x 2.290670 0.000000 0.000000 
#    y 0.000000 2.290670 0.000000 
#    z 0.000000 0.000000 2.028190 
# 
# From -- ./inp_files/945.got.cif
#   From: 2010.05.17/outbox.cif.g08.bks.cpg/sg82_1_cif.got.tgz:945.got - 2010.06.03 18:52:26.
