data_PCOD9543492
_publ_section_title
;
Structure prediction by ZEFSAII (Michael W. Deem and Ramdas Pophale) SiO2 
 PCOD9543492
Probable space group: P 4/M
;
_chemical_formula_sum "Si O2"
_cell_formula_units_Z 48
_cell_length_a 17.328976
_cell_length_b 17.328976
_cell_length_c 8.802495
_cell_angle_alpha 90.000000
_cell_angle_beta 90.000000
_cell_angle_gamma 90.000000
_cell_volume 2643.331233
_symmetry_space_group_name_H-M "P 4/M"
_symmetry_group_IT_number 83
_symmetry_cell_setting 'tetragonal'
loop_
_space_group_symop_operation_xyz
x,y,z
-y,x,z
-x,-y,z
y,-x,z
-x,-y,-z
y,-x,-z
x,y,-z
-y,x,-z
loop_
_atom_site_type_symbol
_atom_site_label
_atom_site_fract_x
_atom_site_fract_y
_atom_site_fract_z
Si Si1 0.493902 0.800632 0.181697
Si Si2 0.371716 0.100351 0.682395
Si Si3 0.514458 0.376067 0.815133
Si Si4 0.199466 0.928448 0.321611
Si Si5 0.074482 0.384096 0.677715
Si Si6 0.797808 0.906194 0.818895
O O1 0.570524 0.835382 0.257312
O O2 0.478725 0.712602 0.233426
O O3 0.426905 0.860004 0.228561
O O4 0.502641 0.800189 0.000000
O O5 0.365852 0.101730 0.500000
O O6 0.287249 0.109871 0.752982
O O7 0.401523 0.014026 0.724431
O O8 0.583208 0.433985 0.767759
O O9 0.515099 0.376015 0.000000
O O10 0.180585 0.934169 0.500000
O O11 0.291784 0.917533 0.309690
O O12 0.154589 0.858339 0.246340
O O13 0.179956 0.008580 0.239422
O O14 0.082630 0.406218 0.500000
O O15 0.796140 0.904208 0.000000
#
# Coordination Sequence:
#
# PCOD9543492 Si02
#       6
#     8   8   8   8   8   8
#     4  11  21  31  53  87 111 134 178 231 278 325
#     4  10  21  38  56  75 107 150 186 219 270 336
#     4   8  16  33  53  73 103 140 173 210 262 321
#     4  10  21  39  59  80 111 152 190 224 276 341
#     4   9  20  37  55  75 105 146 185 218 263 328
#     4  11  22  37  58  85 113 142 185 239 283 319
#
# _framework density 18.158906999999999
#
# number of rings (size 3 to 8) (size 9 to 14) (size 15 to 20)
#    0.000    2.167    0.000    5.000    0.000    7.667 
#    0.000    3.333    0.000    3.000    0.000    4.667 
#    0.000    0.000    0.000    0.000    0.000    0.000 
#
# Total GULP energy -267992.561313 kJ/mol
# GULP energy per Si atom -5583.178361 kJ/mol
# Density = 1.811758 g / cm^3
# Si number density = 18.158907 Si / 1000 Ang^3
#
#
#
# Elastic Constant Matrix: (Units=GPa)
#
#
# Indices 1 2 3 4 5 6 
#
# 1 39.3056 -2.8718 15.9091 0.0000 0.0000 -2.5745
# 2 -2.8718 39.3056 15.9091 0.0000 0.0000 2.5745
# 3 15.9091 15.9091 64.3129 0.0000 0.0000 0.0000
# 4 0.0000 0.0000 0.0000 28.6138 0.0000 0.0000
# 5 0.0000 0.0000 0.0000 0.0000 28.6138 0.0000
# 6 -2.5745 2.5745 0.0000 0.0000 0.0000 89.4121
#
#
#
# Elastic Compliance Matrix: (Units=1/GPa)
#
#
# Indices 1 2 3 4 5 6 
#
# 1 0.029402 0.005609 -0.008661 0.000000 0.000000 0.000685
# 2 0.005609 0.029402 -0.008661 0.000000 0.000000 -0.000685
# 3 -0.008661 -0.008661 0.019834 0.000000 0.000000 0.000000
# 4 0.000000 0.000000 0.000000 0.034948 0.000000 0.000000
# 5 0.000000 0.000000 0.000000 0.000000 0.034948 0.000000
# 6 0.000685 -0.000685 0.000000 0.000000 0.000000 0.011224
#
#
# Mechanical properties :
#
#
# Convention : Reuss Voigt Hill
#
# Bulk Modulus (GPa) = 18.11189 22.31298 20.21244
# Shear Modulus (GPa) = 24.80331 36.92643 30.86487
#
# Velocity S-wave (km/s) = 3.69982 4.51434 4.12723
# Velocity P-wave (km/s) = 5.31482 6.28384 5.81954
#
# Compressibility (1/GPa) = 0.05521234
#
# Stress axis : x y z
#
# Youngs Moduli (GPa) = 34.01164 34.01164 50.41926
#
# Poissons Ratio (x) = -0.19076 0.43666
# Poissons Ratio (y) = -0.19076 0.43666
# Poissons Ratio (z) = 0.29456 0.29456
#
# Static dielectric constant tensor:
#      x y z
#    x 1.611870 0.000000 0.000000 
#    y 0.000000 1.611870 0.000000 
#    z 0.000000 0.000000 1.609480 
# 
# From -- ./inp_files/899.got.cif
#   From: 2010.05.17/outbox.cif.g08.bks.cpg/sg83_1_cif.got.tgz:899.got - 2010.06.03 18:55:12.
