data_PCOD9543699
_publ_section_title
;
Structure prediction by ZEFSAII (Michael W. Deem and Ramdas Pophale) SiO2 
 PCOD9543699
Probable space group: P 4/M
;
_chemical_formula_sum "Si O2"
_cell_formula_units_Z 48
_cell_length_a 8.148348
_cell_length_b 8.148348
_cell_length_c 32.808245
_cell_angle_alpha 90.000000
_cell_angle_beta 90.000000
_cell_angle_gamma 90.000000
_cell_volume 2178.322296
_symmetry_space_group_name_H-M "P 4/M"
_symmetry_group_IT_number 83
_symmetry_cell_setting 'tetragonal'
loop_
_space_group_symop_operation_xyz
x,y,z
-y,x,z
-x,-y,z
y,-x,z
-x,-y,-z
y,-x,-z
x,y,-z
-y,x,-z
loop_
_atom_site_type_symbol
_atom_site_label
_atom_site_fract_x
_atom_site_fract_y
_atom_site_fract_z
Si Si1 0.091231 0.736544 0.000000
Si Si2 0.406109 0.237924 0.500000
Si Si3 0.763412 0.409535 0.411520
Si Si4 0.736167 0.914036 0.088043
Si Si5 0.920084 0.263434 0.333346
Si Si6 0.763235 0.414670 0.834341
Si Si7 0.587543 0.763619 0.744361
O O1 0.119407 0.653935 0.043805
O O2 0.903347 0.800858 0.000000
O O3 0.594528 0.299833 0.500000
O O4 0.377397 0.157034 0.456099
O O5 0.699607 0.596748 0.409200
O O6 0.875691 0.362845 0.373854
O O7 0.630472 0.871835 0.127200
O O8 0.900090 0.801769 0.089485
O O9 0.877740 0.363082 0.292745
O O10 0.103893 0.197301 0.333408
O O11 0.698111 0.600217 0.836323
O O12 0.837818 0.386317 0.789440
O O13 0.401286 0.698564 0.741608
#
# Coordination Sequence:
#
# PCOD9543699 Si02
#       7
#     4   4   8   8   8   8   8
#     4   7  12  26  46  67  94 128 164 201 238 277
#     4   7  12  26  50  79 104 124 156 205 248 281
#     4   9  17  32  56  81 102 128 165 206 246 289
#     4   9  17  30  50  74  98 127 165 205 242 283
#     4  11  24  37  48  70 105 137 164 199 244 292
#     4   9  19  35  52  72 100 129 157 195 245 298
#     4   9  19  37  58  75  92 122 165 206 244 291
#
# _framework density 22.035309000000002
#
# number of rings (size 3 to 8) (size 9 to 14) (size 15 to 20)
#    0.000    3.000    0.000    4.000    0.000    6.000 
#    0.000    6.667    0.000    8.000    0.000    0.000 
#    0.000    0.000    0.000    0.000    0.000    0.000 
#
# Total GULP energy -268270.928287 kJ/mol
# GULP energy per Si atom -5588.977673 kJ/mol
# Density = 2.198516 g / cm^3
# Si number density = 22.035309 Si / 1000 Ang^3
#
#
#
# Elastic Constant Matrix: (Units=GPa)
#
#
# Indices 1 2 3 4 5 6 
#
# 1 53.7057 39.2107 66.3522 0.0000 0.0000 0.9784
# 2 39.2107 53.7057 66.3522 0.0000 0.0000 -0.9784
# 3 66.3522 66.3522 263.3260 0.0000 0.0000 0.0000
# 4 0.0000 0.0000 0.0000 85.0978 0.0000 0.0000
# 5 0.0000 0.0000 0.0000 0.0000 85.0978 0.0000
# 6 0.9784 -0.9784 0.0000 0.0000 0.0000 35.6476
#
#
#
# Elastic Compliance Matrix: (Units=1/GPa)
#
#
# Indices 1 2 3 4 5 6 
#
# 1 0.043030 -0.026217 -0.004236 0.000000 0.000000 -0.001900
# 2 -0.026217 0.043030 -0.004236 0.000000 0.000000 0.001900
# 3 -0.004236 -0.004236 0.005933 0.000000 0.000000 0.000000
# 4 0.000000 0.000000 0.000000 0.011751 0.000000 0.000000
# 5 0.000000 0.000000 0.000000 0.000000 0.011751 0.000000
# 6 -0.001900 0.001900 0.000000 0.000000 0.000000 0.028157
#
#
# Mechanical properties :
#
#
# Convention : Reuss Voigt Hill
#
# Bulk Modulus (GPa) = 44.22322 79.39638 61.80980
# Shear Modulus (GPa) = 22.66882 54.42345 38.54614
#
# Velocity S-wave (km/s) = 3.21089 4.97513 4.18699
# Velocity P-wave (km/s) = 5.81887 8.31338 7.17536
#
# Compressibility (1/GPa) = 0.02261255
#
# Stress axis : x y z
#
# Youngs Moduli (GPa) = 23.23986 23.23986 168.56098
#
# Poissons Ratio (x) = 0.60927 0.71411
# Poissons Ratio (y) = 0.60927 0.71411
# Poissons Ratio (z) = 0.09846 0.09846
#
# Static dielectric constant tensor:
#      x y z
#    x 1.797770 0.000000 0.000000 
#    y 0.000000 1.797770 0.000000 
#    z 0.000000 0.000000 1.824000 
# 
# From -- ./inp_files/3481.got.cif
#   From: 2010.05.17/outbox.cif.g08.bks.cpg/sg83_2_cif.got.tgz:3481.got - 2010.06.03 18:55:12.
