data_PCOD9543633
_publ_section_title
;
Structure prediction by ZEFSAII (Michael W. Deem and Ramdas Pophale) SiO2 
 PCOD9543633
Probable space group: P 4/M
;
_chemical_formula_sum "Si O2"
_cell_formula_units_Z 36
_cell_length_a 10.650546
_cell_length_b 10.650546
_cell_length_c 17.142744
_cell_angle_alpha 90.000000
_cell_angle_beta 90.000000
_cell_angle_gamma 90.000000
_cell_volume 1944.572253
_symmetry_space_group_name_H-M "P 4/M"
_symmetry_group_IT_number 83
_symmetry_cell_setting 'tetragonal'
loop_
_space_group_symop_operation_xyz
x,y,z
-y,x,z
-x,-y,z
y,-x,z
-x,-y,-z
y,-x,-z
x,y,-z
-y,x,-z
loop_
_atom_site_type_symbol
_atom_site_label
_atom_site_fract_x
_atom_site_fract_y
_atom_site_fract_z
Si Si1 0.849026 0.145184 0.000000
Si Si2 0.789784 0.974969 0.589861
Si Si3 0.198700 0.250380 0.173233
Si Si4 0.646871 0.962176 0.745032
Si Si5 0.555129 0.297198 0.916466
O O1 0.799231 0.191753 0.083867
O O2 0.996549 0.172413 0.000000
O O3 0.746757 0.969917 0.500000
O O4 0.682047 0.961856 0.653732
O O5 0.894326 0.865792 0.600640
O O6 0.302921 0.168980 0.217906
O O7 0.226665 0.398043 0.158890
O O8 0.065179 0.257728 0.215987
O O9 0.500000 0.000000 0.756125
O O10 0.646491 0.417596 0.916014
O O11 0.566731 0.227960 0.000000
#
# Coordination Sequence:
#
# PCOD9543633 Si02
#       5
#     4   8   8   8   8
#     4  11  22  36  54  77 104 154 194 229 312 352
#     4   9  18  37  66  93 117 147 181 228 294 353
#     4  12  22  38  53  81 118 145 194 247 283 341
#     4  12  25  37  59  89 116 154 190 232 294 346
#     4   9  18  33  52  70  98 148 198 239 279 318
#
# _framework density 18.513069999999999
#
# number of rings (size 3 to 8) (size 9 to 14) (size 15 to 20)
#    0.000    1.444    5.556    2.667    0.000    0.889 
#    0.000    1.111    0.000    0.000    0.000    0.000 
#    0.000    3.556    0.000    0.000    0.000    0.000 
#
# Total GULP energy -200418.376580 kJ/mol
# GULP energy per Si atom -5567.177127 kJ/mol
# Density = 1.847093 g / cm^3
# Si number density = 18.513070 Si / 1000 Ang^3
#
#
#
# Elastic Constant Matrix: (Units=GPa)
#
#
# Indices 1 2 3 4 5 6 
#
# 1 71.7563 17.4714 40.9511 0.0000 0.0000 -4.9286
# 2 17.4714 71.7563 40.9511 0.0000 0.0000 4.9286
# 3 40.9511 40.9511 113.6579 0.0000 0.0000 0.0000
# 4 0.0000 0.0000 0.0000 27.0458 0.0000 0.0000
# 5 0.0000 0.0000 0.0000 0.0000 27.0458 0.0000
# 6 -4.9286 4.9286 0.0000 0.0000 0.0000 21.7506
#
#
#
# Elastic Compliance Matrix: (Units=1/GPa)
#
#
# Indices 1 2 3 4 5 6 
#
# 1 0.017979 -0.001233 -0.006033 0.000000 0.000000 0.004353
# 2 -0.001233 0.017979 -0.006033 0.000000 0.000000 -0.004353
# 3 -0.006033 -0.006033 0.013146 0.000000 0.000000 0.000000
# 4 0.000000 0.000000 0.000000 0.036974 0.000000 0.000000
# 5 0.000000 0.000000 0.000000 0.000000 0.036974 0.000000
# 6 0.004353 -0.004353 0.000000 0.000000 0.000000 0.047949
#
#
# Mechanical properties :
#
#
# Convention : Reuss Voigt Hill
#
# Bulk Modulus (GPa) = 44.43816 50.65752 47.54784
# Shear Modulus (GPa) = 24.37818 25.68823 25.03321
#
# Velocity S-wave (km/s) = 3.63272 3.72906 3.68120
# Velocity P-wave (km/s) = 6.45379 6.77965 6.61872
#
# Compressibility (1/GPa) = 0.02250318
#
# Stress axis : x y z
#
# Youngs Moduli (GPa) = 55.62173 55.62173 76.06882
#
# Poissons Ratio (x) = 0.06860 0.45895
# Poissons Ratio (y) = 0.06860 0.45895
# Poissons Ratio (z) = 0.33559 0.33559
#
# Static dielectric constant tensor:
#      x y z
#    x 1.682100 0.000000 0.000000 
#    y 0.000000 1.682100 0.000000 
#    z 0.000000 0.000000 1.657230 
# 
# From -- ./inp_files/2271.got.cif
#   From: 2010.05.17/outbox.cif.g08.bks.cpg/sg83_2_cif.got.tgz:2271.got - 2010.06.03 18:55:12.
