data_PCOD9543083
_publ_section_title
;
Structure prediction by ZEFSAII (Michael W. Deem and Ramdas Pophale) SiO2 
 PCOD9543083
Probable space group: I -4 
;
_chemical_formula_sum "Si O2"
_cell_formula_units_Z 32
_cell_length_a 7.834389
_cell_length_b 7.834389
_cell_length_c 19.272552
_cell_angle_alpha 90.000000
_cell_angle_beta 90.000000
_cell_angle_gamma 90.000000
_cell_volume 1182.903971
_symmetry_space_group_name_H-M "I -4 "
_symmetry_group_IT_number 82
_symmetry_cell_setting 'tetragonal'
loop_
_space_group_symop_operation_xyz
x,y,z
y,-x,-z
-x,-y,z
-y,x,-z
1/2+x,1/2+y,1/2+z
1/2+y,1/2-x,1/2-z
1/2-x,1/2-y,1/2+z
1/2-y,1/2+x,1/2-z
loop_
_atom_site_type_symbol
_atom_site_label
_atom_site_fract_x
_atom_site_fract_y
_atom_site_fract_z
Si Si1 0.808855 0.439878 0.026070
Si Si2 0.859047 0.782988 0.613172
Si Si3 0.815856 0.082465 0.097732
Si Si4 0.752694 0.864766 0.755762
O O1 0.760901 0.557677 0.091703
O O2 0.810356 0.236901 0.042064
O O3 0.000000 0.500000 0.012758
O O4 0.708255 0.481535 0.953989
O O5 0.798265 0.587760 0.604490
O O6 0.884198 0.816979 0.694066
O O7 0.801530 0.177776 0.171243
O O8 0.000000 0.000000 0.089762
O O9 0.568673 0.780198 0.739044
#
# Coordination Sequence:
#
# PCOD9543083 Si02
#       4
#     8   8   8   8
#     4  12  25  50  79 118 164 210 274 341 416 496
#     4  12  27  49  79 118 162 215 271 343 413 491
#     4  12  24  44  82 117 158 222 271 336 419 488
#     4  11  22  46  79 112 160 215 270 329 406 488
#
# _framework density 27.052071999999999
#
# number of rings (size 3 to 8) (size 9 to 14) (size 15 to 20)
#    0.000    0.250    7.500    1.500    0.000    0.500 
#   13.500    0.000    0.000    0.000    0.000    0.000 
#    0.000    0.000    0.000    0.000    0.000    0.000 
#
# Total GULP energy -89496.954247 kJ/mol
# GULP energy per Si atom -5593.559640 kJ/mol
# Density = 2.699050 g / cm^3
# Si number density = 27.052072 Si / 1000 Ang^3
#
#
#
# Elastic Constant Matrix: (Units=GPa)
#
#
# Indices 1 2 3 4 5 6 
#
# 1 118.4109 11.2138 7.2145 0.0000 0.0000 -16.2997
# 2 11.2138 118.4109 7.2145 0.0000 0.0000 16.2997
# 3 7.2145 7.2145 166.9220 0.0000 0.0000 0.0000
# 4 0.0000 0.0000 0.0000 27.9634 0.0000 0.0000
# 5 0.0000 0.0000 0.0000 0.0000 27.9634 0.0000
# 6 -16.2997 16.2997 0.0000 0.0000 0.0000 18.6314
#
#
#
# Elastic Compliance Matrix: (Units=1/GPa)
#
#
# Indices 1 2 3 4 5 6 
#
# 1 0.010231 -0.002479 -0.000335 0.000000 0.000000 0.011119
# 2 -0.002479 0.010231 -0.000335 0.000000 0.000000 -0.011119
# 3 -0.000335 -0.000335 0.006020 0.000000 0.000000 0.000000
# 4 0.000000 0.000000 0.000000 0.035761 0.000000 0.000000
# 5 0.000000 0.000000 0.000000 0.000000 0.035761 0.000000
# 6 0.011119 -0.011119 0.000000 0.000000 0.000000 0.073128
#
#
# Mechanical properties :
#
#
# Convention : Reuss Voigt Hill
#
# Bulk Modulus (GPa) = 49.54578 50.55885 50.05231
# Shear Modulus (GPa) = 27.15053 40.11835 33.63444
#
# Velocity S-wave (km/s) = 3.17146 3.85516 3.52990
# Velocity P-wave (km/s) = 5.63610 6.20857 5.92925
#
# Compressibility (1/GPa) = 0.02018335
#
# Stress axis : x y z
#
# Youngs Moduli (GPa) = 97.74234 97.74234 166.11887
#
# Poissons Ratio (x) = 0.24231 0.05566
# Poissons Ratio (y) = 0.24231 0.05566
# Poissons Ratio (z) = 0.03275 0.03275
#
# Static dielectric constant tensor:
#      x y z
#    x 2.161510 0.000000 0.000000 
#    y 0.000000 2.161510 0.000000 
#    z 0.000000 0.000000 2.069060 
# 
# From -- ./inp_files/2890.got.cif
#   From: 2010.05.17/outbox.cif.g08.bks.cpg/sg82_2_cif.got.tgz:2890.got - 2010.06.03 18:52:26.
