data_PCOD9543000
_publ_section_title
;
Structure prediction by ZEFSAII (Michael W. Deem and Ramdas Pophale) SiO2 
 PCOD9543000
Probable space group: I -4 
;
_chemical_formula_sum "Si O2"
_cell_formula_units_Z 40
_cell_length_a 8.651130
_cell_length_b 8.651130
_cell_length_c 21.290269
_cell_angle_alpha 90.000000
_cell_angle_beta 90.000000
_cell_angle_gamma 90.000000
_cell_volume 1593.407383
_symmetry_space_group_name_H-M "I -4 "
_symmetry_group_IT_number 82
_symmetry_cell_setting 'tetragonal'
loop_
_space_group_symop_operation_xyz
x,y,z
y,-x,-z
-x,-y,z
-y,x,-z
1/2+x,1/2+y,1/2+z
1/2+y,1/2-x,1/2-z
1/2-x,1/2-y,1/2+z
1/2-y,1/2+x,1/2-z
loop_
_atom_site_type_symbol
_atom_site_label
_atom_site_fract_x
_atom_site_fract_y
_atom_site_fract_z
Si Si1 0.896617 0.853879 0.763306
Si Si2 0.875879 0.221858 0.649128
Si Si3 0.636515 0.629888 0.581964
Si Si4 0.166198 0.428134 0.167305
Si Si5 0.090357 0.364248 0.969076
O O1 0.848112 0.737541 0.817862
O O2 0.731344 0.904351 0.736859
O O3 0.987868 0.790789 0.701369
O O4 0.000000 0.000000 0.783310
O O5 0.913327 0.274227 0.578221
O O6 0.789327 0.056165 0.642004
O O7 0.500000 0.500000 0.584139
O O8 0.650707 0.760140 0.635088
O O9 0.627463 0.730034 0.517876
O O10 0.794523 0.537845 0.577037
O O11 0.000000 0.500000 0.161639
O O12 0.000000 0.500000 0.004550
#
# Coordination Sequence:
#
# PCOD9543000 Si02
#       5
#     8   8   8   8   8
#     4  10  26  48  71 110 149 190 250 304 376 445
#     4  11  27  47  75 106 151 197 244 313 369 446
#     4  12  25  48  73 109 147 189 255 306 372 447
#     4  11  26  45  75 106 144 192 245 308 371 442
#     4  12  26  45  73 108 146 198 245 308 375 436
#
# _framework density 25.103438000000001
#
# number of rings (size 3 to 8) (size 9 to 14) (size 15 to 20)
#    0.000    0.800    2.000    3.000   14.000    1.600 
#    0.000    0.000    0.000    0.000    0.000    0.000 
#    0.000    0.000    0.000    0.000    0.000    0.000 
#
# Total GULP energy -111874.168144 kJ/mol
# GULP energy per Si atom -5593.708407 kJ/mol
# Density = 2.504630 g / cm^3
# Si number density = 25.103438 Si / 1000 Ang^3
#
#
#
# Elastic Constant Matrix: (Units=GPa)
#
#
# Indices 1 2 3 4 5 6 
#
# 1 94.3056 11.7022 20.6807 0.0000 0.0000 1.8112
# 2 11.7022 94.3056 20.6807 0.0000 0.0000 -1.8112
# 3 20.6807 20.6807 98.3803 0.0000 0.0000 0.0000
# 4 0.0000 0.0000 0.0000 19.7995 0.0000 0.0000
# 5 0.0000 0.0000 0.0000 0.0000 19.7995 0.0000
# 6 1.8112 -1.8112 0.0000 0.0000 0.0000 36.8658
#
#
#
# Elastic Compliance Matrix: (Units=1/GPa)
#
#
# Indices 1 2 3 4 5 6 
#
# 1 0.011204 -0.000928 -0.002160 0.000000 0.000000 -0.000596
# 2 -0.000928 0.011204 -0.002160 0.000000 0.000000 0.000596
# 3 -0.002160 -0.002160 0.011073 0.000000 0.000000 0.000000
# 4 0.000000 0.000000 0.000000 0.050506 0.000000 0.000000
# 5 0.000000 0.000000 0.000000 0.000000 0.050506 0.000000
# 6 -0.000596 0.000596 0.000000 0.000000 0.000000 0.027184
#
#
# Mechanical properties :
#
#
# Convention : Reuss Voigt Hill
#
# Bulk Modulus (GPa) = 43.50782 43.67989 43.59385
# Shear Modulus (GPa) = 27.80314 30.88816 29.34565
#
# Velocity S-wave (km/s) = 3.33159 3.51156 3.42276
# Velocity P-wave (km/s) = 5.67171 5.82058 5.74663
#
# Compressibility (1/GPa) = 0.02298437
#
# Stress axis : x y z
#
# Youngs Moduli (GPa) = 89.25273 89.25273 90.31119
#
# Poissons Ratio (x) = 0.08283 0.19509
# Poissons Ratio (y) = 0.08283 0.19509
# Poissons Ratio (z) = 0.19280 0.19280
#
# Static dielectric constant tensor:
#      x y z
#    x 2.029420 0.000000 0.000000 
#    y 0.000000 2.029420 0.000000 
#    z 0.000000 0.000000 2.000310 
# 
# From -- ./inp_files/3360.got.cif
#   From: 2010.05.17/outbox.cif.g08.bks.cpg/sg82_2_cif.got.tgz:3360.got - 2010.06.03 18:52:26.
