data_PCOD9543480
_publ_section_title
;
Structure prediction by ZEFSAII (Michael W. Deem and Ramdas Pophale) SiO2 
 PCOD9543480
Probable space group: P 4/M
;
_chemical_formula_sum "Si O2"
_cell_formula_units_Z 64
_cell_length_a 20.515777
_cell_length_b 20.515777
_cell_length_c 8.923332
_cell_angle_alpha 90.000000
_cell_angle_beta 90.000000
_cell_angle_gamma 90.000000
_cell_volume 3755.804614
_symmetry_space_group_name_H-M "P 4/M"
_symmetry_group_IT_number 83
_symmetry_cell_setting 'tetragonal'
loop_
_space_group_symop_operation_xyz
x,y,z
-y,x,z
-x,-y,z
y,-x,z
-x,-y,-z
y,-x,-z
x,y,-z
-y,x,-z
loop_
_atom_site_type_symbol
_atom_site_label
_atom_site_fract_x
_atom_site_fract_y
_atom_site_fract_z
Si Si1 0.769652 0.539188 0.825302
Si Si2 0.201785 0.316740 0.821486
Si Si3 0.065608 0.360312 0.681538
Si Si4 0.420325 0.574820 0.667073
Si Si5 0.503044 0.900545 0.322290
Si Si6 0.298034 0.214530 0.678600
Si Si7 0.701572 0.406347 0.829368
Si Si8 0.922773 0.349942 0.682742
O O1 0.759279 0.615213 0.789716
O O2 0.826674 0.514462 0.717779
O O3 0.715263 0.483650 0.813302
O O4 0.791870 0.537642 0.000000
O O5 0.129527 0.328828 0.754928
O O6 0.239883 0.256008 0.751465
O O7 0.198162 0.309076 0.000000
O O8 0.072902 0.358498 0.500000
O O9 0.062218 0.437293 0.727015
O O10 0.996110 0.328989 0.722988
O O11 0.413032 0.496711 0.678579
O O12 0.398668 0.594901 0.500000
O O13 0.373323 0.605664 0.788318
O O14 0.506937 0.911118 0.500000
O O15 0.575280 0.914028 0.262364
O O16 0.290350 0.215232 0.500000
O O17 0.364517 0.251855 0.723731
O O18 0.307351 0.139462 0.730083
O O19 0.715362 0.387315 0.000000
O O20 0.920589 0.351521 0.500000
#
# Coordination Sequence:
#
# PCOD9543480 Si02
#       8
#     8   8   8   8   8   8   8   8
#     4   9  19  33  47  65  95 129 163 203 248 296
#     4  10  21  37  52  72 103 137 172 212 252 301
#     4   9  17  31  53  77 101 134 171 207 251 302
#     4   9  20  38  54  68  86 111 154 214 271 321
#     4   9  15  27  48  73  99 128 163 202 242 290
#     4  11  22  36  53  75 102 135 172 213 260 305
#     4  11  22  34  49  70  95 126 164 208 257 312
#     4   9  17  30  50  77 105 130 166 212 253 301
#
# _framework density 17.040289000000001
#
# number of rings (size 3 to 8) (size 9 to 14) (size 15 to 20)
#    0.000    2.375    1.250    1.875    1.750    3.000 
#    0.000    2.500    0.000    3.000    0.000    0.000 
#    0.000    0.500    0.000    5.750    0.000    2.250 
#
# Total GULP energy -356627.810703 kJ/mol
# GULP energy per Si atom -5572.309542 kJ/mol
# Density = 1.700150 g / cm^3
# Si number density = 17.040289 Si / 1000 Ang^3
#
#
#
# Elastic Constant Matrix: (Units=GPa)
#
#
# Indices 1 2 3 4 5 6 
#
# 1 111.4509 30.9202 32.0251 0.0000 0.0000 7.2173
# 2 30.9202 111.4509 32.0251 0.0000 0.0000 -7.2173
# 3 32.0251 32.0251 25.0247 0.0000 0.0000 0.0000
# 4 0.0000 0.0000 0.0000 10.0191 0.0000 0.0000
# 5 0.0000 0.0000 0.0000 0.0000 10.0191 0.0000
# 6 7.2173 -7.2173 0.0000 0.0000 0.0000 15.8927
#
#
#
# Elastic Compliance Matrix: (Units=1/GPa)
#
#
# Indices 1 2 3 4 5 6 
#
# 1 0.015037 0.001519 -0.021186 0.000000 0.000000 -0.006139
# 2 0.001519 0.015037 -0.021186 0.000000 0.000000 0.006139
# 3 -0.021186 -0.021186 0.094186 0.000000 0.000000 0.000000
# 4 0.000000 0.000000 0.000000 0.099809 0.000000 0.000000
# 5 0.000000 0.000000 0.000000 0.000000 0.099809 0.000000
# 6 -0.006139 0.006139 0.000000 0.000000 0.000000 0.068498
#
#
# Mechanical properties :
#
#
# Convention : Reuss Voigt Hill
#
# Bulk Modulus (GPa) = 23.50094 48.65190 36.07642
# Shear Modulus (GPa) = 10.24028 17.38326 13.81177
#
# Velocity S-wave (km/s) = 2.45408 3.19741 2.85008
# Velocity P-wave (km/s) = 4.67454 6.49956 5.66108
#
# Compressibility (1/GPa) = 0.04255148
#
# Stress axis : x y z
#
# Youngs Moduli (GPa) = 66.50430 66.50430 10.61724
#
# Poissons Ratio (x) = -0.10100 0.22494
# Poissons Ratio (y) = -0.10100 0.22494
# Poissons Ratio (z) = 1.40899 1.40899
#
# Static dielectric constant tensor:
#      x y z
#    x 1.597930 0.000000 0.000000 
#    y 0.000000 1.597930 0.000000 
#    z 0.000000 0.000000 1.589110 
# 
# From -- ./inp_files/1284.got.cif
#   From: 2010.05.17/outbox.cif.g08.bks.cpg/sg83_1_cif.got.tgz:1284.got - 2010.06.03 18:55:12.
