data_PCOD9543552
_publ_section_title
;
Structure prediction by ZEFSAII (Michael W. Deem and Ramdas Pophale) SiO2 
 PCOD9543552
Probable space group: P 4/M
;
_chemical_formula_sum "Si O2"
_cell_formula_units_Z 28
_cell_length_a 8.154336
_cell_length_b 8.154336
_cell_length_c 19.897954
_cell_angle_alpha 90.000000
_cell_angle_beta 90.000000
_cell_angle_gamma 90.000000
_cell_volume 1323.078547
_symmetry_space_group_name_H-M "P 4/M"
_symmetry_group_IT_number 83
_symmetry_cell_setting 'tetragonal'
loop_
_space_group_symop_operation_xyz
x,y,z
-y,x,z
-x,-y,z
y,-x,z
-x,-y,-z
y,-x,-z
x,y,-z
-y,x,-z
loop_
_atom_site_type_symbol
_atom_site_label
_atom_site_fract_x
_atom_site_fract_y
_atom_site_fract_z
Si Si1 0.737761 0.911265 0.627056
Si Si2 0.264489 0.919704 0.000000
Si Si3 0.577266 0.763535 0.500000
Si Si4 0.000000 0.500000 0.115055
Si Si5 0.091863 0.738483 0.777787
O O1 0.620008 0.862405 0.567053
O O2 0.670989 0.885106 0.702381
O O3 0.902470 0.801086 0.621533
O O4 0.376802 0.904151 0.065706
O O5 0.196029 0.106737 0.000000
O O6 0.394472 0.696088 0.500000
O O7 0.114610 0.606536 0.164215
O O8 0.902797 0.800352 0.784065
#
# Coordination Sequence:
#
# PCOD9543552 Si02
#       5
#     8   4   4   4   8
#     4   9  19  36  58  82 107 141 191 242 283 331
#     4  10  22  40  60  84 116 152 190 228 264 318
#     4  11  24  37  50  76 116 155 190 233 288 342
#     4  11  20  32  62  91 110 142 186 227 276 326
#     4   9  19  36  58  85 114 144 185 235 281 332
#
# _framework density 21.162763000000002
#
# number of rings (size 3 to 8) (size 9 to 14) (size 15 to 20)
#    0.000    2.286    0.000    4.286    0.000   10.286 
#    0.000    0.000    0.000   35.143    0.000    0.000 
#    0.000    0.000    0.000    0.000    0.000    0.000 
#
# Total GULP energy -156561.483308 kJ/mol
# GULP energy per Si atom -5591.481547 kJ/mol
# Density = 2.111460 g / cm^3
# Si number density = 21.162763 Si / 1000 Ang^3
#
#
#
# Elastic Constant Matrix: (Units=GPa)
#
#
# Indices 1 2 3 4 5 6 
#
# 1 75.1005 28.6434 65.9387 0.0000 0.0000 -4.0387
# 2 28.6434 75.1005 65.9387 0.0000 0.0000 4.0387
# 3 65.9387 65.9387 205.3328 0.0000 0.0000 0.0000
# 4 0.0000 0.0000 0.0000 224.4707 0.0000 0.0000
# 5 0.0000 0.0000 0.0000 0.0000 224.4707 0.0000
# 6 -4.0387 4.0387 0.0000 0.0000 0.0000 22.7061
#
#
#
# Elastic Compliance Matrix: (Units=1/GPa)
#
#
# Indices 1 2 3 4 5 6 
#
# 1 0.019250 -0.002962 -0.005231 0.000000 0.000000 0.003951
# 2 -0.002962 0.019250 -0.005231 0.000000 0.000000 -0.003951
# 3 -0.005231 -0.005231 0.008230 0.000000 0.000000 0.000000
# 4 0.000000 0.000000 0.000000 0.004455 0.000000 0.000000
# 5 0.000000 0.000000 0.000000 0.000000 0.004455 0.000000
# 6 0.003951 -0.003951 0.000000 0.000000 0.000000 0.045446
#
#
# Mechanical properties :
#
#
# Convention : Reuss Voigt Hill
#
# Bulk Modulus (GPa) = 50.29311 75.17504 62.73408
# Shear Modulus (GPa) = 37.15801 107.33037 72.24419
#
# Velocity S-wave (km/s) = 4.19480 7.12929 5.84906
# Velocity P-wave (km/s) = 6.87592 10.16702 8.67890
#
# Compressibility (1/GPa) = 0.01988344
#
# Stress axis : x y z
#
# Youngs Moduli (GPa) = 51.94759 51.94759 121.51275
#
# Poissons Ratio (x) = 0.15387 0.63559
# Poissons Ratio (y) = 0.15387 0.63559
# Poissons Ratio (z) = 0.27172 0.27172
#
# Static dielectric constant tensor:
#      x y z
#    x 1.763740 0.000000 0.000000 
#    y 0.000000 1.763740 0.000000 
#    z 0.000000 0.000000 1.768380 
# 
# From -- ./inp_files/2779.got.cif
#   From: 2010.05.17/outbox.cif.g08.bks.cpg/sg83_2_cif.got.tgz:2779.got - 2010.06.03 18:55:12.
