data_PCOD9543876
_publ_section_title
;
Structure prediction by ZEFSAII (Michael W. Deem and Ramdas Pophale) SiO2 
 PCOD9543876
Probable space group: P 4/M
;
_chemical_formula_sum "Si O2"
_cell_formula_units_Z 36
_cell_length_a 8.113837
_cell_length_b 8.113837
_cell_length_c 25.525029
_cell_angle_alpha 90.000000
_cell_angle_beta 90.000000
_cell_angle_gamma 90.000000
_cell_volume 1680.423715
_symmetry_space_group_name_H-M "P 4/M"
_symmetry_group_IT_number 83
_symmetry_cell_setting 'tetragonal'
loop_
_space_group_symop_operation_xyz
x,y,z
-y,x,z
-x,-y,z
y,-x,z
-x,-y,-z
y,-x,-z
x,y,-z
-y,x,-z
loop_
_atom_site_type_symbol
_atom_site_label
_atom_site_fract_x
_atom_site_fract_y
_atom_site_fract_z
Si Si1 0.761488 0.405620 0.058932
Si Si2 0.234944 0.416303 0.442824
Si Si3 0.263133 0.908100 0.226651
Si Si4 0.000000 0.500000 0.142307
Si Si5 0.913494 0.736205 0.657160
O O1 0.702156 0.596251 0.063506
O O2 0.894759 0.382922 0.104025
O O3 0.827820 0.380470 0.000000
O O4 0.397896 0.301887 0.440964
O O5 0.155408 0.386924 0.500000
O O6 0.129932 0.373222 0.392331
O O7 0.393773 0.884547 0.180789
O O8 0.336335 0.883756 0.284919
O O9 0.098306 0.798813 0.222682
O O10 0.099951 0.800823 0.654540
#
# Coordination Sequence:
#
# PCOD9543876 Si02
#       5
#     8   8   8   4   8
#     4   9  19  35  52  74 107 139 167 207 255 298
#     4   9  19  35  53  75 103 131 162 207 259 303
#     4   9  20  36  50  71 105 137 165 208 260 299
#     4  12  19  30  56  82  97 130 180 214 242 300
#     4   9  19  35  52  71  99 134 170 206 249 304
#
# _framework density 21.423168
#
# number of rings (size 3 to 8) (size 9 to 14) (size 15 to 20)
#    0.000    2.667    0.000    4.333    0.000    5.333 
#    0.000    3.333    0.000    2.667    0.000    9.333 
#    0.000    0.000    0.000    0.000    0.000    0.000 
#
# Total GULP energy -201105.665452 kJ/mol
# GULP energy per Si atom -5586.268485 kJ/mol
# Density = 2.137441 g / cm^3
# Si number density = 21.423168 Si / 1000 Ang^3
#
#
#
# Elastic Constant Matrix: (Units=GPa)
#
#
# Indices 1 2 3 4 5 6 
#
# 1 32.7480 1.6714 38.3788 0.0000 0.0000 2.8390
# 2 1.6714 32.7480 38.3788 0.0000 0.0000 -2.8390
# 3 38.3788 38.3788 202.8846 0.0000 0.0000 0.0000
# 4 0.0000 0.0000 0.0000 69.6290 0.0000 0.0000
# 5 0.0000 0.0000 0.0000 0.0000 69.6290 0.0000
# 6 2.8390 -2.8390 0.0000 0.0000 0.0000 24.8491
#
#
#
# Elastic Compliance Matrix: (Units=1/GPa)
#
#
# Indices 1 2 3 4 5 6 
#
# 1 0.041559 0.008694 -0.009506 0.000000 0.000000 -0.003755
# 2 0.008694 0.041559 -0.009506 0.000000 0.000000 0.003755
# 3 -0.009506 -0.009506 0.008525 0.000000 0.000000 0.000000
# 4 0.000000 0.000000 0.000000 0.014362 0.000000 0.000000
# 5 0.000000 0.000000 0.000000 0.000000 0.014362 0.000000
# 6 -0.003755 0.003755 0.000000 0.000000 0.000000 0.041101
#
#
# Mechanical properties :
#
#
# Convention : Reuss Voigt Hill
#
# Bulk Modulus (GPa) = 14.08326 47.24875 30.66601
# Shear Modulus (GPa) = 24.29872 45.48486 34.89179
#
# Velocity S-wave (km/s) = 3.37148 4.61278 4.04009
# Velocity P-wave (km/s) = 4.66304 7.10445 6.00904
#
# Compressibility (1/GPa) = 0.07100627
#
# Stress axis : x y z
#
# Youngs Moduli (GPa) = 24.06241 24.06241 117.29704
#
# Poissons Ratio (x) = -0.20920 1.11504
# Poissons Ratio (y) = -0.20920 1.11504
# Poissons Ratio (z) = 0.22874 0.22874
#
# Static dielectric constant tensor:
#      x y z
#    x 1.784350 0.000000 0.000000 
#    y 0.000000 1.784350 0.000000 
#    z 0.000000 0.000000 1.787020 
# 
# From -- ./inp_files/3093.got.cif
#   From: 2010.05.17/outbox.cif.g08.bks.cpg/sg83_2_cif.got.tgz:3093.got - 2010.06.03 18:55:12.
