data_PCOD9543417
_publ_section_title
;
Structure prediction by ZEFSAII (Michael W. Deem and Ramdas Pophale) SiO2 
 PCOD9543417
Probable space group: P 4/M
;
_chemical_formula_sum "Si O2"
_cell_formula_units_Z 52
_cell_length_a 18.266317
_cell_length_b 18.266317
_cell_length_c 8.078443
_cell_angle_alpha 90.000000
_cell_angle_beta 90.000000
_cell_angle_gamma 90.000000
_cell_volume 2695.439855
_symmetry_space_group_name_H-M "P 4/M"
_symmetry_group_IT_number 83
_symmetry_cell_setting 'tetragonal'
loop_
_space_group_symop_operation_xyz
x,y,z
-y,x,z
-x,-y,z
y,-x,z
-x,-y,-z
y,-x,-z
x,y,-z
-y,x,-z
loop_
_atom_site_type_symbol
_atom_site_label
_atom_site_fract_x
_atom_site_fract_y
_atom_site_fract_z
Si Si1 0.894295 0.200631 0.802837
Si Si2 0.072883 0.902140 0.500000
Si Si3 0.297733 0.962163 0.804932
Si Si4 0.066953 0.455159 0.308043
Si Si5 0.264881 0.797365 0.805183
Si Si6 0.227494 0.426745 0.694153
Si Si7 0.481095 0.615587 0.198802
O O1 0.902158 0.136962 0.668470
O O2 0.814575 0.236352 0.768256
O O3 0.964697 0.251879 0.776066
O O4 0.893939 0.179021 0.000000
O O5 0.985164 0.901129 0.500000
O O6 0.371115 0.957996 0.700021
O O7 0.257425 0.884884 0.773208
O O8 0.317565 0.961543 0.000000
O O9 0.073306 0.479010 0.500000
O O10 0.149337 0.455251 0.233956
O O11 0.000000 0.500000 0.229318
O O12 0.338782 0.770374 0.719961
O O13 0.278392 0.787633 0.000000
O O14 0.224313 0.440132 0.500000
O O15 0.301135 0.463925 0.757733
O O16 0.418069 0.558697 0.257528
O O17 0.481982 0.611556 0.000000
#
# Coordination Sequence:
#
# PCOD9543417 Si02
#       7
#     8   4   8   8   8   8   8
#     4  10  21  37  56  80 109 144 190 241 288 343
#     4  11  24  36  52  80 109 144 190 235 289 350
#     4   9  18  33  54  78 102 139 185 228 281 336
#     4   9  19  36  55  77 110 150 185 223 280 340
#     4   9  18  34  55  76 107 145 184 232 282 335
#     4  10  20  34  56  85 113 146 186 230 279 336
#     4   9  19  38  62  85 112 151 192 228 279 345
#
# _framework density 19.291844000000001
#
# number of rings (size 3 to 8) (size 9 to 14) (size 15 to 20)
#    0.000    2.538    0.000    1.846    2.154    3.385 
#    2.769    1.538    0.000    0.000    0.000    0.000 
#    0.000    0.000    0.000    0.000    0.000    0.000 
#
# Total GULP energy -289636.856108 kJ/mol
# GULP energy per Si atom -5569.939541 kJ/mol
# Density = 1.924793 g / cm^3
# Si number density = 19.291844 Si / 1000 Ang^3
#
#
#
# Elastic Constant Matrix: (Units=GPa)
#
#
# Indices 1 2 3 4 5 6 
#
# 1 86.1872 49.8806 28.8239 0.0000 0.0000 9.1809
# 2 49.8806 86.1872 28.8239 0.0000 0.0000 -9.1809
# 3 28.8239 28.8239 25.5811 0.0000 0.0000 0.0000
# 4 0.0000 0.0000 0.0000 18.4239 0.0000 0.0000
# 5 0.0000 0.0000 0.0000 0.0000 18.4239 0.0000
# 6 9.1809 -9.1809 0.0000 0.0000 0.0000 34.5847
#
#
#
# Elastic Compliance Matrix: (Units=1/GPa)
#
#
# Indices 1 2 3 4 5 6 
#
# 1 0.022938 -0.008876 -0.015845 0.000000 0.000000 -0.008445
# 2 -0.008876 0.022938 -0.015845 0.000000 0.000000 0.008445
# 3 -0.015845 -0.015845 0.074798 0.000000 0.000000 0.000000
# 4 0.000000 0.000000 0.000000 0.054277 0.000000 0.000000
# 5 0.000000 0.000000 0.000000 0.000000 0.054277 0.000000
# 6 -0.008445 0.008445 0.000000 0.000000 0.000000 0.033398
#
#
# Mechanical properties :
#
#
# Convention : Reuss Voigt Hill
#
# Bulk Modulus (GPa) = 25.28879 45.89025 35.58952
# Shear Modulus (GPa) = 14.00795 20.31498 17.16147
#
# Velocity S-wave (km/s) = 2.69756 3.24857 2.98580
# Velocity P-wave (km/s) = 4.77906 6.15711 5.51133
#
# Compressibility (1/GPa) = 0.03954322
#
# Stress axis : x y z
#
# Youngs Moduli (GPa) = 43.59514 43.59514 13.36933
#
# Poissons Ratio (x) = 0.38695 0.21183
# Poissons Ratio (y) = 0.38695 0.21183
# Poissons Ratio (z) = 0.69076 0.69076
#
# Static dielectric constant tensor:
#      x y z
#    x 1.694860 0.000000 0.000000 
#    y 0.000000 1.694860 0.000000 
#    z 0.000000 0.000000 1.712950 
# 
# From -- ./inp_files/990.got.cif
#   From: 2010.05.17/outbox.cif.g08.bks.cpg/sg83_1_cif.got.tgz:990.got - 2010.06.03 18:55:12.
