data_PCOD9543721
_publ_section_title
;
Structure prediction by ZEFSAII (Michael W. Deem and Ramdas Pophale) SiO2 
 PCOD9543721
Probable space group: P 4/M
;
_chemical_formula_sum "Si O2"
_cell_formula_units_Z 48
_cell_length_a 8.099249
_cell_length_b 8.099249
_cell_length_c 33.213468
_cell_angle_alpha 90.000000
_cell_angle_beta 90.000000
_cell_angle_gamma 90.000000
_cell_volume 2178.731573
_symmetry_space_group_name_H-M "P 4/M"
_symmetry_group_IT_number 83
_symmetry_cell_setting 'tetragonal'
loop_
_space_group_symop_operation_xyz
x,y,z
-y,x,z
-x,-y,z
y,-x,z
-x,-y,-z
y,-x,-z
x,y,-z
-y,x,-z
loop_
_atom_site_type_symbol
_atom_site_label
_atom_site_fract_x
_atom_site_fract_y
_atom_site_fract_z
Si Si1 0.088590 0.262880 0.245287
Si Si2 0.763987 0.589994 0.922803
Si Si3 0.262079 0.094175 0.454878
Si Si4 0.237221 0.405154 0.833397
Si Si5 0.586911 0.236321 0.675969
Si Si6 0.500000 0.000000 0.609715
Si Si7 0.078641 0.264858 0.000000
O O1 0.122853 0.350750 0.202964
O O2 0.145178 0.375893 0.282242
O O3 0.901427 0.201532 0.247845
O O4 0.597720 0.700463 0.925520
O O5 0.835156 0.619539 0.878132
O O6 0.878705 0.636858 0.959659
O O7 0.330265 0.119989 0.500000
O O8 0.393110 0.115927 0.419691
O O9 0.202239 0.903360 0.451615
O O10 0.405738 0.297667 0.830344
O O11 0.700807 0.398306 0.673872
O O12 0.611715 0.110397 0.639245
O O13 0.894378 0.197806 0.000000
#
# Coordination Sequence:
#
# PCOD9543721 Si02
#       7
#     8   8   8   8   8   4   4
#     4  11  24  40  58  83 115 151 192 239 289 343
#     4   9  19  37  60  84 109 142 187 235 283 342
#     4   9  19  36  58  86 120 157 196 239 290 347
#     4   9  19  37  61  87 113 143 184 235 290 347
#     4  11  24  40  58  82 114 152 194 241 294 351
#     4  12  21  36  60  88 116 152 198 247 292 340
#     4  11  24  37  50  76 116 153 186 231 286 342
#
# _framework density 22.031165000000001
#
# number of rings (size 3 to 8) (size 9 to 14) (size 15 to 20)
#    0.000    1.917    0.000    5.250    0.000    6.667 
#    0.000    6.667    0.000    0.000    0.000    7.000 
#    0.000    0.000    0.000    0.000    0.000    0.000 
#
# Total GULP energy -268713.901943 kJ/mol
# GULP energy per Si atom -5598.206290 kJ/mol
# Density = 2.198102 g / cm^3
# Si number density = 22.031165 Si / 1000 Ang^3
#
#
#
# Elastic Constant Matrix: (Units=GPa)
#
#
# Indices 1 2 3 4 5 6 
#
# 1 63.9598 27.2959 51.7759 0.0000 0.0000 -4.4081
# 2 27.2959 63.9598 51.7759 0.0000 0.0000 4.4081
# 3 51.7759 51.7759 195.8734 0.0000 0.0000 0.0000
# 4 0.0000 0.0000 0.0000 -463.4313 0.0000 0.0000
# 5 0.0000 0.0000 0.0000 0.0000 -463.4313 0.0000
# 6 -4.4081 4.4081 0.0000 0.0000 0.0000 35.1853
#
#
#
# Elastic Compliance Matrix: (Units=1/GPa)
#
#
# Indices 1 2 3 4 5 6 
#
# 1 0.021888 -0.006234 -0.004138 0.000000 0.000000 0.003523
# 2 -0.006234 0.021888 -0.004138 0.000000 0.000000 -0.003523
# 3 -0.004138 -0.004138 0.007293 0.000000 0.000000 0.000000
# 4 0.000000 0.000000 0.000000 -0.002158 0.000000 0.000000
# 5 0.000000 0.000000 0.000000 0.000000 -0.002158 0.000000
# 6 0.003523 -0.003523 0.000000 0.000000 0.000000 0.029304
#
#
# Mechanical properties :
#
#
# Convention : Reuss Voigt Hill
#
# Bulk Modulus (GPa) = 45.35385 65.05425 55.20405
# Shear Modulus (GPa) = 44.47395 -165.47244 -60.49924
#
# Velocity S-wave (km/s) = 4.49785 -8.67591 -5.24599
# Velocity P-wave (km/s) = 6.89965 8.41246 3.40326
#
# Compressibility (1/GPa) = 0.02204885
#
# Stress axis : x y z
#
# Youngs Moduli (GPa) = 45.68773 45.68773 137.12116
#
# Poissons Ratio (x) = 0.28483 0.56737
# Poissons Ratio (y) = 0.28483 0.56737
# Poissons Ratio (z) = 0.18904 0.18904
#
# Static dielectric constant tensor:
#      x y z
#    x 1.802890 0.000000 0.000000 
#    y 0.000000 1.802890 0.000000 
#    z 0.000000 0.000000 1.775360 
# 
# From -- ./inp_files/3491.got.cif
#   From: 2010.05.17/outbox.cif.g08.bks.cpg/sg83_2_cif.got.tgz:3491.got - 2010.06.03 18:55:12.
