data_PCOD9543791
_publ_section_title
;
Structure prediction by ZEFSAII (Michael W. Deem and Ramdas Pophale) SiO2 
 PCOD9543791
Probable space group: P 4/M
;
_chemical_formula_sum "Si O2"
_cell_formula_units_Z 48
_cell_length_a 8.361992
_cell_length_b 8.361992
_cell_length_c 33.675402
_cell_angle_alpha 90.000000
_cell_angle_beta 90.000000
_cell_angle_gamma 90.000000
_cell_volume 2354.682110
_symmetry_space_group_name_H-M "P 4/M"
_symmetry_group_IT_number 83
_symmetry_cell_setting 'tetragonal'
loop_
_space_group_symop_operation_xyz
x,y,z
-y,x,z
-x,-y,z
y,-x,z
-x,-y,-z
y,-x,-z
x,y,-z
-y,x,-z
loop_
_atom_site_type_symbol
_atom_site_label
_atom_site_fract_x
_atom_site_fract_y
_atom_site_fract_z
Si Si1 0.500000 0.000000 0.315871
Si Si2 0.500000 0.000000 0.891653
Si Si3 0.054223 0.736878 0.755892
Si Si4 0.920458 0.742531 0.044507
Si Si5 0.544220 0.763383 0.388084
Si Si6 0.924572 0.259554 0.545227
Si Si7 0.760680 0.426159 0.174813
O O1 0.351301 0.028343 0.286117
O O2 0.475898 0.146309 0.346356
O O3 0.383481 0.901485 0.920614
O O4 0.591947 0.876345 0.863098
O O5 0.129589 0.611870 0.787104
O O6 0.882535 0.820410 0.761033
O O7 0.102214 0.808420 0.047647
O O8 0.898306 0.675088 0.000000
O O9 0.376032 0.675284 0.391406
O O10 0.609434 0.878798 0.422521
O O11 0.905173 0.318702 0.500000
O O12 0.103595 0.189943 0.549703
O O13 0.690267 0.606541 0.174611
#
# Coordination Sequence:
#
# PCOD9543791 Si02
#       7
#     4   4   8   8   8   8   8
#     4  12  23  42  63  87 122 159 197 250 311 366
#     4  12  20  34  58  87 118 159 210 254 302 374
#     4  11  24  43  68  94 120 158 209 257 303 368
#     4   9  19  35  54  79 113 155 205 261 316 364
#     4  11  24  39  58  88 124 161 202 248 302 365
#     4   9  19  38  64  92 123 162 207 254 305 360
#     4  11  24  41  62  92 131 167 200 250 317 381
#
# _framework density 20.384917999999999
#
# number of rings (size 3 to 8) (size 9 to 14) (size 15 to 20)
#    0.000    1.500    0.000    6.750    0.000    0.667 
#    0.000    7.917    0.000    0.000    0.000    7.000 
#    0.000    0.000    0.000    0.000    0.000    0.000 
#
# Total GULP energy -267706.827060 kJ/mol
# GULP energy per Si atom -5577.225564 kJ/mol
# Density = 2.033852 g / cm^3
# Si number density = 20.384918 Si / 1000 Ang^3
#
#
#
# Elastic Constant Matrix: (Units=GPa)
#
#
# Indices 1 2 3 4 5 6 
#
# 1 91.3790 29.5773 58.2676 0.0000 0.0000 9.9426
# 2 29.5773 91.3790 58.2676 0.0000 0.0000 -9.9426
# 3 58.2676 58.2676 147.1015 0.0000 0.0000 0.0000
# 4 0.0000 0.0000 0.0000 29.0466 0.0000 0.0000
# 5 0.0000 0.0000 0.0000 0.0000 29.0466 0.0000
# 6 9.9426 -9.9426 0.0000 0.0000 0.0000 38.7692
#
#
#
# Elastic Compliance Matrix: (Units=1/GPa)
#
#
# Indices 1 2 3 4 5 6 
#
# 1 0.015503 -0.002133 -0.005296 0.000000 0.000000 -0.004523
# 2 -0.002133 0.015503 -0.005296 0.000000 0.000000 0.004523
# 3 -0.005296 -0.005296 0.010993 0.000000 0.000000 0.000000
# 4 0.000000 0.000000 0.000000 0.034427 0.000000 0.000000
# 5 0.000000 0.000000 0.000000 0.000000 0.034427 0.000000
# 6 -0.004523 0.004523 0.000000 0.000000 0.000000 0.028113
#
#
# Mechanical properties :
#
#
# Convention : Reuss Voigt Hill
#
# Bulk Modulus (GPa) = 60.42443 69.12047 64.77245
# Shear Modulus (GPa) = 29.42328 31.62229 30.52278
#
# Velocity S-wave (km/s) = 3.80331 3.94288 3.87372
# Velocity P-wave (km/s) = 6.99950 7.39660 7.20079
#
# Compressibility (1/GPa) = 0.01654960
#
# Stress axis : x y z
#
# Youngs Moduli (GPa) = 64.50423 64.50423 90.96372
#
# Poissons Ratio (x) = 0.13760 0.48172
# Poissons Ratio (y) = 0.13760 0.48172
# Poissons Ratio (z) = 0.34160 0.34160
#
# Static dielectric constant tensor:
#      x y z
#    x 1.770450 0.000000 0.000000 
#    y 0.000000 1.770450 0.000000 
#    z 0.000000 0.000000 1.703760 
# 
# From -- ./inp_files/3459.got.cif
#   From: 2010.05.17/outbox.cif.g08.bks.cpg/sg83_2_cif.got.tgz:3459.got - 2010.06.03 18:55:12.
