data_PCOD9543608
_publ_section_title
;
Structure prediction by ZEFSAII (Michael W. Deem and Ramdas Pophale) SiO2 
 PCOD9543608
Probable space group: P 4/M
;
_chemical_formula_sum "Si O2"
_cell_formula_units_Z 44
_cell_length_a 15.827201
_cell_length_b 15.827201
_cell_length_c 10.357662
_cell_angle_alpha 90.000000
_cell_angle_beta 90.000000
_cell_angle_gamma 90.000000
_cell_volume 2594.597350
_symmetry_space_group_name_H-M "P 4/M"
_symmetry_group_IT_number 83
_symmetry_cell_setting 'tetragonal'
loop_
_space_group_symop_operation_xyz
x,y,z
-y,x,z
-x,-y,z
y,-x,z
-x,-y,-z
y,-x,-z
x,y,-z
-y,x,-z
loop_
_atom_site_type_symbol
_atom_site_label
_atom_site_fract_x
_atom_site_fract_y
_atom_site_fract_z
Si Si1 0.332282 0.698723 0.143608
Si Si2 0.522678 0.095988 0.348525
Si Si3 0.490354 0.358726 0.500000
Si Si4 0.122610 0.941523 0.656696
Si Si5 0.735150 0.480411 0.771046
Si Si6 0.712598 0.162367 0.651374
O O1 0.301424 0.603106 0.163967
O O2 0.433634 0.707571 0.158135
O O3 0.294033 0.756781 0.256567
O O4 0.308143 0.727610 0.000000
O O5 0.498706 0.109600 0.500000
O O6 0.479829 0.164383 0.254550
O O7 0.623095 0.113894 0.339722
O O8 0.500000 0.000000 0.316234
O O9 0.575766 0.413195 0.500000
O O10 0.487115 0.303914 0.627960
O O11 0.121962 0.942907 0.500000
O O12 0.209554 0.896690 0.692763
O O13 0.038699 0.890390 0.698244
O O14 0.723663 0.186349 0.500000
#
# Coordination Sequence:
#
# PCOD9543608 Si02
#       6
#     8   8   4   8   8   8
#     4  11  24  38  53  75 106 143 180 218 261 308
#     4   9  18  31  50  78 109 139 172 219 263 306
#     4  11  20  32  53  86 112 138 167 214 268 317
#     4   8  14  27  50  81 112 135 163 216 277 324
#     4  11  21  35  56  76 110 138 178 214 264 314
#     4   9  19  33  53  77 104 137 179 218 262 316
#
# _framework density 16.958314999999999
#
# number of rings (size 3 to 8) (size 9 to 14) (size 15 to 20)
#    0.000    2.273    2.727    1.091    2.545    1.818 
#    0.000    4.545    0.000   19.091    0.000    1.273 
#    0.000    0.000    0.000    0.000    0.000    0.000 
#
# Total GULP energy -245317.468802 kJ/mol
# GULP energy per Si atom -5575.397018 kJ/mol
# Density = 1.691972 g / cm^3
# Si number density = 16.958315 Si / 1000 Ang^3
#
#
#
# Elastic Constant Matrix: (Units=GPa)
#
#
# Indices 1 2 3 4 5 6 
#
# 1 87.4592 37.0146 25.0939 0.0000 0.0000 -12.2494
# 2 37.0146 87.4592 25.0939 0.0000 0.0000 12.2494
# 3 25.0939 25.0939 66.2978 0.0000 0.0000 0.0000
# 4 0.0000 0.0000 0.0000 -33.3392 0.0000 0.0000
# 5 0.0000 0.0000 0.0000 0.0000 -33.3392 0.0000
# 6 -12.2494 12.2494 0.0000 0.0000 0.0000 27.2657
#
#
#
# Elastic Compliance Matrix: (Units=1/GPa)
#
#
# Indices 1 2 3 4 5 6 
#
# 1 0.017418 -0.007938 -0.003588 0.000000 0.000000 0.011391
# 2 -0.007938 0.017418 -0.003588 0.000000 0.000000 -0.011391
# 3 -0.003588 -0.003588 0.017800 0.000000 0.000000 0.000000
# 4 0.000000 0.000000 0.000000 -0.029995 0.000000 0.000000
# 5 0.000000 0.000000 0.000000 0.000000 -0.029995 0.000000
# 6 0.011391 -0.011391 0.000000 0.000000 0.000000 0.046912
#
#
# Mechanical properties :
#
#
# Convention : Reuss Voigt Hill
#
# Bulk Modulus (GPa) = 44.62802 46.18013 45.40407
# Shear Modulus (GPa) = 64.71886 2.38504 33.55195
#
# Velocity S-wave (km/s) = 6.18436 1.18721 4.45285
# Velocity P-wave (km/s) = 8.79594 5.40092 7.29858
#
# Compressibility (1/GPa) = 0.02240745
#
# Stress axis : x y z
#
# Youngs Moduli (GPa) = 57.41068 57.41068 56.17995
#
# Poissons Ratio (x) = 0.45571 0.20160
# Poissons Ratio (y) = 0.45571 0.20160
# Poissons Ratio (z) = 0.20602 0.20602
#
# Static dielectric constant tensor:
#      x y z
#    x 1.572410 0.000000 0.000000 
#    y 0.000000 1.572410 0.000000 
#    z 0.000000 0.000000 1.561470 
# 
# From -- ./inp_files/1721.got.cif
#   From: 2010.05.17/outbox.cif.g08.bks.cpg/sg83_1_cif.got.tgz:1721.got - 2010.06.03 18:55:12.
