data_PCOD9543937
_publ_section_title
;
Structure prediction by ZEFSAII (Michael W. Deem and Ramdas Pophale) SiO2 
 PCOD9543937
Probable space group: P 42/M
;
_chemical_formula_sum "Si O2"
_cell_formula_units_Z 34
_cell_length_a 8.617959
_cell_length_b 8.617959
_cell_length_c 19.313543
_cell_angle_alpha 90.000000
_cell_angle_beta 90.000000
_cell_angle_gamma 90.000000
_cell_volume 1434.401722
_symmetry_space_group_name_H-M "P 42/M"
_symmetry_group_IT_number 84
_symmetry_cell_setting 'tetragonal'
loop_
_space_group_symop_operation_xyz
x,y,z
-y,x,1/2+z
-x,-y,z
y,-x,1/2+z
-x,-y,-z
y,-x,1/2-z
x,y,-z
-y,x,1/2-z
loop_
_atom_site_type_symbol
_atom_site_label
_atom_site_fract_x
_atom_site_fract_y
_atom_site_fract_z
Si Si1 0.734681 0.444534 0.610798
Si Si2 0.500000 0.000000 0.000000
Si Si3 0.663882 0.915247 0.772171
Si Si4 0.182968 0.202329 0.358733
Si Si5 0.934512 0.249576 0.000000
Si Si6 0.427765 0.745873 0.500000
O O1 0.885080 0.429170 0.560667
O O2 0.759084 0.355961 0.683170
O O3 0.740105 0.628892 0.625898
O O4 0.601650 0.362187 0.566576
O O5 0.707561 0.890081 0.693411
O O6 0.500000 0.000000 0.775907
O O7 0.777911 0.026140 0.814871
O O8 0.160571 0.116777 0.431207
O O9 0.826842 0.405035 0.000000
O O10 0.111362 0.305583 0.000000
#
# Coordination Sequence:
#
# PCOD9543937 Si02
#       6
#     8   2   8   8   4   4
#     4  10  21  42  72  97 133 187 237 290 360 433
#     4  10  14  38  70  96 128 170 232 292 352 414
#     4  10  24  43  68 101 142 188 232 300 369 430
#     4  11  24  43  70  98 144 183 236 297 363 434
#     4  11  26  44  66 102 149 188 236 311 357 423
#     4  10  25  42  70 103 141 189 244 297 359 419
#
# _framework density 23.703263
#
# number of rings (size 3 to 8) (size 9 to 14) (size 15 to 20)
#    0.000    1.647    3.529    1.412    6.588    4.235 
#    0.000    5.882    0.000    0.000    0.000    0.000 
#    0.000    0.000    0.000    0.000    0.000    0.000 
#
# Total GULP energy -189703.199915 kJ/mol
# GULP energy per Si atom -5579.505880 kJ/mol
# Density = 2.364931 g / cm^3
# Si number density = 23.703263 Si / 1000 Ang^3
#
#
#
# Elastic Constant Matrix: (Units=GPa)
#
#
# Indices 1 2 3 4 5 6 
#
# 1 64.8778 23.0989 23.9326 0.0000 0.0000 4.0486
# 2 23.0989 64.8778 23.9326 0.0000 0.0000 -4.0486
# 3 23.9326 23.9326 166.7104 0.0000 0.0000 0.0000
# 4 0.0000 0.0000 0.0000 -14.8373 0.0000 0.0000
# 5 0.0000 0.0000 0.0000 0.0000 -14.8373 0.0000
# 6 4.0486 -4.0486 0.0000 0.0000 0.0000 27.7637
#
#
#
# Elastic Compliance Matrix: (Units=1/GPa)
#
#
# Indices 1 2 3 4 5 6 
#
# 1 0.018481 -0.006151 -0.001770 0.000000 0.000000 -0.003592
# 2 -0.006151 0.018481 -0.001770 0.000000 0.000000 0.003592
# 3 -0.001770 -0.001770 0.006507 0.000000 0.000000 0.000000
# 4 0.000000 0.000000 0.000000 -0.067398 0.000000 0.000000
# 5 0.000000 0.000000 0.000000 0.000000 -0.067398 0.000000
# 6 -0.003592 0.003592 0.000000 0.000000 0.000000 0.037066
#
#
# Mechanical properties :
#
#
# Convention : Reuss Voigt Hill
#
# Bulk Modulus (GPa) = 41.51813 48.71046 45.11429
# Shear Modulus (GPa) = -186.21325 14.65128 -85.78099
#
# Velocity S-wave (km/s) = -8.87303 2.48888 -6.02230
# Velocity P-wave (km/s) = 9.34989 5.37160 5.41139
#
# Compressibility (1/GPa) = 0.02408586
#
# Stress axis : x y z
#
# Youngs Moduli (GPa) = 54.11063 54.11063 153.68948
#
# Poissons Ratio (x) = 0.33283 0.27203
# Poissons Ratio (y) = 0.33283 0.27203
# Poissons Ratio (z) = 0.09578 0.09578
#
# Static dielectric constant tensor:
#      x y z
#    x 1.949350 0.000000 0.000000 
#    y 0.000000 1.949350 0.000000 
#    z 0.000000 0.000000 1.850170 
# 
# From -- ./inp_files/4293.got.cif
#   From: 2010.05.17/outbox.cif.g08.bks.cpg/sg84_3_cif.got.tgz:4293.got - 2010.06.03 18:57:40.
