data_PCOD9543517
_publ_section_title
;
Structure prediction by ZEFSAII (Michael W. Deem and Ramdas Pophale) SiO2 
 PCOD9543517
Probable space group: P 4/M
;
_chemical_formula_sum "Si O2"
_cell_formula_units_Z 48
_cell_length_a 10.622416
_cell_length_b 10.622416
_cell_length_c 24.542134
_cell_angle_alpha 90.000000
_cell_angle_beta 90.000000
_cell_angle_gamma 90.000000
_cell_volume 2769.229401
_symmetry_space_group_name_H-M "P 4/M"
_symmetry_group_IT_number 83
_symmetry_cell_setting 'tetragonal'
loop_
_space_group_symop_operation_xyz
x,y,z
-y,x,z
-x,-y,z
y,-x,z
-x,-y,-z
y,-x,-z
x,y,-z
-y,x,-z
loop_
_atom_site_type_symbol
_atom_site_label
_atom_site_fract_x
_atom_site_fract_y
_atom_site_fract_z
Si Si1 0.131603 0.439406 0.394237
Si Si2 0.561774 0.298919 0.500000
Si Si3 0.150725 0.531902 0.282051
Si Si4 0.632401 0.333795 0.000000
Si Si5 0.668112 0.634381 0.879482
Si Si6 0.073535 0.192637 0.676621
Si Si7 0.278466 0.772301 0.230658
O O1 0.219396 0.418818 0.445374
O O2 0.180519 0.532491 0.346471
O O3 0.110034 0.310143 0.360816
O O4 0.000000 0.500000 0.412838
O O5 0.651602 0.419121 0.500000
O O6 0.193509 0.659270 0.253663
O O7 0.230094 0.419597 0.255069
O O8 0.000000 0.500000 0.276909
O O9 0.668968 0.480866 0.000000
O O10 0.670579 0.285816 0.940406
O O11 0.518995 0.670328 0.874014
O O12 0.750542 0.701697 0.833259
O O13 0.102276 0.224578 0.740225
O O14 0.930482 0.156090 0.665365
#
# Coordination Sequence:
#
# PCOD9543517 Si02
#       7
#     8   4   8   4   8   8   8
#     4  10  22  41  64  82 109 146 184 224 278 324
#     4  11  27  42  58  87 118 148 182 223 273 344
#     4  10  22  34  52  82 109 141 183 228 279 337
#     4   7  12  22  38  60 104 149 180 226 267 319
#     4   9  15  25  41  73 109 144 186 222 274 333
#     4  10  22  39  60  85 110 143 187 230 273 328
#     4  11  18  31  52  79 114 142 177 227 279 342
#
# _framework density 17.333342999999999
#
# number of rings (size 3 to 8) (size 9 to 14) (size 15 to 20)
#    0.000    2.167    1.667    4.250    7.000    0.333 
#    0.000    0.000    0.000    1.000    0.000    5.833 
#    0.000    1.333    0.000    0.000    0.000    0.000 
#
# Total GULP energy -267310.554105 kJ/mol
# GULP energy per Si atom -5568.969877 kJ/mol
# Density = 1.729389 g / cm^3
# Si number density = 17.333343 Si / 1000 Ang^3
#
#
#
# Elastic Constant Matrix: (Units=GPa)
#
#
# Indices 1 2 3 4 5 6 
#
# 1 50.8720 46.0535 43.8654 0.0000 0.0000 27.2318
# 2 46.0535 50.8720 43.8654 0.0000 0.0000 -27.2318
# 3 43.8654 43.8654 145.2450 0.0000 0.0000 0.0000
# 4 0.0000 0.0000 0.0000 16.1866 0.0000 0.0000
# 5 0.0000 0.0000 0.0000 0.0000 16.1866 0.0000
# 6 27.2318 -27.2318 0.0000 0.0000 0.0000 -1.1651
#
#
#
# Elastic Compliance Matrix: (Units=1/GPa)
#
#
# Indices 1 2 3 4 5 6 
#
# 1 0.007491 0.006708 -0.004288 0.000000 0.000000 0.018292
# 2 0.006708 0.007491 -0.004288 0.000000 0.000000 -0.018292
# 3 -0.004288 -0.004288 0.009475 0.000000 0.000000 0.000000
# 4 0.000000 0.000000 0.000000 0.061779 0.000000 0.000000
# 5 0.000000 0.000000 0.000000 0.000000 0.061779 0.000000
# 6 0.018292 -0.018292 0.000000 0.000000 0.000000 -0.003237
#
#
# Mechanical properties :
#
#
# Convention : Reuss Voigt Hill
#
# Bulk Modulus (GPa) = 48.26333 57.17306 52.71820
# Shear Modulus (GPa) = 32.17066 13.78863 22.97964
#
# Velocity S-wave (km/s) = 4.31280 2.82352 3.64503
# Velocity P-wave (km/s) = 7.25982 6.60952 6.94229
#
# Compressibility (1/GPa) = 0.02071966
#
# Stress axis : x y z
#
# Youngs Moduli (GPa) = 133.50167 133.50167 105.54096
#
# Poissons Ratio (x) = -0.89552 0.45257
# Poissons Ratio (y) = -0.89552 0.45257
# Poissons Ratio (z) = 0.57247 0.57247
#
# Static dielectric constant tensor:
#      x y z
#    x 1.603000 0.000000 0.000000 
#    y 0.000000 1.603000 0.000000 
#    z 0.000000 0.000000 1.601920 
# 
# From -- ./inp_files/3169.got.cif
#   From: 2010.05.17/outbox.cif.g08.bks.cpg/sg83_2_cif.got.tgz:3169.got - 2010.06.03 18:55:12.
