data_PCOD9543750
_publ_section_title
;
Structure prediction by ZEFSAII (Michael W. Deem and Ramdas Pophale) SiO2 
 PCOD9543750
Probable space group: P 4/M
;
_chemical_formula_sum "Si O2"
_cell_formula_units_Z 44
_cell_length_a 8.048924
_cell_length_b 8.048924
_cell_length_c 30.136545
_cell_angle_alpha 90.000000
_cell_angle_beta 90.000000
_cell_angle_gamma 90.000000
_cell_volume 1952.401419
_symmetry_space_group_name_H-M "P 4/M"
_symmetry_group_IT_number 83
_symmetry_cell_setting 'tetragonal'
loop_
_space_group_symop_operation_xyz
x,y,z
-y,x,z
-x,-y,z
y,-x,z
-x,-y,-z
y,-x,-z
x,y,-z
-y,x,-z
loop_
_atom_site_type_symbol
_atom_site_label
_atom_site_fract_x
_atom_site_fract_y
_atom_site_fract_z
Si Si1 0.398517 0.236241 0.952595
Si Si2 0.917482 0.266012 0.769177
Si Si3 0.404352 0.234951 0.143665
Si Si4 0.734481 0.905628 0.403831
Si Si5 0.735749 0.901683 0.500000
Si Si6 0.766133 0.417823 0.683205
O O1 0.591003 0.295180 0.952598
O O2 0.369337 0.154728 0.904763
O O3 0.364280 0.150127 0.000000
O O4 0.876649 0.357838 0.814882
O O5 0.871700 0.372421 0.726282
O O6 0.103851 0.200097 0.767774
O O7 0.594858 0.296484 0.146058
O O8 0.653710 0.871721 0.452250
O O9 0.623172 0.858976 0.362339
O O10 0.904184 0.796960 0.401472
O O11 0.906777 0.796280 0.500000
O O12 0.699958 0.604107 0.684443
#
# Coordination Sequence:
#
# PCOD9543750 Si02
#       6
#     8   8   8   8   4   8
#     4   7  10  19  39  69 102 131 159 195 239 285
#     4  11  24  39  54  73  97 128 168 210 252 302
#     4   9  17  30  51  79 106 131 163 204 249 296
#     4   9  17  32  56  83 108 136 172 210 247 289
#     4   7  12  26  50  79 108 136 168 207 244 281
#     4  11  24  39  54  75 103 133 166 206 254 305
#
# _framework density 22.536351
#
# number of rings (size 3 to 8) (size 9 to 14) (size 15 to 20)
#    0.000    2.818    0.000    4.909    0.000    8.000 
#    0.000    0.909    0.000    5.455    0.000    6.364 
#    0.000    0.000    0.000    0.000    0.000    0.000 
#
# Total GULP energy -246008.825014 kJ/mol
# GULP energy per Si atom -5591.109659 kJ/mol
# Density = 2.248506 g / cm^3
# Si number density = 22.536351 Si / 1000 Ang^3
#
#
#
# Elastic Constant Matrix: (Units=GPa)
#
#
# Indices 1 2 3 4 5 6 
#
# 1 61.9551 46.6834 60.0080 0.0000 0.0000 0.4727
# 2 46.6834 61.9551 60.0080 0.0000 0.0000 -0.4727
# 3 60.0080 60.0080 269.0862 0.0000 0.0000 0.0000
# 4 0.0000 0.0000 0.0000 62.4671 0.0000 0.0000
# 5 0.0000 0.0000 0.0000 0.0000 62.4671 0.0000
# 6 0.4727 -0.4727 0.0000 0.0000 0.0000 33.0914
#
#
#
# Elastic Compliance Matrix: (Units=1/GPa)
#
#
# Indices 1 2 3 4 5 6 
#
# 1 0.038876 -0.026662 -0.002724 0.000000 0.000000 -0.000936
# 2 -0.026662 0.038876 -0.002724 0.000000 0.000000 0.000936
# 3 -0.002724 -0.002724 0.004931 0.000000 0.000000 0.000000
# 4 0.000000 0.000000 0.000000 0.016008 0.000000 0.000000
# 5 0.000000 0.000000 0.000000 0.000000 0.016008 0.000000
# 6 -0.000936 0.000936 0.000000 0.000000 0.000000 0.030246
#
#
# Mechanical properties :
#
#
# Convention : Reuss Voigt Hill
#
# Bulk Modulus (GPa) = 54.16016 80.71058 67.43537
# Shear Modulus (GPa) = 23.22121 46.69159 34.95640
#
# Velocity S-wave (km/s) = 3.21345 4.55668 3.94269
# Velocity P-wave (km/s) = 6.15247 7.97344 7.12140
#
# Compressibility (1/GPa) = 0.01846376
#
# Stress axis : x y z
#
# Youngs Moduli (GPa) = 25.72274 25.72274 202.79373
#
# Poissons Ratio (x) = 0.68583 0.55236
# Poissons Ratio (y) = 0.68583 0.55236
# Poissons Ratio (z) = 0.07006 0.07006
#
# Static dielectric constant tensor:
#      x y z
#    x 1.825400 0.000000 0.000000 
#    y 0.000000 1.825400 0.000000 
#    z 0.000000 0.000000 1.852670 
# 
# From -- ./inp_files/3350.got.cif
#   From: 2010.05.17/outbox.cif.g08.bks.cpg/sg83_2_cif.got.tgz:3350.got - 2010.06.03 18:55:12.
