data_PCOD9543802
_publ_section_title
;
Structure prediction by ZEFSAII (Michael W. Deem and Ramdas Pophale) SiO2 
 PCOD9543802
Probable space group: P 4/M
;
_chemical_formula_sum "Si O2"
_cell_formula_units_Z 40
_cell_length_a 14.297187
_cell_length_b 14.297187
_cell_length_c 8.984125
_cell_angle_alpha 90.000000
_cell_angle_beta 90.000000
_cell_angle_gamma 90.000000
_cell_volume 1836.441003
_symmetry_space_group_name_H-M "P 4/M"
_symmetry_group_IT_number 83
_symmetry_cell_setting 'tetragonal'
loop_
_space_group_symop_operation_xyz
x,y,z
-y,x,z
-x,-y,z
y,-x,z
-x,-y,-z
y,-x,-z
x,y,-z
-y,x,-z
loop_
_atom_site_type_symbol
_atom_site_label
_atom_site_fract_x
_atom_site_fract_y
_atom_site_fract_z
Si Si1 0.387981 0.999860 0.826984
Si Si2 0.361995 0.801800 0.678096
Si Si3 0.874996 0.906366 0.837039
Si Si4 0.475965 0.652746 0.177199
Si Si5 0.829648 0.286077 0.328241
O O1 0.353042 0.905493 0.745621
O O2 0.500000 0.000000 0.814778
O O3 0.349716 0.096873 0.759963
O O4 0.361466 0.993905 0.000000
O O5 0.362004 0.808381 0.500000
O O6 0.453712 0.747707 0.736407
O O7 0.275987 0.733799 0.724693
O O8 0.817355 0.871130 0.698186
O O9 0.981712 0.874708 0.833665
O O10 0.835971 0.876190 0.000000
O O11 0.397932 0.573678 0.211581
O O12 0.473214 0.670870 0.000000
O O13 0.828152 0.314451 0.500000
#
# Coordination Sequence:
#
# PCOD9543802 Si02
#       5
#     8   8   8   8   8
#     4  11  26  46  68  95 127 171 225 277 333 394
#     4  11  25  42  65  98 135 176 219 269 338 407
#     4   9  18  33  55  83 114 151 198 251 304 360
#     4   9  20  40  66  96 130 169 218 276 331 389
#     4  11  24  40  59  88 125 165 208 258 320 389
#
# _framework density 21.781262000000002
#
# number of rings (size 3 to 8) (size 9 to 14) (size 15 to 20)
#    0.000    1.800    0.000    4.200    2.800    9.600 
#    0.000    2.000    0.000    0.000    0.000    0.000 
#    0.000    0.000    0.000    0.000    0.000    0.000 
#
# Total GULP energy -223448.048118 kJ/mol
# GULP energy per Si atom -5586.201203 kJ/mol
# Density = 2.173169 g / cm^3
# Si number density = 21.781262 Si / 1000 Ang^3
#
#
#
# Elastic Constant Matrix: (Units=GPa)
#
#
# Indices 1 2 3 4 5 6 
#
# 1 53.3475 57.5676 39.4665 0.0000 0.0000 19.1254
# 2 57.5676 53.3475 39.4665 0.0000 0.0000 -19.1254
# 3 39.4665 39.4665 43.6809 0.0000 0.0000 0.0000
# 4 0.0000 0.0000 0.0000 -31.7846 0.0000 0.0000
# 5 0.0000 0.0000 0.0000 0.0000 -31.7846 0.0000
# 6 19.1254 -19.1254 0.0000 0.0000 0.0000 27.2832
#
#
#
# Elastic Compliance Matrix: (Units=1/GPa)
#
#
# Indices 1 2 3 4 5 6 
#
# 1 -0.003485 0.028738 -0.022817 0.000000 0.000000 0.022588
# 2 0.028738 -0.003485 -0.022817 0.000000 0.000000 -0.022588
# 3 -0.022817 -0.022817 0.064125 0.000000 0.000000 0.000000
# 4 0.000000 0.000000 0.000000 -0.031462 0.000000 0.000000
# 5 0.000000 0.000000 0.000000 0.000000 -0.031462 0.000000
# 6 0.022588 -0.022588 0.000000 0.000000 0.000000 0.004984
#
#
# Mechanical properties :
#
#
# Convention : Reuss Voigt Hill
#
# Bulk Modulus (GPa) = 42.80188 47.04188 44.92188
# Shear Modulus (GPa) = 122.55944 -6.33218 58.11363
#
# Velocity S-wave (km/s) = 7.50936 -1.70689 5.17093
# Velocity P-wave (km/s) = 9.74067 4.21422 7.50468
#
# Compressibility (1/GPa) = 0.02336346
#
# Stress axis : x y z
#
# Youngs Moduli (GPa) = -286.98025 -286.98025 15.59457
#
# Poissons Ratio (x) = 8.24736 0.35583
# Poissons Ratio (y) = 8.24736 0.35583
# Poissons Ratio (z) = -6.54811 -6.54811
#
# Static dielectric constant tensor:
#      x y z
#    x 1.805740 0.000000 0.000000 
#    y 0.000000 1.805740 0.000000 
#    z 0.000000 0.000000 1.764450 
# 
# From -- ./inp_files/621.got.cif
#   From: 2010.05.17/outbox.cif.g08.bks.cpg/sg83_1_cif.got.tgz:621.got - 2010.06.03 18:55:12.
