data_PCOD9543744
_publ_section_title
;
Structure prediction by ZEFSAII (Michael W. Deem and Ramdas Pophale) SiO2 
 PCOD9543744
Probable space group: P 4/M
;
_chemical_formula_sum "Si O2"
_cell_formula_units_Z 49
_cell_length_a 8.682135
_cell_length_b 8.682135
_cell_length_c 31.836063
_cell_angle_alpha 90.000000
_cell_angle_beta 90.000000
_cell_angle_gamma 90.000000
_cell_volume 2399.785497
_symmetry_space_group_name_H-M "P 4/M"
_symmetry_group_IT_number 83
_symmetry_cell_setting 'tetragonal'
loop_
_space_group_symop_operation_xyz
x,y,z
-y,x,z
-x,-y,z
y,-x,z
-x,-y,-z
y,-x,-z
x,y,-z
-y,x,-z
loop_
_atom_site_type_symbol
_atom_site_label
_atom_site_fract_x
_atom_site_fract_y
_atom_site_fract_z
Si Si1 0.173066 0.569264 0.500000
Si Si2 0.749040 0.428674 0.048371
Si Si3 0.909696 0.758980 0.171437
Si Si4 0.648553 0.287578 0.246483
Si Si5 0.500000 0.000000 0.888404
Si Si6 0.500000 0.500000 0.500000
Si Si7 0.133683 0.783951 0.422161
Si Si8 0.690330 0.326017 0.656811
O O1 0.316826 0.454734 0.500000
O O2 0.184803 0.661733 0.456256
O O3 0.000000 0.500000 0.500000
O O4 0.682987 0.602450 0.053833
O O5 0.885472 0.406039 0.081141
O O6 0.801535 0.413173 0.000000
O O7 0.849669 0.708007 0.217290
O O8 0.086809 0.809754 0.165232
O O9 0.897586 0.613495 0.140429
O O10 0.705206 0.463675 0.238575
O O11 0.702293 0.271265 0.294877
O O12 0.189435 0.744697 0.375325
O O13 0.952075 0.796953 0.428961
O O14 0.707619 0.509547 0.649551
#
# Coordination Sequence:
#
# PCOD9543744 Si02
#       8
#     4   8   8   8   4   1   8   8
#     4  12  28  47  70 103 136 179 233 280 340 406
#     4   9  19  36  58  85 118 157 207 266 324 383
#     4  11  24  38  55  83 120 160 205 262 323 394
#     4   9  19  40  64  89 119 160 208 262 320 381
#     4  12  21  36  58  86 118 162 212 261 324 394
#     4  12  28  44  76 104 124 188 228 276 332 416
#     4  11  25  43  63  93 134 175 216 272 334 393
#     4   9  21  39  65  95 125 159 212 269 315 390
#
# _framework density 20.418491
#
# number of rings (size 3 to 8) (size 9 to 14) (size 15 to 20)
#    0.000    1.796    0.000    5.143    4.571    1.959 
#    0.000    6.531    0.000    0.000    0.000    6.857 
#    0.000    0.000    0.000    0.000    0.000    0.000 
#
# Total GULP energy -272921.690047 kJ/mol
# GULP energy per Si atom -5569.830409 kJ/mol
# Density = 2.037202 g / cm^3
# Si number density = 20.418491 Si / 1000 Ang^3
#
#
#
# Elastic Constant Matrix: (Units=GPa)
#
#
# Indices 1 2 3 4 5 6 
#
# 1 60.1862 8.0242 36.4391 0.0000 0.0000 -9.1500
# 2 8.0242 60.1862 36.4391 0.0000 0.0000 9.1500
# 3 36.4391 36.4391 77.8200 0.0000 0.0000 0.0000
# 4 0.0000 0.0000 0.0000 29.3450 0.0000 0.0000
# 5 0.0000 0.0000 0.0000 0.0000 29.3450 0.0000
# 6 -9.1500 9.1500 0.0000 0.0000 0.0000 38.0912
#
#
#
# Elastic Compliance Matrix: (Units=1/GPa)
#
#
# Indices 1 2 3 4 5 6 
#
# 1 0.025137 0.004201 -0.013738 0.000000 0.000000 0.005029
# 2 0.004201 0.025137 -0.013738 0.000000 0.000000 -0.005029
# 3 -0.013738 -0.013738 0.025715 0.000000 0.000000 0.000000
# 4 0.000000 0.000000 0.000000 0.034077 0.000000 0.000000
# 5 0.000000 0.000000 0.000000 0.000000 0.034077 0.000000
# 6 0.005029 -0.005029 0.000000 0.000000 0.000000 0.028669
#
#
# Mechanical properties :
#
#
# Convention : Reuss Voigt Hill
#
# Bulk Modulus (GPa) = 33.96570 39.99966 36.98268
# Shear Modulus (GPa) = 21.81755 27.17558 24.49657
#
# Velocity S-wave (km/s) = 3.27237 3.65215 3.46746
# Velocity P-wave (km/s) = 5.56316 6.11692 5.84660
#
# Compressibility (1/GPa) = 0.02944146
#
# Stress axis : x y z
#
# Youngs Moduli (GPa) = 39.78246 39.78246 38.88735
#
# Poissons Ratio (x) = -0.16714 0.53422
# Poissons Ratio (y) = -0.16714 0.53422
# Poissons Ratio (z) = 0.54651 0.54651
#
# Static dielectric constant tensor:
#      x y z
#    x 1.742040 0.000000 0.000000 
#    y 0.000000 1.742040 0.000000 
#    z 0.000000 0.000000 1.720730 
# 
# From -- ./inp_files/3514.got.cif
#   From: 2010.05.17/outbox.cif.g08.bks.cpg/sg83_2_cif.got.tgz:3514.got - 2010.06.03 18:55:12.
