data_PCOD9543375
_publ_section_title
;
Structure prediction by ZEFSAII (Michael W. Deem and Ramdas Pophale) SiO2 
 PCOD9543375
Probable space group: P 4/M
;
_chemical_formula_sum "Si O2"
_cell_formula_units_Z 64
_cell_length_a 20.050440
_cell_length_b 20.050440
_cell_length_c 7.291891
_cell_angle_alpha 90.000000
_cell_angle_beta 90.000000
_cell_angle_gamma 90.000000
_cell_volume 2931.487071
_symmetry_space_group_name_H-M "P 4/M"
_symmetry_group_IT_number 83
_symmetry_cell_setting 'tetragonal'
loop_
_space_group_symop_operation_xyz
x,y,z
-y,x,z
-x,-y,z
y,-x,z
-x,-y,-z
y,-x,-z
x,y,-z
-y,x,-z
loop_
_atom_site_type_symbol
_atom_site_label
_atom_site_fract_x
_atom_site_fract_y
_atom_site_fract_z
Si Si1 0.801396 0.023769 0.723621
Si Si2 0.156740 0.123394 0.276605
Si Si3 0.558498 0.410438 0.220810
Si Si4 0.852504 0.556404 0.275902
Si Si5 0.647456 0.023177 0.276797
Si Si6 0.363400 0.724755 0.713660
Si Si7 0.283133 0.212528 0.276019
Si Si8 0.594304 0.878499 0.276458
O O1 0.801292 0.023917 0.500000
O O2 0.844813 0.086958 0.782596
O O3 0.724267 0.029909 0.780657
O O4 0.830609 0.952502 0.781449
O O5 0.156587 0.123175 0.500000
O O6 0.218718 0.169765 0.221006
O O7 0.589681 0.481141 0.281472
O O8 0.599606 0.345875 0.275579
O O9 0.557875 0.411513 0.000000
O O10 0.852341 0.554781 0.500000
O O11 0.915106 0.601716 0.219926
O O12 0.784062 0.590586 0.212382
O O13 0.861075 0.480179 0.216450
O O14 0.647717 0.023110 0.500000
O O15 0.617142 0.952317 0.219432
O O16 0.354456 0.741386 0.500000
O O17 0.288603 0.720766 0.788937
O O18 0.283986 0.212771 0.500000
O O19 0.350355 0.174935 0.218514
O O20 0.594175 0.878761 0.500000
#
# Coordination Sequence:
#
# PCOD9543375 Si02
#       8
#     8   8   8   8   8   8   8   8
#     4   9  15  21  31  42  60  96 145 190 223 262
#     4   9  15  23  32  45  68 104 146 185 224 269
#     4   9  20  39  57  70  90 124 162 195 228 275
#     4   9  17  25  35  58  88 114 145 185 227 275
#     4   9  14  23  35  49  73 115 155 182 221 275
#     4  10  20  30  47  74 101 124 147 191 247 288
#     4   9  16  26  37  55  84 115 142 177 231 283
#     4   9  15  23  36  51  76 114 151 182 220 274
#
# _framework density 21.831924000000001
#
# number of rings (size 3 to 8) (size 9 to 14) (size 15 to 20)
#    0.000    2.875    1.250    1.500    1.750    5.250 
#    0.000    1.875    0.000    0.000    0.000    0.000 
#    0.000    3.000    0.000    0.000    0.000    0.000 
#
# Total GULP energy -357656.738300 kJ/mol
# GULP energy per Si atom -5588.386536 kJ/mol
# Density = 2.178223 g / cm^3
# Si number density = 21.831924 Si / 1000 Ang^3
#
#
#
# Elastic Constant Matrix: (Units=GPa)
#
#
# Indices 1 2 3 4 5 6 
#
# 1 218.7472 179.6540 2.2952 0.0000 0.0000 -7.2359
# 2 179.6540 218.7472 2.2952 0.0000 0.0000 7.2359
# 3 2.2952 2.2952 90.0301 0.0000 0.0000 0.0000
# 4 0.0000 0.0000 0.0000 16.9863 0.0000 0.0000
# 5 0.0000 0.0000 0.0000 0.0000 16.9863 0.0000
# 6 -7.2359 7.2359 0.0000 0.0000 0.0000 39.0794
#
#
#
# Elastic Compliance Matrix: (Units=1/GPa)
#
#
# Indices 1 2 3 4 5 6 
#
# 1 0.014986 -0.012476 -0.000064 0.000000 0.000000 0.005085
# 2 -0.012476 0.014986 -0.000064 0.000000 0.000000 -0.005085
# 3 -0.000064 -0.000064 0.011111 0.000000 0.000000 0.000000
# 4 0.000000 0.000000 0.000000 0.058871 0.000000 0.000000
# 5 0.000000 0.000000 0.000000 0.000000 0.058871 0.000000
# 6 0.005085 -0.005085 0.000000 0.000000 0.000000 0.027472
#
#
# Mechanical properties :
#
#
# Convention : Reuss Voigt Hill
#
# Bulk Modulus (GPa) = 62.98748 99.55703 81.27226
# Shear Modulus (GPa) = 23.06301 37.49573 30.27937
#
# Velocity S-wave (km/s) = 3.25374 4.14874 3.72819
# Velocity P-wave (km/s) = 6.55969 8.28553 7.47260
#
# Compressibility (1/GPa) = 0.01587617
#
# Stress axis : x y z
#
# Youngs Moduli (GPa) = 66.72679 66.72679 90.00361
#
# Poissons Ratio (x) = 0.83246 0.00576
# Poissons Ratio (y) = 0.83246 0.00576
# Poissons Ratio (z) = 0.00427 0.00427
#
# Static dielectric constant tensor:
#      x y z
#    x 1.734410 0.000000 0.000000 
#    y 0.000000 1.734410 0.000000 
#    z 0.000000 0.000000 1.842190 
# 
# From -- ./inp_files/2056.got.cif
#   From: 2010.05.17/outbox.cif.g08.bks.cpg/sg83_2_cif.got.tgz:2056.got - 2010.06.03 18:55:12.
