data_PCOD9543765
_publ_section_title
;
Structure prediction by ZEFSAII (Michael W. Deem and Ramdas Pophale) SiO2 
 PCOD9543765
Probable space group: P 4/M
;
_chemical_formula_sum "Si O2"
_cell_formula_units_Z 48
_cell_length_a 8.031273
_cell_length_b 8.031273
_cell_length_c 33.853149
_cell_angle_alpha 90.000000
_cell_angle_beta 90.000000
_cell_angle_gamma 90.000000
_cell_volume 2183.573677
_symmetry_space_group_name_H-M "P 4/M"
_symmetry_group_IT_number 83
_symmetry_cell_setting 'tetragonal'
loop_
_space_group_symop_operation_xyz
x,y,z
-y,x,z
-x,-y,z
y,-x,z
-x,-y,-z
y,-x,-z
x,y,-z
-y,x,-z
loop_
_atom_site_type_symbol
_atom_site_label
_atom_site_fract_x
_atom_site_fract_y
_atom_site_fract_z
Si Si1 0.588714 0.234095 0.619714
Si Si2 0.500000 0.000000 0.228960
Si Si3 0.603253 0.763052 0.914328
Si Si4 0.762340 0.394862 0.000000
Si Si5 0.090517 0.736538 0.164747
Si Si6 0.234874 0.405096 0.706876
Si Si7 0.085884 0.267153 0.457093
O O1 0.701673 0.400045 0.618146
O O2 0.620626 0.159022 0.663142
O O3 0.630419 0.127475 0.581640
O O4 0.394019 0.117227 0.199885
O O5 0.618021 0.105603 0.257992
O O6 0.410382 0.706831 0.912160
O O7 0.637278 0.843657 0.957477
O O8 0.654546 0.873906 0.877527
O O9 0.706452 0.588312 0.000000
O O10 0.899843 0.796105 0.167864
O O11 0.402299 0.296200 0.709628
O O12 0.117116 0.349058 0.500000
O O13 0.897854 0.200637 0.456006
#
# Coordination Sequence:
#
# PCOD9543765 Si02
#       7
#     8   4   8   4   8   8   8
#     4   9  19  35  54  79 110 138 169 215 267 315
#     4  12  22  38  62  81 101 142 188 222 268 334
#     4   9  17  33  59  87 113 146 186 223 264 320
#     4   7  12  26  52  85 114 139 178 228 264 303
#     4  11  24  39  54  79 116 148 179 227 279 323
#     4   9  20  38  58  82 109 136 173 224 274 320
#     4   9  19  35  53  76 108 144 181 218 255 304
#
# _framework density 21.982313000000001
#
# number of rings (size 3 to 8) (size 9 to 14) (size 15 to 20)
#    0.000    2.583    0.000    4.500    0.000    4.000 
#    0.000    5.000    0.000    6.500    0.000    0.000 
#    0.000    0.000    0.000    0.000    0.000    0.000 
#
# Total GULP energy -268242.054517 kJ/mol
# GULP energy per Si atom -5588.376136 kJ/mol
# Density = 2.193228 g / cm^3
# Si number density = 21.982313 Si / 1000 Ang^3
#
#
#
# Elastic Constant Matrix: (Units=GPa)
#
#
# Indices 1 2 3 4 5 6 
#
# 1 43.8099 11.8597 46.6736 0.0000 0.0000 -2.7822
# 2 11.8597 43.8099 46.6736 0.0000 0.0000 2.7822
# 3 46.6736 46.6736 236.7760 0.0000 0.0000 0.0000
# 4 0.0000 0.0000 0.0000 39.8964 0.0000 0.0000
# 5 0.0000 0.0000 0.0000 0.0000 39.8964 0.0000
# 6 -2.7822 2.7822 0.0000 0.0000 0.0000 28.2619
#
#
#
# Elastic Compliance Matrix: (Units=1/GPa)
#
#
# Indices 1 2 3 4 5 6 
#
# 1 0.029338 -0.002506 -0.005289 0.000000 0.000000 0.003135
# 2 -0.002506 0.029338 -0.005289 0.000000 0.000000 -0.003135
# 3 -0.005289 -0.005289 0.006309 0.000000 0.000000 0.000000
# 4 0.000000 0.000000 0.000000 0.025065 0.000000 0.000000
# 5 0.000000 0.000000 0.000000 0.000000 0.025065 0.000000
# 6 0.003135 -0.003135 0.000000 0.000000 0.000000 0.036001
#
#
# Mechanical properties :
#
#
# Convention : Reuss Voigt Hill
#
# Bulk Modulus (GPa) = 25.76257 59.42327 42.59292
# Shear Modulus (GPa) = 26.28482 36.22352 31.25417
#
# Velocity S-wave (km/s) = 3.46168 4.06377 3.77475
# Velocity P-wave (km/s) = 5.26524 7.00785 6.19809
#
# Compressibility (1/GPa) = 0.03881601
#
# Stress axis : x y z
#
# Youngs Moduli (GPa) = 34.08503 34.08503 158.51357
#
# Poissons Ratio (x) = 0.08543 0.83840
# Poissons Ratio (y) = 0.08543 0.83840
# Poissons Ratio (z) = 0.18028 0.18028
#
# Static dielectric constant tensor:
#      x y z
#    x 1.819730 0.000000 0.000000 
#    y 0.000000 1.819730 0.000000 
#    z 0.000000 0.000000 1.817950 
# 
# From -- ./inp_files/3456.got.cif
#   From: 2010.05.17/outbox.cif.g08.bks.cpg/sg83_2_cif.got.tgz:3456.got - 2010.06.03 18:55:12.
