data_PCOD9543352
_publ_section_title
;
Structure prediction by ZEFSAII (Michael W. Deem and Ramdas Pophale) SiO2 
 PCOD9543352
Probable space group: P 4/M
;
_chemical_formula_sum "Si O2"
_cell_formula_units_Z 48
_cell_length_a 10.619584
_cell_length_b 10.619584
_cell_length_c 20.244679
_cell_angle_alpha 90.000000
_cell_angle_beta 90.000000
_cell_angle_gamma 90.000000
_cell_volume 2283.105099
_symmetry_space_group_name_H-M "P 4/M"
_symmetry_group_IT_number 83
_symmetry_cell_setting 'tetragonal'
loop_
_space_group_symop_operation_xyz
x,y,z
-y,x,z
-x,-y,z
y,-x,z
-x,-y,-z
y,-x,-z
x,y,-z
-y,x,-z
loop_
_atom_site_type_symbol
_atom_site_label
_atom_site_fract_x
_atom_site_fract_y
_atom_site_fract_z
Si Si1 0.190639 0.059355 0.775019
Si Si2 0.290231 0.475082 0.803477
Si Si3 0.386743 0.851008 0.071865
Si Si4 0.433587 0.128226 0.693424
Si Si5 0.900598 0.239381 0.926337
Si Si6 0.305557 0.584953 0.424773
O O1 0.323361 0.097006 0.745395
O O2 0.186096 0.063637 0.854691
O O3 0.080490 0.153272 0.753005
O O4 0.394155 0.365937 0.805895
O O5 0.198587 0.462802 0.865843
O O6 0.213786 0.470621 0.735694
O O7 0.251474 0.775610 0.074764
O O8 0.356541 0.000421 0.074135
O O9 0.443978 0.820619 0.000000
O O10 0.383271 0.206045 0.631373
O O11 0.500000 0.000000 0.672159
O O12 0.930584 0.185630 0.000000
O O13 0.341169 0.437132 0.417264
O O14 0.260861 0.604641 0.500000
#
# Coordination Sequence:
#
# PCOD9543352 Si02
#       6
#     8   8   8   8   8   8
#     4  11  24  40  62  92 132 171 213 268 330 393
#     4  11  25  43  62  85 121 170 217 264 329 393
#     4  10  21  37  59  89 120 160 215 274 335 399
#     4  12  26  39  67  98 133 169 214 264 318 385
#     4  10  19  34  61  88 118 159 215 280 337 388
#     4   9  20  42  73 105 136 173 217 265 312 364
#
# _framework density 21.024000999999998
#
# number of rings (size 3 to 8) (size 9 to 14) (size 15 to 20)
#    0.000    1.500    1.667    3.500    4.667    2.667 
#    0.000    4.167    0.000   10.000    0.000    1.167 
#    0.000    0.000    0.000    0.000    0.000    0.000 
#
# Total GULP energy -267941.843660 kJ/mol
# GULP energy per Si atom -5582.121743 kJ/mol
# Density = 2.097615 g / cm^3
# Si number density = 21.024001 Si / 1000 Ang^3
#
#
#
# Elastic Constant Matrix: (Units=GPa)
#
#
# Indices 1 2 3 4 5 6 
#
# 1 57.6908 13.3487 13.7011 0.0000 0.0000 3.0657
# 2 13.3487 57.6908 13.7011 0.0000 0.0000 -3.0657
# 3 13.7011 13.7011 81.9623 0.0000 0.0000 0.0000
# 4 0.0000 0.0000 0.0000 2.5983 0.0000 0.0000
# 5 0.0000 0.0000 0.0000 0.0000 2.5983 0.0000
# 6 3.0657 -3.0657 0.0000 0.0000 0.0000 19.5080
#
#
#
# Elastic Compliance Matrix: (Units=1/GPa)
#
#
# Indices 1 2 3 4 5 6 
#
# 1 0.019050 -0.004003 -0.002515 0.000000 0.000000 -0.003623
# 2 -0.004003 0.019050 -0.002515 0.000000 0.000000 0.003623
# 3 -0.002515 -0.002515 0.013042 0.000000 0.000000 0.000000
# 4 0.000000 0.000000 0.000000 0.384860 0.000000 0.000000
# 5 0.000000 0.000000 0.000000 0.000000 0.384860 0.000000
# 6 -0.003623 0.003623 0.000000 0.000000 0.000000 0.052400
#
#
# Mechanical properties :
#
#
# Convention : Reuss Voigt Hill
#
# Bulk Modulus (GPa) = 30.23494 30.98284 30.60889
# Shear Modulus (GPa) = 5.54107 15.38047 10.46077
#
# Velocity S-wave (km/s) = 1.62521 2.70768 2.23303
# Velocity P-wave (km/s) = 4.23487 4.95422 4.60860
#
# Compressibility (1/GPa) = 0.03307432
#
# Stress axis : x y z
#
# Youngs Moduli (GPa) = 52.49375 52.49375 76.67738
#
# Poissons Ratio (x) = 0.21013 0.19287
# Poissons Ratio (y) = 0.21013 0.19287
# Poissons Ratio (z) = 0.13204 0.13204
#
# Static dielectric constant tensor:
#      x y z
#    x 1.788690 0.000000 0.000000 
#    y 0.000000 1.788690 0.000000 
#    z 0.000000 0.000000 1.714420 
# 
# From -- ./inp_files/2628.got.cif
#   From: 2010.05.17/outbox.cif.g08.bks.cpg/sg83_2_cif.got.tgz:2628.got - 2010.06.03 18:55:12.
