data_PCOD9543224
_publ_section_title
;
Structure prediction by ZEFSAII (Michael W. Deem and Ramdas Pophale) SiO2 
 PCOD9543224
Probable space group: P 4/M
;
_chemical_formula_sum "Si O2"
_cell_formula_units_Z 52
_cell_length_a 17.383554
_cell_length_b 17.383554
_cell_length_c 10.042617
_cell_angle_alpha 90.000000
_cell_angle_beta 90.000000
_cell_angle_gamma 90.000000
_cell_volume 3034.757841
_symmetry_space_group_name_H-M "P 4/M"
_symmetry_group_IT_number 83
_symmetry_cell_setting 'tetragonal'
loop_
_space_group_symop_operation_xyz
x,y,z
-y,x,z
-x,-y,z
y,-x,z
-x,-y,-z
y,-x,-z
x,y,-z
-y,x,-z
loop_
_atom_site_type_symbol
_atom_site_label
_atom_site_fract_x
_atom_site_fract_y
_atom_site_fract_z
Si Si1 0.169845 0.555329 0.852444
Si Si2 0.600726 0.265297 0.155511
Si Si3 0.000000 0.500000 0.776654
Si Si4 0.423027 0.604029 0.646674
Si Si5 0.843850 0.306415 0.658808
Si Si6 0.014519 0.331038 0.658408
Si Si7 0.178011 0.280523 0.340797
O O1 0.227788 0.484095 0.836601
O O2 0.081434 0.523313 0.844943
O O3 0.184442 0.619368 0.740583
O O4 0.180535 0.588946 0.000000
O O5 0.604216 0.347304 0.228437
O O6 0.654578 0.213035 0.246696
O O7 0.622449 0.268179 0.000000
O O8 0.020442 0.420611 0.700499
O O9 0.396954 0.515807 0.651072
O O10 0.399516 0.635673 0.500000
O O11 0.840682 0.322717 0.500000
O O12 0.794584 0.229951 0.681939
O O13 0.932508 0.298392 0.703323
O O14 0.012256 0.331030 0.500000
O O15 0.088064 0.280424 0.696407
O O16 0.183448 0.298467 0.500000
#
# Coordination Sequence:
#
# PCOD9543224 Si02
#       7
#     8   8   4   8   8   8   8
#     4  10  21  34  50  74 106 138 168 207 256 308
#     4  11  23  35  49  75 106 135 170 213 263 313
#     4  10  16  32  52  74 103 138 175 206 251 314
#     4   9  20  39  58  73  92 128 179 225 262 303
#     4   9  20  35  54  78 103 136 176 215 258 312
#     4   9  17  31  53  79 106 136 173 221 264 311
#     4  10  20  36  55  77 104 138 177 217 265 316
#
# _framework density 17.134810000000002
#
# number of rings (size 3 to 8) (size 9 to 14) (size 15 to 20)
#    0.000    2.308    1.538    1.385    2.154    3.077 
#    0.000    0.769    0.000    0.462    0.000    3.231 
#    0.000    0.000    0.000    5.385    0.000    5.385 
#
# Total GULP energy -289627.816203 kJ/mol
# GULP energy per Si atom -5569.765696 kJ/mol
# Density = 1.709581 g / cm^3
# Si number density = 17.134810 Si / 1000 Ang^3
#
#
#
# Elastic Constant Matrix: (Units=GPa)
#
#
# Indices 1 2 3 4 5 6 
#
# 1 51.0493 38.7634 29.8934 0.0000 0.0000 -1.3509
# 2 38.7634 51.0493 29.8934 0.0000 0.0000 1.3509
# 3 29.8934 29.8934 55.6882 0.0000 0.0000 0.0000
# 4 0.0000 0.0000 0.0000 9.1743 0.0000 0.0000
# 5 0.0000 0.0000 0.0000 0.0000 9.1743 0.0000
# 6 -1.3509 1.3509 0.0000 0.0000 0.0000 27.0663
#
#
#
# Elastic Compliance Matrix: (Units=1/GPa)
#
#
# Indices 1 2 3 4 5 6 
#
# 1 0.049811 -0.032486 -0.009300 0.000000 0.000000 0.004107
# 2 -0.032486 0.049811 -0.009300 0.000000 0.000000 -0.004107
# 3 -0.009300 -0.009300 0.027942 0.000000 0.000000 0.000000
# 4 0.000000 0.000000 0.000000 0.109000 0.000000 0.000000
# 5 0.000000 0.000000 0.000000 0.000000 0.109000 0.000000
# 6 0.004107 -0.004107 0.000000 0.000000 0.000000 0.037356
#
#
# Mechanical properties :
#
#
# Convention : Reuss Voigt Hill
#
# Bulk Modulus (GPa) = 39.38318 39.43192 39.40755
# Shear Modulus (GPa) = 10.13056 13.03210 11.58133
#
# Velocity S-wave (km/s) = 2.43415 2.76082 2.60262
# Velocity P-wave (km/s) = 5.56187 5.76416 5.66392
#
# Compressibility (1/GPa) = 0.02539155
#
# Stress axis : x y z
#
# Youngs Moduli (GPa) = 20.07581 20.07581 35.78859
#
# Poissons Ratio (x) = 0.65218 0.33284
# Poissons Ratio (y) = 0.65218 0.33284
# Poissons Ratio (z) = 0.18671 0.18671
#
# Static dielectric constant tensor:
#      x y z
#    x 1.598790 0.000000 0.000000 
#    y 0.000000 1.598790 0.000000 
#    z 0.000000 0.000000 1.579490 
# 
# From -- ./inp_files/1031.got.cif
#   From: 2010.05.17/outbox.cif.g08.bks.cpg/sg83_1_cif.got.tgz:1031.got - 2010.06.03 18:55:12.
