data_PCOD9543018
_publ_section_title
;
Structure prediction by ZEFSAII (Michael W. Deem and Ramdas Pophale) SiO2 
 PCOD9543018
Probable space group: I -4 
;
_chemical_formula_sum "Si O2"
_cell_formula_units_Z 40
_cell_length_a 9.167805
_cell_length_b 9.167805
_cell_length_c 23.954543
_cell_angle_alpha 90.000000
_cell_angle_beta 90.000000
_cell_angle_gamma 90.000000
_cell_volume 2013.346965
_symmetry_space_group_name_H-M "I -4 "
_symmetry_group_IT_number 82
_symmetry_cell_setting 'tetragonal'
loop_
_space_group_symop_operation_xyz
x,y,z
y,-x,-z
-x,-y,z
-y,x,-z
1/2+x,1/2+y,1/2+z
1/2+y,1/2-x,1/2-z
1/2-x,1/2-y,1/2+z
1/2-y,1/2+x,1/2-z
loop_
_atom_site_type_symbol
_atom_site_label
_atom_site_fract_x
_atom_site_fract_y
_atom_site_fract_z
Si Si1 0.270709 0.438123 0.484391
Si Si2 0.873460 0.617676 0.368605
Si Si3 0.933336 0.789694 0.528123
Si Si4 0.295623 0.134444 0.753312
Si Si5 0.368825 0.405982 0.147014
O O1 0.328551 0.592743 0.506247
O O2 0.217190 0.442410 0.420397
O O3 0.132170 0.367761 0.515202
O O4 0.763379 0.659897 0.318449
O O5 0.000000 0.500000 0.351794
O O6 0.975879 0.756725 0.379473
O O7 0.925942 0.816195 0.594304
O O8 0.091076 0.828578 0.502910
O O9 0.458684 0.197323 0.749581
O O10 0.205186 0.178494 0.698718
O O11 0.500000 0.500000 0.171867
#
# Coordination Sequence:
#
# PCOD9543018 Si02
#       5
#     8   8   8   8   8
#     4  11  25  38  52  85 123 156 191 239 301 355
#     4  11  19  38  62  79 113 156 200 237 284 351
#     4  11  20  37  60  85 113 152 199 242 288 348
#     4   9  17  32  54  81 101 141 189 230 279 339
#     4  11  19  33  55  91 113 135 192 254 279 334
#
# _framework density 19.867414
#
# number of rings (size 3 to 8) (size 9 to 14) (size 15 to 20)
#    0.000    1.400    8.000    1.200    0.000    0.000 
#    3.600    0.000    0.000    0.000    0.000    0.000 
#    0.000    0.000    0.000    0.000    0.000    0.000 
#
# Total GULP energy -111414.236783 kJ/mol
# GULP energy per Si atom -5570.711839 kJ/mol
# Density = 1.982219 g / cm^3
# Si number density = 19.867414 Si / 1000 Ang^3
#
#
#
# Elastic Constant Matrix: (Units=GPa)
#
#
# Indices 1 2 3 4 5 6 
#
# 1 37.1044 11.4652 0.8987 0.0000 0.0000 -3.1534
# 2 11.4652 37.1044 0.8987 0.0000 0.0000 3.1534
# 3 0.8987 0.8987 139.7463 0.0000 0.0000 0.0000
# 4 0.0000 0.0000 0.0000 21.0056 0.0000 0.0000
# 5 0.0000 0.0000 0.0000 0.0000 21.0056 0.0000
# 6 -3.1534 3.1534 0.0000 0.0000 0.0000 32.0200
#
#
#
# Elastic Compliance Matrix: (Units=1/GPa)
#
#
# Indices 1 2 3 4 5 6 
#
# 1 0.030283 -0.009689 -0.000132 0.000000 0.000000 0.003936
# 2 -0.009689 0.030283 -0.000132 0.000000 0.000000 -0.003936
# 3 -0.000132 -0.000132 0.007158 0.000000 0.000000 0.000000
# 4 0.000000 0.000000 0.000000 0.047606 0.000000 0.000000
# 5 0.000000 0.000000 0.000000 0.000000 0.047606 0.000000
# 6 0.003936 -0.003936 0.000000 0.000000 0.000000 0.032006
#
#
# Mechanical properties :
#
#
# Convention : Reuss Voigt Hill
#
# Bulk Modulus (GPa) = 20.91369 26.72004 23.81686
# Shear Modulus (GPa) = 21.66504 28.18575 24.92539
#
# Velocity S-wave (km/s) = 3.30583 3.77064 3.54586
# Velocity P-wave (km/s) = 5.01207 5.69520 5.36452
#
# Compressibility (1/GPa) = 0.04781557
#
# Stress axis : x y z
#
# Youngs Moduli (GPa) = 33.02235 33.02235 139.71305
#
# Poissons Ratio (x) = 0.31994 0.01850
# Poissons Ratio (y) = 0.31994 0.01850
# Poissons Ratio (z) = 0.00437 0.00437
#
# Static dielectric constant tensor:
#      x y z
#    x 1.723160 0.000000 0.000000 
#    y 0.000000 1.723160 0.000000 
#    z 0.000000 0.000000 1.776770 
# 
# From -- ./inp_files/3321.got.cif
#   From: 2010.05.17/outbox.cif.g08.bks.cpg/sg82_2_cif.got.tgz:3321.got - 2010.06.03 18:52:26.
