data_PCOD9543954
_publ_section_title
;
Structure prediction by ZEFSAII (Michael W. Deem and Ramdas Pophale) SiO2 
 PCOD9543954
Probable space group: P 42/M
;
_chemical_formula_sum "Si O2"
_cell_formula_units_Z 34
_cell_length_a 9.626955
_cell_length_b 9.626955
_cell_length_c 18.170125
_cell_angle_alpha 90.000000
_cell_angle_beta 90.000000
_cell_angle_gamma 90.000000
_cell_volume 1683.975616
_symmetry_space_group_name_H-M "P 42/M"
_symmetry_group_IT_number 84
_symmetry_cell_setting 'tetragonal'
loop_
_space_group_symop_operation_xyz
x,y,z
-y,x,1/2+z
-x,-y,z
y,-x,1/2+z
-x,-y,-z
y,-x,1/2-z
x,y,-z
-y,x,1/2-z
loop_
_atom_site_type_symbol
_atom_site_label
_atom_site_fract_x
_atom_site_fract_y
_atom_site_fract_z
Si Si1 0.544782 0.339800 0.000000
Si Si2 0.276739 0.423073 0.343436
Si Si3 0.264006 0.166287 0.154799
Si Si4 0.088413 0.645889 0.500000
Si Si5 0.654532 0.047117 0.726765
Si Si6 0.500000 0.500000 0.250000
O O1 0.500000 0.500000 0.000000
O O2 0.623942 0.293842 0.073353
O O3 0.405429 0.247910 0.000000
O O4 0.252729 0.590676 0.344911
O O5 0.154447 0.366712 0.294390
O O6 0.419988 0.394907 0.302014
O O7 0.128922 0.262546 0.163686
O O8 0.268813 0.077248 0.230393
O O9 0.275294 0.076854 0.078578
O O10 0.000000 0.500000 0.500000
O O11 0.500000 0.000000 0.703473
#
# Coordination Sequence:
#
# PCOD9543954 Si02
#       6
#     4   8   8   4   8   2
#     4  10  18  28  48  84 117 149 188 244 300 367
#     4  10  19  31  51  81 117 149 187 246 317 374
#     4  10  20  36  58  83 114 157 205 256 299 367
#     4  10  20  38  61  87 123 167 207 249 320 392
#     4  10  21  36  57  84 114 155 206 253 307 370
#     4  12  16  26  52  76 116 142 180 232 320 366
#
# _framework density 20.190318000000001
#
# number of rings (size 3 to 8) (size 9 to 14) (size 15 to 20)
#    0.000    1.882    3.529    3.529    0.000    0.471 
#    0.000    0.588    0.000    4.235    0.000    0.000 
#    0.000    0.000    0.000    0.000    0.000    0.000 
#
# Total GULP energy -189325.317747 kJ/mol
# GULP energy per Si atom -5568.391698 kJ/mol
# Density = 2.014436 g / cm^3
# Si number density = 20.190318 Si / 1000 Ang^3
#
#
#
# Elastic Constant Matrix: (Units=GPa)
#
#
# Indices 1 2 3 4 5 6 
#
# 1 69.2340 17.9278 20.9353 0.0000 0.0000 -3.5759
# 2 17.9278 69.2340 20.9353 0.0000 0.0000 3.5759
# 3 20.9353 20.9353 124.8555 0.0000 0.0000 0.0000
# 4 0.0000 0.0000 0.0000 23.1142 0.0000 0.0000
# 5 0.0000 0.0000 0.0000 0.0000 23.1142 0.0000
# 6 -3.5759 3.5759 0.0000 0.0000 0.0000 29.7565
#
#
#
# Elastic Compliance Matrix: (Units=1/GPa)
#
#
# Indices 1 2 3 4 5 6 
#
# 1 0.016150 -0.003672 -0.002092 0.000000 0.000000 0.002382
# 2 -0.003672 0.016150 -0.002092 0.000000 0.000000 -0.002382
# 3 -0.002092 -0.002092 0.008711 0.000000 0.000000 0.000000
# 4 0.000000 0.000000 0.000000 0.043263 0.000000 0.000000
# 5 0.000000 0.000000 0.000000 0.000000 0.043263 0.000000
# 6 0.002382 -0.002382 0.000000 0.000000 0.000000 0.034179
#
#
# Mechanical properties :
#
#
# Convention : Reuss Voigt Hill
#
# Bulk Modulus (GPa) = 39.52908 42.54670 41.03789
# Shear Modulus (GPa) = 26.90140 28.76531 27.83335
#
# Velocity S-wave (km/s) = 3.65415 3.77863 3.71691
# Velocity P-wave (km/s) = 6.11756 6.33687 6.22818
#
# Compressibility (1/GPa) = 0.02529783
#
# Stress axis : x y z
#
# Youngs Moduli (GPa) = 61.91782 61.91782 114.79862
#
# Poissons Ratio (x) = 0.22739 0.24019
# Poissons Ratio (y) = 0.22739 0.24019
# Poissons Ratio (z) = 0.12955 0.12955
#
# Static dielectric constant tensor:
#      x y z
#    x 1.753470 0.000000 0.000000 
#    y 0.000000 1.753470 0.000000 
#    z 0.000000 0.000000 1.805580 
# 
# From -- ./inp_files/4324.got.cif
#   From: 2010.05.17/outbox.cif.g08.bks.cpg/sg84_3_cif.got.tgz:4324.got - 2010.06.03 18:57:40.
