data_PCOD9543253
_publ_section_title
;
Structure prediction by ZEFSAII (Michael W. Deem and Ramdas Pophale) SiO2 
 PCOD9543253
Probable space group: P 4/M
;
_chemical_formula_sum "Si O2"
_cell_formula_units_Z 52
_cell_length_a 18.903984
_cell_length_b 18.903984
_cell_length_c 8.141755
_cell_angle_alpha 90.000000
_cell_angle_beta 90.000000
_cell_angle_gamma 90.000000
_cell_volume 2909.542542
_symmetry_space_group_name_H-M "P 4/M"
_symmetry_group_IT_number 83
_symmetry_cell_setting 'tetragonal'
loop_
_space_group_symop_operation_xyz
x,y,z
-y,x,z
-x,-y,z
y,-x,z
-x,-y,-z
y,-x,-z
x,y,-z
-y,x,-z
loop_
_atom_site_type_symbol
_atom_site_label
_atom_site_fract_x
_atom_site_fract_y
_atom_site_fract_z
Si Si1 0.635126 0.860476 0.803103
Si Si2 0.628246 0.163814 0.303877
Si Si3 0.253421 0.246160 0.814997
Si Si4 0.991282 0.582311 0.699043
Si Si5 0.400889 0.436377 0.500000
Si Si6 0.489174 0.242298 0.696299
Si Si7 0.644272 0.383519 0.821183
O O1 0.708361 0.823687 0.743534
O O2 0.626685 0.942645 0.764686
O O3 0.568128 0.820640 0.722271
O O4 0.631461 0.848637 0.000000
O O5 0.618998 0.163358 0.500000
O O6 0.706220 0.193405 0.267904
O O7 0.564875 0.214600 0.240080
O O8 0.612568 0.084366 0.245157
O O9 0.319967 0.299806 0.822707
O O10 0.229564 0.230028 0.000000
O O11 0.993299 0.583881 0.500000
O O12 0.000000 0.500000 0.749069
O O13 0.480746 0.408106 0.500000
O O14 0.369395 0.405994 0.667049
O O15 0.493435 0.256035 0.500000
O O16 0.453457 0.308711 0.786929
O O17 0.609478 0.388686 0.000000
#
# Coordination Sequence:
#
# PCOD9543253 Si02
#       7
#     8   8   8   8   4   8   8
#     4  10  20  34  50  73 105 144 182 214 264 326
#     4  10  21  32  52  80 104 134 178 220 263 322
#     4   9  21  36  50  74 105 134 172 220 263 312
#     4  10  19  35  52  75 109 141 174 218 270 324
#     4  11  26  42  54  70  92 125 173 225 283 339
#     4  10  18  32  52  75 103 137 172 217 267 321
#     4  10  22  38  56  76  97 129 174 222 274 333
#
# _framework density 17.872225
#
# number of rings (size 3 to 8) (size 9 to 14) (size 15 to 20)
#    0.000    2.077    2.308    1.846    3.231    4.000 
#    0.000    0.769    0.000    0.000    0.000    0.000 
#    0.000    0.615    0.000    6.769    0.000    4.923 
#
# Total GULP energy -290221.733695 kJ/mol
# GULP energy per Si atom -5581.187186 kJ/mol
# Density = 1.783155 g / cm^3
# Si number density = 17.872225 Si / 1000 Ang^3
#
#
#
# Elastic Constant Matrix: (Units=GPa)
#
#
# Indices 1 2 3 4 5 6 
#
# 1 102.2919 36.7011 11.6833 0.0000 0.0000 0.5662
# 2 36.7011 102.2919 11.6833 0.0000 0.0000 -0.5662
# 3 11.6833 11.6833 58.2237 0.0000 0.0000 0.0000
# 4 0.0000 0.0000 0.0000 14.9184 0.0000 0.0000
# 5 0.0000 0.0000 0.0000 0.0000 14.9184 0.0000
# 6 0.5662 -0.5662 0.0000 0.0000 0.0000 25.2661
#
#
#
# Elastic Compliance Matrix: (Units=1/GPa)
#
#
# Indices 1 2 3 4 5 6 
#
# 1 0.011349 -0.003903 -0.001494 0.000000 0.000000 -0.000342
# 2 -0.003903 0.011349 -0.001494 0.000000 0.000000 0.000342
# 3 -0.001494 -0.001494 0.017775 0.000000 0.000000 0.000000
# 4 0.000000 0.000000 0.000000 0.067031 0.000000 0.000000
# 5 0.000000 0.000000 0.000000 0.000000 0.067031 0.000000
# 6 -0.000342 0.000342 0.000000 0.000000 0.000000 0.039594
#
#
# Mechanical properties :
#
#
# Convention : Reuss Voigt Hill
#
# Bulk Modulus (GPa) = 37.46728 42.54923 40.00826
# Shear Modulus (GPa) = 21.11410 24.53656 22.82533
#
# Velocity S-wave (km/s) = 3.44087 3.70927 3.57759
# Velocity P-wave (km/s) = 6.06594 6.49646 6.28489
#
# Compressibility (1/GPa) = 0.02668995
#
# Stress axis : x y z
#
# Youngs Moduli (GPa) = 88.11462 88.11462 56.25963
#
# Poissons Ratio (x) = 0.34392 0.08406
# Poissons Ratio (y) = 0.34392 0.08406
# Poissons Ratio (z) = 0.13165 0.13165
#
# Static dielectric constant tensor:
#      x y z
#    x 1.626390 0.000000 0.000000 
#    y 0.000000 1.626390 0.000000 
#    z 0.000000 0.000000 1.675890 
# 
# From -- ./inp_files/986.got.cif
#   From: 2010.05.17/outbox.cif.g08.bks.cpg/sg83_1_cif.got.tgz:986.got - 2010.06.03 18:55:12.
