data_PCOD9543976
_publ_section_title
;
Structure prediction by ZEFSAII (Michael W. Deem and Ramdas Pophale) SiO2 
 PCOD9543976
Probable space group: P 42/M
;
_chemical_formula_sum "Si O2"
_cell_formula_units_Z 24
_cell_length_a 13.185040
_cell_length_b 13.185040
_cell_length_c 5.498003
_cell_angle_alpha 90.000000
_cell_angle_beta 90.000000
_cell_angle_gamma 90.000000
_cell_volume 955.801870
_symmetry_space_group_name_H-M "P 42/M"
_symmetry_group_IT_number 84
_symmetry_cell_setting 'tetragonal'
loop_
_space_group_symop_operation_xyz
x,y,z
-y,x,1/2+z
-x,-y,z
y,-x,1/2+z
-x,-y,-z
y,-x,1/2-z
x,y,-z
-y,x,1/2-z
loop_
_atom_site_type_symbol
_atom_site_label
_atom_site_fract_x
_atom_site_fract_y
_atom_site_fract_z
Si Si1 0.461804 0.740206 0.500000
Si Si2 0.042507 0.378984 0.000000
Si Si3 0.175892 0.874550 0.000000
Si Si4 0.341041 0.690406 0.000000
Si Si5 0.337989 0.051631 0.000000
Si Si6 0.159185 0.160687 0.000000
O O1 0.452005 0.861515 0.500000
O O2 0.406732 0.705247 0.751775
O O3 0.577708 0.704226 0.500000
O O4 0.101188 0.268838 0.000000
O O5 0.976466 0.388390 0.754977
O O6 0.253614 0.777811 0.000000
O O7 0.112806 0.868579 0.756167
O O8 0.245779 0.971637 0.000000
O O9 0.282772 0.160486 0.000000
#
# Coordination Sequence:
#
# PCOD9543976 Si02
#       6
#     4   4   4   4   4   4
#     4  12  23  40  62  86 118 154 188 237 289 341
#     4  10  19  37  55  83 119 145 194 227 289 337
#     4  10  19  37  55  83 119 145 194 227 289 337
#     4  12  23  40  62  86 118 154 188 237 289 341
#     4  10  18  32  61  83 108 153 192 229 281 340
#     4  10  18  32  61  83 108 153 192 229 281 340
#
# _framework density 25.109807
#
# number of rings (size 3 to 8) (size 9 to 14) (size 15 to 20)
#    0.000    1.333    6.667    2.000    0.000    2.000 
#    0.000    0.000    0.000   54.000    0.000    0.000 
#    0.000    0.000    0.000    0.000    0.000    0.000 
#
# Total GULP energy -134135.511717 kJ/mol
# GULP energy per Si atom -5588.979655 kJ/mol
# Density = 2.505266 g / cm^3
# Si number density = 25.109807 Si / 1000 Ang^3
#
#
#
# Elastic Constant Matrix: (Units=GPa)
#
#
# Indices 1 2 3 4 5 6 
#
# 1 85.1092 37.2694 52.4256 0.0000 0.0000 12.9060
# 2 37.2694 85.1092 52.4256 0.0000 0.0000 -12.9060
# 3 52.4256 52.4256 293.7047 0.0000 0.0000 0.0000
# 4 0.0000 0.0000 0.0000 15.7883 0.0000 0.0000
# 5 0.0000 0.0000 0.0000 0.0000 15.7883 0.0000
# 6 12.9060 -12.9060 0.0000 0.0000 0.0000 32.0810
#
#
#
# Elastic Compliance Matrix: (Units=1/GPa)
#
#
# Indices 1 2 3 4 5 6 
#
# 1 0.018172 -0.008526 -0.001722 0.000000 0.000000 -0.010740
# 2 -0.008526 0.018172 -0.001722 0.000000 0.000000 0.010740
# 3 -0.001722 -0.001722 0.004019 0.000000 0.000000 0.000000
# 4 0.000000 0.000000 0.000000 0.063338 0.000000 0.000000
# 5 0.000000 0.000000 0.000000 0.000000 0.063338 0.000000
# 6 -0.010740 0.010740 0.000000 0.000000 0.000000 0.039813
#
#
# Mechanical properties :
#
#
# Convention : Reuss Voigt Hill
#
# Bulk Modulus (GPa) = 60.88216 83.12939 72.00578
# Shear Modulus (GPa) = 21.16252 34.18504 27.67378
#
# Velocity S-wave (km/s) = 2.90625 3.69375 3.32341
# Velocity P-wave (km/s) = 5.96328 7.16728 6.59282
#
# Compressibility (1/GPa) = 0.01642517
#
# Stress axis : x y z
#
# Youngs Moduli (GPa) = 55.02865 55.02865 248.78755
#
# Poissons Ratio (x) = 0.46916 0.42839
# Poissons Ratio (y) = 0.46916 0.42839
# Poissons Ratio (z) = 0.09475 0.09475
#
# Static dielectric constant tensor:
#      x y z
#    x 1.987210 0.000000 0.000000 
#    y 0.000000 1.987210 0.000000 
#    z 0.000000 0.000000 2.035870 
# 
# From -- ./inp_files/63.got.cif
#   From: 2010.05.17/outbox.cif.g08.bks.cpg/sg84_1_cif.got.tgz:63.got - 2010.06.03 18:57:40.
