data_PCOD9543745
_publ_section_title
;
Structure prediction by ZEFSAII (Michael W. Deem and Ramdas Pophale) SiO2 
 PCOD9543745
Probable space group: P 4/M
;
_chemical_formula_sum "Si O2"
_cell_formula_units_Z 45
_cell_length_a 8.336725
_cell_length_b 8.336725
_cell_length_c 30.102982
_cell_angle_alpha 90.000000
_cell_angle_beta 90.000000
_cell_angle_gamma 90.000000
_cell_volume 2092.186862
_symmetry_space_group_name_H-M "P 4/M"
_symmetry_group_IT_number 83
_symmetry_cell_setting 'tetragonal'
loop_
_space_group_symop_operation_xyz
x,y,z
-y,x,z
-x,-y,z
y,-x,z
-x,-y,-z
y,-x,-z
x,y,-z
-y,x,-z
loop_
_atom_site_type_symbol
_atom_site_label
_atom_site_fract_x
_atom_site_fract_y
_atom_site_fract_z
Si Si1 0.084636 0.744045 0.727083
Si Si2 0.324412 0.075826 0.000000
Si Si3 0.410930 0.242539 0.355693
Si Si4 0.000000 0.000000 0.000000
Si Si5 0.751407 0.395714 0.188833
Si Si6 0.381283 0.257276 0.090573
Si Si7 0.243092 0.591542 0.547483
O O1 0.130443 0.638417 0.684580
O O2 0.130368 0.653030 0.772150
O O3 0.903140 0.804433 0.725909
O O4 0.326636 0.160554 0.048198
O O5 0.500000 0.000000 0.000000
O O6 0.057814 0.185009 0.000000
O O7 0.594154 0.304487 0.352838
O O8 0.381317 0.165530 0.404477
O O9 0.700790 0.582433 0.192548
O O10 0.816678 0.356528 0.139518
O O11 0.570566 0.294644 0.088522
O O12 0.304365 0.407238 0.547442
O O13 0.159083 0.622392 0.500000
#
# Coordination Sequence:
#
# PCOD9543745 Si02
#       7
#     8   4   8   1   8   8   8
#     4  11  24  39  50  72 106 146 187 229 284 336
#     4  12  24  43  64  93 136 172 206 250 306 354
#     4   9  17  30  53  81 105 134 175 224 274 330
#     4  12  28  44  60 104 132 164 220 268 292 360
#     4   9  19  38  62  87 111 139 185 235 281 341
#     4   9  18  37  65  92 120 159 200 240 295 359
#     4   7  10  19  39  71 106 132 159 206 270 330
#
# _framework density 21.508596000000001
#
# number of rings (size 3 to 8) (size 9 to 14) (size 15 to 20)
#    0.000    2.667    0.000    5.333    0.000    4.978 
#    9.600    0.000    0.000    1.067    0.000    6.222 
#    0.000    0.000    0.000    0.000    0.000    0.000 
#
# Total GULP energy -251010.418016 kJ/mol
# GULP energy per Si atom -5578.009289 kJ/mol
# Density = 2.145964 g / cm^3
# Si number density = 21.508596 Si / 1000 Ang^3
#
#
#
# Elastic Constant Matrix: (Units=GPa)
#
#
# Indices 1 2 3 4 5 6 
#
# 1 37.0898 22.8395 48.9740 0.0000 0.0000 -1.0158
# 2 22.8395 37.0898 48.9740 0.0000 0.0000 1.0158
# 3 48.9740 48.9740 235.3382 0.0000 0.0000 0.0000
# 4 0.0000 0.0000 0.0000 -21.3960 0.0000 0.0000
# 5 0.0000 0.0000 0.0000 0.0000 -21.3960 0.0000
# 6 -1.0158 1.0158 0.0000 0.0000 0.0000 23.5123
#
#
#
# Elastic Compliance Matrix: (Units=1/GPa)
#
#
# Indices 1 2 3 4 5 6 
#
# 1 0.047948 -0.022661 -0.005262 0.000000 0.000000 0.003051
# 2 -0.022661 0.047948 -0.005262 0.000000 0.000000 -0.003051
# 3 -0.005262 -0.005262 0.006439 0.000000 0.000000 0.000000
# 4 0.000000 0.000000 0.000000 -0.046738 0.000000 0.000000
# 5 0.000000 0.000000 0.000000 0.000000 -0.046738 0.000000
# 6 0.003051 -0.003051 0.000000 0.000000 0.000000 0.042794
#
#
# Mechanical properties :
#
#
# Convention : Reuss Voigt Hill
#
# Bulk Modulus (GPa) = 27.80542 61.23252 44.51897
# Shear Modulus (GPa) = 38.45753 8.72609 23.59181
#
# Velocity S-wave (km/s) = 4.23307 2.01639 3.31547
# Velocity P-wave (km/s) = 6.07021 5.82682 5.94976
#
# Compressibility (1/GPa) = 0.03596421
#
# Stress axis : x y z
#
# Youngs Moduli (GPa) = 20.85591 20.85591 155.29547
#
# Poissons Ratio (x) = 0.47262 0.81720
# Poissons Ratio (y) = 0.47262 0.81720
# Poissons Ratio (z) = 0.10975 0.10975
#
# Static dielectric constant tensor:
#      x y z
#    x 1.692870 0.000000 0.000000 
#    y 0.000000 1.692870 0.000000 
#    z 0.000000 0.000000 1.804980 
# 
# From -- ./inp_files/3381.got.cif
#   From: 2010.05.17/outbox.cif.g08.bks.cpg/sg83_2_cif.got.tgz:3381.got - 2010.06.03 18:55:12.
