data_PCOD9543621
_publ_section_title
;
Structure prediction by ZEFSAII (Michael W. Deem and Ramdas Pophale) SiO2 
 PCOD9543621
Probable space group: P 4/M
;
_chemical_formula_sum "Si O2"
_cell_formula_units_Z 40
_cell_length_a 9.938109
_cell_length_b 9.938109
_cell_length_c 23.216430
_cell_angle_alpha 90.000000
_cell_angle_beta 90.000000
_cell_angle_gamma 90.000000
_cell_volume 2292.994169
_symmetry_space_group_name_H-M "P 4/M"
_symmetry_group_IT_number 83
_symmetry_cell_setting 'tetragonal'
loop_
_space_group_symop_operation_xyz
x,y,z
-y,x,z
-x,-y,z
y,-x,z
-x,-y,-z
y,-x,-z
x,y,-z
-y,x,-z
loop_
_atom_site_type_symbol
_atom_site_label
_atom_site_fract_x
_atom_site_fract_y
_atom_site_fract_z
Si Si1 0.394436 0.698834 0.727643
Si Si2 0.346425 0.847594 0.614688
Si Si3 0.646650 0.868433 0.567723
Si Si4 0.695490 0.613068 0.137427
Si Si5 0.190145 0.885357 0.930865
O O1 0.325038 0.553787 0.717807
O O2 0.344190 0.806093 0.681536
O O3 0.372950 0.730270 0.794777
O O4 0.498261 0.835681 0.591059
O O5 0.253291 0.745507 0.580207
O O6 0.304598 0.999814 0.601841
O O7 0.640043 0.898913 0.500000
O O8 0.547033 0.677436 0.126859
O O9 0.805714 0.690428 0.100056
O O10 0.044067 0.820791 0.916140
O O11 0.205273 0.876501 0.000000
#
# Coordination Sequence:
#
# PCOD9543621 Si02
#       5
#     8   8   8   8   8
#     4   9  17  35  58  81 107 142 185 227 274 329
#     4  11  21  38  57  80 111 144 183 228 276 333
#     4  11  23  38  57  82 110 143 184 230 282 335
#     4   9  19  35  56  83 115 145 182 232 283 334
#     4   9  19  37  57  80 114 155 195 233 272 319
#
# _framework density 17.44444
#
# number of rings (size 3 to 8) (size 9 to 14) (size 15 to 20)
#    0.000    2.200    2.000    4.200    0.000    2.400 
#    3.600    5.000    0.000    0.000    0.000    0.000 
#    0.000    0.000    0.000    0.000    0.000    0.000 
#
# Total GULP energy -223134.361048 kJ/mol
# GULP energy per Si atom -5578.359026 kJ/mol
# Density = 1.740474 g / cm^3
# Si number density = 17.444440 Si / 1000 Ang^3
#
#
#
# Elastic Constant Matrix: (Units=GPa)
#
#
# Indices 1 2 3 4 5 6 
#
# 1 -16.2522 92.1702 24.6936 0.0000 0.0000 -30.3519
# 2 92.1702 -16.2522 24.6936 0.0000 0.0000 30.3519
# 3 24.6936 24.6936 60.4440 0.0000 0.0000 0.0000
# 4 0.0000 0.0000 0.0000 20.6812 0.0000 0.0000
# 5 0.0000 0.0000 0.0000 0.0000 20.6812 0.0000
# 6 -30.3519 30.3519 0.0000 0.0000 0.0000 17.5657
#
#
#
# Elastic Compliance Matrix: (Units=1/GPa)
#
#
# Indices 1 2 3 4 5 6 
#
# 1 0.006626 0.011314 -0.007329 0.000000 0.000000 -0.008100
# 2 0.011314 0.006626 -0.007329 0.000000 0.000000 0.008100
# 3 -0.007329 -0.007329 0.022533 0.000000 0.000000 0.000000
# 4 0.000000 0.000000 0.000000 0.048353 0.000000 0.000000
# 5 0.000000 0.000000 0.000000 0.000000 0.048353 0.000000
# 6 -0.008100 0.008100 0.000000 0.000000 0.000000 0.028936
#
#
# Mechanical properties :
#
#
# Convention : Reuss Voigt Hill
#
# Bulk Modulus (GPa) = 34.36891 34.56160 34.46525
# Shear Modulus (GPa) = 28.11926 4.21110 16.16518
#
# Velocity S-wave (km/s) = 4.01924 1.55539 3.04742
# Velocity P-wave (km/s) = 6.42525 4.80427 5.67296
#
# Compressibility (1/GPa) = 0.02909606
#
# Stress axis : x y z
#
# Youngs Moduli (GPa) = 150.92090 150.92090 44.38008
#
# Poissons Ratio (x) = -1.70751 0.32527
# Poissons Ratio (y) = -1.70751 0.32527
# Poissons Ratio (z) = 1.10611 1.10611
#
# Static dielectric constant tensor:
#      x y z
#    x 1.583860 0.000000 0.000000 
#    y 0.000000 1.583860 0.000000 
#    z 0.000000 0.000000 1.581840 
# 
# From -- ./inp_files/3101.got.cif
#   From: 2010.05.17/outbox.cif.g08.bks.cpg/sg83_2_cif.got.tgz:3101.got - 2010.06.03 18:55:12.
