data_PCOD9543717
_publ_section_title
;
Structure prediction by ZEFSAII (Michael W. Deem and Ramdas Pophale) SiO2 
 PCOD9543717
Probable space group: P 4/M
;
_chemical_formula_sum "Si O2"
_cell_formula_units_Z 44
_cell_length_a 8.202018
_cell_length_b 8.202018
_cell_length_c 29.203498
_cell_angle_alpha 90.000000
_cell_angle_beta 90.000000
_cell_angle_gamma 90.000000
_cell_volume 1964.609820
_symmetry_space_group_name_H-M "P 4/M"
_symmetry_group_IT_number 83
_symmetry_cell_setting 'tetragonal'
loop_
_space_group_symop_operation_xyz
x,y,z
-y,x,z
-x,-y,z
y,-x,z
-x,-y,-z
y,-x,-z
x,y,-z
-y,x,-z
loop_
_atom_site_type_symbol
_atom_site_label
_atom_site_fract_x
_atom_site_fract_y
_atom_site_fract_z
Si Si1 0.737839 0.919667 0.775281
Si Si2 0.409654 0.239448 0.311404
Si Si3 0.411992 0.239020 0.585898
Si Si4 0.907666 0.259649 0.948441
Si Si5 0.580781 0.761942 0.861676
Si Si6 0.922626 0.262247 0.500000
O O1 0.644474 0.879897 0.728493
O O2 0.629516 0.871861 0.818684
O O3 0.897479 0.803992 0.776964
O O4 0.595571 0.301307 0.307155
O O5 0.386584 0.172465 0.362780
O O6 0.597179 0.302231 0.581934
O O7 0.361753 0.120479 0.545469
O O8 0.853279 0.380064 0.908826
O O9 0.094036 0.199466 0.943942
O O10 0.883798 0.324313 0.000000
O O11 0.397837 0.696185 0.859632
O O12 0.104571 0.195115 0.500000
#
# Coordination Sequence:
#
# PCOD9543717 Si02
#       6
#     8   8   8   8   8   4
#     4  11  24  39  56  81 112 145 182 224 270 323
#     4   9  19  37  60  85 111 139 176 223 272 323
#     4   9  19  37  60  83 107 139 181 226 270 321
#     4   9  19  37  60  85 113 145 182 224 270 323
#     4  11  24  39  56  81 112 145 184 230 274 319
#     4  11  24  37  50  76 114 149 182 225 272 318
#
# _framework density 22.396304000000001
#
# number of rings (size 3 to 8) (size 9 to 14) (size 15 to 20)
#    0.000    2.091    0.000    4.364    0.000   12.364 
#    0.000    8.182    0.000    0.000    0.000    0.000 
#    0.000    0.000    0.000    0.000    0.000    0.000 
#
# Total GULP energy -246566.349234 kJ/mol
# GULP energy per Si atom -5603.780664 kJ/mol
# Density = 2.234533 g / cm^3
# Si number density = 22.396304 Si / 1000 Ang^3
#
#
#
# Elastic Constant Matrix: (Units=GPa)
#
#
# Indices 1 2 3 4 5 6 
#
# 1 79.6341 58.7919 72.3497 0.0000 0.0000 0.1595
# 2 58.7919 79.6341 72.3497 0.0000 0.0000 -0.1595
# 3 72.3497 72.3497 192.9165 0.0000 0.0000 0.0000
# 4 0.0000 0.0000 0.0000 344.3789 0.0000 0.0000
# 5 0.0000 0.0000 0.0000 0.0000 344.3789 0.0000
# 6 0.1595 -0.1595 0.0000 0.0000 0.0000 46.9357
#
#
#
# Elastic Compliance Matrix: (Units=1/GPa)
#
#
# Indices 1 2 3 4 5 6 
#
# 1 0.029932 -0.018050 -0.004456 0.000000 0.000000 -0.000163
# 2 -0.018050 0.029932 -0.004456 0.000000 0.000000 0.000163
# 3 -0.004456 -0.004456 0.008526 0.000000 0.000000 0.000000
# 4 0.000000 0.000000 0.000000 0.002904 0.000000 0.000000
# 5 0.000000 0.000000 0.000000 0.000000 0.002904 0.000000
# 6 -0.000163 0.000163 0.000000 0.000000 0.000000 0.021307
#
#
# Mechanical properties :
#
#
# Convention : Reuss Voigt Hill
#
# Bulk Modulus (GPa) = 69.12920 84.35194 76.74057
# Shear Modulus (GPa) = 32.41467 157.05159 94.73313
#
# Velocity S-wave (km/s) = 3.80850 8.38309 6.51079
# Velocity P-wave (km/s) = 7.09034 11.46502 9.53204
#
# Compressibility (1/GPa) = 0.01446567
#
# Stress axis : x y z
#
# Youngs Moduli (GPa) = 33.40894 33.40894 117.28788
#
# Poissons Ratio (x) = 0.60303 0.52266
# Poissons Ratio (y) = 0.60303 0.52266
# Poissons Ratio (z) = 0.14888 0.14888
#
# Static dielectric constant tensor:
#      x y z
#    x 1.805340 0.000000 0.000000 
#    y 0.000000 1.805340 0.000000 
#    z 0.000000 0.000000 1.774720 
# 
# From -- ./inp_files/3342.got.cif
#   From: 2010.05.17/outbox.cif.g08.bks.cpg/sg83_2_cif.got.tgz:3342.got - 2010.06.03 18:55:12.
