data_PCOD9543260
_publ_section_title
;
Structure prediction by ZEFSAII (Michael W. Deem and Ramdas Pophale) SiO2 
 PCOD9543260
Probable space group: P 4/M
;
_chemical_formula_sum "Si O2"
_cell_formula_units_Z 52
_cell_length_a 17.383448
_cell_length_b 17.383448
_cell_length_c 9.970365
_cell_angle_alpha 90.000000
_cell_angle_beta 90.000000
_cell_angle_gamma 90.000000
_cell_volume 3012.887413
_symmetry_space_group_name_H-M "P 4/M"
_symmetry_group_IT_number 83
_symmetry_cell_setting 'tetragonal'
loop_
_space_group_symop_operation_xyz
x,y,z
-y,x,z
-x,-y,z
y,-x,z
-x,-y,-z
y,-x,-z
x,y,-z
-y,x,-z
loop_
_atom_site_type_symbol
_atom_site_label
_atom_site_fract_x
_atom_site_fract_y
_atom_site_fract_z
Si Si1 0.926792 0.307587 0.352756
Si Si2 0.803612 0.576124 0.154518
Si Si3 0.888342 0.935058 0.000000
Si Si4 0.068647 0.293554 0.839911
Si Si5 0.711178 0.316937 0.850235
Si Si6 0.208583 0.569826 0.656566
Si Si7 0.833317 0.186909 0.780322
O O1 0.963610 0.310422 0.500000
O O2 0.869802 0.379986 0.338336
O O3 0.873342 0.231502 0.341074
O O4 0.988659 0.306283 0.234591
O O5 0.877868 0.630975 0.171356
O O6 0.730426 0.632774 0.170273
O O7 0.801910 0.508477 0.261574
O O8 0.803906 0.547547 0.000000
O O9 0.842567 0.901995 0.873866
O O10 0.973945 0.899292 0.000000
O O11 0.114836 0.224053 0.767786
O O12 0.061501 0.276988 0.000000
O O13 0.729185 0.378534 0.736075
O O14 0.779073 0.252677 0.845820
O O15 0.710879 0.351179 0.000000
O O16 0.227639 0.558212 0.500000
#
# Coordination Sequence:
#
# PCOD9543260 Si02
#       7
#     8   8   4   8   8   8   8
#     4  10  23  36  50  74 106 144 179 216 269 327
#     4   9  19  35  55  82 109 136 174 220 270 315
#     4  11  20  28  46  78 102 126 166 219 276 318
#     4  10  20  34  56  80 102 133 178 227 272 319
#     4   9  17  33  57  79 101 135 175 218 262 308
#     4  10  21  35  52  78 110 144 179 212 258 321
#     4  10  18  33  53  73 101 130 175 224 266 312
#
# _framework density 17.25919
#
# number of rings (size 3 to 8) (size 9 to 14) (size 15 to 20)
#    0.000    2.231    1.538    2.308    1.077    3.692 
#    0.000    6.154    0.000    0.462    0.000    6.462 
#    0.000    0.000    0.000    0.000    0.000    0.000 
#
# Total GULP energy -289845.917141 kJ/mol
# GULP energy per Si atom -5573.959945 kJ/mol
# Density = 1.721991 g / cm^3
# Si number density = 17.259190 Si / 1000 Ang^3
#
#
#
# Elastic Constant Matrix: (Units=GPa)
#
#
# Indices 1 2 3 4 5 6 
#
# 1 85.7413 23.1711 62.2497 0.0000 0.0000 -4.5711
# 2 23.1711 85.7413 62.2497 0.0000 0.0000 4.5711
# 3 62.2497 62.2497 117.5674 0.0000 0.0000 0.0000
# 4 0.0000 0.0000 0.0000 13.7759 0.0000 0.0000
# 5 0.0000 0.0000 0.0000 0.0000 13.7759 0.0000
# 6 -4.5711 4.5711 0.0000 0.0000 0.0000 12.1740
#
#
#
# Elastic Compliance Matrix: (Units=1/GPa)
#
#
# Indices 1 2 3 4 5 6 
#
# 1 0.020085 0.003175 -0.012316 0.000000 0.000000 0.006349
# 2 0.003175 0.020085 -0.012316 0.000000 0.000000 -0.006349
# 3 -0.012316 -0.012316 0.021548 0.000000 0.000000 0.000000
# 4 0.000000 0.000000 0.000000 0.072590 0.000000 0.000000
# 5 0.000000 0.000000 0.000000 0.000000 0.072590 0.000000
# 6 0.006349 -0.006349 0.000000 0.000000 0.000000 0.086911
#
#
# Mechanical properties :
#
#
# Convention : Reuss Voigt Hill
#
# Bulk Modulus (GPa) = 53.17811 64.93232 59.05521
# Shear Modulus (GPa) = 14.57770 17.37046 15.97408
#
# Velocity S-wave (km/s) = 2.90941 3.17590 3.04557
# Velocity P-wave (km/s) = 6.49343 7.15206 6.83069
#
# Compressibility (1/GPa) = 0.01880473
#
# Stress axis : x y z
#
# Youngs Moduli (GPa) = 49.78869 49.78869 46.40877
#
# Poissons Ratio (x) = -0.15808 0.57156
# Poissons Ratio (y) = -0.15808 0.57156
# Poissons Ratio (z) = 0.61318 0.61318
#
# Static dielectric constant tensor:
#      x y z
#    x 1.580820 0.000000 0.000000 
#    y 0.000000 1.580820 0.000000 
#    z 0.000000 0.000000 1.576740 
# 
# From -- ./inp_files/1020.got.cif
#   From: 2010.05.17/outbox.cif.g08.bks.cpg/sg83_1_cif.got.tgz:1020.got - 2010.06.03 18:55:12.
