data_PCOD9543247
_publ_section_title
;
Structure prediction by ZEFSAII (Michael W. Deem and Ramdas Pophale) SiO2 
 PCOD9543247
Probable space group: P 4/M
;
_chemical_formula_sum "Si O2"
_cell_formula_units_Z 64
_cell_length_a 20.238480
_cell_length_b 20.238480
_cell_length_c 8.633891
_cell_angle_alpha 90.000000
_cell_angle_beta 90.000000
_cell_angle_gamma 90.000000
_cell_volume 3536.407846
_symmetry_space_group_name_H-M "P 4/M"
_symmetry_group_IT_number 83
_symmetry_cell_setting 'tetragonal'
loop_
_space_group_symop_operation_xyz
x,y,z
-y,x,z
-x,-y,z
y,-x,z
-x,-y,-z
y,-x,-z
x,y,-z
-y,x,-z
loop_
_atom_site_type_symbol
_atom_site_label
_atom_site_fract_x
_atom_site_fract_y
_atom_site_fract_z
Si Si1 0.142299 0.245134 0.686778
Si Si2 0.513415 0.757245 0.178624
Si Si3 0.848777 0.254284 0.183116
Si Si4 0.398698 0.977407 0.680969
Si Si5 0.349196 0.260530 0.684944
Si Si6 0.635138 0.233880 0.685752
Si Si7 0.256167 0.005762 0.687637
Si Si8 0.891275 0.485174 0.681628
O O1 0.150772 0.240632 0.500000
O O2 0.191809 0.195739 0.769991
O O3 0.169239 0.319535 0.727529
O O4 0.066294 0.225039 0.720431
O O5 0.576955 0.722286 0.256590
O O6 0.438642 0.756317 0.246938
O O7 0.534630 0.832943 0.208409
O O8 0.510362 0.739386 0.000000
O O9 0.808523 0.316871 0.254678
O O10 0.922502 0.239837 0.246080
O O11 0.851359 0.263305 0.000000
O O12 0.387568 0.960218 0.500000
O O13 0.329175 0.990935 0.752945
O O14 0.445255 0.919989 0.739743
O O15 0.437758 0.046055 0.683002
O O16 0.351462 0.255073 0.500000
O O17 0.296494 0.318039 0.726663
O O18 0.627754 0.231734 0.500000
O O19 0.256439 0.012939 0.500000
O O20 0.869486 0.489577 0.500000
#
# Coordination Sequence:
#
# PCOD9543247 Si02
#       8
#     8   8   8   8   8   8   8   8
#     4   9  19  36  58  81 105 141 187 226 260 311
#     4  12  23  32  49  79 110 137 167 210 269 323
#     4  11  22  35  53  80 114 144 173 218 277 328
#     4   8  15  27  46  70  94 128 171 212 248 287
#     4  10  21  39  60  78 102 141 188 228 259 306
#     4   9  19  37  59  80 102 135 180 222 261 309
#     4  10  18  31  53  77 102 136 181 223 259 310
#     4   9  16  29  47  67  97 136 174 205 241 298
#
# _framework density 18.097459000000001
#
# number of rings (size 3 to 8) (size 9 to 14) (size 15 to 20)
#    0.000    2.250    0.000    5.625    0.000    6.000 
#    0.000    3.125    0.000    0.750    0.000    5.250 
#    0.000    0.000    0.000    0.000    0.000    0.000 
#
# Total GULP energy -356289.747054 kJ/mol
# GULP energy per Si atom -5567.027298 kJ/mol
# Density = 1.805627 g / cm^3
# Si number density = 18.097459 Si / 1000 Ang^3
#
#
#
# Elastic Constant Matrix: (Units=GPa)
#
#
# Indices 1 2 3 4 5 6 
#
# 1 96.5323 24.7158 29.9319 0.0000 0.0000 2.6245
# 2 24.7158 96.5323 29.9319 0.0000 0.0000 -2.6245
# 3 29.9319 29.9319 45.9894 0.0000 0.0000 0.0000
# 4 0.0000 0.0000 0.0000 -28.6264 0.0000 0.0000
# 5 0.0000 0.0000 0.0000 0.0000 -28.6264 0.0000
# 6 2.6245 -2.6245 0.0000 0.0000 0.0000 16.6234
#
#
#
# Elastic Compliance Matrix: (Units=1/GPa)
#
#
# Indices 1 2 3 4 5 6 
#
# 1 0.013120 -0.000967 -0.007910 0.000000 0.000000 -0.002224
# 2 -0.000967 0.013120 -0.007910 0.000000 0.000000 0.002224
# 3 -0.007910 -0.007910 0.032040 0.000000 0.000000 0.000000
# 4 0.000000 0.000000 0.000000 -0.034933 0.000000 0.000000
# 5 0.000000 0.000000 0.000000 0.000000 -0.034933 0.000000
# 6 -0.002224 0.002224 0.000000 0.000000 0.000000 0.060859
#
#
# Mechanical properties :
#
#
# Convention : Reuss Voigt Hill
#
# Bulk Modulus (GPa) = 40.47397 45.35700 42.91549
# Shear Modulus (GPa) = 54.89645 2.17241 28.53443
#
# Velocity S-wave (km/s) = 5.51359 1.09681 3.97509
# Velocity P-wave (km/s) = 7.93384 5.16924 6.69578
#
# Compressibility (1/GPa) = 0.02470724
#
# Stress axis : x y z
#
# Youngs Moduli (GPa) = 76.22052 76.22052 31.21109
#
# Poissons Ratio (x) = 0.07371 0.24686
# Poissons Ratio (y) = 0.07371 0.24686
# Poissons Ratio (z) = 0.60287 0.60287
#
# Static dielectric constant tensor:
#      x y z
#    x 1.678590 0.000000 0.000000 
#    y 0.000000 1.678590 0.000000 
#    z 0.000000 0.000000 1.624270 
# 
# From -- ./inp_files/1312.got.cif
#   From: 2010.05.17/outbox.cif.g08.bks.cpg/sg83_1_cif.got.tgz:1312.got - 2010.06.03 18:55:12.
