data_PCOD9543645
_publ_section_title
;
Structure prediction by ZEFSAII (Michael W. Deem and Ramdas Pophale) SiO2 
 PCOD9543645
Probable space group: P 4/M
;
_chemical_formula_sum "Si O2"
_cell_formula_units_Z 52
_cell_length_a 16.960910
_cell_length_b 16.960910
_cell_length_c 7.655924
_cell_angle_alpha 90.000000
_cell_angle_beta 90.000000
_cell_angle_gamma 90.000000
_cell_volume 2202.398552
_symmetry_space_group_name_H-M "P 4/M"
_symmetry_group_IT_number 83
_symmetry_cell_setting 'tetragonal'
loop_
_space_group_symop_operation_xyz
x,y,z
-y,x,z
-x,-y,z
y,-x,z
-x,-y,-z
y,-x,-z
x,y,-z
-y,x,-z
loop_
_atom_site_type_symbol
_atom_site_label
_atom_site_fract_x
_atom_site_fract_y
_atom_site_fract_z
Si Si1 0.788287 0.408413 0.712648
Si Si2 0.537796 0.083350 0.287136
Si Si3 0.876770 0.973651 0.713270
Si Si4 0.373785 0.467086 0.500000
Si Si5 0.760484 0.854930 0.711812
Si Si6 0.373965 0.667194 0.813683
Si Si7 0.166966 0.306871 0.287541
O O1 0.782777 0.410635 0.500000
O O2 0.842378 0.482415 0.767392
O O3 0.833279 0.327537 0.767127
O O4 0.699598 0.391436 0.778472
O O5 0.535305 0.082224 0.500000
O O6 0.629561 0.099708 0.239179
O O7 0.500000 0.000000 0.228892
O O8 0.875190 0.976761 0.500000
O O9 0.793759 0.938872 0.771750
O O10 0.942957 0.910442 0.767897
O O11 0.447903 0.408569 0.500000
O O12 0.329608 0.441806 0.670933
O O13 0.756845 0.856596 0.500000
O O14 0.824237 0.785925 0.754244
O O15 0.338232 0.753719 0.800578
O O16 0.408600 0.647851 0.000000
O O17 0.174345 0.311404 0.500000
#
# Coordination Sequence:
#
# PCOD9543645 Si02
#       7
#     8   8   8   4   8   8   8
#     4   9  17  32  52  75 111 148 188 239 289 341
#     4   9  18  30  51  83 113 149 193 236 291 356
#     4   8  13  20  31  53  88 127 168 219 278 334
#     4  11  26  44  62  88 122 152 184 243 310 346
#     4   8  14  24  39  61  88 133 180 218 274 336
#     4  11  22  38  64  90 113 156 206 238 287 359
#     4   9  17  32  52  75 111 148 188 239 289 341
#
# _framework density 23.610621999999999
#
# number of rings (size 3 to 8) (size 9 to 14) (size 15 to 20)
#    0.000    2.846    1.538    1.385    2.154    1.846 
#    0.000    6.923    0.000    1.846    0.000    0.000 
#    0.000    0.000    0.000   27.077    0.000   24.615 
#
# Total GULP energy -289990.464367 kJ/mol
# GULP energy per Si atom -5576.739699 kJ/mol
# Density = 2.355688 g / cm^3
# Si number density = 23.610622 Si / 1000 Ang^3
#
#
#
# Elastic Constant Matrix: (Units=GPa)
#
#
# Indices 1 2 3 4 5 6 
#
# 1 50.9718 15.8403 2.2303 0.0000 0.0000 -8.6443
# 2 15.8403 50.9718 2.2303 0.0000 0.0000 8.6443
# 3 2.2303 2.2303 53.5875 0.0000 0.0000 0.0000
# 4 0.0000 0.0000 0.0000 23.7886 0.0000 0.0000
# 5 0.0000 0.0000 0.0000 0.0000 23.7886 0.0000
# 6 -8.6443 8.6443 0.0000 0.0000 0.0000 45.9188
#
#
#
# Elastic Compliance Matrix: (Units=1/GPa)
#
#
# Indices 1 2 3 4 5 6 
#
# 1 0.023190 -0.008181 -0.000625 0.000000 0.000000 0.005906
# 2 -0.008181 0.023190 -0.000625 0.000000 0.000000 -0.005906
# 3 -0.000625 -0.000625 0.018713 0.000000 0.000000 0.000000
# 4 0.000000 0.000000 0.000000 0.042037 0.000000 0.000000
# 5 0.000000 0.000000 0.000000 0.000000 0.042037 0.000000
# 6 0.005906 -0.005906 0.000000 0.000000 0.000000 0.024001
#
#
# Mechanical properties :
#
#
# Convention : Reuss Voigt Hill
#
# Bulk Modulus (GPa) = 21.62983 21.79256 21.71119
# Shear Modulus (GPa) = 24.10348 27.71455 25.90901
#
# Velocity S-wave (km/s) = 3.19858 3.42982 3.31621
# Velocity P-wave (km/s) = 4.77725 4.99348 4.88657
#
# Compressibility (1/GPa) = 0.04623244
#
# Stress axis : x y z
#
# Youngs Moduli (GPa) = 43.12225 43.12225 53.43863
#
# Poissons Ratio (x) = 0.35278 0.03338
# Poissons Ratio (y) = 0.35278 0.03338
# Poissons Ratio (z) = 0.02694 0.02694
#
# Static dielectric constant tensor:
#      x y z
#    x 1.898780 0.000000 0.000000 
#    y 0.000000 1.898780 0.000000 
#    z 0.000000 0.000000 1.901040 
# 
# From -- ./inp_files/1044.got.cif
#   From: 2010.05.17/outbox.cif.g08.bks.cpg/sg83_1_cif.got.tgz:1044.got - 2010.06.03 18:55:12.
