data_PCOD9543149
_publ_section_title
;
Structure prediction by ZEFSAII (Michael W. Deem and Ramdas Pophale) SiO2 
 PCOD9543149
Probable space group: I -4 
;
_chemical_formula_sum "Si O2"
_cell_formula_units_Z 52
_cell_length_a 20.551080
_cell_length_b 20.551080
_cell_length_c 5.771446
_cell_angle_alpha 90.000000
_cell_angle_beta 90.000000
_cell_angle_gamma 90.000000
_cell_volume 2437.552264
_symmetry_space_group_name_H-M "I -4 "
_symmetry_group_IT_number 82
_symmetry_cell_setting 'tetragonal'
loop_
_space_group_symop_operation_xyz
x,y,z
y,-x,-z
-x,-y,z
-y,x,-z
1/2+x,1/2+y,1/2+z
1/2+y,1/2-x,1/2-z
1/2-x,1/2-y,1/2+z
1/2-y,1/2+x,1/2-z
loop_
_atom_site_type_symbol
_atom_site_label
_atom_site_fract_x
_atom_site_fract_y
_atom_site_fract_z
Si Si1 0.547593 0.367128 0.384889
Si Si2 0.898169 0.635334 0.850805
Si Si3 0.943732 0.769508 0.728205
Si Si4 0.346967 0.383131 0.114200
Si Si5 0.960910 0.380174 0.007810
Si Si6 0.000000 0.000000 0.000000
Si Si7 0.443235 0.789217 0.892113
Si Si8 0.500000 0.000000 0.750000
O O1 0.489597 0.314492 0.387526
O O2 0.581072 0.366783 0.640334
O O3 0.518281 0.438249 0.350027
O O4 0.587666 0.356689 0.146443
O O5 0.903641 0.712332 0.851902
O O6 0.867209 0.606528 0.618168
O O7 0.852796 0.597992 0.031456
O O8 0.972917 0.610977 0.861265
O O9 0.889988 0.817488 0.615975
O O10 0.997303 0.735359 0.556022
O O11 0.268713 0.391253 0.135299
O O12 0.975329 0.317296 0.161260
O O13 0.953318 0.450655 0.120381
#
# Coordination Sequence:
#
# PCOD9543149 Si02
#       8
#     8   8   8   8   8   2   8   2
#     4  11  26  45  76 111 147 185 245 300 374 431
#     4  12  24  44  68 101 137 193 236 306 366 434
#     4  11  25  49  72 105 148 190 241 304 370 438
#     4  11  27  48  72 105 148 197 235 299 364 443
#     4  12  23  42  67  99 141 178 241 308 366 431
#     4  12  24  42  80 118 140 190 244 326 360 458
#     4  11  26  46  70 103 142 190 244 301 368 445
#     4  12  20  34  64 104 122 180 224 290 372 408
#
# _framework density 21.332875000000001
#
# number of rings (size 3 to 8) (size 9 to 14) (size 15 to 20)
#    0.000    0.615    4.615    2.769    6.462    1.846 
#    2.769    0.000    0.000    0.000    0.000    0.000 
#    0.000    0.000    0.000    0.000    0.000    0.000 
#
# Total GULP energy -144744.013861 kJ/mol
# GULP energy per Si atom -5567.077456 kJ/mol
# Density = 2.128432 g / cm^3
# Si number density = 21.332875 Si / 1000 Ang^3
#
#
#
# Elastic Constant Matrix: (Units=GPa)
#
#
# Indices 1 2 3 4 5 6 
#
# 1 113.1441 37.1566 21.1393 0.0000 0.0000 -11.6254
# 2 37.1566 113.1441 21.1393 0.0000 0.0000 11.6254
# 3 21.1393 21.1393 62.0253 0.0000 0.0000 0.0000
# 4 0.0000 0.0000 0.0000 22.1857 0.0000 0.0000
# 5 0.0000 0.0000 0.0000 0.0000 22.1857 0.0000
# 6 -11.6254 11.6254 0.0000 0.0000 0.0000 36.5522
#
#
#
# Elastic Compliance Matrix: (Units=1/GPa)
#
#
# Indices 1 2 3 4 5 6 
#
# 1 0.010969 -0.003610 -0.002508 0.000000 0.000000 0.004637
# 2 -0.003610 0.010969 -0.002508 0.000000 0.000000 -0.004637
# 3 -0.002508 -0.002508 0.017832 0.000000 0.000000 0.000000
# 4 0.000000 0.000000 0.000000 0.045074 0.000000 0.000000
# 5 0.000000 0.000000 0.000000 0.000000 0.045074 0.000000
# 6 0.004637 -0.004637 0.000000 0.000000 0.000000 0.030308
#
#
# Mechanical properties :
#
#
# Convention : Reuss Voigt Hill
#
# Bulk Modulus (GPa) = 44.40975 49.68710 47.04842
# Shear Modulus (GPa) = 27.02948 30.10995 28.56972
#
# Velocity S-wave (km/s) = 3.56340 3.76098 3.66353
# Velocity P-wave (km/s) = 6.14762 6.49630 6.32436
#
# Compressibility (1/GPa) = 0.02251758
#
# Stress axis : x y z
#
# Youngs Moduli (GPa) = 91.16756 91.16756 56.07894
#
# Poissons Ratio (x) = 0.32911 0.14065
# Poissons Ratio (y) = 0.32911 0.14065
# Poissons Ratio (z) = 0.22865 0.22865
#
# Static dielectric constant tensor:
#      x y z
#    x 1.771140 0.000000 0.000000 
#    y 0.000000 1.771140 0.000000 
#    z 0.000000 0.000000 1.953750 
# 
# From -- ./inp_files/404.got.cif
#   From: 2010.05.17/outbox.cif.g08.bks.cpg/sg82_1_cif.got.tgz:404.got - 2010.06.03 18:52:26.
