data_PCOD9543220
_publ_section_title
;
Structure prediction by ZEFSAII (Michael W. Deem and Ramdas Pophale) SiO2 
 PCOD9543220
Probable space group: I -4 
;
_chemical_formula_sum "Si O2"
_cell_formula_units_Z 19
_cell_length_a 9.000000
_cell_length_b 9.000000
_cell_length_c 24.000000
_cell_angle_alpha 90.000000
_cell_angle_beta 90.000000
_cell_angle_gamma 90.000000
_cell_volume 1944.000000
_symmetry_space_group_name_H-M "I -4 "
_symmetry_group_IT_number 82
_symmetry_cell_setting 'tetragonal'
loop_
_space_group_symop_operation_xyz
x,y,z
y,-x,-z
-x,-y,z
-y,x,-z
1/2+x,1/2+y,1/2+z
1/2+y,1/2-x,1/2-z
1/2-x,1/2-y,1/2+z
1/2-y,1/2+x,1/2-z
loop_
_atom_site_type_symbol
_atom_site_label
_atom_site_fract_x
_atom_site_fract_y
_atom_site_fract_z
Si Si1 0.500000 0.500000 0.240074
Si Si2 0.988288 0.334440 0.547259
Si Si3 0.500000 0.000000 0.750000
Si Si4 0.240188 0.500735 0.330694
Si Si5 0.279972 0.161244 0.571322
Si Si6 0.125744 0.174083 0.362646
O O1 0.371301 0.470807 0.286224
O O2 0.576248 0.387613 0.194362
O O3 0.918774 0.341238 0.484780
O O4 0.896494 0.231550 0.590089
O O5 0.000000 0.500000 0.570014
O O6 0.154077 0.269356 0.547482
O O7 0.423747 0.116298 0.709029
O O8 0.243382 0.602435 0.386920
O O9 0.183558 0.338777 0.348657
O O10 0.198140 0.035318 0.608650
#
# Coordination Sequence:
#
# PCOD9543220 Si02
#       6
#     4   8   2   8   8   8
#     4  12  26  42  73 105 142 188 240 296 366 436
#     4  12  27  44  70 107 140 183 239 304 365 431
#     4  12  20  40  72  92 128 184 248 284 342 440
#     4  12  25  44  70 102 140 186 242 301 359 437
#     4  12  24  47  75 101 138 189 244 298 366 447
#     4  12  24  45  70 101 137 189 238 293 362 441
#
# _framework density 9.7736630000000009
#
# number of rings (size 3 to 8) (size 9 to 14) (size 15 to 20)
#    0.000    0.000    8.421    1.263    2.947    0.000 
#    0.000    0.000    0.000    0.000    0.000    0.000 
#    0.000    0.000    0.000    0.000    0.000    0.000 
#
# Total GULP energy -105875.106944 kJ/mol
# GULP energy per Si atom -5572.374050 kJ/mol
# Density = 0.975142 g / cm^3
# Si number density = 9.773663 Si / 1000 Ang^3
#
#
#
# Elastic Constant Matrix: (Units=GPa)
#
#
# Indices 1 2 3 4 5 6 
#
# 1 86.1843 26.6493 33.7488 0.0000 0.0000 3.0513
# 2 26.6493 86.1843 33.7488 0.0000 0.0000 -3.0513
# 3 33.7488 33.7488 135.6741 0.0000 0.0000 0.0000
# 4 0.0000 0.0000 0.0000 41.1172 0.0000 0.0000
# 5 0.0000 0.0000 0.0000 0.0000 41.1172 0.0000
# 6 3.0513 -3.0513 0.0000 0.0000 0.0000 8.9583
#
#
#
# Elastic Compliance Matrix: (Units=1/GPa)
#
#
# Indices 1 2 3 4 5 6 
#
# 1 0.013908 -0.003496 -0.002590 0.000000 0.000000 -0.005928
# 2 -0.003496 0.013908 -0.002590 0.000000 0.000000 0.005928
# 3 -0.002590 -0.002590 0.008659 0.000000 0.000000 0.000000
# 4 0.000000 0.000000 0.000000 0.024321 0.000000 0.000000
# 5 0.000000 0.000000 0.000000 0.000000 0.024321 0.000000
# 6 -0.005928 0.005928 0.000000 0.000000 0.000000 0.115667
#
#
# Mechanical properties :
#
#
# Convention : Reuss Voigt Hill
#
# Bulk Modulus (GPa) = 52.29270 55.14853 53.72061
# Shear Modulus (GPa) = 22.27064 32.49823 27.38443
#
# Velocity S-wave (km/s) = 3.37904 4.08185 3.74696
# Velocity P-wave (km/s) = 6.48335 7.10559 6.80159
#
# Compressibility (1/GPa) = 0.01912313
#
# Stress axis : x y z
#
# Youngs Moduli (GPa) = 71.89994 71.89993 115.48537
#
# Poissons Ratio (x) = 0.25138 0.29910
# Poissons Ratio (y) = 0.25138 0.29910
# Poissons Ratio (z) = 0.18622 0.18622
#
# Static dielectric constant tensor:
#      x y z
#    x 1.737510 0.000000 0.000000 
#    y 0.000000 1.737510 0.000000 
#    z 0.000000 0.000000 1.674150 
# 
# From -- ./inp_files/3403.got.cif
#   From: 2010.05.17/outbox.ucp.g08.bks.cvg/sg82_2_cif.got.tgz:3403.got - 2010.06.11 10:34:38.
