data_PCOD9543468
_publ_section_title
;
Structure prediction by ZEFSAII (Michael W. Deem and Ramdas Pophale) SiO2 
 PCOD9543468
Probable space group: P 4/M
;
_chemical_formula_sum "Si O2"
_cell_formula_units_Z 56
_cell_length_a 21.565292
_cell_length_b 21.565292
_cell_length_c 9.588950
_cell_angle_alpha 90.000000
_cell_angle_beta 90.000000
_cell_angle_gamma 90.000000
_cell_volume 4459.454530
_symmetry_space_group_name_H-M "P 4/M"
_symmetry_group_IT_number 83
_symmetry_cell_setting 'tetragonal'
loop_
_space_group_symop_operation_xyz
x,y,z
-y,x,z
-x,-y,z
y,-x,z
-x,-y,-z
y,-x,-z
x,y,-z
-y,x,-z
loop_
_atom_site_type_symbol
_atom_site_label
_atom_site_fract_x
_atom_site_fract_y
_atom_site_fract_z
Si Si1 0.372615 0.363351 0.751056
Si Si2 0.575668 0.997613 0.839218
Si Si3 0.442138 0.243523 0.834814
Si Si4 0.443417 0.586593 0.000000
Si Si5 0.878912 0.429471 0.338994
Si Si6 0.253226 0.430747 0.335909
Si Si7 0.113340 0.420403 0.342367
Si Si8 0.449336 0.409284 0.500000
O O1 0.391255 0.297745 0.816422
O O2 0.305364 0.378653 0.688821
O O3 0.424265 0.374588 0.633813
O O4 0.381165 0.416525 0.865454
O O5 0.594011 0.939393 0.743018
O O6 0.500000 0.000000 0.839665
O O7 0.598122 0.061235 0.767887
O O8 0.595099 0.991143 0.000000
O O9 0.419066 0.182539 0.752591
O O10 0.507866 0.260997 0.760149
O O11 0.452359 0.232398 0.000000
O O12 0.417339 0.516783 0.000000
O O13 0.874179 0.408114 0.500000
O O14 0.886008 0.504361 0.345079
O O15 0.255100 0.449757 0.500000
O O16 0.184356 0.404196 0.308076
O O17 0.098182 0.399611 0.500000
O O18 0.522469 0.418727 0.500000
#
# Coordination Sequence:
#
# PCOD9543468 Si02
#       8
#     8   8   8   4   8   8   8   4
#     4  12  23  33  46  59  74  96 123 160 204 248
#     4   9  15  24  39  62  84 100 116 137 169 212
#     4  11  22  33  45  59  76  97 122 156 197 240
#     4  11  22  36  46  56  72  90 118 160 212 256
#     4   9  17  28  44  60  78 100 120 144 174 218
#     4  10  21  34  47  59  74  97 125 157 193 237
#     4   8  15  27  41  58  77  97 119 143 176 219
#     4  11  22  34  48  60  68  86 122 166 206 248
#
# _framework density 12.557589
#
# number of rings (size 3 to 8) (size 9 to 14) (size 15 to 20)
#    0.000    2.000    1.429    4.714    3.000    6.286 
#    0.000    0.000    0.000    0.000    0.000    0.000 
#    0.000    0.000    0.000    0.000    0.000    0.000 
#
# Total GULP energy -312098.954740 kJ/mol
# GULP energy per Si atom -5573.195620 kJ/mol
# Density = 1.252901 g / cm^3
# Si number density = 12.557589 Si / 1000 Ang^3
#
#
#
# Elastic Constant Matrix: (Units=GPa)
#
#
# Indices 1 2 3 4 5 6 
#
# 1 194.7151 -124.5124 30.5108 0.0000 0.0000 14.3575
# 2 -124.5124 194.7151 30.5108 0.0000 0.0000 -14.3575
# 3 30.5108 30.5108 101.9478 0.0000 0.0000 0.0000
# 4 0.0000 0.0000 0.0000 16.0206 0.0000 0.0000
# 5 0.0000 0.0000 0.0000 0.0000 16.0206 0.0000
# 6 14.3575 -14.3575 0.0000 0.0000 0.0000 5.3579
#
#
#
# Elastic Compliance Matrix: (Units=1/GPa)
#
#
# Indices 1 2 3 4 5 6 
#
# 1 0.011690 0.007563 -0.005762 0.000000 0.000000 -0.011060
# 2 0.007563 0.011690 -0.005762 0.000000 0.000000 0.011060
# 3 -0.005762 -0.005762 0.013258 0.000000 0.000000 0.000000
# 4 0.000000 0.000000 0.000000 0.062420 0.000000 0.000000
# 5 0.000000 0.000000 0.000000 0.000000 0.062420 0.000000
# 6 -0.011060 0.011060 0.000000 0.000000 0.000000 0.245917
#
#
# Mechanical properties :
#
#
# Convention : Reuss Voigt Hill
#
# Bulk Modulus (GPa) = 34.82417 40.48847 37.65632
# Shear Modulus (GPa) = 11.76779 44.47106 28.11942
#
# Velocity S-wave (km/s) = 3.06454 5.95740 4.73719
# Velocity P-wave (km/s) = 6.34930 8.92373 7.74424
#
# Compressibility (1/GPa) = 0.02871569
#
# Stress axis : x y z
#
# Youngs Moduli (GPa) = 85.54197 85.54197 75.42727
#
# Poissons Ratio (x) = -0.64693 0.43461
# Poissons Ratio (y) = -0.64693 0.43461
# Poissons Ratio (z) = 0.49289 0.49289
#
# Static dielectric constant tensor:
#      x y z
#    x 1.401760 0.000000 0.000000 
#    y 0.000000 1.401760 0.000000 
#    z 0.000000 0.000000 1.433580 
# 
# From -- ./inp_files/1248.got.cif
#   From: 2010.05.17/outbox.cif.g08.bks.cpg/sg83_1_cif.got.tgz:1248.got - 2010.06.03 18:55:12.
