data_PCOD9543866
_publ_section_title
;
Structure prediction by ZEFSAII (Michael W. Deem and Ramdas Pophale) SiO2 
 PCOD9543866
Probable space group: P 4/M
;
_chemical_formula_sum "Si O2"
_cell_formula_units_Z 36
_cell_length_a 15.959092
_cell_length_b 15.959092
_cell_length_c 7.229954
_cell_angle_alpha 90.000000
_cell_angle_beta 90.000000
_cell_angle_gamma 90.000000
_cell_volume 1841.415908
_symmetry_space_group_name_H-M "P 4/M"
_symmetry_group_IT_number 83
_symmetry_cell_setting 'tetragonal'
loop_
_space_group_symop_operation_xyz
x,y,z
-y,x,z
-x,-y,z
y,-x,z
-x,-y,-z
y,-x,-z
x,y,-z
-y,x,-z
loop_
_atom_site_type_symbol
_atom_site_label
_atom_site_fract_x
_atom_site_fract_y
_atom_site_fract_z
Si Si1 0.624475 0.432300 0.500000
Si Si2 0.423310 0.056344 0.775490
Si Si3 0.009142 0.242819 0.224924
Si Si4 0.830227 0.184846 0.775437
Si Si5 0.238683 0.632571 0.777268
O O1 0.609688 0.532472 0.500000
O O2 0.680489 0.402627 0.674048
O O3 0.418709 0.154219 0.724166
O O4 0.500000 0.000000 0.711894
O O5 0.337227 0.012103 0.719432
O O6 0.424586 0.056803 0.000000
O O7 0.099030 0.211311 0.288235
O O8 0.927409 0.190291 0.281122
O O9 0.011015 0.241272 0.000000
O O10 0.782597 0.270797 0.724754
O O11 0.829631 0.184842 0.000000
O O12 0.248074 0.628958 0.000000
#
# Coordination Sequence:
#
# PCOD9543866 Si02
#       5
#     4   8   8   8   8
#     4  11  26  44  59  80 108 135 173 226 274 322
#     4   8  14  26  47  76 107 137 173 221 270 312
#     4   8  13  21  36  65 104 140 176 217 258 306
#     4   8  14  25  44  72 105 142 180 215 257 310
#     4   9  19  37  59  81 108 143 179 217 266 321
#
# _framework density 19.550173000000001
#
# number of rings (size 3 to 8) (size 9 to 14) (size 15 to 20)
#    0.000    3.444    0.000    2.667    0.000    3.111 
#    0.000    8.333    0.000    5.333    0.000    0.000 
#    0.000    7.111    0.000    0.889    0.000    0.000 
#
# Total GULP energy -200773.417013 kJ/mol
# GULP energy per Si atom -5577.039361 kJ/mol
# Density = 1.950568 g / cm^3
# Si number density = 19.550173 Si / 1000 Ang^3
#
#
#
# Elastic Constant Matrix: (Units=GPa)
#
#
# Indices 1 2 3 4 5 6 
#
# 1 154.2563 110.8219 32.7131 0.0000 0.0000 -17.6368
# 2 110.8219 154.2563 32.7131 0.0000 0.0000 17.6368
# 3 32.7131 32.7131 104.8710 0.0000 0.0000 0.0000
# 4 0.0000 0.0000 0.0000 -62.0680 0.0000 0.0000
# 5 0.0000 0.0000 0.0000 0.0000 -62.0680 0.0000
# 6 -17.6368 17.6368 0.0000 0.0000 0.0000 33.5899
#
#
#
# Elastic Compliance Matrix: (Units=1/GPa)
#
#
# Indices 1 2 3 4 5 6 
#
# 1 0.022113 -0.018026 -0.001275 0.000000 0.000000 0.021075
# 2 -0.018026 0.022113 -0.001275 0.000000 0.000000 -0.021075
# 3 -0.001275 -0.001275 0.010331 0.000000 0.000000 0.000000
# 4 0.000000 0.000000 0.000000 -0.016111 0.000000 0.000000
# 5 0.000000 0.000000 0.000000 0.000000 -0.016111 0.000000
# 6 0.021075 -0.021075 0.000000 0.000000 0.000000 0.051903
#
#
# Mechanical properties :
#
#
# Convention : Reuss Voigt Hill
#
# Bulk Modulus (GPa) = 74.59629 85.09775 79.84702
# Shear Modulus (GPa) = 41.71660 -2.30020 19.70820
#
# Velocity S-wave (km/s) = 4.62434 -1.08587 3.17848
# Velocity P-wave (km/s) = 8.17018 6.48461 7.37571
#
# Compressibility (1/GPa) = 0.01340549
#
# Stress axis : x y z
#
# Youngs Moduli (GPa) = 45.22241 45.22241 96.79679
#
# Poissons Ratio (x) = 0.81517 0.12341
# Poissons Ratio (y) = 0.81517 0.12341
# Poissons Ratio (z) = 0.05766 0.05766
#
# Static dielectric constant tensor:
#      x y z
#    x 1.653910 0.000000 0.000000 
#    y 0.000000 1.653910 0.000000 
#    z 0.000000 0.000000 1.768890 
# 
# From -- ./inp_files/501.got.cif
#   From: 2010.05.17/outbox.cif.g08.bks.cpg/sg83_1_cif.got.tgz:501.got - 2010.06.03 18:55:12.
