data_PCOD9543887
_publ_section_title
;
Structure prediction by ZEFSAII (Michael W. Deem and Ramdas Pophale) SiO2 
 PCOD9543887
Probable space group: P 4/M
;
_chemical_formula_sum "Si O2"
_cell_formula_units_Z 44
_cell_length_a 7.737476
_cell_length_b 7.737476
_cell_length_c 31.644300
_cell_angle_alpha 90.000000
_cell_angle_beta 90.000000
_cell_angle_gamma 90.000000
_cell_volume 1894.497877
_symmetry_space_group_name_H-M "P 4/M"
_symmetry_group_IT_number 83
_symmetry_cell_setting 'tetragonal'
loop_
_space_group_symop_operation_xyz
x,y,z
-y,x,z
-x,-y,z
y,-x,z
-x,-y,-z
y,-x,-z
x,y,-z
-y,x,-z
loop_
_atom_site_type_symbol
_atom_site_label
_atom_site_fract_x
_atom_site_fract_y
_atom_site_fract_z
Si Si1 0.620704 0.768092 0.545107
Si Si2 0.769868 0.385862 0.363080
Si Si3 0.595433 0.225771 0.045230
Si Si4 0.272041 0.892186 0.224341
Si Si5 0.098394 0.272808 0.132371
Si Si6 0.000000 0.500000 0.705892
O O1 0.417242 0.717856 0.545090
O O2 0.660195 0.856235 0.500000
O O3 0.654119 0.850928 0.590722
O O4 0.716189 0.589347 0.360746
O O5 0.901304 0.366128 0.324718
O O6 0.710577 0.398789 0.045287
O O7 0.631383 0.133566 0.089014
O O8 0.633373 0.136097 0.000000
O O9 0.355308 0.861995 0.178041
O O10 0.094199 0.785872 0.226757
O O11 0.401319 0.868280 0.262985
O O12 0.901185 0.211615 0.132111
#
# Coordination Sequence:
#
# PCOD9543887 Si02
#       6
#     8   8   8   8   8   4
#     4   7  10  20  40  62  86 121 157 187 229 282
#     4   9  18  31  46  69  99 124 155 201 242 282
#     4   9  19  35  53  76 107 136 159 189 234 287
#     4   9  20  37  52  69  96 128 162 201 242 286
#     4   9  19  35  53  73  97 126 164 206 240 275
#     4  12  20  30  51  74  93 126 162 196 246 298
#
# _framework density 23.225151
#
# number of rings (size 3 to 8) (size 9 to 14) (size 15 to 20)
#    0.000    3.091    0.000    4.364    0.000    4.364 
#    0.000    3.182    0.000    2.182    0.000    0.000 
#    0.000    0.000    0.000   22.182    0.000    1.455 
#
# Total GULP energy -245592.096566 kJ/mol
# GULP energy per Si atom -5581.638558 kJ/mol
# Density = 2.317229 g / cm^3
# Si number density = 23.225151 Si / 1000 Ang^3
#
#
#
# Elastic Constant Matrix: (Units=GPa)
#
#
# Indices 1 2 3 4 5 6 
#
# 1 28.7455 -1.6470 28.8243 0.0000 0.0000 2.0786
# 2 -1.6470 28.7455 28.8243 0.0000 0.0000 -2.0786
# 3 28.8243 28.8243 256.1994 0.0000 0.0000 0.0000
# 4 0.0000 0.0000 0.0000 33.1018 0.0000 0.0000
# 5 0.0000 0.0000 0.0000 0.0000 33.1018 0.0000
# 6 2.0786 -2.0786 0.0000 0.0000 0.0000 15.6639
#
#
#
# Elastic Compliance Matrix: (Units=1/GPa)
#
#
# Indices 1 2 3 4 5 6 
#
# 1 0.041013 0.007501 -0.005458 0.000000 0.000000 -0.004447
# 2 0.007501 0.041013 -0.005458 0.000000 0.000000 0.004447
# 3 -0.005458 -0.005458 0.005131 0.000000 0.000000 0.000000
# 4 0.000000 0.000000 0.000000 0.030210 0.000000 0.000000
# 5 0.000000 0.000000 0.000000 0.000000 0.030210 0.000000
# 6 -0.004447 0.004447 0.000000 0.000000 0.000000 0.065021
#
#
# Mechanical properties :
#
#
# Convention : Reuss Voigt Hill
#
# Bulk Modulus (GPa) = 12.44916 47.29930 29.87423
# Shear Modulus (GPa) = 20.30845 33.55273 26.93059
#
# Velocity S-wave (km/s) = 2.96026 3.80501 3.40890
# Velocity P-wave (km/s) = 4.12990 6.30189 5.32775
#
# Compressibility (1/GPa) = 0.08032673
#
# Stress axis : x y z
#
# Youngs Moduli (GPa) = 24.38276 24.38276 194.87915
#
# Poissons Ratio (x) = -0.18291 1.06369
# Poissons Ratio (y) = -0.18291 1.06369
# Poissons Ratio (z) = 0.13309 0.13309
#
# Static dielectric constant tensor:
#      x y z
#    x 1.880140 0.000000 0.000000 
#    y 0.000000 1.880140 0.000000 
#    z 0.000000 0.000000 1.944830 
# 
# From -- ./inp_files/3360.got.cif
#   From: 2010.05.17/outbox.cif.g08.bks.cpg/sg83_2_cif.got.tgz:3360.got - 2010.06.03 18:55:12.
