data_PCOD9543382
_publ_section_title
;
Structure prediction by ZEFSAII (Michael W. Deem and Ramdas Pophale) SiO2 
 PCOD9543382
Probable space group: P 4/M
;
_chemical_formula_sum "Si O2"
_cell_formula_units_Z 64
_cell_length_a 20.332643
_cell_length_b 20.332643
_cell_length_c 8.838047
_cell_angle_alpha 90.000000
_cell_angle_beta 90.000000
_cell_angle_gamma 90.000000
_cell_volume 3653.793321
_symmetry_space_group_name_H-M "P 4/M"
_symmetry_group_IT_number 83
_symmetry_cell_setting 'tetragonal'
loop_
_space_group_symop_operation_xyz
x,y,z
-y,x,z
-x,-y,z
y,-x,z
-x,-y,-z
y,-x,-z
x,y,-z
-y,x,-z
loop_
_atom_site_type_symbol
_atom_site_label
_atom_site_fract_x
_atom_site_fract_y
_atom_site_fract_z
Si Si1 0.989995 0.360530 0.317343
Si Si2 0.129360 0.555214 0.180941
Si Si3 0.035854 0.099234 0.680909
Si Si4 0.409896 0.864463 0.318002
Si Si5 0.220734 0.660019 0.327539
Si Si6 0.303181 0.772963 0.182270
Si Si7 0.758115 0.904447 0.671268
Si Si8 0.863854 0.818457 0.177348
O O1 0.983035 0.367469 0.500000
O O2 0.937523 0.409491 0.240141
O O3 0.965623 0.286726 0.280402
O O4 0.065114 0.376378 0.276981
O O5 0.133562 0.483458 0.254087
O O6 0.192072 0.598405 0.235299
O O7 0.127727 0.551995 0.000000
O O8 0.036546 0.101104 0.500000
O O9 0.068172 0.164745 0.742414
O O10 0.962958 0.080226 0.729626
O O11 0.410202 0.859732 0.500000
O O12 0.369709 0.803544 0.248075
O O13 0.238464 0.642177 0.500000
O O14 0.277575 0.703745 0.249865
O O15 0.156791 0.707472 0.336333
O O16 0.247458 0.826771 0.227329
O O17 0.305058 0.768749 0.000000
O O18 0.784439 0.915390 0.500000
O O19 0.813743 0.877356 0.780418
O O20 0.873937 0.815237 0.000000
#
# Coordination Sequence:
#
# PCOD9543382 Si02
#       8
#     8   8   8   8   8   8   8   8
#     4   9  19  34  50  70  99 137 179 216 250 297
#     4  11  21  33  52  77 104 136 173 213 257 302
#     4   9  19  35  51  64  79 105 146 195 244 296
#     4  11  22  35  51  73 104 140 175 211 252 300
#     4   9  17  33  55  74  94 127 170 208 243 290
#     4  10  21  36  51  73 104 132 161 202 251 297
#     4   8  15  29  48  68  90 122 165 205 239 284
#     4  10  20  32  48  70  94 120 151 194 250 305
#
# _framework density 17.516043
#
# number of rings (size 3 to 8) (size 9 to 14) (size 15 to 20)
#    0.000    2.375    0.000    4.125    0.000    8.500 
#    0.000    4.375    0.000    0.000    0.000    0.000 
#    0.000    0.500    0.000    5.000    0.000    3.000 
#
# Total GULP energy -357058.675167 kJ/mol
# GULP energy per Si atom -5579.041799 kJ/mol
# Density = 1.747618 g / cm^3
# Si number density = 17.516043 Si / 1000 Ang^3
#
#
#
# Elastic Constant Matrix: (Units=GPa)
#
#
# Indices 1 2 3 4 5 6 
#
# 1 37.7524 49.3574 13.9704 0.0000 0.0000 4.1946
# 2 49.3574 37.7524 13.9704 0.0000 0.0000 -4.1946
# 3 13.9704 13.9704 37.3707 0.0000 0.0000 0.0000
# 4 0.0000 0.0000 0.0000 151.1484 0.0000 0.0000
# 5 0.0000 0.0000 0.0000 0.0000 151.1484 0.0000
# 6 4.1946 -4.1946 0.0000 0.0000 0.0000 25.5660
#
#
#
# Elastic Compliance Matrix: (Units=1/GPa)
#
#
# Indices 1 2 3 4 5 6 
#
# 1 -0.031995 0.045039 -0.004876 0.000000 0.000000 0.012639
# 2 0.045039 -0.031995 -0.004876 0.000000 0.000000 -0.012639
# 3 -0.004876 -0.004876 0.030405 0.000000 0.000000 0.000000
# 4 0.000000 0.000000 0.000000 0.006616 0.000000 0.000000
# 5 0.000000 0.000000 0.000000 0.000000 0.006616 0.000000
# 6 0.012639 -0.012639 0.000000 0.000000 0.000000 0.034967
#
#
# Mechanical properties :
#
#
# Convention : Reuss Voigt Hill
#
# Bulk Modulus (GPa) = 27.03614 29.71909 28.37762
# Shear Modulus (GPa) = -114.60243 67.94440 -23.32902
#
# Velocity S-wave (km/s) = -8.09748 6.23490 -3.65343
# Velocity P-wave (km/s) = 8.48274 8.29672 1.24926
#
# Compressibility (1/GPa) = 0.03698752
#
# Stress axis : x y z
#
# Youngs Moduli (GPa) = -31.25503 -31.25503 32.88963
#
# Poissons Ratio (x) = 1.40769 0.16038
# Poissons Ratio (y) = 1.40769 0.16038
# Poissons Ratio (z) = -0.15241 -0.15241
#
# Static dielectric constant tensor:
#      x y z
#    x 1.603110 0.000000 0.000000 
#    y 0.000000 1.603110 0.000000 
#    z 0.000000 0.000000 1.596610 
# 
# From -- ./inp_files/1274.got.cif
#   From: 2010.05.17/outbox.cif.g08.bks.cpg/sg83_1_cif.got.tgz:1274.got - 2010.06.03 18:55:12.
