data_PCOD9543390
_publ_section_title
;
Structure prediction by ZEFSAII (Michael W. Deem and Ramdas Pophale) SiO2 
 PCOD9543390
Probable space group: P 4/M
;
_chemical_formula_sum "Si O2"
_cell_formula_units_Z 64
_cell_length_a 19.825307
_cell_length_b 19.825307
_cell_length_c 9.260039
_cell_angle_alpha 90.000000
_cell_angle_beta 90.000000
_cell_angle_gamma 90.000000
_cell_volume 3639.591635
_symmetry_space_group_name_H-M "P 4/M"
_symmetry_group_IT_number 83
_symmetry_cell_setting 'tetragonal'
loop_
_space_group_symop_operation_xyz
x,y,z
-y,x,z
-x,-y,z
y,-x,z
-x,-y,-z
y,-x,-z
x,y,-z
-y,x,-z
loop_
_atom_site_type_symbol
_atom_site_label
_atom_site_fract_x
_atom_site_fract_y
_atom_site_fract_z
Si Si1 0.752878 0.590168 0.664691
Si Si2 0.173453 0.294754 0.833282
Si Si3 0.045455 0.372676 0.164901
Si Si4 0.467653 0.391128 0.839445
Si Si5 0.497575 0.849620 0.168606
Si Si6 0.289825 0.198023 0.830356
Si Si7 0.685900 0.370636 0.665207
Si Si8 0.907455 0.372318 0.328390
O O1 0.767797 0.570723 0.500000
O O2 0.795323 0.655670 0.714856
O O3 0.779976 0.533443 0.772319
O O4 0.677910 0.620020 0.672009
O O5 0.093734 0.307014 0.821933
O O6 0.212798 0.224667 0.814997
O O7 0.190472 0.317396 0.000000
O O8 0.094233 0.437894 0.183305
O O9 0.984444 0.372964 0.275052
O O10 0.019083 0.375790 0.000000
O O11 0.542491 0.420388 0.829739
O O12 0.442734 0.339434 0.719738
O O13 0.458032 0.361630 0.000000
O O14 0.561263 0.872398 0.261199
O O15 0.514759 0.844807 0.000000
O O16 0.337278 0.257957 0.767407
O O17 0.309355 0.132242 0.740985
O O18 0.303263 0.188428 0.000000
O O19 0.709971 0.371983 0.500000
O O20 0.902463 0.372412 0.500000
#
# Coordination Sequence:
#
# PCOD9543390 Si02
#       8
#     8   8   8   8   8   8   8   8
#     4   9  17  29  46  69  96 125 159 201 246 293
#     4   8  16  32  54  74  92 122 165 205 238 280
#     4   9  18  34  54  75  99 130 170 209 244 290
#     4   9  19  35  51  65  82 109 150 198 245 296
#     4  10  20  34  51  70  97 136 177 213 247 289
#     4  10  20  36  55  73  97 130 163 197 239 283
#     4  10  20  33  50  72  96 121 152 196 250 303
#     4  12  24  34  47  73 107 137 166 203 249 296
#
# _framework density 17.584389999999999
#
# number of rings (size 3 to 8) (size 9 to 14) (size 15 to 20)
#    0.000    2.375    0.000    4.125    0.000    7.500 
#    0.000    3.125    0.000    0.000    0.000    0.000 
#    0.000    0.500    0.000    5.750    0.000    2.250 
#
# Total GULP energy -357018.231927 kJ/mol
# GULP energy per Si atom -5578.409874 kJ/mol
# Density = 1.754437 g / cm^3
# Si number density = 17.584390 Si / 1000 Ang^3
#
#
#
# Elastic Constant Matrix: (Units=GPa)
#
#
# Indices 1 2 3 4 5 6 
#
# 1 31.4627 37.7958 37.5689 0.0000 0.0000 5.5039
# 2 37.7958 31.4627 37.5689 0.0000 0.0000 -5.5039
# 3 37.5689 37.5689 123.9491 0.0000 0.0000 0.0000
# 4 0.0000 0.0000 0.0000 21.8686 0.0000 0.0000
# 5 0.0000 0.0000 0.0000 0.0000 21.8686 0.0000
# 6 5.5039 -5.5039 0.0000 0.0000 0.0000 16.7796
#
#
#
# Elastic Compliance Matrix: (Units=1/GPa)
#
#
# Indices 1 2 3 4 5 6 
#
# 1 -0.039526 0.061038 -0.006520 0.000000 0.000000 0.032986
# 2 0.061038 -0.039526 -0.006520 0.000000 0.000000 -0.032986
# 3 -0.006520 -0.006520 0.012021 0.000000 0.000000 0.000000
# 4 0.000000 0.000000 0.000000 0.045728 0.000000 0.000000
# 5 0.000000 0.000000 0.000000 0.000000 0.045728 0.000000
# 6 0.032986 -0.032986 0.000000 0.000000 0.000000 0.037956
#
#
# Mechanical properties :
#
#
# Convention : Reuss Voigt Hill
#
# Bulk Modulus (GPa) = 34.52568 45.86016 40.19292
# Shear Modulus (GPa) = -208.68707 17.03274 -95.82717
#
# Velocity S-wave (km/s) = -10.90574 3.11566 -7.39012
# Velocity P-wave (km/s) = 11.78572 6.25138 7.06482
#
# Compressibility (1/GPa) = 0.02896395
#
# Stress axis : x y z
#
# Youngs Moduli (GPa) = -25.30000 -25.30000 83.19103
#
# Poissons Ratio (x) = 1.54427 0.54244
# Poissons Ratio (y) = 1.54427 0.54244
# Poissons Ratio (z) = -0.16497 -0.16497
#
# Static dielectric constant tensor:
#      x y z
#    x 1.619440 0.000000 0.000000 
#    y 0.000000 1.619440 0.000000 
#    z 0.000000 0.000000 1.601830 
# 
# From -- ./inp_files/1285.got.cif
#   From: 2010.05.17/outbox.cif.g08.bks.cpg/sg83_1_cif.got.tgz:1285.got - 2010.06.03 18:55:12.
