data_PCOD9543803
_publ_section_title
;
Structure prediction by ZEFSAII (Michael W. Deem and Ramdas Pophale) SiO2 
 PCOD9543803
Probable space group: P 4/M
;
_chemical_formula_sum "Si O2"
_cell_formula_units_Z 49
_cell_length_a 8.264614
_cell_length_b 8.264614
_cell_length_c 33.348190
_cell_angle_alpha 90.000000
_cell_angle_beta 90.000000
_cell_angle_gamma 90.000000
_cell_volume 2277.809586
_symmetry_space_group_name_H-M "P 4/M"
_symmetry_group_IT_number 83
_symmetry_cell_setting 'tetragonal'
loop_
_space_group_symop_operation_xyz
x,y,z
-y,x,z
-x,-y,z
y,-x,z
-x,-y,-z
y,-x,-z
x,y,-z
-y,x,-z
loop_
_atom_site_type_symbol
_atom_site_label
_atom_site_fract_x
_atom_site_fract_y
_atom_site_fract_z
Si Si1 0.423287 0.177183 0.500000
Si Si2 0.758643 0.586681 0.045143
Si Si3 0.740790 0.915951 0.173956
Si Si4 0.754661 0.404716 0.250430
Si Si5 0.500000 0.000000 0.891117
Si Si6 0.500000 0.500000 0.500000
Si Si7 0.122409 0.756516 0.417567
Si Si8 0.886290 0.250071 0.671088
O O1 0.561572 0.315117 0.500000
O O2 0.340219 0.175347 0.456124
O O3 0.500000 0.000000 0.500000
O O4 0.598933 0.696288 0.048670
O O5 0.889343 0.608073 0.079651
O O6 0.824158 0.609780 0.000000
O O7 0.652201 0.874329 0.215444
O O8 0.899471 0.803608 0.171831
O O9 0.614295 0.894811 0.137872
O O10 0.700940 0.590275 0.246695
O O11 0.831690 0.365810 0.293438
O O12 0.151559 0.683228 0.373417
O O13 0.931077 0.792028 0.419252
O O14 0.076509 0.205413 0.674423
#
# Coordination Sequence:
#
# PCOD9543803 Si02
#       8
#     4   8   8   8   4   1   8   8
#     4  12  24  43  64  91 136 174 216 262 336 388
#     4   9  19  36  58  86 122 163 205 249 301 362
#     4  11  24  40  60  86 119 158 202 254 312 375
#     4  11  24  42  60  87 120 159 204 254 313 370
#     4  12  21  36  60  90 120 156 206 257 310 358
#     4  12  28  44  60 104 132 172 220 292 316 400
#     4   9  18  37  65  93 123 167 216 260 312 384
#     4   9  19  38  63  91 121 156 206 256 308 372
#
# _framework density 21.511894999999999
#
# number of rings (size 3 to 8) (size 9 to 14) (size 15 to 20)
#    0.000    1.796    0.000    6.122    0.000    3.918 
#    8.816    1.633    0.000    0.000    0.000    6.857 
#    0.000    0.000    0.000    0.000    0.000    0.000 
#
# Total GULP energy -273687.592584 kJ/mol
# GULP energy per Si atom -5585.461073 kJ/mol
# Density = 2.146293 g / cm^3
# Si number density = 21.511895 Si / 1000 Ang^3
#
#
#
# Elastic Constant Matrix: (Units=GPa)
#
#
# Indices 1 2 3 4 5 6 
#
# 1 48.0761 13.1861 45.8319 0.0000 0.0000 -0.4609
# 2 13.1861 48.0761 45.8319 0.0000 0.0000 0.4609
# 3 45.8319 45.8319 194.5448 0.0000 0.0000 0.0000
# 4 0.0000 0.0000 0.0000 21.8151 0.0000 0.0000
# 5 0.0000 0.0000 0.0000 0.0000 21.8151 0.0000
# 6 -0.4609 0.4609 0.0000 0.0000 0.0000 22.5886
#
#
#
# Elastic Compliance Matrix: (Units=1/GPa)
#
#
# Indices 1 2 3 4 5 6 
#
# 1 0.026943 -0.001734 -0.005939 0.000000 0.000000 0.000585
# 2 -0.001734 0.026943 -0.005939 0.000000 0.000000 -0.000585
# 3 -0.005939 -0.005939 0.007938 0.000000 0.000000 0.000000
# 4 0.000000 0.000000 0.000000 0.045840 0.000000 0.000000
# 5 0.000000 0.000000 0.000000 0.000000 0.045840 0.000000
# 6 0.000585 -0.000585 0.000000 0.000000 0.000000 0.044294
#
#
# Mechanical properties :
#
#
# Convention : Reuss Voigt Hill
#
# Bulk Modulus (GPa) = 28.90040 55.59965 42.25003
# Shear Modulus (GPa) = 21.13663 25.63354 23.38509
#
# Velocity S-wave (km/s) = 3.13797 3.45570 3.30066
# Velocity P-wave (km/s) = 5.15684 6.46719 5.84883
#
# Compressibility (1/GPa) = 0.03460159
#
# Stress axis : x y z
#
# Youngs Moduli (GPa) = 37.11502 37.11502 125.96851
#
# Poissons Ratio (x) = 0.06435 0.74813
# Poissons Ratio (y) = 0.06435 0.74813
# Poissons Ratio (z) = 0.22043 0.22043
#
# Static dielectric constant tensor:
#      x y z
#    x 1.726830 0.000000 0.000000 
#    y 0.000000 1.726830 0.000000 
#    z 0.000000 0.000000 1.768660 
# 
# From -- ./inp_files/3512.got.cif
#   From: 2010.05.17/outbox.cif.g08.bks.cpg/sg83_2_cif.got.tgz:3512.got - 2010.06.03 18:55:12.
