data_PCOD9543762
_publ_section_title
;
Structure prediction by ZEFSAII (Michael W. Deem and Ramdas Pophale) SiO2 
 PCOD9543762
Probable space group: P 4/M
;
_chemical_formula_sum "Si O2"
_cell_formula_units_Z 32
_cell_length_a 7.802381
_cell_length_b 7.802381
_cell_length_c 22.973458
_cell_angle_alpha 90.000000
_cell_angle_beta 90.000000
_cell_angle_gamma 90.000000
_cell_volume 1398.558632
_symmetry_space_group_name_H-M "P 4/M"
_symmetry_group_IT_number 83
_symmetry_cell_setting 'tetragonal'
loop_
_space_group_symop_operation_xyz
x,y,z
-y,x,z
-x,-y,z
y,-x,z
-x,-y,-z
y,-x,-z
x,y,-z
-y,x,-z
loop_
_atom_site_type_symbol
_atom_site_label
_atom_site_fract_x
_atom_site_fract_y
_atom_site_fract_z
Si Si1 0.114526 0.267218 0.000000
Si Si2 0.892266 0.268705 0.563542
Si Si3 0.269024 0.889771 0.126505
Si Si4 0.000000 0.500000 0.221371
Si Si5 0.768082 0.403481 0.316120
O O1 0.147883 0.349763 0.937241
O O2 0.214439 0.085925 0.000000
O O3 0.857863 0.349272 0.500000
O O4 0.842868 0.375186 0.619781
O O5 0.090627 0.213172 0.565975
O O6 0.400595 0.869361 0.178944
O O7 0.213554 0.091029 0.129954
O O8 0.097200 0.628682 0.264919
O O9 0.710873 0.599998 0.310161
#
# Coordination Sequence:
#
# PCOD9543762 Si02
#       5
#     4   8   8   4   8
#     4   7  12  27  50  76 104 130 164 218 274 319
#     4   9  19  38  64  90 112 136 172 220 270 319
#     4   9  18  33  54  78 104 136 175 220 271 323
#     4  12  22  35  53  76 106 144 186 224 262 312
#     4  11  24  39  54  77 111 148 184 223 269 319
#
# _framework density 22.880700999999998
#
# number of rings (size 3 to 8) (size 9 to 14) (size 15 to 20)
#    0.000    2.375    0.000    5.250    0.000    1.500 
#    0.000    6.875    0.000    0.000    0.000    0.000 
#    0.000   16.000    0.000    0.000    0.000    0.000 
#
# Total GULP energy -178848.532332 kJ/mol
# GULP energy per Si atom -5589.016635 kJ/mol
# Density = 2.282862 g / cm^3
# Si number density = 22.880701 Si / 1000 Ang^3
#
#
#
# Elastic Constant Matrix: (Units=GPa)
#
#
# Indices 1 2 3 4 5 6 
#
# 1 47.5380 -2.8013 30.1687 0.0000 0.0000 6.0896
# 2 -2.8013 47.5380 30.1687 0.0000 0.0000 -6.0896
# 3 30.1687 30.1687 222.0437 0.0000 0.0000 0.0000
# 4 0.0000 0.0000 0.0000 23.5498 0.0000 0.0000
# 5 0.0000 0.0000 0.0000 0.0000 23.5498 0.0000
# 6 6.0896 -6.0896 0.0000 0.0000 0.0000 22.7191
#
#
#
# Elastic Compliance Matrix: (Units=1/GPa)
#
#
# Indices 1 2 3 4 5 6 
#
# 1 0.024305 0.003063 -0.003718 0.000000 0.000000 -0.005694
# 2 0.003063 0.024305 -0.003718 0.000000 0.000000 0.005694
# 3 -0.003718 -0.003718 0.005514 0.000000 0.000000 0.000000
# 4 0.000000 0.000000 0.000000 0.042463 0.000000 0.000000
# 5 0.000000 0.000000 0.000000 0.000000 0.042463 0.000000
# 6 -0.005694 0.005694 0.000000 0.000000 0.000000 0.047068
#
#
# Mechanical properties :
#
#
# Convention : Reuss Voigt Hill
#
# Bulk Modulus (GPa) = 22.03783 48.02136 35.02960
# Shear Modulus (GPa) = 23.81022 31.26930 27.53976
#
# Velocity S-wave (km/s) = 3.22937 3.70080 3.47309
# Velocity P-wave (km/s) = 4.85362 6.26853 5.60590
#
# Compressibility (1/GPa) = 0.04537651
#
# Stress axis : x y z
#
# Youngs Moduli (GPa) = 41.14297 41.14297 181.35445
#
# Poissons Ratio (x) = -0.12601 0.67436
# Poissons Ratio (y) = -0.12601 0.67436
# Poissons Ratio (z) = 0.15299 0.15299
#
# Static dielectric constant tensor:
#      x y z
#    x 1.864360 0.000000 0.000000 
#    y 0.000000 1.864360 0.000000 
#    z 0.000000 0.000000 1.877300 
# 
# From -- ./inp_files/3078.got.cif
#   From: 2010.05.17/outbox.cif.g08.bks.cpg/sg83_2_cif.got.tgz:3078.got - 2010.06.03 18:55:12.
