data_PCOD9543907
_publ_section_title
;
Structure prediction by ZEFSAII (Michael W. Deem and Ramdas Pophale) SiO2 
 PCOD9543907
Probable space group: P 4/M
;
_chemical_formula_sum "Si O2"
_cell_formula_units_Z 48
_cell_length_a 7.988858
_cell_length_b 7.988858
_cell_length_c 33.572190
_cell_angle_alpha 90.000000
_cell_angle_beta 90.000000
_cell_angle_gamma 90.000000
_cell_volume 2142.639346
_symmetry_space_group_name_H-M "P 4/M"
_symmetry_group_IT_number 83
_symmetry_cell_setting 'tetragonal'
loop_
_space_group_symop_operation_xyz
x,y,z
-y,x,z
-x,-y,z
y,-x,z
-x,-y,-z
y,-x,-z
x,y,-z
-y,x,-z
loop_
_atom_site_type_symbol
_atom_site_label
_atom_site_fract_x
_atom_site_fract_y
_atom_site_fract_z
Si Si1 0.907681 0.732982 0.713534
Si Si2 0.587541 0.231739 0.121406
Si Si3 0.103699 0.265488 0.372174
Si Si4 0.731693 0.087242 0.956735
Si Si5 0.892451 0.735694 0.542628
Si Si6 0.767846 0.588362 0.792134
O O1 0.868145 0.649111 0.670574
O O2 0.869003 0.630398 0.752829
O O3 0.098328 0.796162 0.714503
O O4 0.702077 0.398188 0.120290
O O5 0.628678 0.128636 0.082334
O O6 0.619917 0.149518 0.164651
O O7 0.140681 0.350877 0.414754
O O8 0.909356 0.206775 0.372182
O O9 0.897970 0.201980 0.955613
O O10 0.649581 0.119010 0.000000
O O11 0.857191 0.650077 0.500000
O O12 0.087786 0.791825 0.542627
O O13 0.601198 0.702486 0.791115
#
# Coordination Sequence:
#
# PCOD9543907 Si02
#       6
#     8   8   8   8   8   8
#     4   9  17  28  43  65  91 117 145 178 219 267
#     4   9  19  35  52  70  92 118 150 188 227 264
#     4   7  10  17  28  45  74 107 134 165 206 250
#     4   9  19  35  52  72 100 129 153 179 213 254
#     4   7   8  10  19  37  63  98 135 163 192 239
#     4   9  19  35  50  64  87 118 150 186 226 264
#
# _framework density 22.402276000000001
#
# number of rings (size 3 to 8) (size 9 to 14) (size 15 to 20)
#    0.000    3.667    0.000    4.000    0.000    3.333 
#    0.000    7.500    0.000    0.000    0.000    0.000 
#    0.000    1.333    0.000   14.833    0.000   13.333 
#
# Total GULP energy -267771.188508 kJ/mol
# GULP energy per Si atom -5578.566427 kJ/mol
# Density = 2.235129 g / cm^3
# Si number density = 22.402276 Si / 1000 Ang^3
#
#
#
# Elastic Constant Matrix: (Units=GPa)
#
#
# Indices 1 2 3 4 5 6 
#
# 1 32.6611 15.8846 54.2854 0.0000 0.0000 1.8797
# 2 15.8846 32.6611 54.2854 0.0000 0.0000 -1.8797
# 3 54.2854 54.2854 313.1395 0.0000 0.0000 0.0000
# 4 0.0000 0.0000 0.0000 67.4034 0.0000 0.0000
# 5 0.0000 0.0000 0.0000 0.0000 67.4034 0.0000
# 6 1.8797 -1.8797 0.0000 0.0000 0.0000 25.4885
#
#
#
# Elastic Compliance Matrix: (Units=1/GPa)
#
#
# Indices 1 2 3 4 5 6 
#
# 1 0.047126 -0.013483 -0.005832 0.000000 0.000000 -0.004470
# 2 -0.013483 0.047126 -0.005832 0.000000 0.000000 0.004470
# 3 -0.005832 -0.005832 0.005216 0.000000 0.000000 0.000000
# 4 0.000000 0.000000 0.000000 0.014836 0.000000 0.000000
# 5 0.000000 0.000000 0.000000 0.000000 0.014836 0.000000
# 6 -0.004470 0.004470 0.000000 0.000000 0.000000 0.039893
#
#
# Mechanical properties :
#
#
# Convention : Reuss Voigt Hill
#
# Bulk Modulus (GPa) = 20.33673 69.70804 45.02238
# Shear Modulus (GPa) = 21.21183 48.99284 35.10233
#
# Velocity S-wave (km/s) = 3.08045 4.68157 3.96271
# Velocity P-wave (km/s) = 4.66368 7.77218 6.40924
#
# Compressibility (1/GPa) = 0.04917213
#
# Stress axis : x y z
#
# Youngs Moduli (GPa) = 21.21982 21.21982 191.73227
#
# Poissons Ratio (x) = 0.28611 1.11823
# Poissons Ratio (y) = 0.28611 1.11823
# Poissons Ratio (z) = 0.12376 0.12376
#
# Static dielectric constant tensor:
#      x y z
#    x 1.821970 0.000000 0.000000 
#    y 0.000000 1.821970 0.000000 
#    z 0.000000 0.000000 1.903700 
# 
# From -- ./inp_files/3427.got.cif
#   From: 2010.05.17/outbox.cif.g08.bks.cpg/sg83_2_cif.got.tgz:3427.got - 2010.06.03 18:55:12.
