data_PCOD9543994
_publ_section_title
;
Structure prediction by ZEFSAII (Michael W. Deem and Ramdas Pophale) SiO2 
 PCOD9543994
Probable space group: P 42/M
;
_chemical_formula_sum "Si O2"
_cell_formula_units_Z 64
_cell_length_a 21.503463
_cell_length_b 21.503463
_cell_length_c 7.670111
_cell_angle_alpha 90.000000
_cell_angle_beta 90.000000
_cell_angle_gamma 90.000000
_cell_volume 3546.651050
_symmetry_space_group_name_H-M "P 42/M"
_symmetry_group_IT_number 84
_symmetry_cell_setting 'tetragonal'
loop_
_space_group_symop_operation_xyz
x,y,z
-y,x,1/2+z
-x,-y,z
y,-x,1/2+z
-x,-y,-z
y,-x,1/2-z
x,y,-z
-y,x,1/2-z
loop_
_atom_site_type_symbol
_atom_site_label
_atom_site_fract_x
_atom_site_fract_y
_atom_site_fract_z
Si Si1 0.177282 0.292734 0.213098
Si Si2 0.378493 0.705793 0.709849
Si Si3 0.915164 0.357008 0.297468
Si Si4 0.501594 0.905306 0.799820
Si Si5 0.634842 0.053138 0.294466
Si Si6 0.766325 0.500743 0.788148
Si Si7 0.365192 0.269428 0.701262
Si Si8 0.258280 0.182413 0.803320
O O1 0.232119 0.340526 0.262982
O O2 0.112475 0.324746 0.269570
O O3 0.200219 0.223339 0.271628
O O4 0.176134 0.290475 0.000000
O O5 0.376219 0.702072 0.500000
O O6 0.448742 0.716039 0.764795
O O7 0.342120 0.647916 0.786168
O O8 0.894790 0.361708 0.500000
O O9 0.907853 0.427786 0.221859
O O10 0.874810 0.298894 0.223353
O O11 0.988336 0.344568 0.288547
O O12 0.440289 0.939785 0.728289
O O13 0.483041 0.833414 0.785058
O O14 0.507646 0.925379 0.000000
O O15 0.645879 0.048755 0.500000
O O16 0.749105 0.432046 0.732526
O O17 0.771172 0.502186 0.000000
O O18 0.359243 0.249513 0.500000
O O19 0.311847 0.234937 0.807044
O O20 0.240016 0.163660 0.000000
#
# Coordination Sequence:
#
# PCOD9543994 Si02
#       8
#     8   8   8   8   8   8   8   8
#     4   8  15  29  49  67  85 117 157 189 223 275
#     4   9  17  32  49  63  87 121 153 184 233 293
#     4  10  21  34  47  67  95 130 164 193 230 277
#     4  11  21  32  46  67  96 127 164 198 228 272
#     4  11  21  33  48  68  96 130 164 194 233 277
#     4  10  19  32  49  67  92 121 153 193 237 287
#     4  10  19  29  46  72  93 109 147 201 243 276
#     4   9  17  33  51  65  90 125 157 188 231 285
#
# _framework density 18.045193000000001
#
# number of rings (size 3 to 8) (size 9 to 14) (size 15 to 20)
#    0.000    2.250    2.500    2.250    0.000    4.000 
#    0.000    0.625    0.000    0.375    0.000    2.625 
#    0.000    0.500    0.000    6.250    0.000    0.000 
#
# Total GULP energy -356372.586908 kJ/mol
# GULP energy per Si atom -5568.321670 kJ/mol
# Density = 1.800412 g / cm^3
# Si number density = 18.045193 Si / 1000 Ang^3
#
#
#
# Elastic Constant Matrix: (Units=GPa)
#
#
# Indices 1 2 3 4 5 6 
#
# 1 66.7390 32.6467 0.4265 0.0000 0.0000 -2.5165
# 2 32.6467 66.7390 0.4265 0.0000 0.0000 2.5165
# 3 0.4265 0.4265 31.4972 0.0000 0.0000 0.0000
# 4 0.0000 0.0000 0.0000 20.0741 0.0000 0.0000
# 5 0.0000 0.0000 0.0000 0.0000 20.0741 0.0000
# 6 -2.5165 2.5165 0.0000 0.0000 0.0000 23.4971
#
#
#
# Elastic Compliance Matrix: (Units=1/GPa)
#
#
# Indices 1 2 3 4 5 6 
#
# 1 0.019933 -0.009870 -0.000136 0.000000 0.000000 0.003192
# 2 -0.009870 0.019933 -0.000136 0.000000 0.000000 -0.003192
# 3 -0.000136 -0.000136 0.031753 0.000000 0.000000 0.000000
# 4 0.000000 0.000000 0.000000 0.049815 0.000000 0.000000
# 5 0.000000 0.000000 0.000000 0.000000 0.049815 0.000000
# 6 0.003192 -0.003192 0.000000 0.000000 0.000000 0.043242
#
#
# Mechanical properties :
#
#
# Convention : Reuss Voigt Hill
#
# Bulk Modulus (GPa) = 19.48047 25.77495 22.62771
# Shear Modulus (GPa) = 19.85007 21.49410 20.67209
#
# Velocity S-wave (km/s) = 3.32025 3.45501 3.38830
# Velocity P-wave (km/s) = 5.05149 5.49825 5.27960
#
# Compressibility (1/GPa) = 0.05133347
#
# Stress axis : x y z
#
# Youngs Moduli (GPa) = 50.16768 50.16768 31.49355
#
# Poissons Ratio (x) = 0.49516 0.00429
# Poissons Ratio (y) = 0.49516 0.00429
# Poissons Ratio (z) = 0.00684 0.00684
#
# Static dielectric constant tensor:
#      x y z
#    x 1.640850 0.000000 0.000000 
#    y 0.000000 1.640850 0.000000 
#    z 0.000000 0.000000 1.712300 
# 
# From -- ./inp_files/1418.got.cif
#   From: 2010.05.17/outbox.cif.g08.bks.cpg/sg84_1_cif.got.tgz:1418.got - 2010.06.03 18:57:40.
