data_PCOD9543626
_publ_section_title
;
Structure prediction by ZEFSAII (Michael W. Deem and Ramdas Pophale) SiO2 
 PCOD9543626
Probable space group: P 4/M
;
_chemical_formula_sum "Si O2"
_cell_formula_units_Z 24
_cell_length_a 10.425849
_cell_length_b 10.425849
_cell_length_c 9.031025
_cell_angle_alpha 90.000000
_cell_angle_beta 90.000000
_cell_angle_gamma 90.000000
_cell_volume 981.657312
_symmetry_space_group_name_H-M "P 4/M"
_symmetry_group_IT_number 83
_symmetry_cell_setting 'tetragonal'
loop_
_space_group_symop_operation_xyz
x,y,z
-y,x,z
-x,-y,z
y,-x,z
-x,-y,-z
y,-x,-z
x,y,-z
-y,x,-z
loop_
_atom_site_type_symbol
_atom_site_label
_atom_site_fract_x
_atom_site_fract_y
_atom_site_fract_z
Si Si1 0.961860 0.353417 0.799559
Si Si2 0.214154 0.031038 0.500000
Si Si3 0.239477 0.310342 0.840375
Si Si4 0.398650 0.689387 0.500000
O O1 0.820041 0.320009 0.850069
O O2 0.000000 0.500000 0.824208
O O3 0.954668 0.309697 0.632900
O O4 0.088305 0.277186 0.849808
O O5 0.139197 0.895966 0.500000
O O6 0.256719 0.367596 0.670323
O O7 0.267806 0.381771 0.000000
O O8 0.330420 0.551146 0.500000
#
# Coordination Sequence:
#
# PCOD9543626 Si02
#       4
#     8   4   8   4
#     4  12  25  45  73 106 148 197 246 303 373 442
#     4  11  21  42  74 108 149 197 244 306 384 449
#     4  12  27  48  74 109 151 193 246 308 371 445
#     4  11  26  48  74 105 144 198 256 307 368 435
#
# _framework density 24.448449
#
# number of rings (size 3 to 8) (size 9 to 14) (size 15 to 20)
#    0.000    0.333    3.333    5.500    0.000    7.333 
#    0.000    3.333    0.000    0.000    0.000    0.000 
#    0.000    0.000    0.000    0.000    0.000    0.000 
#
# Total GULP energy -133629.932961 kJ/mol
# GULP energy per Si atom -5567.913873 kJ/mol
# Density = 2.439280 g / cm^3
# Si number density = 24.448449 Si / 1000 Ang^3
#
#
#
# Elastic Constant Matrix: (Units=GPa)
#
#
# Indices 1 2 3 4 5 6 
#
# 1 73.4412 0.3513 19.9539 0.0000 0.0000 -13.5241
# 2 0.3513 73.4412 19.9539 0.0000 0.0000 13.5241
# 3 19.9539 19.9539 290.9697 0.0000 0.0000 0.0000
# 4 0.0000 0.0000 0.0000 147.0049 0.0000 0.0000
# 5 0.0000 0.0000 0.0000 0.0000 147.0049 0.0000
# 6 -13.5241 13.5241 0.0000 0.0000 0.0000 38.3158
#
#
#
# Elastic Compliance Matrix: (Units=1/GPa)
#
#
# Indices 1 2 3 4 5 6 
#
# 1 0.014905 -0.000832 -0.000965 0.000000 0.000000 0.005555
# 2 -0.000832 0.014905 -0.000965 0.000000 0.000000 -0.005555
# 3 -0.000965 -0.000965 0.003569 0.000000 0.000000 0.000000
# 4 0.000000 0.000000 0.000000 0.006802 0.000000 0.000000
# 5 0.000000 0.000000 0.000000 0.000000 0.006802 0.000000
# 6 0.005555 -0.005555 0.000000 0.000000 0.000000 0.030020
#
#
# Mechanical properties :
#
#
# Convention : Reuss Voigt Hill
#
# Bulk Modulus (GPa) = 35.89939 57.59668 46.74803
# Shear Modulus (GPa) = 54.45745 92.97133 73.71439
#
# Velocity S-wave (km/s) = 4.72470 6.17333 5.49694
# Velocity P-wave (km/s) = 6.66928 8.62687 7.71045
#
# Compressibility (1/GPa) = 0.02785562
#
# Stress axis : x y z
#
# Youngs Moduli (GPa) = 67.08957 67.08957 280.17837
#
# Poissons Ratio (x) = 0.05582 0.27041
# Poissons Ratio (y) = 0.05582 0.27041
# Poissons Ratio (z) = 0.06475 0.06475
#
# Static dielectric constant tensor:
#      x y z
#    x 1.949270 0.000000 0.000000 
#    y 0.000000 1.949270 0.000000 
#    z 0.000000 0.000000 1.964270 
# 
# From -- ./inp_files/315.got.cif
#   From: 2010.05.17/outbox.cif.g08.bks.cpg/sg83_1_cif.got.tgz:315.got - 2010.06.03 18:55:12.
