data_PCOD9543475
_publ_section_title
;
Structure prediction by ZEFSAII (Michael W. Deem and Ramdas Pophale) SiO2 
 PCOD9543475
Probable space group: P 4/M
;
_chemical_formula_sum "Si O2"
_cell_formula_units_Z 40
_cell_length_a 16.298007
_cell_length_b 16.298007
_cell_length_c 9.749411
_cell_angle_alpha 90.000000
_cell_angle_beta 90.000000
_cell_angle_gamma 90.000000
_cell_volume 2589.687611
_symmetry_space_group_name_H-M "P 4/M"
_symmetry_group_IT_number 83
_symmetry_cell_setting 'tetragonal'
loop_
_space_group_symop_operation_xyz
x,y,z
-y,x,z
-x,-y,z
y,-x,z
-x,-y,-z
y,-x,-z
x,y,-z
-y,x,-z
loop_
_atom_site_type_symbol
_atom_site_label
_atom_site_fract_x
_atom_site_fract_y
_atom_site_fract_z
Si Si1 0.662829 0.922423 0.337582
Si Si2 0.069207 0.881291 0.000000
Si Si3 0.510822 0.901319 0.845633
Si Si4 0.327588 0.910030 0.838103
Si Si5 0.925652 0.885049 0.500000
Si Si6 0.168956 0.822025 0.251362
O O1 0.653293 0.938687 0.500000
O O2 0.580415 0.887160 0.266719
O O3 0.735246 0.856301 0.315367
O O4 0.681426 0.008118 0.256011
O O5 0.102265 0.836649 0.866864
O O6 0.972195 0.891879 0.000000
O O7 0.418467 0.873081 0.813427
O O8 0.500000 0.000000 0.850802
O O9 0.534962 0.874531 0.000000
O O10 0.258094 0.842332 0.809185
O O11 0.323458 0.933995 0.000000
O O12 0.891165 0.842707 0.366228
O O13 0.022792 0.890626 0.500000
#
# Coordination Sequence:
#
# PCOD9543475 Si02
#       6
#     8   4   8   8   4   8
#     4  11  22  34  50  73  99 129 165 205 255 302
#     4  11  22  34  48  66  90 130 180 213 240 276
#     4   8  17  34  54  72  92 121 159 207 256 303
#     4  10  21  36  53  72  95 127 168 210 255 297
#     4  11  22  36  46  60  96 138 172 207 246 278
#     4  12  23  33  49  71  96 130 169 214 247 291
#
# _framework density 15.445879
#
# number of rings (size 3 to 8) (size 9 to 14) (size 15 to 20)
#    0.000    1.600    2.000    5.400    4.200    5.200 
#    0.000    0.000    0.000    0.000    0.000    0.000 
#    0.000    0.800    0.000    6.200    0.000    1.600 
#
# Total GULP energy -223103.718171 kJ/mol
# GULP energy per Si atom -5577.592954 kJ/mol
# Density = 1.541072 g / cm^3
# Si number density = 15.445879 Si / 1000 Ang^3
#
#
#
# Elastic Constant Matrix: (Units=GPa)
#
#
# Indices 1 2 3 4 5 6 
#
# 1 -1684.6237 1775.9464 32.8511 0.0000 0.0000 204.0072
# 2 1775.9464-1684.6237 32.8511 0.0000 0.0000 -204.0072
# 3 32.8511 32.8511 113.3220 0.0000 0.0000 0.0000
# 4 0.0000 0.0000 0.0000 20.4920 0.0000 0.0000
# 5 0.0000 0.0000 0.0000 0.0000 20.4920 0.0000
# 6 204.0072 -204.0072 0.0000 0.0000 0.0000 -13.7692
#
#
#
# Elastic Compliance Matrix: (Units=1/GPa)
#
#
# Indices 1 2 3 4 5 6 
#
# 1 0.007111 0.006724 -0.004011 0.000000 0.000000 0.005732
# 2 0.006724 0.007111 -0.004011 0.000000 0.000000 -0.005732
# 3 -0.004011 -0.004011 0.011150 0.000000 0.000000 0.000000
# 4 0.000000 0.000000 0.000000 0.048800 0.000000 0.000000
# 5 0.000000 0.000000 0.000000 0.000000 0.048800 0.000000
# 6 0.005732 -0.005732 0.000000 0.000000 0.000000 0.097238
#
#
# Mechanical properties :
#
#
# Convention : Reuss Voigt Hill
#
# Bulk Modulus (GPa) = 43.90212 47.48576 45.69394
# Shear Modulus (GPa) = 21.70167 -334.39530 -156.34681
#
# Velocity S-wave (km/s) = 3.75242 -14.72973 -10.07185
# Velocity P-wave (km/s) = 6.87452 16.07720 10.27661
#
# Compressibility (1/GPa) = 0.02277794
#
# Stress axis : x y z
#
# Youngs Moduli (GPa) = 140.62007 140.62007 89.68727
#
# Poissons Ratio (x) = -0.94559 0.35973
# Poissons Ratio (y) = -0.94559 0.35973
# Poissons Ratio (z) = 0.56401 0.56401
#
# Static dielectric constant tensor:
#      x y z
#    x 1.524900 0.000000 0.000000 
#    y 0.000000 1.524900 0.000000 
#    z 0.000000 0.000000 1.532430 
# 
# From -- ./inp_files/850.got.cif
#   From: 2010.05.17/outbox.cif.g08.bks.cpg/sg83_1_cif.got.tgz:850.got - 2010.06.03 18:55:12.
