data_PCOD9543008
_publ_section_title
;
Structure prediction by ZEFSAII (Michael W. Deem and Ramdas Pophale) SiO2 
 PCOD9543008
Probable space group: I -4 
;
_chemical_formula_sum "Si O2"
_cell_formula_units_Z 36
_cell_length_a 10.231902
_cell_length_b 10.231902
_cell_length_c 18.391496
_cell_angle_alpha 90.000000
_cell_angle_beta 90.000000
_cell_angle_gamma 90.000000
_cell_volume 1925.439162
_symmetry_space_group_name_H-M "I -4 "
_symmetry_group_IT_number 82
_symmetry_cell_setting 'tetragonal'
loop_
_space_group_symop_operation_xyz
x,y,z
y,-x,-z
-x,-y,z
-y,x,-z
1/2+x,1/2+y,1/2+z
1/2+y,1/2-x,1/2-z
1/2-x,1/2-y,1/2+z
1/2-y,1/2+x,1/2-z
loop_
_atom_site_type_symbol
_atom_site_label
_atom_site_fract_x
_atom_site_fract_y
_atom_site_fract_z
Si Si1 0.701551 0.135806 0.961482
Si Si2 0.015494 0.153164 0.764386
Si Si3 0.814769 0.325241 0.849742
Si Si4 0.000000 0.500000 0.946739
Si Si5 0.133257 0.087890 0.909288
O O1 0.718948 0.255792 0.907223
O O2 0.745021 0.008312 0.916065
O O3 0.809879 0.142873 0.025490
O O4 0.566963 0.107863 0.001808
O O5 0.070038 0.239416 0.699047
O O6 0.118400 0.155015 0.831429
O O7 0.884863 0.217523 0.798349
O O8 0.000000 0.000000 0.745210
O O9 0.929450 0.393839 0.896105
O O10 0.000000 0.000000 0.915938
#
# Coordination Sequence:
#
# PCOD9543008 Si02
#       5
#     8   8   8   4   8
#     4  12  20  39  65  94 120 157 211 260 299 366
#     4  11  23  42  66  90 124 166 205 257 307 368
#     4  12  24  42  65  94 126 161 211 254 309 371
#     4  12  24  39  66  97 122 162 210 258 308 363
#     4  11  16  37  70  88 112 157 214 259 298 361
#
# _framework density 18.697032
#
# number of rings (size 3 to 8) (size 9 to 14) (size 15 to 20)
#    0.000    0.444   11.111    1.333    0.000    0.000 
#    8.000    0.000    0.000    0.000    0.000    0.000 
#    0.000    0.000    0.000    0.000    0.000    0.000 
#
# Total GULP energy -100489.924670 kJ/mol
# GULP energy per Si atom -5582.773593 kJ/mol
# Density = 1.865448 g / cm^3
# Si number density = 18.697032 Si / 1000 Ang^3
#
#
#
# Elastic Constant Matrix: (Units=GPa)
#
#
# Indices 1 2 3 4 5 6 
#
# 1 62.0521 14.7949 24.1317 0.0000 0.0000 0.4294
# 2 14.7949 62.0521 24.1317 0.0000 0.0000 -0.4294
# 3 24.1317 24.1317 93.0300 0.0000 0.0000 0.0000
# 4 0.0000 0.0000 0.0000 31.6472 0.0000 0.0000
# 5 0.0000 0.0000 0.0000 0.0000 31.6472 0.0000
# 6 0.4294 -0.4294 0.0000 0.0000 0.0000 28.5240
#
#
#
# Elastic Compliance Matrix: (Units=1/GPa)
#
#
# Indices 1 2 3 4 5 6 
#
# 1 0.018356 -0.002811 -0.004032 0.000000 0.000000 -0.000319
# 2 -0.002811 0.018356 -0.004032 0.000000 0.000000 0.000319
# 3 -0.004032 -0.004032 0.012841 0.000000 0.000000 0.000000
# 4 0.000000 0.000000 0.000000 0.031598 0.000000 0.000000
# 5 0.000000 0.000000 0.000000 0.000000 0.031598 0.000000
# 6 -0.000319 0.000319 0.000000 0.000000 0.000000 0.035068
#
#
# Mechanical properties :
#
#
# Convention : Reuss Voigt Hill
#
# Bulk Modulus (GPa) = 35.96821 38.13898 37.05360
# Shear Modulus (GPa) = 27.95856 28.63541 28.29698
#
# Velocity S-wave (km/s) = 3.87117 3.91775 3.89453
# Velocity P-wave (km/s) = 6.26581 6.39591 6.33120
#
# Compressibility (1/GPa) = 0.02780233
#
# Stress axis : x y z
#
# Youngs Moduli (GPa) = 54.47807 54.47807 77.87417
#
# Poissons Ratio (x) = 0.15312 0.31402
# Poissons Ratio (y) = 0.15312 0.31402
# Poissons Ratio (z) = 0.21968 0.21968
#
# Static dielectric constant tensor:
#      x y z
#    x 1.648190 0.000000 0.000000 
#    y 0.000000 1.648190 0.000000 
#    z 0.000000 0.000000 1.651600 
# 
# From -- ./inp_files/2142.got.cif
#   From: 2010.05.17/outbox.cif.g08.bks.cpg/sg82_2_cif.got.tgz:2142.got - 2010.06.03 18:52:26.
