data_PCOD9543639
_publ_section_title
;
Structure prediction by ZEFSAII (Michael W. Deem and Ramdas Pophale) SiO2 
 PCOD9543639
Probable space group: P 4/M
;
_chemical_formula_sum "Si O2"
_cell_formula_units_Z 28
_cell_length_a 10.845590
_cell_length_b 10.845590
_cell_length_c 11.660079
_cell_angle_alpha 90.000000
_cell_angle_beta 90.000000
_cell_angle_gamma 90.000000
_cell_volume 1371.538042
_symmetry_space_group_name_H-M "P 4/M"
_symmetry_group_IT_number 83
_symmetry_cell_setting 'tetragonal'
loop_
_space_group_symop_operation_xyz
x,y,z
-y,x,z
-x,-y,z
y,-x,z
-x,-y,-z
y,-x,-z
x,y,-z
-y,x,-z
loop_
_atom_site_type_symbol
_atom_site_label
_atom_site_fract_x
_atom_site_fract_y
_atom_site_fract_z
Si Si1 0.199509 0.751578 0.253405
Si Si2 0.440081 0.302497 0.123385
Si Si3 0.149860 0.141680 0.000000
Si Si4 0.965011 0.642758 0.362558
O O1 0.233899 0.607924 0.234004
O O2 0.301073 0.836327 0.314750
O O3 0.068850 0.739497 0.316656
O O4 0.188689 0.799384 0.122018
O O5 0.577098 0.353255 0.124313
O O6 0.427336 0.235886 0.000000
O O7 0.004793 0.169144 0.000000
O O8 0.962433 0.646036 0.500000
O O9 0.000000 0.500000 0.330190
#
# Coordination Sequence:
#
# PCOD9543639 Si02
#       4
#     8   8   4   8
#     4  12  21  40  63  90 122 163 200 252 314 364
#     4   9  18  32  53  84 121 157 192 237 298 367
#     4  11  22  38  56  91 128 156 194 245 304 380
#     4  11  26  44  63  90 122 164 216 259 298 355
#
# _framework density 20.415036000000001
#
# number of rings (size 3 to 8) (size 9 to 14) (size 15 to 20)
#    0.000    1.286    4.286    3.429    0.000    0.571 
#    0.000    2.857    0.000    0.000    0.000   12.000 
#    0.000    0.000    0.000    0.000    0.000    0.000 
#
# Total GULP energy -155924.147187 kJ/mol
# GULP energy per Si atom -5568.719542 kJ/mol
# Density = 2.036857 g / cm^3
# Si number density = 20.415036 Si / 1000 Ang^3
#
#
#
# Elastic Constant Matrix: (Units=GPa)
#
#
# Indices 1 2 3 4 5 6 
#
# 1 78.6031 21.9641 40.5559 0.0000 0.0000 7.4009
# 2 21.9641 78.6031 40.5559 0.0000 0.0000 -7.4009
# 3 40.5559 40.5559 95.9148 0.0000 0.0000 0.0000
# 4 0.0000 0.0000 0.0000 26.4730 0.0000 0.0000
# 5 0.0000 0.0000 0.0000 0.0000 26.4730 0.0000
# 6 7.4009 -7.4009 0.0000 0.0000 0.0000 33.6340
#
#
#
# Elastic Compliance Matrix: (Units=1/GPa)
#
#
# Indices 1 2 3 4 5 6 
#
# 1 0.016911 -0.001822 -0.006380 0.000000 0.000000 -0.004122
# 2 -0.001822 0.016911 -0.006380 0.000000 0.000000 0.004122
# 3 -0.006380 -0.006380 0.015822 0.000000 0.000000 0.000000
# 4 0.000000 0.000000 0.000000 0.037774 0.000000 0.000000
# 5 0.000000 0.000000 0.000000 0.000000 0.037774 0.000000
# 6 -0.004122 0.004122 0.000000 0.000000 0.000000 0.031546
#
#
# Mechanical properties :
#
#
# Convention : Reuss Voigt Hill
#
# Bulk Modulus (GPa) = 48.82970 51.03029 49.93000
# Shear Modulus (GPa) = 25.94306 27.31905 26.63105
#
# Velocity S-wave (km/s) = 3.56867 3.66209 3.61568
# Velocity P-wave (km/s) = 6.39929 6.55224 6.47622
#
# Compressibility (1/GPa) = 0.02047934
#
# Stress axis : x y z
#
# Youngs Moduli (GPa) = 59.13213 59.13213 63.20481
#
# Poissons Ratio (x) = 0.10772 0.40327
# Poissons Ratio (y) = 0.10772 0.40327
# Poissons Ratio (z) = 0.37729 0.37729
#
# Static dielectric constant tensor:
#      x y z
#    x 1.773270 0.000000 0.000000 
#    y 0.000000 1.773270 0.000000 
#    z 0.000000 0.000000 1.717280 
# 
# From -- ./inp_files/1487.got.cif
#   From: 2010.05.17/outbox.cif.g08.bks.cpg/sg83_1_cif.got.tgz:1487.got - 2010.06.03 18:55:12.
