data_PCOD9543376
_publ_section_title
;
Structure prediction by ZEFSAII (Michael W. Deem and Ramdas Pophale) SiO2 
 PCOD9543376
Probable space group: P 4/M
;
_chemical_formula_sum "Si O2"
_cell_formula_units_Z 32
_cell_length_a 10.118465
_cell_length_b 10.118465
_cell_length_c 13.860728
_cell_angle_alpha 90.000000
_cell_angle_beta 90.000000
_cell_angle_gamma 90.000000
_cell_volume 1419.107544
_symmetry_space_group_name_H-M "P 4/M"
_symmetry_group_IT_number 83
_symmetry_cell_setting 'tetragonal'
loop_
_space_group_symop_operation_xyz
x,y,z
-y,x,z
-x,-y,z
y,-x,z
-x,-y,-z
y,-x,-z
x,y,-z
-y,x,-z
loop_
_atom_site_type_symbol
_atom_site_label
_atom_site_fract_x
_atom_site_fract_y
_atom_site_fract_z
Si Si1 0.960726 0.737230 0.500000
Si Si2 0.718012 0.450228 0.894762
Si Si3 0.804677 0.459701 0.500000
Si Si4 0.096470 0.185886 0.288560
Si Si5 0.843679 0.517611 0.703503
O O1 0.105866 0.671353 0.500000
O O2 0.874043 0.603197 0.500000
O O3 0.924262 0.814149 0.404238
O O4 0.650280 0.595208 0.891392
O O5 0.808151 0.442050 0.800886
O O6 0.784005 0.435026 0.000000
O O7 0.755587 0.467132 0.611938
O O8 0.164185 0.326488 0.272966
O O9 0.944340 0.172443 0.253619
O O10 0.000000 0.500000 0.677435
#
# Coordination Sequence:
#
# PCOD9543376 Si02
#       5
#     4   8   4   8   8
#     4   9  14  29  46  66 105 148 193 224 258 314
#     4   9  21  42  64  85 109 142 192 249 295 339
#     4   9  16  32  46  83 117 149 177 232 281 323
#     4  10  20  31  47  76 113 151 189 226 269 329
#     4  11  20  34  59  83 117 150 191 229 287 343
#
# _framework density 22.549385000000001
#
# number of rings (size 3 to 8) (size 9 to 14) (size 15 to 20)
#    0.000    2.250    5.000    1.500    3.500    1.500 
#    0.000    1.250    0.000    1.500    0.000    1.750 
#    0.000    0.000    0.000    0.000    0.000    0.000 
#
# Total GULP energy -178291.043234 kJ/mol
# GULP energy per Si atom -5571.595101 kJ/mol
# Density = 2.249806 g / cm^3
# Si number density = 22.549385 Si / 1000 Ang^3
#
#
#
# Elastic Constant Matrix: (Units=GPa)
#
#
# Indices 1 2 3 4 5 6 
#
# 1 56.0757 6.2531 25.8981 0.0000 0.0000 7.2583
# 2 6.2531 56.0757 25.8981 0.0000 0.0000 -7.2583
# 3 25.8981 25.8981 146.4100 0.0000 0.0000 0.0000
# 4 0.0000 0.0000 0.0000 23.1806 0.0000 0.0000
# 5 0.0000 0.0000 0.0000 0.0000 23.1806 0.0000
# 6 7.2583 -7.2583 0.0000 0.0000 0.0000 19.6186
#
#
#
# Elastic Compliance Matrix: (Units=1/GPa)
#
#
# Indices 1 2 3 4 5 6 
#
# 1 0.020653 -0.001844 -0.003327 0.000000 0.000000 -0.008323
# 2 -0.001844 0.020653 -0.003327 0.000000 0.000000 0.008323
# 3 -0.003327 -0.003327 0.008007 0.000000 0.000000 0.000000
# 4 0.000000 0.000000 0.000000 0.043139 0.000000 0.000000
# 5 0.000000 0.000000 0.000000 0.000000 0.043139 0.000000
# 6 -0.008323 0.008323 0.000000 0.000000 0.000000 0.057131
#
#
# Mechanical properties :
#
#
# Convention : Reuss Voigt Hill
#
# Bulk Modulus (GPa) = 30.94390 41.62890 36.28640
# Shear Modulus (GPa) = 22.67682 26.56344 24.62013
#
# Velocity S-wave (km/s) = 3.17464 3.43594 3.30787
# Velocity P-wave (km/s) = 5.21443 5.85168 5.54223
#
# Compressibility (1/GPa) = 0.03231654
#
# Stress axis : x y z
#
# Youngs Moduli (GPa) = 48.42027 48.42027 124.88817
#
# Poissons Ratio (x) = 0.08927 0.41551
# Poissons Ratio (y) = 0.08927 0.41551
# Poissons Ratio (z) = 0.16110 0.16110
#
# Static dielectric constant tensor:
#      x y z
#    x 1.890360 0.000000 0.000000 
#    y 0.000000 1.890360 0.000000 
#    z 0.000000 0.000000 1.891890 
# 
# From -- ./inp_files/1555.got.cif
#   From: 2010.05.17/outbox.cif.g08.bks.cpg/sg83_1_cif.got.tgz:1555.got - 2010.06.03 18:55:12.
