data_PCOD9543850
_publ_section_title
;
Structure prediction by ZEFSAII (Michael W. Deem and Ramdas Pophale) SiO2 
 PCOD9543850
Probable space group: P 4/M
;
_chemical_formula_sum "Si O2"
_cell_formula_units_Z 41
_cell_length_a 8.624587
_cell_length_b 8.624587
_cell_length_c 27.551427
_cell_angle_alpha 90.000000
_cell_angle_beta 90.000000
_cell_angle_gamma 90.000000
_cell_volume 2049.371596
_symmetry_space_group_name_H-M "P 4/M"
_symmetry_group_IT_number 83
_symmetry_cell_setting 'tetragonal'
loop_
_space_group_symop_operation_xyz
x,y,z
-y,x,z
-x,-y,z
y,-x,z
-x,-y,-z
y,-x,-z
x,y,-z
-y,x,-z
loop_
_atom_site_type_symbol
_atom_site_label
_atom_site_fract_x
_atom_site_fract_y
_atom_site_fract_z
Si Si1 0.500000 0.500000 0.500000
Si Si2 0.582075 0.747927 0.686059
Si Si3 0.072161 0.250803 0.055451
Si Si4 0.000000 0.500000 0.870079
Si Si5 0.750862 0.424413 0.795482
Si Si6 0.601510 0.845645 0.500000
Si Si7 0.761339 0.900211 0.397770
O O1 0.497966 0.691156 0.500000
O O2 0.406702 0.687628 0.681896
O O3 0.599500 0.812057 0.740627
O O4 0.636867 0.856289 0.643011
O O5 0.897108 0.184274 0.060942
O O6 0.093056 0.383804 0.094834
O O7 0.089256 0.307974 0.000000
O O8 0.116934 0.593647 0.835340
O O9 0.685448 0.600509 0.800264
O O10 0.699762 0.857011 0.450813
O O11 0.500000 0.000000 0.500000
O O12 0.920370 0.804892 0.391992
#
# Coordination Sequence:
#
# PCOD9543850 Si02
#       7
#     1   8   8   4   8   4   8
#     4  12  28  44  76 104 132 172 244 252 324 432
#     4   9  21  39  62  86 115 155 204 248 293 368
#     4   9  19  35  52  76 113 151 190 240 294 352
#     4  12  19  30  58  86 106 147 200 242 294 356
#     4   9  20  38  54  80 118 152 189 243 300 351
#     4  12  28  47  68 101 132 169 209 272 316 382
#     4  11  25  43  64  93 129 162 198 255 323 371
#
# _framework density 20.006131
#
# number of rings (size 3 to 8) (size 9 to 14) (size 15 to 20)
#    0.000    1.951    0.000    4.976    5.463    3.902 
#    0.000    0.000    0.000    2.341    0.000    8.195 
#    0.000    0.000    0.000    0.000    0.000    0.000 
#
# Total GULP energy -228850.883012 kJ/mol
# GULP energy per Si atom -5581.728854 kJ/mol
# Density = 1.996060 g / cm^3
# Si number density = 20.006131 Si / 1000 Ang^3
#
#
#
# Elastic Constant Matrix: (Units=GPa)
#
#
# Indices 1 2 3 4 5 6 
#
# 1 51.3936 19.1279 44.1264 0.0000 0.0000 3.9578
# 2 19.1279 51.3936 44.1264 0.0000 0.0000 -3.9578
# 3 44.1264 44.1264 156.0279 0.0000 0.0000 0.0000
# 4 0.0000 0.0000 0.0000 10.7124 0.0000 0.0000
# 5 0.0000 0.0000 0.0000 0.0000 10.7124 0.0000
# 6 3.9578 -3.9578 0.0000 0.0000 0.0000 21.9995
#
#
#
# Elastic Compliance Matrix: (Units=1/GPa)
#
#
# Indices 1 2 3 4 5 6 
#
# 1 0.027186 -0.005238 -0.006207 0.000000 0.000000 -0.005833
# 2 -0.005238 0.027186 -0.006207 0.000000 0.000000 0.005833
# 3 -0.006207 -0.006207 0.009920 0.000000 0.000000 0.000000
# 4 0.000000 0.000000 0.000000 0.093350 0.000000 0.000000
# 5 0.000000 0.000000 0.000000 0.000000 0.093350 0.000000
# 6 -0.005833 0.005833 0.000000 0.000000 0.000000 0.047554
#
#
# Mechanical properties :
#
#
# Convention : Reuss Voigt Hill
#
# Bulk Modulus (GPa) = 34.49792 52.61961 43.55876
# Shear Modulus (GPa) = 14.55552 18.78048 16.66800
#
# Velocity S-wave (km/s) = 2.70024 3.06720 2.88956
# Velocity P-wave (km/s) = 5.19643 6.23719 5.74044
#
# Compressibility (1/GPa) = 0.02898726
#
# Stress axis : x y z
#
# Youngs Moduli (GPa) = 36.78397 36.78397 100.80680
#
# Poissons Ratio (x) = 0.19267 0.62572
# Poissons Ratio (y) = 0.19267 0.62572
# Poissons Ratio (z) = 0.22832 0.22832
#
# Static dielectric constant tensor:
#      x y z
#    x 1.701460 0.000000 0.000000 
#    y 0.000000 1.701460 0.000000 
#    z 0.000000 0.000000 1.697770 
# 
# From -- ./inp_files/3310.got.cif
#   From: 2010.05.17/outbox.cif.g08.bks.cpg/sg83_2_cif.got.tgz:3310.got - 2010.06.03 18:55:12.
