data_PCOD9543950
_publ_section_title
;
Structure prediction by ZEFSAII (Michael W. Deem and Ramdas Pophale) SiO2 
 PCOD9543950
Probable space group: P 42/M
;
_chemical_formula_sum "Si O2"
_cell_formula_units_Z 34
_cell_length_a 10.375862
_cell_length_b 10.375862
_cell_length_c 14.754020
_cell_angle_alpha 90.000000
_cell_angle_beta 90.000000
_cell_angle_gamma 90.000000
_cell_volume 1588.395843
_symmetry_space_group_name_H-M "P 42/M"
_symmetry_group_IT_number 84
_symmetry_cell_setting 'tetragonal'
loop_
_space_group_symop_operation_xyz
x,y,z
-y,x,1/2+z
-x,-y,z
y,-x,1/2+z
-x,-y,-z
y,-x,1/2-z
x,y,-z
-y,x,1/2-z
loop_
_atom_site_type_symbol
_atom_site_label
_atom_site_fract_x
_atom_site_fract_y
_atom_site_fract_z
Si Si1 0.947790 0.291409 0.500000
Si Si2 0.000000 0.000000 0.750000
Si Si3 0.853191 0.235821 0.191744
Si Si4 0.132620 0.365968 0.801137
Si Si5 0.000000 0.500000 0.654637
Si Si6 0.139716 0.318350 0.000000
Si Si7 0.210783 0.153001 0.500000
O O1 0.971522 0.380415 0.588293
O O2 0.805037 0.233327 0.500000
O O3 0.058741 0.183048 0.500000
O O4 0.090710 0.910567 0.810023
O O5 0.748408 0.227722 0.270521
O O6 0.984337 0.314776 0.202160
O O7 0.792009 0.264074 0.094375
O O8 0.154966 0.397374 0.906370
O O9 0.122482 0.467663 0.719753
O O10 0.996631 0.253961 0.000000
#
# Coordination Sequence:
#
# PCOD9543950 Si02
#       7
#     4   2   8   8   4   4   4
#     4  11  21  34  49  81 109 149 180 227 272 330
#     4   8  16  22  36  64  92 134 160 210 232 292
#     4   9  17  27  43  66 101 132 181 204 254 309
#     4  10  19  32  46  72 102 149 175 224 258 328
#     4  11  22  33  50  70 118 151 180 219 280 332
#     4  10  22  32  54  75 105 142 193 223 258 328
#     4  10  18  27  49  76 103 140 175 217 255 315
#
# _framework density 21.405242999999999
#
# number of rings (size 3 to 8) (size 9 to 14) (size 15 to 20)
#    0.000    2.118    2.353    1.765    9.882    0.471 
#    0.000    0.000    0.000    0.000    0.000    0.000 
#    0.000   22.588    0.000    0.000    0.000    0.000 
#
# Total GULP energy -189468.091527 kJ/mol
# GULP energy per Si atom -5572.590927 kJ/mol
# Density = 2.135652 g / cm^3
# Si number density = 21.405243 Si / 1000 Ang^3
#
#
#
# Elastic Constant Matrix: (Units=GPa)
#
#
# Indices 1 2 3 4 5 6 
#
# 1 34.9838 -2.1786 19.7461 0.0000 0.0000 5.0989
# 2 -2.1786 34.9838 19.7461 0.0000 0.0000 -5.0989
# 3 19.7461 19.7461 177.1902 0.0000 0.0000 0.0000
# 4 0.0000 0.0000 0.0000 9.5219 0.0000 0.0000
# 5 0.0000 0.0000 0.0000 0.0000 9.5219 0.0000
# 6 5.0989 -5.0989 0.0000 0.0000 0.0000 13.3991
#
#
#
# Elastic Compliance Matrix: (Units=1/GPa)
#
#
# Indices 1 2 3 4 5 6 
#
# 1 0.032626 0.002580 -0.003923 0.000000 0.000000 -0.011434
# 2 0.002580 0.032626 -0.003923 0.000000 0.000000 0.011434
# 3 -0.003923 -0.003923 0.006518 0.000000 0.000000 0.000000
# 4 0.000000 0.000000 0.000000 0.105021 0.000000 0.000000
# 5 0.000000 0.000000 0.000000 0.000000 0.105021 0.000000
# 6 -0.011434 0.011434 0.000000 0.000000 0.000000 0.083334
#
#
# Mechanical properties :
#
#
# Convention : Reuss Voigt Hill
#
# Bulk Modulus (GPa) = 16.33007 35.75389 26.04198
# Shear Modulus (GPa) = 12.62333 20.47821 16.55077
#
# Velocity S-wave (km/s) = 2.43107 3.09640 2.78368
# Velocity P-wave (km/s) = 3.94027 5.43352 4.74599
#
# Compressibility (1/GPa) = 0.06123673
#
# Stress axis : x y z
#
# Youngs Moduli (GPa) = 30.65017 30.65017 153.41905
#
# Poissons Ratio (x) = -0.07907 0.60192
# Poissons Ratio (y) = -0.07907 0.60192
# Poissons Ratio (z) = 0.12025 0.12025
#
# Static dielectric constant tensor:
#      x y z
#    x 1.811710 0.000000 0.000000 
#    y 0.000000 1.811710 0.000000 
#    z 0.000000 0.000000 1.877570 
# 
# From -- ./inp_files/2871.got.cif
#   From: 2010.05.17/outbox.cif.g08.bks.cpg/sg84_2_cif.got.tgz:2871.got - 2010.06.03 18:57:40.
