data_PCOD9543145
_publ_section_title
;
Structure prediction by ZEFSAII (Michael W. Deem and Ramdas Pophale) SiO2 
 PCOD9543145
Probable space group: I -4 
;
_chemical_formula_sum "Si O2"
_cell_formula_units_Z 40
_cell_length_a 9.539663
_cell_length_b 9.539663
_cell_length_c 20.401122
_cell_angle_alpha 90.000000
_cell_angle_beta 90.000000
_cell_angle_gamma 90.000000
_cell_volume 1856.607579
_symmetry_space_group_name_H-M "I -4 "
_symmetry_group_IT_number 82
_symmetry_cell_setting 'tetragonal'
loop_
_space_group_symop_operation_xyz
x,y,z
y,-x,-z
-x,-y,z
-y,x,-z
1/2+x,1/2+y,1/2+z
1/2+y,1/2-x,1/2-z
1/2-x,1/2-y,1/2+z
1/2-y,1/2+x,1/2-z
loop_
_atom_site_type_symbol
_atom_site_label
_atom_site_fract_x
_atom_site_fract_y
_atom_site_fract_z
Si Si1 0.000000 0.000000 0.000000
Si Si2 0.775918 0.567343 0.417026
Si Si3 0.427586 0.787402 0.238004
Si Si4 0.500000 0.000000 0.477010
Si Si5 0.264978 0.388453 0.901831
Si Si6 0.186455 0.589986 0.284177
Si Si7 0.500000 0.500000 0.000000
O O1 0.975252 0.131800 0.047757
O O2 0.887774 0.569803 0.475188
O O3 0.769805 0.723079 0.387997
O O4 0.819298 0.461873 0.359143
O O5 0.569713 0.837351 0.272733
O O6 0.466311 0.724276 0.167415
O O7 0.327976 0.677653 0.274256
O O8 0.616633 0.926398 0.433477
O O9 0.383406 0.432301 0.953046
O O10 0.177816 0.450493 0.238341
#
# Coordination Sequence:
#
# PCOD9543145 Si02
#       7
#     2   8   8   4   8   8   2
#     4  12  28  44  74 116 140 204 240 290 368 424
#     4  12  26  45  73 108 150 184 246 297 359 433
#     4  11  27  49  73 109 148 192 240 297 362 427
#     4  12  24  44  76  98 150 192 232 304 354 428
#     4  12  26  49  73 108 147 192 243 300 362 434
#     4  11  25  46  73 106 144 190 240 295 363 419
#     4  12  28  48  78 108 140 196 244 298 372 420
#
# _framework density 21.544673
#
# number of rings (size 3 to 8) (size 9 to 14) (size 15 to 20)
#    0.000    0.400    6.000    2.400    2.800    5.600 
#    0.000    0.000    0.000    0.000    0.000    0.000 
#    0.000    0.000    0.000    0.000    0.000    0.000 
#
# Total GULP energy -111946.179329 kJ/mol
# GULP energy per Si atom -5597.308966 kJ/mol
# Density = 2.149564 g / cm^3
# Si number density = 21.544673 Si / 1000 Ang^3
#
#
#
# Elastic Constant Matrix: (Units=GPa)
#
#
# Indices 1 2 3 4 5 6 
#
# 1 60.4568 9.3526 13.6565 0.0000 0.0000 -4.0579
# 2 9.3526 60.4568 13.6565 0.0000 0.0000 4.0579
# 3 13.6565 13.6565 74.3307 0.0000 0.0000 0.0000
# 4 0.0000 0.0000 0.0000 71.1290 0.0000 0.0000
# 5 0.0000 0.0000 0.0000 0.0000 71.1290 0.0000
# 6 -4.0579 4.0579 0.0000 0.0000 0.0000 33.2244
#
#
#
# Elastic Compliance Matrix: (Units=1/GPa)
#
#
# Indices 1 2 3 4 5 6 
#
# 1 0.017695 -0.002260 -0.002836 0.000000 0.000000 0.002437
# 2 -0.002260 0.017695 -0.002836 0.000000 0.000000 -0.002437
# 3 -0.002836 -0.002836 0.014495 0.000000 0.000000 0.000000
# 4 0.000000 0.000000 0.000000 0.014059 0.000000 0.000000
# 5 0.000000 0.000000 0.000000 0.000000 0.014059 0.000000
# 6 0.002437 -0.002437 0.000000 0.000000 0.000000 0.030694
#
#
# Mechanical properties :
#
#
# Convention : Reuss Voigt Hill
#
# Bulk Modulus (GPa) = 29.39354 29.84171 29.61763
# Shear Modulus (GPa) = 36.79181 45.66841 41.23011
#
# Velocity S-wave (km/s) = 4.13691 4.60902 4.37934
# Velocity P-wave (km/s) = 6.04081 6.49656 6.27283
#
# Compressibility (1/GPa) = 0.03402108
#
# Stress axis : x y z
#
# Youngs Moduli (GPa) = 56.51458 56.51458 68.98757
#
# Poissons Ratio (x) = 0.12774 0.19563
# Poissons Ratio (y) = 0.12774 0.19563
# Poissons Ratio (z) = 0.16026 0.16026
#
# Static dielectric constant tensor:
#      x y z
#    x 1.555760 0.000000 0.000000 
#    y 0.000000 1.555760 0.000000 
#    z 0.000000 0.000000 1.745910 
# 
# From -- ./inp_files/3426.got.cif
#   From: 2010.05.17/outbox.cif.g08.bks.cpg/sg82_2_cif.got.tgz:3426.got - 2010.06.03 18:52:26.
