data_PCOD9543498
_publ_section_title
;
Structure prediction by ZEFSAII (Michael W. Deem and Ramdas Pophale) SiO2 
 PCOD9543498
Probable space group: P 4/M
;
_chemical_formula_sum "Si O2"
_cell_formula_units_Z 40
_cell_length_a 14.551566
_cell_length_b 14.551566
_cell_length_c 8.293941
_cell_angle_alpha 90.000000
_cell_angle_beta 90.000000
_cell_angle_gamma 90.000000
_cell_volume 1756.226025
_symmetry_space_group_name_H-M "P 4/M"
_symmetry_group_IT_number 83
_symmetry_cell_setting 'tetragonal'
loop_
_space_group_symop_operation_xyz
x,y,z
-y,x,z
-x,-y,z
y,-x,z
-x,-y,-z
y,-x,-z
x,y,-z
-y,x,-z
loop_
_atom_site_type_symbol
_atom_site_label
_atom_site_fract_x
_atom_site_fract_y
_atom_site_fract_z
Si Si1 0.138865 0.958148 0.803942
Si Si2 0.534596 0.646567 0.694668
Si Si3 0.185427 0.648490 0.807086
Si Si4 0.704672 0.171753 0.193921
Si Si5 0.395879 0.982464 0.690756
O O1 0.233538 0.916420 0.753811
O O2 0.058491 0.889510 0.750755
O O3 0.138436 0.959619 0.000000
O O4 0.433730 0.608059 0.744613
O O5 0.534769 0.649257 0.500000
O O6 0.565837 0.745761 0.757994
O O7 0.243508 0.738178 0.746913
O O8 0.078946 0.650558 0.752929
O O9 0.182504 0.653520 0.000000
O O10 0.613556 0.125890 0.257482
O O11 0.701214 0.177213 0.000000
O O12 0.384285 0.984354 0.500000
O O13 0.500000 0.000000 0.740425
#
# Coordination Sequence:
#
# PCOD9543498 Si02
#       5
#     8   8   8   8   8
#     4   8  13  24  47  77 108 142 181 228 286 356
#     4   9  20  40  65  92 126 170 217 267 327 397
#     4  11  24  40  65  99 132 169 216 274 339 397
#     4  10  21  38  60  88 122 161 206 260 322 384
#     4  11  26  45  64  90 127 175 225 270 325 395
#
# _framework density 22.776112999999999
#
# number of rings (size 3 to 8) (size 9 to 14) (size 15 to 20)
#    0.000    2.200    0.000    3.600    2.800    7.200 
#    0.000    1.000    0.000    0.000    0.000    4.200 
#    0.000    0.000    0.000    0.000    0.000    0.000 
#
# Total GULP energy -222747.205567 kJ/mol
# GULP energy per Si atom -5568.680139 kJ/mol
# Density = 2.272427 g / cm^3
# Si number density = 22.776113 Si / 1000 Ang^3
#
#
#
# Elastic Constant Matrix: (Units=GPa)
#
#
# Indices 1 2 3 4 5 6 
#
# 1 83.8962 37.3899 21.5785 0.0000 0.0000 -9.3177
# 2 37.3899 83.8962 21.5785 0.0000 0.0000 9.3177
# 3 21.5785 21.5785 74.2869 0.0000 0.0000 0.0000
# 4 0.0000 0.0000 0.0000 37.8853 0.0000 0.0000
# 5 0.0000 0.0000 0.0000 0.0000 37.8853 0.0000
# 6 -9.3177 9.3177 0.0000 0.0000 0.0000 41.9705
#
#
#
# Elastic Compliance Matrix: (Units=1/GPa)
#
#
# Indices 1 2 3 4 5 6 
#
# 1 0.016399 -0.007203 -0.002671 0.000000 0.000000 0.005240
# 2 -0.007203 0.016399 -0.002671 0.000000 0.000000 -0.005240
# 3 -0.002671 -0.002671 0.015013 0.000000 0.000000 0.000000
# 4 0.000000 0.000000 0.000000 0.026395 0.000000 0.000000
# 5 0.000000 0.000000 0.000000 0.000000 0.026395 0.000000
# 6 0.005240 -0.005240 0.000000 0.000000 0.000000 0.026153
#
#
# Mechanical properties :
#
#
# Convention : Reuss Voigt Hill
#
# Bulk Modulus (GPa) = 44.01465 44.79702 44.40584
# Shear Modulus (GPa) = 31.36401 34.31705 32.84053
#
# Velocity S-wave (km/s) = 3.71490 3.88585 3.80134
# Velocity P-wave (km/s) = 6.14553 6.31223 6.22944
#
# Compressibility (1/GPa) = 0.02271971
#
# Stress axis : x y z
#
# Youngs Moduli (GPa) = 60.98020 60.98020 66.60866
#
# Poissons Ratio (x) = 0.43926 0.17791
# Poissons Ratio (y) = 0.43926 0.17791
# Poissons Ratio (z) = 0.16288 0.16288
#
# Static dielectric constant tensor:
#      x y z
#    x 1.501790 0.000000 0.000000 
#    y 0.000000 1.501790 0.000000 
#    z 0.000000 0.000000 1.818170 
# 
# From -- ./inp_files/677.got.cif
#   From: 2010.05.17/outbox.cif.g08.bks.cpg/sg83_1_cif.got.tgz:677.got - 2010.06.03 18:55:12.
