data_PCOD9543781
_publ_section_title
;
Structure prediction by ZEFSAII (Michael W. Deem and Ramdas Pophale) SiO2 
 PCOD9543781
Probable space group: P 4/M
;
_chemical_formula_sum "Si O2"
_cell_formula_units_Z 48
_cell_length_a 8.386649
_cell_length_b 8.386649
_cell_length_c 32.174436
_cell_angle_alpha 90.000000
_cell_angle_beta 90.000000
_cell_angle_gamma 90.000000
_cell_volume 2263.017316
_symmetry_space_group_name_H-M "P 4/M"
_symmetry_group_IT_number 83
_symmetry_cell_setting 'tetragonal'
loop_
_space_group_symop_operation_xyz
x,y,z
-y,x,z
-x,-y,z
y,-x,z
-x,-y,-z
y,-x,-z
x,y,-z
-y,x,-z
loop_
_atom_site_type_symbol
_atom_site_label
_atom_site_fract_x
_atom_site_fract_y
_atom_site_fract_z
Si Si1 0.091675 0.746883 0.952455
Si Si2 0.909920 0.255835 0.500000
Si Si3 0.038385 0.262244 0.739223
Si Si4 0.579409 0.758654 0.421294
Si Si5 0.000000 0.500000 0.808420
Si Si6 0.038128 0.733677 0.645563
Si Si7 0.424451 0.242582 0.123086
O O1 0.148851 0.620207 0.918837
O O2 0.908839 0.803756 0.947205
O O3 0.112040 0.691092 0.000000
O O4 0.863392 0.360810 0.460131
O O5 0.092918 0.196251 0.500000
O O6 0.871339 0.171961 0.744030
O O7 0.079869 0.382351 0.775634
O O8 0.007507 0.322145 0.692293
O O9 0.399831 0.691105 0.422415
O O10 0.601431 0.871741 0.381420
O O11 0.877027 0.409248 0.838296
O O12 0.875054 0.830560 0.637378
O O13 0.604268 0.309304 0.124489
#
# Coordination Sequence:
#
# PCOD9543781 Si02
#       7
#     8   4   8   8   4   8   8
#     4   9  19  38  64  92 122 160 209 261 309 362
#     4  11  24  41  62  88 118 159 212 259 298 346
#     4   9  20  38  60  86 113 145 193 248 299 358
#     4  11  24  39  57  87 126 163 201 245 296 360
#     4  12  22  38  61  84 114 157 198 244 304 364
#     4   9  19  37  60  86 114 146 192 248 301 357
#     4  11  24  39  56  85 123 161 203 251 307 370
#
# _framework density 21.210619000000001
#
# number of rings (size 3 to 8) (size 9 to 14) (size 15 to 20)
#    0.000    1.917    0.000    5.000    0.000    8.667 
#    0.000    4.583    0.000    2.000    0.000    0.000 
#    0.000    0.000    0.000    0.000    0.000    0.000 
#
# Total GULP energy -267674.161067 kJ/mol
# GULP energy per Si atom -5576.545022 kJ/mol
# Density = 2.116234 g / cm^3
# Si number density = 21.210619 Si / 1000 Ang^3
#
#
#
# Elastic Constant Matrix: (Units=GPa)
#
#
# Indices 1 2 3 4 5 6 
#
# 1 46.9415 13.0529 7.5195 0.0000 0.0000 0.4699
# 2 13.0529 46.9415 7.5195 0.0000 0.0000 -0.4699
# 3 7.5195 7.5195 86.2776 0.0000 0.0000 0.0000
# 4 0.0000 0.0000 0.0000 186.3388 0.0000 0.0000
# 5 0.0000 0.0000 0.0000 0.0000 186.3388 0.0000
# 6 0.4699 -0.4699 0.0000 0.0000 0.0000 39.5728
#
#
#
# Elastic Compliance Matrix: (Units=1/GPa)
#
#
# Indices 1 2 3 4 5 6 
#
# 1 0.023279 -0.006239 -0.001485 0.000000 0.000000 -0.000351
# 2 -0.006239 0.023279 -0.001485 0.000000 0.000000 0.000351
# 3 -0.001485 -0.001485 0.011849 0.000000 0.000000 0.000000
# 4 0.000000 0.000000 0.000000 0.005367 0.000000 0.000000
# 5 0.000000 0.000000 0.000000 0.000000 0.005367 0.000000
# 6 -0.000351 0.000351 0.000000 0.000000 0.000000 0.025278
#
#
# Mechanical properties :
#
#
# Convention : Reuss Voigt Hill
#
# Bulk Modulus (GPa) = 25.00638 26.26046 25.63342
# Shear Modulus (GPa) = 39.62986 92.58799 66.10893
#
# Velocity S-wave (km/s) = 4.32719 6.61411 5.58887
# Velocity P-wave (km/s) = 6.06475 8.41049 7.33204
#
# Compressibility (1/GPa) = 0.03998979
#
# Stress axis : x y z
#
# Youngs Moduli (GPa) = 42.95657 42.95657 84.39266
#
# Poissons Ratio (x) = 0.26800 0.12534
# Poissons Ratio (y) = 0.26800 0.12534
# Poissons Ratio (z) = 0.06380 0.06380
#
# Static dielectric constant tensor:
#      x y z
#    x 1.766560 0.000000 0.000000 
#    y 0.000000 1.766560 0.000000 
#    z 0.000000 0.000000 1.776190 
# 
# From -- ./inp_files/3508.got.cif
#   From: 2010.05.17/outbox.cif.g08.bks.cpg/sg83_2_cif.got.tgz:3508.got - 2010.06.03 18:55:12.
