data_PCOD9543078
_publ_section_title
;
Structure prediction by ZEFSAII (Michael W. Deem and Ramdas Pophale) SiO2 
 PCOD9543078
Probable space group: I -4 
;
_chemical_formula_sum "Si O2"
_cell_formula_units_Z 42
_cell_length_a 15.204880
_cell_length_b 15.204880
_cell_length_c 8.267870
_cell_angle_alpha 90.000000
_cell_angle_beta 90.000000
_cell_angle_gamma 90.000000
_cell_volume 1911.435437
_symmetry_space_group_name_H-M "I -4 "
_symmetry_group_IT_number 82
_symmetry_cell_setting 'tetragonal'
loop_
_space_group_symop_operation_xyz
x,y,z
y,-x,-z
-x,-y,z
-y,x,-z
1/2+x,1/2+y,1/2+z
1/2+y,1/2-x,1/2-z
1/2-x,1/2-y,1/2+z
1/2-y,1/2+x,1/2-z
loop_
_atom_site_type_symbol
_atom_site_label
_atom_site_fract_x
_atom_site_fract_y
_atom_site_fract_z
Si Si1 0.057248 0.302272 0.093989
Si Si2 0.488943 0.893652 0.922704
Si Si3 0.180911 0.808732 0.720366
Si Si4 0.364722 0.219269 0.097177
Si Si5 0.500000 0.500000 0.500000
Si Si6 0.990425 0.823512 0.816664
O O1 0.112807 0.386467 0.031213
O O2 0.124528 0.229504 0.157789
O O3 0.004375 0.342841 0.249987
O O4 0.001757 0.252670 0.955911
O O5 0.500000 0.000000 0.920992
O O6 0.561642 0.850810 0.038899
O O7 0.182796 0.711528 0.791192
O O8 0.235540 0.820059 0.557347
O O9 0.079292 0.833892 0.714740
O O10 0.414429 0.292772 0.199097
O O11 0.469907 0.416396 0.397327
#
# Coordination Sequence:
#
# PCOD9543078 Si02
#       6
#     8   8   8   8   2   8
#     4  11  22  43  77 104 149 191 241 298 371 433
#     4  11  22  44  71 114 149 193 236 299 374 440
#     4  11  26  46  71 108 148 199 242 302 372 437
#     4  11  28  46  74 107 151 197 252 304 365 442
#     4  12  28  52  78 104 148 204 246 304 376 436
#     4  12  27  49  73 111 145 196 253 308 363 445
#
# _framework density 21.973016999999999
#
# number of rings (size 3 to 8) (size 9 to 14) (size 15 to 20)
#    0.000    0.762    3.810    2.286    8.000    1.524 
#    0.000    0.952    0.000    0.000    0.000    0.000 
#    0.000    0.000    0.000    0.000    0.000    0.000 
#
# Total GULP energy -117409.619443 kJ/mol
# GULP energy per Si atom -5590.934259 kJ/mol
# Density = 2.192301 g / cm^3
# Si number density = 21.973017 Si / 1000 Ang^3
#
#
#
# Elastic Constant Matrix: (Units=GPa)
#
#
# Indices 1 2 3 4 5 6 
#
# 1 88.6932 -3.1288 28.0737 0.0000 0.0000 0.3892
# 2 -3.1288 88.6932 28.0737 0.0000 0.0000 -0.3892
# 3 28.0737 28.0737 69.9392 0.0000 0.0000 0.0000
# 4 0.0000 0.0000 0.0000 -5.1574 0.0000 0.0000
# 5 0.0000 0.0000 0.0000 0.0000 -5.1574 0.0000
# 6 0.3892 -0.3892 0.0000 0.0000 0.0000 34.6310
#
#
#
# Elastic Compliance Matrix: (Units=1/GPa)
#
#
# Indices 1 2 3 4 5 6 
#
# 1 0.013379 0.002487 -0.006369 0.000000 0.000000 -0.000122
# 2 0.002487 0.013379 -0.006369 0.000000 0.000000 0.000122
# 3 -0.006369 -0.006369 0.019411 0.000000 0.000000 0.000000
# 4 0.000000 0.000000 0.000000 -0.193895 0.000000 0.000000
# 5 0.000000 0.000000 0.000000 0.000000 -0.193895 0.000000
# 6 -0.000122 0.000122 0.000000 0.000000 0.000000 0.028879
#
#
# Mechanical properties :
#
#
# Convention : Reuss Voigt Hill
#
# Bulk Modulus (GPa) = 38.95820 39.26255 39.11038
# Shear Modulus (GPa) = -17.62514 17.81703 0.09594
#
# Velocity S-wave (km/s) = -2.83526 2.85065 0.20919
# Velocity P-wave (km/s) = 2.65524 5.36118 4.23040
#
# Compressibility (1/GPa) = 0.02566853
#
# Stress axis : x y z
#
# Youngs Moduli (GPa) = 74.74416 74.74416 51.51720
#
# Poissons Ratio (x) = -0.18591 0.32810
# Poissons Ratio (y) = -0.18591 0.32810
# Poissons Ratio (z) = 0.47603 0.47603
#
# Static dielectric constant tensor:
#      x y z
#    x 1.820070 0.000000 0.000000 
#    y 0.000000 1.820070 0.000000 
#    z 0.000000 0.000000 1.840670 
# 
# From -- ./inp_files/967.got.cif
#   From: 2010.05.17/outbox.cif.g08.bks.cpg/sg82_1_cif.got.tgz:967.got - 2010.06.03 18:52:26.
