data_PCOD9543056
_publ_section_title
;
Structure prediction by ZEFSAII (Michael W. Deem and Ramdas Pophale) SiO2 
 PCOD9543056
Probable space group: I -4 
;
_chemical_formula_sum "Si O2"
_cell_formula_units_Z 42
_cell_length_a 10.812915
_cell_length_b 10.812915
_cell_length_c 15.426940
_cell_angle_alpha 90.000000
_cell_angle_beta 90.000000
_cell_angle_gamma 90.000000
_cell_volume 1803.704416
_symmetry_space_group_name_H-M "I -4 "
_symmetry_group_IT_number 82
_symmetry_cell_setting 'tetragonal'
loop_
_space_group_symop_operation_xyz
x,y,z
y,-x,-z
-x,-y,z
-y,x,-z
1/2+x,1/2+y,1/2+z
1/2+y,1/2-x,1/2-z
1/2-x,1/2-y,1/2+z
1/2-y,1/2+x,1/2-z
loop_
_atom_site_type_symbol
_atom_site_label
_atom_site_fract_x
_atom_site_fract_y
_atom_site_fract_z
Si Si1 0.109508 0.195404 0.773471
Si Si2 0.846522 0.256259 0.401088
Si Si3 0.449681 0.861148 0.152851
Si Si4 0.000000 0.500000 0.250000
Si Si5 0.794856 0.407572 0.020694
Si Si6 0.013875 0.740201 0.126046
O O1 0.200365 0.190468 0.691050
O O2 0.139923 0.302656 0.842103
O O3 0.990986 0.255647 0.723278
O O4 0.139392 0.068370 0.824848
O O5 0.820984 0.163155 0.480372
O O6 0.760672 0.376299 0.411855
O O7 0.993645 0.276928 0.403041
O O8 0.500000 0.000000 0.169879
O O9 0.508336 0.837112 0.059745
O O10 0.993108 0.375216 0.193299
O O11 0.894666 0.308397 0.051512
#
# Coordination Sequence:
#
# PCOD9543056 Si02
#       6
#     8   8   8   2   8   8
#     4  11  22  39  72 100 137 175 242 285 347 425
#     4  11  24  41  65 101 128 181 226 294 353 426
#     4  11  21  43  70 101 134 192 233 286 357 441
#     4  12  20  40  72  92 128 178 240 276 364 420
#     4  11  24  41  69  97 137 175 239 285 364 423
#     4  12  21  41  70  98 129 180 231 295 346 436
#
# _framework density 23.285411
#
# number of rings (size 3 to 8) (size 9 to 14) (size 15 to 20)
#    0.000    0.762    5.714    2.286    0.000    0.381 
#    0.000    0.952    0.000    0.000    0.000    0.000 
#    0.000    0.000    0.000    0.000    0.000    0.000 
#
# Total GULP energy -117109.832221 kJ/mol
# GULP energy per Si atom -5576.658677 kJ/mol
# Density = 2.323241 g / cm^3
# Si number density = 23.285411 Si / 1000 Ang^3
#
#
#
# Elastic Constant Matrix: (Units=GPa)
#
#
# Indices 1 2 3 4 5 6 
#
# 1 54.1989 36.3158 7.9533 0.0000 0.0000 3.0540
# 2 36.3158 54.1989 7.9533 0.0000 0.0000 -3.0540
# 3 7.9533 7.9533 72.2038 0.0000 0.0000 0.0000
# 4 0.0000 0.0000 0.0000 11.7738 0.0000 0.0000
# 5 0.0000 0.0000 0.0000 0.0000 11.7738 0.0000
# 6 3.0540 -3.0540 0.0000 0.0000 0.0000 23.1871
#
#
#
# Elastic Compliance Matrix: (Units=1/GPa)
#
#
# Indices 1 2 3 4 5 6 
#
# 1 0.034909 -0.023643 -0.001241 0.000000 0.000000 -0.007712
# 2 -0.023643 0.034909 -0.001241 0.000000 0.000000 0.007712
# 3 -0.001241 -0.001241 0.014123 0.000000 0.000000 0.000000
# 4 0.000000 0.000000 0.000000 0.084935 0.000000 0.000000
# 5 0.000000 0.000000 0.000000 0.000000 0.084935 0.000000
# 6 -0.007712 0.007712 0.000000 0.000000 0.000000 0.045159
#
#
# Mechanical properties :
#
#
# Convention : Reuss Voigt Hill
#
# Bulk Modulus (GPa) = 31.55446 31.67183 31.61315
# Shear Modulus (GPa) = 13.82040 17.90554 15.86297
#
# Velocity S-wave (km/s) = 2.43887 2.77602 2.61289
# Velocity P-wave (km/s) = 4.63804 4.88939 4.76537
#
# Compressibility (1/GPa) = 0.03169124
#
# Stress axis : x y z
#
# Youngs Moduli (GPa) = 28.64564 28.64564 70.80612
#
# Poissons Ratio (x) = 0.67728 0.08787
# Poissons Ratio (y) = 0.67728 0.08787
# Poissons Ratio (z) = 0.03555 0.03555
#
# Static dielectric constant tensor:
#      x y z
#    x 2.060790 0.000000 0.000000 
#    y 0.000000 2.060790 0.000000 
#    z 0.000000 0.000000 1.914880 
# 
# From -- ./inp_files/2601.got.cif
#   From: 2010.05.17/outbox.cif.g08.bks.cpg/sg82_2_cif.got.tgz:2601.got - 2010.06.03 18:52:26.
