data_PCOD9543259
_publ_section_title
;
Structure prediction by ZEFSAII (Michael W. Deem and Ramdas Pophale) SiO2 
 PCOD9543259
Probable space group: P 4/M
;
_chemical_formula_sum "Si O2"
_cell_formula_units_Z 52
_cell_length_a 17.754968
_cell_length_b 17.754968
_cell_length_c 9.687152
_cell_angle_alpha 90.000000
_cell_angle_beta 90.000000
_cell_angle_gamma 90.000000
_cell_volume 3053.767031
_symmetry_space_group_name_H-M "P 4/M"
_symmetry_group_IT_number 83
_symmetry_cell_setting 'tetragonal'
loop_
_space_group_symop_operation_xyz
x,y,z
-y,x,z
-x,-y,z
y,-x,z
-x,-y,-z
y,-x,-z
x,y,-z
-y,x,-z
loop_
_atom_site_type_symbol
_atom_site_label
_atom_site_fract_x
_atom_site_fract_y
_atom_site_fract_z
Si Si1 0.921903 0.296890 0.664121
Si Si2 0.804163 0.567895 0.162845
Si Si3 0.894559 0.072175 0.000000
Si Si4 0.090895 0.323641 0.660122
Si Si5 0.702497 0.305825 0.848457
Si Si6 0.208754 0.584645 0.665065
Si Si7 0.814082 0.172070 0.775748
O O1 0.926457 0.289299 0.500000
O O2 0.867436 0.367506 0.692618
O O3 0.882396 0.221752 0.718474
O O4 0.006219 0.311172 0.713180
O O5 0.867306 0.617183 0.241559
O O6 0.729710 0.620216 0.169099
O O7 0.793590 0.491633 0.248016
O O8 0.821336 0.556118 0.000000
O O9 0.849350 0.107803 0.128381
O O10 0.981433 0.101213 0.000000
O O11 0.090586 0.349220 0.500000
O O12 0.133516 0.243418 0.669208
O O13 0.726306 0.361624 0.727052
O O14 0.760120 0.234704 0.846959
O O15 0.708768 0.342370 0.000000
O O16 0.215791 0.573199 0.500000
#
# Coordination Sequence:
#
# PCOD9543259 Si02
#       7
#     8   8   4   8   8   8   8
#     4   9  19  34  51  76 102 137 182 228 278 327
#     4  10  21  36  55  80 112 142 177 218 266 324
#     4  11  22  32  46  72 106 142 178 225 288 340
#     4  10  20  34  54  75 103 140 182 228 276 329
#     4   9  18  34  55  77 101 136 177 215 258 309
#     4  10  20  34  55  80 110 140 176 219 266 322
#     4  10  18  33  52  72  98 138 180 229 269 325
#
# _framework density 17.028148999999999
#
# number of rings (size 3 to 8) (size 9 to 14) (size 15 to 20)
#    0.000    2.231    0.769    2.308    1.077    4.923 
#    1.385    3.077    0.000    0.462    0.000    9.692 
#    0.000    0.000    0.000    0.000    0.000    0.000 
#
# Total GULP energy -289739.091574 kJ/mol
# GULP energy per Si atom -5571.905607 kJ/mol
# Density = 1.698939 g / cm^3
# Si number density = 17.028149 Si / 1000 Ang^3
#
#
#
# Elastic Constant Matrix: (Units=GPa)
#
#
# Indices 1 2 3 4 5 6 
#
# 1 71.0445 22.0758 49.4121 0.0000 0.0000 3.5110
# 2 22.0758 71.0445 49.4121 0.0000 0.0000 -3.5110
# 3 49.4121 49.4121 97.8559 0.0000 0.0000 0.0000
# 4 0.0000 0.0000 0.0000 25.4870 0.0000 0.0000
# 5 0.0000 0.0000 0.0000 0.0000 25.4870 0.0000
# 6 3.5110 -3.5110 0.0000 0.0000 0.0000 11.5507
#
#
#
# Elastic Compliance Matrix: (Units=1/GPa)
#
#
# Indices 1 2 3 4 5 6 
#
# 1 0.022245 0.000893 -0.011683 0.000000 0.000000 -0.006490
# 2 0.000893 0.022245 -0.011683 0.000000 0.000000 0.006490
# 3 -0.011683 -0.011683 0.022018 0.000000 0.000000 0.000000
# 4 0.000000 0.000000 0.000000 0.039236 0.000000 0.000000
# 5 0.000000 0.000000 0.000000 0.000000 0.039236 0.000000
# 6 -0.006490 0.006490 0.000000 0.000000 0.000000 0.090521
#
#
# Mechanical properties :
#
#
# Convention : Reuss Voigt Hill
#
# Bulk Modulus (GPa) = 46.38176 53.52721 49.95448
# Shear Modulus (GPa) = 17.38320 20.44126 18.91223
#
# Velocity S-wave (km/s) = 3.19854 3.46849 3.33625
# Velocity P-wave (km/s) = 6.39831 6.89517 6.65138
#
# Compressibility (1/GPa) = 0.02156020
#
# Stress axis : x y z
#
# Youngs Moduli (GPa) = 44.95419 44.95419 45.41723
#
# Poissons Ratio (x) = -0.04014 0.53063
# Poissons Ratio (y) = -0.04014 0.53063
# Poissons Ratio (z) = 0.52522 0.52522
#
# Static dielectric constant tensor:
#      x y z
#    x 1.570940 0.000000 0.000000 
#    y 0.000000 1.570940 0.000000 
#    z 0.000000 0.000000 1.582820 
# 
# From -- ./inp_files/1019.got.cif
#   From: 2010.05.17/outbox.cif.g08.bks.cpg/sg83_1_cif.got.tgz:1019.got - 2010.06.03 18:55:12.
