data_PCOD9543444
_publ_section_title
;
Structure prediction by ZEFSAII (Michael W. Deem and Ramdas Pophale) SiO2 
 PCOD9543444
Probable space group: P 4/M
;
_chemical_formula_sum "Si O2"
_cell_formula_units_Z 52
_cell_length_a 16.613680
_cell_length_b 16.613680
_cell_length_c 9.691852
_cell_angle_alpha 90.000000
_cell_angle_beta 90.000000
_cell_angle_gamma 90.000000
_cell_volume 2675.090357
_symmetry_space_group_name_H-M "P 4/M"
_symmetry_group_IT_number 83
_symmetry_cell_setting 'tetragonal'
loop_
_space_group_symop_operation_xyz
x,y,z
-y,x,z
-x,-y,z
y,-x,z
-x,-y,-z
y,-x,-z
x,y,-z
-y,x,-z
loop_
_atom_site_type_symbol
_atom_site_label
_atom_site_fract_x
_atom_site_fract_y
_atom_site_fract_z
Si Si1 0.390787 0.933888 0.337592
Si Si2 0.470831 0.632742 0.663053
Si Si3 0.384639 0.122284 0.334846
Si Si4 0.093329 0.790493 0.649794
Si Si5 0.928232 0.884231 0.000000
Si Si6 0.481278 0.795048 0.831710
Si Si7 0.797567 0.076791 0.273920
O O1 0.405644 0.913902 0.500000
O O2 0.429684 0.868756 0.234850
O O3 0.296032 0.929285 0.303508
O O4 0.412879 0.028732 0.319937
O O5 0.407247 0.559528 0.684551
O O6 0.465720 0.656367 0.500000
O O7 0.457583 0.708959 0.763421
O O8 0.391949 0.143135 0.500000
O O9 0.292024 0.122530 0.284575
O O10 0.432962 0.182082 0.236820
O O11 0.065310 0.761181 0.500000
O O12 0.162212 0.854885 0.637024
O O13 0.013465 0.830538 0.707846
O O14 0.899489 0.830452 0.873839
O O15 0.025388 0.893917 0.000000
O O16 0.479810 0.794284 0.000000
#
# Coordination Sequence:
#
# PCOD9543444 Si02
#       7
#     8   8   8   8   4   8   8
#     4  10  22  40  63  87 113 155 207 255 299 346
#     4   9  20  42  71  96 118 152 196 239 287 344
#     4   9  20  40  61  83 115 157 204 252 300 346
#     4  10  20  36  58  84 112 149 201 258 301 339
#     4  11  22  38  54  80 119 169 209 238 303 379
#     4  12  25  39  60  95 127 157 191 232 294 363
#     4  11  21  37  56  83 115 155 202 251 299 354
#
# _framework density 19.438594999999999
#
# number of rings (size 3 to 8) (size 9 to 14) (size 15 to 20)
#    0.000    1.769    1.538    4.615    1.077    4.615 
#    5.538    3.077    0.000    0.000    0.000    0.000 
#    0.000    0.000    0.000    0.000    0.000    0.000 
#
# Total GULP energy -289515.582703 kJ/mol
# GULP energy per Si atom -5567.607360 kJ/mol
# Density = 1.939435 g / cm^3
# Si number density = 19.438595 Si / 1000 Ang^3
#
#
#
# Elastic Constant Matrix: (Units=GPa)
#
#
# Indices 1 2 3 4 5 6 
#
# 1 38.5303 2.2305 15.6071 0.0000 0.0000 3.2804
# 2 2.2305 38.5303 15.6071 0.0000 0.0000 -3.2804
# 3 15.6071 15.6071 127.7604 0.0000 0.0000 0.0000
# 4 0.0000 0.0000 0.0000 19.4920 0.0000 0.0000
# 5 0.0000 0.0000 0.0000 0.0000 19.4920 0.0000
# 6 3.2804 -3.2804 0.0000 0.0000 0.0000 21.2461
#
#
#
# Elastic Compliance Matrix: (Units=1/GPa)
#
#
# Indices 1 2 3 4 5 6 
#
# 1 0.027702 -0.000637 -0.003306 0.000000 0.000000 -0.004376
# 2 -0.000637 0.027702 -0.003306 0.000000 0.000000 0.004376
# 3 -0.003306 -0.003306 0.008635 0.000000 0.000000 0.000000
# 4 0.000000 0.000000 0.000000 0.051303 0.000000 0.000000
# 5 0.000000 0.000000 0.000000 0.000000 0.051303 0.000000
# 6 -0.004376 0.004376 0.000000 0.000000 0.000000 0.048419
#
#
# Mechanical properties :
#
#
# Convention : Reuss Voigt Hill
#
# Bulk Modulus (GPa) = 20.18554 30.19005 25.18780
# Shear Modulus (GPa) = 20.31888 23.47112 21.89500
#
# Velocity S-wave (km/s) = 3.23659 3.47861 3.35978
# Velocity P-wave (km/s) = 4.93702 5.63018 5.29496
#
# Compressibility (1/GPa) = 0.04954042
#
# Stress axis : x y z
#
# Youngs Moduli (GPa) = 36.09815 36.09815 115.80866
#
# Poissons Ratio (x) = 0.02299 0.38290
# Poissons Ratio (y) = 0.02299 0.38290
# Poissons Ratio (z) = 0.11935 0.11935
#
# Static dielectric constant tensor:
#      x y z
#    x 1.732030 0.000000 0.000000 
#    y 0.000000 1.732030 0.000000 
#    z 0.000000 0.000000 1.774530 
# 
# From -- ./inp_files/955.got.cif
#   From: 2010.05.17/outbox.cif.g08.bks.cpg/sg83_1_cif.got.tgz:955.got - 2010.06.03 18:55:12.
