data_PCOD9543934
_publ_section_title
;
Structure prediction by ZEFSAII (Michael W. Deem and Ramdas Pophale) SiO2 
 PCOD9543934
Probable space group: P 4/M
;
_chemical_formula_sum "Si O2"
_cell_formula_units_Z 49
_cell_length_a 9.000000
_cell_length_b 9.000000
_cell_length_c 30.000000
_cell_angle_alpha 90.000000
_cell_angle_beta 90.000000
_cell_angle_gamma 90.000000
_cell_volume 2430.000000
_symmetry_space_group_name_H-M "P 4/M"
_symmetry_group_IT_number 83
_symmetry_cell_setting 'tetragonal'
loop_
_space_group_symop_operation_xyz
x,y,z
-y,x,z
-x,-y,z
y,-x,z
-x,-y,-z
y,-x,-z
x,y,-z
-y,x,-z
loop_
_atom_site_type_symbol
_atom_site_label
_atom_site_fract_x
_atom_site_fract_y
_atom_site_fract_z
Si Si1 0.398765 0.719805 0.929382
Si Si2 0.500000 0.000000 0.390571
Si Si3 0.237059 0.930260 0.666810
Si Si4 0.764059 0.926922 0.447256
Si Si5 0.729910 0.575264 0.176497
Si Si6 0.764457 0.064940 0.227950
Si Si7 0.949269 0.672486 0.000000
Si Si8 0.000000 0.000000 0.000000
O O1 0.310947 0.569978 0.941767
O O2 0.405231 0.742160 0.876503
O O3 0.327580 0.854534 0.954641
O O4 0.388793 0.906479 0.359462
O O5 0.610999 0.904989 0.421410
O O6 0.264646 0.924171 0.719475
O O7 0.097816 0.822737 0.657090
O O8 0.738615 0.917158 0.500000
O O9 0.904725 0.821440 0.437419
O O10 0.589817 0.679408 0.188757
O O11 0.877273 0.627357 0.200289
O O12 0.902265 0.174757 0.217858
O O13 0.000000 0.500000 0.000000
O O14 0.045973 0.821328 0.000000
#
# Coordination Sequence:
#
# PCOD9543934 Si02
#       8
#     8   4   8   8   8   8   4   1
#     4   9  18  37  63  87 115 161 207 242 298 376
#     4  12  19  28  56  88 106 136 190 237 280 328
#     4   9  20  37  55  76 110 146 185 233 281 340
#     4   9  19  36  56  79 111 149 189 234 283 337
#     4   9  19  36  57  84 116 147 190 238 284 348
#     4   9  19  37  55  78 108 147 190 232 286 344
#     4  12  24  43  64  87 130 166 202 256 326 366
#     4  12  28  44  60 104 132 156 212 284 300 384
#
# _framework density 20.164608999999999
#
# number of rings (size 3 to 8) (size 9 to 14) (size 15 to 20)
#    0.000    2.449    0.000    5.143    0.000    5.224 
#    8.816    0.000    0.000    7.837    0.000    9.143 
#    0.000    0.000    0.000    0.000    0.000    0.000 
#
# Total GULP energy -273005.342885 kJ/mol
# GULP energy per Si atom -5571.537610 kJ/mol
# Density = 2.011871 g / cm^3
# Si number density = 20.164609 Si / 1000 Ang^3
#
#
#
# Elastic Constant Matrix: (Units=GPa)
#
#
# Indices 1 2 3 4 5 6 
#
# 1 81.0451 49.2255 38.7385 0.0000 0.0000 4.3880
# 2 49.2255 81.0451 38.7385 0.0000 0.0000 -4.3880
# 3 38.7385 38.7385 29.4749 0.0000 0.0000 0.0000
# 4 0.0000 0.0000 0.0000 44.0199 0.0000 0.0000
# 5 0.0000 0.0000 0.0000 0.0000 44.0199 0.0000
# 6 4.3880 -4.3880 0.0000 0.0000 0.0000 25.5339
#
#
#
# Elastic Compliance Matrix: (Units=1/GPa)
#
#
# Indices 1 2 3 4 5 6 
#
# 1 0.034074 0.001083 -0.046207 0.000000 0.000000 -0.005670
# 2 0.001083 0.034074 -0.046207 0.000000 0.000000 0.005670
# 3 -0.046207 -0.046207 0.155386 0.000000 0.000000 0.000000
# 4 0.000000 0.000000 0.000000 0.022717 0.000000 0.000000
# 5 0.000000 0.000000 0.000000 0.000000 0.022717 0.000000
# 6 -0.005670 0.005670 0.000000 0.000000 0.000000 0.041112
#
#
# Mechanical properties :
#
#
# Convention : Reuss Voigt Hill
#
# Bulk Modulus (GPa) = 24.46623 49.44113 36.95368
# Shear Modulus (GPa) = 9.87429 27.03894 18.45661
#
# Velocity S-wave (km/s) = 2.21528 3.66582 3.02867
# Velocity P-wave (km/s) = 4.32468 6.51841 5.53139
#
# Compressibility (1/GPa) = 0.04087267
#
# Stress axis : x y z
#
# Youngs Moduli (GPa) = 29.34777 29.34777 6.43560
#
# Poissons Ratio (x) = -0.03179 0.29737
# Poissons Ratio (y) = -0.03179 0.29737
# Poissons Ratio (z) = 1.35607 1.35607
#
# Static dielectric constant tensor:
#      x y z
#    x 1.737770 0.000000 0.000000 
#    y 0.000000 1.737770 0.000000 
#    z 0.000000 0.000000 1.747540 
# 
# From -- ./inp_files/3528.got.cif
#   From: 2010.05.17/outbox.ucp.g08.bks.cvg/sg83_2_cif.got.tgz:3528.got - 2010.06.11 10:34:49.
