data_PCOD9543877
_publ_section_title
;
Structure prediction by ZEFSAII (Michael W. Deem and Ramdas Pophale) SiO2 
 PCOD9543877
Probable space group: P 4/M
;
_chemical_formula_sum "Si O2"
_cell_formula_units_Z 33
_cell_length_a 8.556045
_cell_length_b 8.556045
_cell_length_c 22.474345
_cell_angle_alpha 90.000000
_cell_angle_beta 90.000000
_cell_angle_gamma 90.000000
_cell_volume 1645.254788
_symmetry_space_group_name_H-M "P 4/M"
_symmetry_group_IT_number 83
_symmetry_cell_setting 'tetragonal'
loop_
_space_group_symop_operation_xyz
x,y,z
-y,x,z
-x,-y,z
y,-x,z
-x,-y,-z
y,-x,-z
x,y,-z
-y,x,-z
loop_
_atom_site_type_symbol
_atom_site_label
_atom_site_fract_x
_atom_site_fract_y
_atom_site_fract_z
Si Si1 0.500000 0.500000 0.000000
Si Si2 0.500000 0.000000 0.340683
Si Si3 0.171687 0.573182 0.000000
Si Si4 0.424175 0.752029 0.432027
Si Si5 0.238274 0.111745 0.117919
Si Si6 0.249507 0.089119 0.250862
O O1 0.315119 0.452785 0.000000
O O2 0.598045 0.113661 0.383836
O O3 0.385842 0.102131 0.298944
O O4 0.169298 0.662066 0.063118
O O5 0.000000 0.500000 0.000000
O O6 0.313020 0.601493 0.425294
O O7 0.406265 0.809350 0.500000
O O8 0.308355 0.128132 0.184142
O O9 0.072051 0.198886 0.113900
O O10 0.091618 0.191289 0.256522
#
# Coordination Sequence:
#
# PCOD9543877 Si02
#       6
#     1   4   4   8   8   8
#     4  12  28  44  60 112 132 148 228 284 310 400
#     4  12  19  30  56  83 108 138 192 234 294 339
#     4  12  24  39  64  85 128 166 194 260 336 364
#     4   9  19  35  53  75 107 144 183 231 286 350
#     4   9  18  36  60  83 108 153 208 240 292 378
#     4   9  20  36  53  77 113 148 187 236 284 352
#
# _framework density 20.057686
#
# number of rings (size 3 to 8) (size 9 to 14) (size 15 to 20)
#    0.000    2.182    0.000    6.182    1.697    0.970 
#    0.000    0.000    0.000    0.000    0.000   10.182 
#    0.000    0.000    0.000    0.000    0.000    0.000 
#
# Total GULP energy -183847.254974 kJ/mol
# GULP energy per Si atom -5571.128939 kJ/mol
# Density = 2.001203 g / cm^3
# Si number density = 20.057686 Si / 1000 Ang^3
#
#
#
# Elastic Constant Matrix: (Units=GPa)
#
#
# Indices 1 2 3 4 5 6 
#
# 1 33.5374 -0.9177 34.3679 0.0000 0.0000 1.2849
# 2 -0.9177 33.5374 34.3679 0.0000 0.0000 -1.2849
# 3 34.3679 34.3679 157.4914 0.0000 0.0000 0.0000
# 4 0.0000 0.0000 0.0000 21.2264 0.0000 0.0000
# 5 0.0000 0.0000 0.0000 0.0000 21.2264 0.0000
# 6 1.2849 -1.2849 0.0000 0.0000 0.0000 15.5720
#
#
#
# Elastic Compliance Matrix: (Units=1/GPa)
#
#
# Indices 1 2 3 4 5 6 
#
# 1 0.042978 0.013775 -0.012385 0.000000 0.000000 -0.002410
# 2 0.013775 0.042978 -0.012385 0.000000 0.000000 0.002410
# 3 -0.012385 -0.012385 0.011755 0.000000 0.000000 0.000000
# 4 0.000000 0.000000 0.000000 0.047111 0.000000 0.000000
# 5 0.000000 0.000000 0.000000 0.000000 0.047111 0.000000
# 6 -0.002410 0.002410 0.000000 0.000000 0.000000 0.064616
#
#
# Mechanical properties :
#
#
# Convention : Reuss Voigt Hill
#
# Bulk Modulus (GPa) = 13.20614 40.02246 26.61430
# Shear Modulus (GPa) = 16.45938 22.05485 19.25712
#
# Velocity S-wave (km/s) = 2.86772 3.31958 3.10189
# Velocity P-wave (km/s) = 4.19088 5.88980 5.11142
#
# Compressibility (1/GPa) = 0.07572235
#
# Stress axis : x y z
#
# Youngs Moduli (GPa) = 23.26767 23.26767 85.07191
#
# Poissons Ratio (x) = -0.32052 1.05359
# Poissons Ratio (y) = -0.32052 1.05359
# Poissons Ratio (z) = 0.28816 0.28816
#
# Static dielectric constant tensor:
#      x y z
#    x 1.735870 0.000000 0.000000 
#    y 0.000000 1.735870 0.000000 
#    z 0.000000 0.000000 1.715830 
# 
# From -- ./inp_files/2896.got.cif
#   From: 2010.05.17/outbox.cif.g08.bks.cpg/sg83_2_cif.got.tgz:2896.got - 2010.06.03 18:55:12.
