data_PCOD9543110
_publ_section_title
;
Structure prediction by ZEFSAII (Michael W. Deem and Ramdas Pophale) SiO2 
 PCOD9543110
Probable space group: I -4 
;
_chemical_formula_sum "Si O2"
_cell_formula_units_Z 44
_cell_length_a 18.709177
_cell_length_b 18.709177
_cell_length_c 6.455191
_cell_angle_alpha 90.000000
_cell_angle_beta 90.000000
_cell_angle_gamma 90.000000
_cell_volume 2259.531834
_symmetry_space_group_name_H-M "I -4 "
_symmetry_group_IT_number 82
_symmetry_cell_setting 'tetragonal'
loop_
_space_group_symop_operation_xyz
x,y,z
y,-x,-z
-x,-y,z
-y,x,-z
1/2+x,1/2+y,1/2+z
1/2+y,1/2-x,1/2-z
1/2-x,1/2-y,1/2+z
1/2-y,1/2+x,1/2-z
loop_
_atom_site_type_symbol
_atom_site_label
_atom_site_fract_x
_atom_site_fract_y
_atom_site_fract_z
Si Si1 0.448017 0.135888 0.505961
Si Si2 0.500000 0.000000 0.250000
Si Si3 0.000000 0.000000 0.000000
Si Si4 0.085935 0.054841 0.378704
Si Si5 0.156877 0.791415 0.496894
Si Si6 0.664091 0.800790 0.199037
Si Si7 0.678788 0.907548 0.813466
O O1 0.484170 0.068767 0.390841
O O2 0.404982 0.181901 0.337070
O O3 0.390100 0.106555 0.668664
O O4 0.510223 0.179410 0.618862
O O5 0.035293 0.941506 0.849485
O O6 0.155658 0.102657 0.389768
O O7 0.019716 0.093635 0.496064
O O8 0.189585 0.733225 0.654073
O O9 0.222172 0.834665 0.396606
O O10 0.116093 0.747290 0.318598
O O11 0.670644 0.858227 0.015341
#
# Coordination Sequence:
#
# PCOD9543110 Si02
#       7
#     8   2   2   8   8   8   8
#     4  11  24  40  68  97 133 171 225 264 325 383
#     4  12  20  42  68  96 130 176 216 282 304 384
#     4   8  18  44  68  98 124 160 214 288 324 398
#     4   9  21  42  67  98 127 161 218 270 332 398
#     4  11  24  44  67  94 135 174 213 273 327 390
#     4  11  24  43  65  94 131 176 222 261 323 394
#     4  11  24  43  65  96 133 176 214 272 321 381
#
# _framework density 19.473058999999999
#
# number of rings (size 3 to 8) (size 9 to 14) (size 15 to 20)
#    0.000    1.636    3.636    1.091    0.000    5.818 
#    0.000    1.818    0.000    0.000    0.000    0.000 
#    0.000    0.000    0.000    0.000    0.000    0.000 
#
# Total GULP energy -123006.078547 kJ/mol
# GULP energy per Si atom -5591.185389 kJ/mol
# Density = 1.942874 g / cm^3
# Si number density = 19.473059 Si / 1000 Ang^3
#
#
#
# Elastic Constant Matrix: (Units=GPa)
#
#
# Indices 1 2 3 4 5 6 
#
# 1 66.9336 32.0232 28.0189 0.0000 0.0000 4.3811
# 2 32.0232 66.9336 28.0189 0.0000 0.0000 -4.3811
# 3 28.0189 28.0189 110.8707 0.0000 0.0000 0.0000
# 4 0.0000 0.0000 0.0000 18.1351 0.0000 0.0000
# 5 0.0000 0.0000 0.0000 0.0000 18.1351 0.0000
# 6 4.3811 -4.3811 0.0000 0.0000 0.0000 24.8226
#
#
#
# Elastic Compliance Matrix: (Units=1/GPa)
#
#
# Indices 1 2 3 4 5 6 
#
# 1 0.020883 -0.009090 -0.002980 0.000000 0.000000 -0.005290
# 2 -0.009090 0.020883 -0.002980 0.000000 0.000000 0.005290
# 3 -0.002980 -0.002980 0.010526 0.000000 0.000000 0.000000
# 4 0.000000 0.000000 0.000000 0.055142 0.000000 0.000000
# 5 0.000000 0.000000 0.000000 0.000000 0.055142 0.000000
# 6 -0.005290 0.005290 0.000000 0.000000 0.000000 0.042153
#
#
# Mechanical properties :
#
#
# Convention : Reuss Voigt Hill
#
# Bulk Modulus (GPa) = 45.06364 46.76221 45.91293
# Shear Modulus (GPa) = 20.64191 22.66368 21.65279
#
# Velocity S-wave (km/s) = 3.25933 3.41522 3.33819
# Velocity P-wave (km/s) = 6.11196 6.29425 6.20378
#
# Compressibility (1/GPa) = 0.02219084
#
# Stress axis : x y z
#
# Youngs Moduli (GPa) = 47.88625 47.88625 95.00398
#
# Poissons Ratio (x) = 0.43527 0.28314
# Poissons Ratio (y) = 0.43527 0.28314
# Poissons Ratio (z) = 0.14272 0.14272
#
# Static dielectric constant tensor:
#      x y z
#    x 1.660870 0.000000 0.000000 
#    y 0.000000 1.660870 0.000000 
#    z 0.000000 0.000000 1.668630 
# 
# From -- ./inp_files/323.got.cif
#   From: 2010.05.17/outbox.cif.g08.bks.cpg/sg82_1_cif.got.tgz:323.got - 2010.06.03 18:52:26.
