data_PCOD9543304
_publ_section_title
;
Structure prediction by ZEFSAII (Michael W. Deem and Ramdas Pophale) SiO2 
 PCOD9543304
Probable space group: P 4/M
;
_chemical_formula_sum "Si O2"
_cell_formula_units_Z 52
_cell_length_a 16.780166
_cell_length_b 16.780166
_cell_length_c 10.578678
_cell_angle_alpha 90.000000
_cell_angle_beta 90.000000
_cell_angle_gamma 90.000000
_cell_volume 2978.680372
_symmetry_space_group_name_H-M "P 4/M"
_symmetry_group_IT_number 83
_symmetry_cell_setting 'tetragonal'
loop_
_space_group_symop_operation_xyz
x,y,z
-y,x,z
-x,-y,z
y,-x,z
-x,-y,-z
y,-x,-z
x,y,-z
-y,x,-z
loop_
_atom_site_type_symbol
_atom_site_label
_atom_site_fract_x
_atom_site_fract_y
_atom_site_fract_z
Si Si1 0.368146 0.891153 0.349913
Si Si2 0.516013 0.633803 0.852217
Si Si3 0.393878 0.065760 0.350699
Si Si4 0.077241 0.795218 0.640594
Si Si5 0.131895 0.973070 0.000000
Si Si6 0.511959 0.777091 0.651981
Si Si7 0.803940 0.085818 0.253904
O O1 0.351806 0.901673 0.500000
O O2 0.423661 0.814692 0.336478
O O3 0.284561 0.884022 0.279933
O O4 0.409889 0.974622 0.307057
O O5 0.432609 0.585568 0.836918
O O6 0.522577 0.702665 0.746208
O O7 0.519222 0.661854 0.000000
O O8 0.414543 0.065371 0.500000
O O9 0.298959 0.075226 0.334830
O O10 0.434393 0.146994 0.304936
O O11 0.109413 0.807673 0.500000
O O12 0.133047 0.844113 0.732701
O O13 0.985819 0.822731 0.649133
O O14 0.185358 0.957117 0.878939
O O15 0.058797 0.910079 0.000000
O O16 0.526029 0.759982 0.500000
#
# Coordination Sequence:
#
# PCOD9543304 Si02
#       7
#     8   8   8   8   4   8   8
#     4   9  18  33  54  81 109 139 175 217 265 318
#     4   9  20  40  61  78 107 148 181 212 260 322
#     4   8  16  31  52  78 110 142 169 208 266 321
#     4  10  19  31  50  76 103 134 175 220 268 318
#     4  11  22  38  52  68  97 143 191 230 271 319
#     4  10  19  33  60  90 112 136 173 221 267 314
#     4  11  20  34  50  70 102 142 178 221 266 314
#
# _framework density 17.457395000000002
#
# number of rings (size 3 to 8) (size 9 to 14) (size 15 to 20)
#    0.000    2.385    1.538    3.231    0.000    4.000 
#    1.385    4.615    8.462    0.923    0.000    0.000 
#    0.000    0.000    0.000    0.000    0.000    0.000 
#
# Total GULP energy -289515.944199 kJ/mol
# GULP energy per Si atom -5567.614312 kJ/mol
# Density = 1.741766 g / cm^3
# Si number density = 17.457395 Si / 1000 Ang^3
#
#
#
# Elastic Constant Matrix: (Units=GPa)
#
#
# Indices 1 2 3 4 5 6 
#
# 1 46.7066 0.1964 22.4456 0.0000 0.0000 -0.0930
# 2 0.1964 46.7066 22.4456 0.0000 0.0000 0.0930
# 3 22.4456 22.4456 65.0400 0.0000 0.0000 0.0000
# 4 0.0000 0.0000 0.0000 15.9785 0.0000 0.0000
# 5 0.0000 0.0000 0.0000 0.0000 15.9785 0.0000
# 6 -0.0930 0.0930 0.0000 0.0000 0.0000 15.7944
#
#
#
# Elastic Compliance Matrix: (Units=1/GPa)
#
#
# Indices 1 2 3 4 5 6 
#
# 1 0.026669 0.005168 -0.010987 0.000000 0.000000 0.000127
# 2 0.005168 0.026669 -0.010987 0.000000 0.000000 -0.000127
# 3 -0.010987 -0.010987 0.022958 0.000000 0.000000 0.000000
# 4 0.000000 0.000000 0.000000 0.062584 0.000000 0.000000
# 5 0.000000 0.000000 0.000000 0.000000 0.062584 0.000000
# 6 0.000127 -0.000127 0.000000 0.000000 0.000000 0.063315
#
#
# Mechanical properties :
#
#
# Convention : Reuss Voigt Hill
#
# Bulk Modulus (GPa) = 23.42827 27.62539 25.52683
# Shear Modulus (GPa) = 15.99388 17.10796 16.55092
#
# Velocity S-wave (km/s) = 3.03011 3.13386 3.08242
# Velocity P-wave (km/s) = 5.06867 5.38086 5.22710
#
# Compressibility (1/GPa) = 0.04268347
#
# Stress axis : x y z
#
# Youngs Moduli (GPa) = 37.49714 37.49714 43.55711
#
# Poissons Ratio (x) = -0.19377 0.47855
# Poissons Ratio (y) = -0.19377 0.47855
# Poissons Ratio (z) = 0.41197 0.41197
#
# Static dielectric constant tensor:
#      x y z
#    x 1.608100 0.000000 0.000000 
#    y 0.000000 1.608100 0.000000 
#    z 0.000000 0.000000 1.594050 
# 
# From -- ./inp_files/958.got.cif
#   From: 2010.05.17/outbox.cif.g08.bks.cpg/sg83_1_cif.got.tgz:958.got - 2010.06.03 18:55:12.
