data_PCOD9543749
_publ_section_title
;
Structure prediction by ZEFSAII (Michael W. Deem and Ramdas Pophale) SiO2 
 PCOD9543749
Probable space group: P 4/M
;
_chemical_formula_sum "Si O2"
_cell_formula_units_Z 48
_cell_length_a 8.020014
_cell_length_b 8.020014
_cell_length_c 33.025379
_cell_angle_alpha 90.000000
_cell_angle_beta 90.000000
_cell_angle_gamma 90.000000
_cell_volume 2124.213004
_symmetry_space_group_name_H-M "P 4/M"
_symmetry_group_IT_number 83
_symmetry_cell_setting 'tetragonal'
loop_
_space_group_symop_operation_xyz
x,y,z
-y,x,z
-x,-y,z
y,-x,z
-x,-y,-z
y,-x,-z
x,y,-z
-y,x,-z
loop_
_atom_site_type_symbol
_atom_site_label
_atom_site_fract_x
_atom_site_fract_y
_atom_site_fract_z
Si Si1 0.766896 0.582230 0.797579
Si Si2 0.107487 0.263177 0.543341
Si Si3 0.263685 0.895483 0.370067
Si Si4 0.734371 0.096778 0.282311
Si Si5 0.267303 0.919371 0.876128
Si Si6 0.591681 0.233535 0.044757
O O1 0.604596 0.700575 0.798920
O O2 0.857743 0.623022 0.755705
O O3 0.873690 0.627387 0.836749
O O4 0.142543 0.348441 0.500000
O O5 0.140985 0.349192 0.586672
O O6 0.912824 0.207502 0.543343
O O7 0.345988 0.866549 0.326448
O O8 0.089273 0.793531 0.370064
O O9 0.905428 0.204486 0.280216
O O10 0.359964 0.880003 0.917835
O O11 0.105725 0.800098 0.874943
O O12 0.702690 0.401854 0.047320
O O13 0.620160 0.159261 0.000000
#
# Coordination Sequence:
#
# PCOD9543749 Si02
#       6
#     8   8   8   8   8   8
#     4  11  24  39  54  73  97 126 163 206 250 297
#     4   7   8  10  19  39  71 111 148 177 211 262
#     4   7  10  17  30  51  81 115 148 183 224 272
#     4   9  17  30  49  72  97 125 158 196 240 292
#     4  11  24  39  56  81 110 137 168 207 249 294
#     4   9  19  37  60  85 113 145 180 214 246 283
#
# _framework density 22.596602000000001
#
# number of rings (size 3 to 8) (size 9 to 14) (size 15 to 20)
#    0.000    3.000    0.000    5.000    0.000    8.000 
#    0.000    2.500    0.000    0.000    0.000    0.000 
#    0.000    1.333    0.000   14.833    0.000   13.333 
#
# Total GULP energy -268253.197068 kJ/mol
# GULP energy per Si atom -5588.608272 kJ/mol
# Density = 2.254517 g / cm^3
# Si number density = 22.596602 Si / 1000 Ang^3
#
#
#
# Elastic Constant Matrix: (Units=GPa)
#
#
# Indices 1 2 3 4 5 6 
#
# 1 54.5194 42.3096 60.0569 0.0000 0.0000 1.9378
# 2 42.3096 54.5194 60.0569 0.0000 0.0000 -1.9378
# 3 60.0569 60.0569 273.0013 0.0000 0.0000 0.0000
# 4 0.0000 0.0000 0.0000 72.1616 0.0000 0.0000
# 5 0.0000 0.0000 0.0000 0.0000 72.1616 0.0000
# 6 1.9378 -1.9378 0.0000 0.0000 0.0000 30.1052
#
#
#
# Elastic Compliance Matrix: (Units=1/GPa)
#
#
# Indices 1 2 3 4 5 6 
#
# 1 0.048906 -0.034703 -0.003125 0.000000 0.000000 -0.005382
# 2 -0.034703 0.048906 -0.003125 0.000000 0.000000 0.005382
# 3 -0.003125 -0.003125 0.005038 0.000000 0.000000 0.000000
# 4 0.000000 0.000000 0.000000 0.013858 0.000000 0.000000
# 5 0.000000 0.000000 0.000000 0.000000 0.013858 0.000000
# 6 -0.005382 0.005382 0.000000 0.000000 0.000000 0.033910
#
#
# Mechanical properties :
#
#
# Convention : Reuss Voigt Hill
#
# Bulk Modulus (GPa) = 47.74117 78.54301 63.14209
# Shear Modulus (GPa) = 19.73461 49.52679 34.63070
#
# Velocity S-wave (km/s) = 2.95845 4.68672 3.91904
# Velocity P-wave (km/s) = 5.73091 8.00758 6.96293
#
# Compressibility (1/GPa) = 0.02094628
#
# Stress axis : x y z
#
# Youngs Moduli (GPa) = 20.44724 20.44724 198.50230
#
# Poissons Ratio (x) = 0.70958 0.62024
# Poissons Ratio (y) = 0.70958 0.62024
# Poissons Ratio (z) = 0.06389 0.06389
#
# Static dielectric constant tensor:
#      x y z
#    x 1.826690 0.000000 0.000000 
#    y 0.000000 1.826690 0.000000 
#    z 0.000000 0.000000 1.869560 
# 
# From -- ./inp_files/3411.got.cif
#   From: 2010.05.17/outbox.cif.g08.bks.cpg/sg83_2_cif.got.tgz:3411.got - 2010.06.03 18:55:12.
