data_PCOD9543384
_publ_section_title
;
Structure prediction by ZEFSAII (Michael W. Deem and Ramdas Pophale) SiO2 
 PCOD9543384
Probable space group: P 4/M
;
_chemical_formula_sum "Si O2"
_cell_formula_units_Z 64
_cell_length_a 18.944956
_cell_length_b 18.944956
_cell_length_c 7.385046
_cell_angle_alpha 90.000000
_cell_angle_beta 90.000000
_cell_angle_gamma 90.000000
_cell_volume 2650.576888
_symmetry_space_group_name_H-M "P 4/M"
_symmetry_group_IT_number 83
_symmetry_cell_setting 'tetragonal'
loop_
_space_group_symop_operation_xyz
x,y,z
-y,x,z
-x,-y,z
y,-x,z
-x,-y,-z
y,-x,-z
x,y,-z
-y,x,-z
loop_
_atom_site_type_symbol
_atom_site_label
_atom_site_fract_x
_atom_site_fract_y
_atom_site_fract_z
Si Si1 0.979189 0.675105 0.219789
Si Si2 0.543669 0.114474 0.792448
Si Si3 0.610381 0.475998 0.779461
Si Si4 0.124894 0.616473 0.778336
Si Si5 0.220586 0.860256 0.292626
Si Si6 0.719283 0.373415 0.216458
Si Si7 0.649132 0.229092 0.713849
Si Si8 0.080591 0.080451 0.721047
O O1 0.936674 0.604695 0.282577
O O2 0.937417 0.742828 0.289815
O O3 0.059791 0.665227 0.276215
O O4 0.975395 0.677710 0.000000
O O5 0.464811 0.113644 0.717177
O O6 0.579421 0.192025 0.790380
O O7 0.535318 0.091498 0.000000
O O8 0.580789 0.551099 0.722473
O O9 0.685120 0.446493 0.717220
O O10 0.611148 0.477971 0.000000
O O11 0.202085 0.640469 0.715912
O O12 0.124738 0.615990 0.000000
O O13 0.081914 0.918285 0.500000
O O14 0.281089 0.810813 0.210060
O O15 0.142677 0.868380 0.213553
O O16 0.665224 0.310378 0.254622
O O17 0.724597 0.378818 0.000000
O O18 0.645339 0.215903 0.500000
O O19 0.787663 0.163424 0.500000
O O20 0.999607 0.096368 0.775718
#
# Coordination Sequence:
#
# PCOD9543384 Si02
#       8
#     8   8   8   8   8   8   8   8
#     4   9  17  31  50  74 103 131 162 201 246 294
#     4   9  17  32  56  76  94 129 170 206 246 295
#     4   8  15  28  48  74  98 120 156 208 253 286
#     4   9  18  31  50  78 104 127 164 211 251 291
#     4   9  18  32  50  71  96 130 166 198 241 294
#     4  10  20  32  51  75 100 131 167 206 248 301
#     4  10  21  35  48  69 103 133 162 204 249 299
#     4   8  14  26  46  71  93 115 155 207 245 276
#
# _framework density 24.145686999999999
#
# number of rings (size 3 to 8) (size 9 to 14) (size 15 to 20)
#    0.000    3.000    0.000    1.500    1.750    3.000 
#    0.000    3.125    0.000    3.750    0.000    1.750 
#    0.000    0.000    0.000    0.000    0.000    0.000 
#
# Total GULP energy -357384.066616 kJ/mol
# GULP energy per Si atom -5584.126041 kJ/mol
# Density = 2.409073 g / cm^3
# Si number density = 24.145687 Si / 1000 Ang^3
#
#
#
# Elastic Constant Matrix: (Units=GPa)
#
#
# Indices 1 2 3 4 5 6 
#
# 1 31.8638 25.6606 -7.9761 0.0000 0.0000 -3.5804
# 2 25.6606 31.8638 -7.9761 0.0000 0.0000 3.5804
# 3 -7.9761 -7.9761 89.1163 0.0000 0.0000 0.0000
# 4 0.0000 0.0000 0.0000 4.4980 0.0000 0.0000
# 5 0.0000 0.0000 0.0000 0.0000 4.4980 0.0000
# 6 -3.5804 3.5804 0.0000 0.0000 0.0000 18.6782
#
#
#
# Elastic Compliance Matrix: (Units=1/GPa)
#
#
# Indices 1 2 3 4 5 6 
#
# 1 0.112419 -0.094593 0.001596 0.000000 0.000000 0.039681
# 2 -0.094593 0.112419 0.001596 0.000000 0.000000 -0.039681
# 3 0.001596 0.001596 0.011507 0.000000 0.000000 0.000000
# 4 0.000000 0.000000 0.000000 0.222319 0.000000 0.000000
# 5 0.000000 0.000000 0.000000 0.000000 0.222319 0.000000
# 6 0.039681 -0.039681 0.000000 0.000000 0.000000 0.068751
#
#
# Mechanical properties :
#
#
# Convention : Reuss Voigt Hill
#
# Bulk Modulus (GPa) = 18.67705 19.14007 18.90856
# Shear Modulus (GPa) = 5.26102 15.07723 10.16913
#
# Velocity S-wave (km/s) = 1.47770 2.50157 2.05444
# Velocity P-wave (km/s) = 3.26549 4.03583 3.67092
#
# Compressibility (1/GPa) = 0.05354165
#
# Stress axis : x y z
#
# Youngs Moduli (GPa) = 8.89530 8.89530 86.90438
#
# Poissons Ratio (x) = 0.84143 -0.13866
# Poissons Ratio (y) = 0.84143 -0.13866
# Poissons Ratio (z) = -0.01419 -0.01419
#
# Static dielectric constant tensor:
#      x y z
#    x 1.918480 0.000000 0.000000 
#    y 0.000000 1.918480 0.000000 
#    z 0.000000 0.000000 1.942830 
# 
# From -- ./inp_files/2068.got.cif
#   From: 2010.05.17/outbox.cif.g08.bks.cpg/sg83_2_cif.got.tgz:2068.got - 2010.06.03 18:55:12.
