data_PCOD9543050
_publ_section_title
;
Structure prediction by ZEFSAII (Michael W. Deem and Ramdas Pophale) SiO2 
 PCOD9543050
Probable space group: I -4 
;
_chemical_formula_sum "Si O2"
_cell_formula_units_Z 32
_cell_length_a 12.953883
_cell_length_b 12.953883
_cell_length_c 8.714191
_cell_angle_alpha 90.000000
_cell_angle_beta 90.000000
_cell_angle_gamma 90.000000
_cell_volume 1462.268131
_symmetry_space_group_name_H-M "I -4 "
_symmetry_group_IT_number 82
_symmetry_cell_setting 'tetragonal'
loop_
_space_group_symop_operation_xyz
x,y,z
y,-x,-z
-x,-y,z
-y,x,-z
1/2+x,1/2+y,1/2+z
1/2+y,1/2-x,1/2-z
1/2-x,1/2-y,1/2+z
1/2-y,1/2+x,1/2-z
loop_
_atom_site_type_symbol
_atom_site_label
_atom_site_fract_x
_atom_site_fract_y
_atom_site_fract_z
Si Si1 0.160750 0.301342 0.421838
Si Si2 0.037620 0.759062 0.882417
Si Si3 0.829081 0.142660 0.298184
Si Si4 0.328456 0.547517 0.293012
O O1 0.166316 0.396688 0.542124
O O2 0.171209 0.201488 0.530389
O O3 0.259728 0.316133 0.313563
O O4 0.066399 0.274697 0.308730
O O5 0.114142 0.843420 0.807977
O O6 0.946877 0.751942 0.759121
O O7 0.982393 0.807456 0.031516
O O8 0.949420 0.113147 0.279896
#
# Coordination Sequence:
#
# PCOD9543050 Si02
#       4
#     8   8   8   8
#     4  11  23  40  62 100 133 175 217 284 340 404
#     4  11  21  41  65  91 133 169 218 275 343 398
#     4  11  23  39  67  92 139 168 228 275 344 404
#     4  11  22  38  62  98 125 170 217 280 339 395
#
# _framework density 21.88381
#
# number of rings (size 3 to 8) (size 9 to 14) (size 15 to 20)
#    0.000    1.000    7.500    0.750    3.500    0.000 
#    0.000    0.000    0.000   41.250    0.000    0.000 
#    0.000    0.000    0.000    0.000    0.000    0.000 
#
# Total GULP energy -89170.453027 kJ/mol
# GULP energy per Si atom -5573.153314 kJ/mol
# Density = 2.183400 g / cm^3
# Si number density = 21.883810 Si / 1000 Ang^3
#
#
#
# Elastic Constant Matrix: (Units=GPa)
#
#
# Indices 1 2 3 4 5 6 
#
# 1 38.5054 24.9773 24.0957 0.0000 0.0000 -2.1445
# 2 24.9773 38.5054 24.0957 0.0000 0.0000 2.1445
# 3 24.0957 24.0957 80.0393 0.0000 0.0000 0.0000
# 4 0.0000 0.0000 0.0000 34.4530 0.0000 0.0000
# 5 0.0000 0.0000 0.0000 0.0000 34.4530 0.0000
# 6 -2.1445 2.1445 0.0000 0.0000 0.0000 29.5832
#
#
#
# Elastic Compliance Matrix: (Units=1/GPa)
#
#
# Indices 1 2 3 4 5 6 
#
# 1 0.048039 -0.027620 -0.006147 0.000000 0.000000 0.005485
# 2 -0.027620 0.048039 -0.006147 0.000000 0.000000 -0.005485
# 3 -0.006147 -0.006147 0.016195 0.000000 0.000000 0.000000
# 4 0.000000 0.000000 0.000000 0.029025 0.000000 0.000000
# 5 0.000000 0.000000 0.000000 0.000000 0.029025 0.000000
# 6 0.005485 -0.005485 0.000000 0.000000 0.000000 0.034598
#
#
# Mechanical properties :
#
#
# Convention : Reuss Voigt Hill
#
# Bulk Modulus (GPa) = 30.82207 33.70972 32.26590
# Shear Modulus (GPa) = 16.91684 25.28992 21.10338
#
# Velocity S-wave (km/s) = 2.78336 3.40317 3.10875
# Velocity P-wave (km/s) = 4.94413 5.55693 5.25946
#
# Compressibility (1/GPa) = 0.03244428
#
# Stress axis : x y z
#
# Youngs Moduli (GPa) = 20.81655 20.81655 61.74759
#
# Poissons Ratio (x) = 0.57495 0.37956
# Poissons Ratio (y) = 0.57495 0.37956
# Poissons Ratio (z) = 0.12796 0.12796
#
# Static dielectric constant tensor:
#      x y z
#    x 1.848020 0.000000 0.000000 
#    y 0.000000 1.848020 0.000000 
#    z 0.000000 0.000000 1.760870 
# 
# From -- ./inp_files/770.got.cif
#   From: 2010.05.17/outbox.cif.g08.bks.cpg/sg82_1_cif.got.tgz:770.got - 2010.06.03 18:52:26.
