data_PCOD9543122
_publ_section_title
;
Structure prediction by ZEFSAII (Michael W. Deem and Ramdas Pophale) SiO2 
 PCOD9543122
Probable space group: I -4 
;
_chemical_formula_sum "Si O2"
_cell_formula_units_Z 36
_cell_length_a 13.150449
_cell_length_b 13.150449
_cell_length_c 8.276074
_cell_angle_alpha 90.000000
_cell_angle_beta 90.000000
_cell_angle_gamma 90.000000
_cell_volume 1431.217138
_symmetry_space_group_name_H-M "I -4 "
_symmetry_group_IT_number 82
_symmetry_cell_setting 'tetragonal'
loop_
_space_group_symop_operation_xyz
x,y,z
y,-x,-z
-x,-y,z
-y,x,-z
1/2+x,1/2+y,1/2+z
1/2+y,1/2-x,1/2-z
1/2-x,1/2-y,1/2+z
1/2-y,1/2+x,1/2-z
loop_
_atom_site_type_symbol
_atom_site_label
_atom_site_fract_x
_atom_site_fract_y
_atom_site_fract_z
Si Si1 0.822605 0.226681 0.968670
Si Si2 0.995863 0.646720 0.479755
Si Si3 0.034695 0.299886 0.110176
Si Si4 0.129653 0.823788 0.606264
Si Si5 0.500000 0.000000 0.250000
Si Si6 0.000000 0.000000 0.500000
O O1 0.774074 0.113235 0.984954
O O2 0.848424 0.219786 0.781621
O O3 0.731038 0.305431 0.000667
O O4 0.921472 0.258652 0.072045
O O5 0.088270 0.567264 0.446824
O O6 0.045830 0.750052 0.535369
O O7 0.951311 0.591552 0.640568
O O8 0.952331 0.679403 0.303249
O O9 0.078681 0.934429 0.606175
#
# Coordination Sequence:
#
# PCOD9543122 Si02
#       6
#     8   8   8   8   2   2
#     4  11  25  46  73 108 151 199 251 317 389 461
#     4  11  24  43  69 107 149 198 256 320 384 460
#     4  11  24  44  71 105 154 203 255 319 386 457
#     4  11  26  45  71 103 146 196 253 315 383 455
#     4  12  24  42  76 108 148 206 260 312 396 478
#     4  12  28  48  76 110 148 204 264 322 380 458
#
# _framework density 25.153416
#
# number of rings (size 3 to 8) (size 9 to 14) (size 15 to 20)
#    0.000    0.889    0.000    6.667    0.000   12.889 
#    0.000    0.000    0.000    1.333    0.000    0.000 
#    0.000    0.000    0.000    0.000    0.000    0.000 
#
# Total GULP energy -100502.797426 kJ/mol
# GULP energy per Si atom -5583.488746 kJ/mol
# Density = 2.509617 g / cm^3
# Si number density = 25.153416 Si / 1000 Ang^3
#
#
#
# Elastic Constant Matrix: (Units=GPa)
#
#
# Indices 1 2 3 4 5 6 
#
# 1 146.4816 69.9026 43.3546 0.0000 0.0000 15.9237
# 2 69.9026 146.4816 43.3546 0.0000 0.0000 -15.9237
# 3 43.3546 43.3546 120.9233 0.0000 0.0000 0.0000
# 4 0.0000 0.0000 0.0000 42.9204 0.0000 0.0000
# 5 0.0000 0.0000 0.0000 0.0000 42.9204 0.0000
# 6 15.9237 -15.9237 0.0000 0.0000 0.0000 42.6129
#
#
#
# Elastic Compliance Matrix: (Units=1/GPa)
#
#
# Indices 1 2 3 4 5 6 
#
# 1 0.010429 -0.005032 -0.001935 0.000000 0.000000 -0.005778
# 2 -0.005032 0.010429 -0.001935 0.000000 0.000000 0.005778
# 3 -0.001935 -0.001935 0.009657 0.000000 0.000000 0.000000
# 4 0.000000 0.000000 0.000000 0.023299 0.000000 0.000000
# 5 0.000000 0.000000 0.000000 0.000000 0.023299 0.000000
# 6 -0.005778 0.005778 0.000000 0.000000 0.000000 0.027785
#
#
# Mechanical properties :
#
#
# Convention : Reuss Voigt Hill
#
# Bulk Modulus (GPa) = 78.67163 80.79004 79.73084
# Shear Modulus (GPa) = 39.38900 42.84238 41.11569
#
# Velocity S-wave (km/s) = 3.96150 4.13151 4.04740
# Velocity P-wave (km/s) = 7.22975 7.41268 7.32179
#
# Compressibility (1/GPa) = 0.01271106
#
# Stress axis : x y z
#
# Youngs Moduli (GPa) = 95.88684 95.88684 103.55024
#
# Poissons Ratio (x) = 0.48252 0.20036
# Poissons Ratio (y) = 0.48252 0.20036
# Poissons Ratio (z) = 0.18553 0.18553
#
# Static dielectric constant tensor:
#      x y z
#    x 2.196210 0.000000 0.000000 
#    y 0.000000 2.196210 0.000000 
#    z 0.000000 0.000000 1.988430 
# 
# From -- ./inp_files/903.got.cif
#   From: 2010.05.17/outbox.cif.g08.bks.cpg/sg82_1_cif.got.tgz:903.got - 2010.06.03 18:52:26.
