data_PCOD9543653
_publ_section_title
;
Structure prediction by ZEFSAII (Michael W. Deem and Ramdas Pophale) SiO2 
 PCOD9543653
Probable space group: P 4/M
;
_chemical_formula_sum "Si O2"
_cell_formula_units_Z 33
_cell_length_a 8.433594
_cell_length_b 8.433594
_cell_length_c 21.686748
_cell_angle_alpha 90.000000
_cell_angle_beta 90.000000
_cell_angle_gamma 90.000000
_cell_volume 1542.480963
_symmetry_space_group_name_H-M "P 4/M"
_symmetry_group_IT_number 83
_symmetry_cell_setting 'tetragonal'
loop_
_space_group_symop_operation_xyz
x,y,z
-y,x,z
-x,-y,z
y,-x,z
-x,-y,-z
y,-x,-z
x,y,-z
-y,x,-z
loop_
_atom_site_type_symbol
_atom_site_label
_atom_site_fract_x
_atom_site_fract_y
_atom_site_fract_z
Si Si1 0.597564 0.840551 0.000000
Si Si2 0.753450 0.416085 0.500000
Si Si3 0.500000 0.500000 0.000000
Si Si4 0.095225 0.748551 0.386535
Si Si5 0.381407 0.258362 0.869229
Si Si6 0.247135 0.100993 0.751013
O O1 0.477561 0.690638 0.000000
O O2 0.674105 0.828882 0.068071
O O3 0.500000 0.000000 0.000000
O O4 0.693368 0.595656 0.500000
O O5 0.852469 0.369936 0.439589
O O6 0.124934 0.683690 0.317522
O O7 0.912425 0.804015 0.392264
O O8 0.569288 0.297824 0.869258
O O9 0.348087 0.158473 0.808373
O O10 0.082626 0.198575 0.754761
#
# Coordination Sequence:
#
# PCOD9543653 Si02
#       6
#     4   4   1   8   8   8
#     4  12  24  40  70  92 124 182 216 270 344 394
#     4  11  24  37  54  84 124 157 198 257 310 366
#     4  12  20  52  60  96 148 156 228 286 316 408
#     4   9  19  39  62  85 115 158 204 253 310 372
#     4  11  22  40  61  88 124 164 207 261 319 384
#     4   9  21  39  60  89 125 158 204 262 314 381
#
# _framework density 21.394107999999999
#
# number of rings (size 3 to 8) (size 9 to 14) (size 15 to 20)
#    0.000    1.818    2.424    2.182    3.394    4.848 
#    0.000    7.273    0.000    1.818    0.000    0.000 
#    0.000    0.000    0.000    0.000    0.000    0.000 
#
# Total GULP energy -184110.648615 kJ/mol
# GULP energy per Si atom -5579.110564 kJ/mol
# Density = 2.134541 g / cm^3
# Si number density = 21.394108 Si / 1000 Ang^3
#
#
#
# Elastic Constant Matrix: (Units=GPa)
#
#
# Indices 1 2 3 4 5 6 
#
# 1 45.7773 25.8933 46.1753 0.0000 0.0000 2.6284
# 2 25.8933 45.7773 46.1753 0.0000 0.0000 -2.6284
# 3 46.1753 46.1753 201.2233 0.0000 0.0000 0.0000
# 4 0.0000 0.0000 0.0000 -338.6486 0.0000 0.0000
# 5 0.0000 0.0000 0.0000 0.0000 -338.6486 0.0000
# 6 2.6284 -2.6284 0.0000 0.0000 0.0000 27.4286
#
#
#
# Elastic Compliance Matrix: (Units=1/GPa)
#
#
# Indices 1 2 3 4 5 6 
#
# 1 0.035705 -0.015894 -0.004546 0.000000 0.000000 -0.004945
# 2 -0.015894 0.035705 -0.004546 0.000000 0.000000 0.004945
# 3 -0.004546 -0.004546 0.007056 0.000000 0.000000 0.000000
# 4 0.000000 0.000000 0.000000 -0.002953 0.000000 0.000000
# 5 0.000000 0.000000 0.000000 0.000000 -0.002953 0.000000
# 6 -0.004945 0.004945 0.000000 0.000000 0.000000 0.037406
#
#
# Mechanical properties :
#
#
# Convention : Reuss Voigt Hill
#
# Bulk Modulus (GPa) = 35.09647 58.80733 46.95190
# Shear Modulus (GPa) = 29.50981 -118.33815 -44.41417
#
# Velocity S-wave (km/s) = 3.71798 -7.44537 -4.56126
# Velocity P-wave (km/s) = 5.90521 6.80912 2.39714
#
# Compressibility (1/GPa) = 0.02849289
#
# Stress axis : x y z
#
# Youngs Moduli (GPa) = 28.00760 28.00760 141.72439
#
# Poissons Ratio (x) = 0.44516 0.64427
# Poissons Ratio (y) = 0.44516 0.64427
# Poissons Ratio (z) = 0.12732 0.12732
#
# Static dielectric constant tensor:
#      x y z
#    x 1.776480 0.000000 0.000000 
#    y 0.000000 1.776480 0.000000 
#    z 0.000000 0.000000 1.829350 
# 
# From -- ./inp_files/2871.got.cif
#   From: 2010.05.17/outbox.cif.g08.bks.cpg/sg83_2_cif.got.tgz:2871.got - 2010.06.03 18:55:12.
