data_PCOD9543514
_publ_section_title
;
Structure prediction by ZEFSAII (Michael W. Deem and Ramdas Pophale) SiO2 
 PCOD9543514
Probable space group: P 4/M
;
_chemical_formula_sum "Si O2"
_cell_formula_units_Z 32
_cell_length_a 14.435588
_cell_length_b 14.435588
_cell_length_c 7.525588
_cell_angle_alpha 90.000000
_cell_angle_beta 90.000000
_cell_angle_gamma 90.000000
_cell_volume 1568.228693
_symmetry_space_group_name_H-M "P 4/M"
_symmetry_group_IT_number 83
_symmetry_cell_setting 'tetragonal'
loop_
_space_group_symop_operation_xyz
x,y,z
-y,x,z
-x,-y,z
y,-x,z
-x,-y,-z
y,-x,-z
x,y,-z
-y,x,-z
loop_
_atom_site_type_symbol
_atom_site_label
_atom_site_fract_x
_atom_site_fract_y
_atom_site_fract_z
Si Si1 0.592281 0.937118 0.210243
Si Si2 0.775370 0.409215 0.500000
Si Si3 0.118238 0.909200 0.285265
Si Si4 0.879844 0.685522 0.800035
Si Si5 0.253124 0.383182 0.500000
O O1 0.596557 0.846538 0.332458
O O2 0.500000 0.000000 0.241398
O O3 0.671162 0.013010 0.255682
O O4 0.596595 0.914555 0.000000
O O5 0.695984 0.331297 0.500000
O O6 0.723627 0.508474 0.500000
O O7 0.123321 0.904449 0.500000
O O8 0.205928 0.857262 0.208784
O O9 0.016962 0.876387 0.231618
O O10 0.812153 0.633464 0.669617
O O11 0.872124 0.649884 0.000000
#
# Coordination Sequence:
#
# PCOD9543514 Si02
#       5
#     8   4   8   8   4
#     4  10  21  40  68  98 127 160 205 259 321 386
#     4  12  26  44  70  94 128 172 212 269 331 381
#     4   9  19  34  53  82 128 177 213 243 291 372
#     4  11  23  38  62  95 127 162 211 263 313 380
#     4  12  27  45  65  92 126 166 219 274 327 381
#
# _framework density 20.405187000000002
#
# number of rings (size 3 to 8) (size 9 to 14) (size 15 to 20)
#    0.000    1.500    3.750    1.875    3.500    2.250 
#    0.000    1.250    0.000    0.000    0.000    3.500 
#    0.000    0.000    0.000    0.000    0.000    0.000 
#
# Total GULP energy -178800.579091 kJ/mol
# GULP energy per Si atom -5587.518097 kJ/mol
# Density = 2.035874 g / cm^3
# Si number density = 20.405187 Si / 1000 Ang^3
#
#
#
# Elastic Constant Matrix: (Units=GPa)
#
#
# Indices 1 2 3 4 5 6 
#
# 1 100.0361 37.1171 38.8391 0.0000 0.0000 -5.6411
# 2 37.1171 100.0361 38.8391 0.0000 0.0000 5.6411
# 3 38.8391 38.8391 93.6941 0.0000 0.0000 0.0000
# 4 0.0000 0.0000 0.0000 -9.7152 0.0000 0.0000
# 5 0.0000 0.0000 0.0000 0.0000 -9.7152 0.0000
# 6 -5.6411 5.6411 0.0000 0.0000 0.0000 33.9905
#
#
#
# Elastic Compliance Matrix: (Units=1/GPa)
#
#
# Indices 1 2 3 4 5 6 
#
# 1 0.012955 -0.003426 -0.003950 0.000000 0.000000 0.002719
# 2 -0.003426 0.012955 -0.003950 0.000000 0.000000 -0.002719
# 3 -0.003950 -0.003950 0.013948 0.000000 0.000000 0.000000
# 4 0.000000 0.000000 0.000000 -0.102932 0.000000 0.000000
# 5 0.000000 0.000000 0.000000 0.000000 -0.102932 0.000000
# 6 0.002719 -0.002719 0.000000 0.000000 0.000000 0.030322
#
#
# Mechanical properties :
#
#
# Convention : Reuss Voigt Hill
#
# Bulk Modulus (GPa) = 58.12272 58.15075 58.13673
# Shear Modulus (GPa) = -46.59905 14.84343 -15.87781
#
# Velocity S-wave (km/s) = -4.78398 2.70002 -2.79252
# Velocity P-wave (km/s) = 1.40326 6.18709 4.26092
#
# Compressibility (1/GPa) = 0.01720498
#
# Stress axis : x y z
#
# Youngs Moduli (GPa) = 77.19324 77.19324 71.69710
#
# Poissons Ratio (x) = 0.26450 0.28318
# Poissons Ratio (y) = 0.26450 0.28318
# Poissons Ratio (z) = 0.30489 0.30489
#
# Static dielectric constant tensor:
#      x y z
#    x 1.740780 0.000000 0.000000 
#    y 0.000000 1.740780 0.000000 
#    z 0.000000 0.000000 1.715060 
# 
# From -- ./inp_files/469.got.cif
#   From: 2010.05.17/outbox.cif.g08.bks.cpg/sg83_1_cif.got.tgz:469.got - 2010.06.03 18:55:12.
