data_PCOD9543001
_publ_section_title
;
Structure prediction by ZEFSAII (Michael W. Deem and Ramdas Pophale) SiO2 
 PCOD9543001
Probable space group: I -4 
;
_chemical_formula_sum "Si O2"
_cell_formula_units_Z 48
_cell_length_a 8.339113
_cell_length_b 8.339113
_cell_length_c 30.731409
_cell_angle_alpha 90.000000
_cell_angle_beta 90.000000
_cell_angle_gamma 90.000000
_cell_volume 2137.086940
_symmetry_space_group_name_H-M "I -4 "
_symmetry_group_IT_number 82
_symmetry_cell_setting 'tetragonal'
loop_
_space_group_symop_operation_xyz
x,y,z
y,-x,-z
-x,-y,z
-y,x,-z
1/2+x,1/2+y,1/2+z
1/2+y,1/2-x,1/2-z
1/2-x,1/2-y,1/2+z
1/2-y,1/2+x,1/2-z
loop_
_atom_site_type_symbol
_atom_site_label
_atom_site_fract_x
_atom_site_fract_y
_atom_site_fract_z
Si Si1 0.887094 0.752759 0.001746
Si Si2 0.404985 0.334591 0.248385
Si Si3 0.759290 0.109383 0.903293
Si Si4 0.321367 0.058041 0.681152
Si Si5 0.275404 0.140571 0.321214
Si Si6 0.252354 0.882061 0.092724
O O1 0.850556 0.675039 0.955208
O O2 0.855858 0.680137 0.049290
O O3 0.075714 0.797221 0.000718
O O4 0.500000 0.500000 0.250599
O O5 0.234349 0.353617 0.224886
O O6 0.381934 0.272417 0.296644
O O7 0.497634 0.224819 0.213432
O O8 0.665134 0.176868 0.862144
O O9 0.935358 0.189169 0.904673
O O10 0.781985 0.914967 0.899999
O O11 0.500000 0.000000 0.687009
O O12 0.203527 0.906941 0.675290
O O13 0.340514 0.123674 0.369446
#
# Coordination Sequence:
#
# PCOD9543001 Si02
#       6
#     8   8   8   8   8   8
#     4   7  12  26  50  86 121 151 185 240 294 342
#     4  10  27  43  59  88 122 157 202 252 308 371
#     4   9  17  31  58  92 121 149 198 248 291 351
#     4  11  23  38  62  88 113 155 196 255 303 359
#     4  11  24  41  61  82 120 159 200 252 303 362
#     4   9  17  31  59  88 121 157 195 241 299 355
#
# _framework density 22.460481999999999
#
# number of rings (size 3 to 8) (size 9 to 14) (size 15 to 20)
#    0.000    2.500    1.667    2.000    9.333    0.333 
#    0.000    0.000    3.667    0.000    0.000    0.000 
#    0.000    0.000    0.000    0.000    0.000    0.000 
#
# Total GULP energy -134048.783637 kJ/mol
# GULP energy per Si atom -5585.365985 kJ/mol
# Density = 2.240936 g / cm^3
# Si number density = 22.460482 Si / 1000 Ang^3
#
#
#
# Elastic Constant Matrix: (Units=GPa)
#
#
# Indices 1 2 3 4 5 6 
#
# 1 22.9227 1.8361 14.5034 0.0000 0.0000 -5.8726
# 2 1.8361 22.9227 14.5034 0.0000 0.0000 5.8726
# 3 14.5034 14.5034 154.7261 0.0000 0.0000 0.0000
# 4 0.0000 0.0000 0.0000 5.6915 0.0000 0.0000
# 5 0.0000 0.0000 0.0000 0.0000 5.6915 0.0000
# 6 -5.8726 5.8726 0.0000 0.0000 0.0000 8.6738
#
#
#
# Elastic Compliance Matrix: (Units=1/GPa)
#
#
# Indices 1 2 3 4 5 6 
#
# 1 0.060754 -0.015381 -0.004253 0.000000 0.000000 0.051547
# 2 -0.015381 0.060754 -0.004253 0.000000 0.000000 -0.051547
# 3 -0.004253 -0.004253 0.007260 0.000000 0.000000 0.000000
# 4 0.000000 0.000000 0.000000 0.175700 0.000000 0.000000
# 5 0.000000 0.000000 0.000000 0.000000 0.175700 0.000000
# 6 0.051547 -0.051547 0.000000 0.000000 0.000000 0.185090
#
#
# Mechanical properties :
#
#
# Convention : Reuss Voigt Hill
#
# Bulk Modulus (GPa) = 12.34672 29.13970 20.74321
# Shear Modulus (GPa) = 6.75648 15.32660 11.04154
#
# Velocity S-wave (km/s) = 1.73629 2.61508 2.21961
# Velocity P-wave (km/s) = 3.08684 4.70320 3.97798
#
# Compressibility (1/GPa) = 0.08099314
#
# Stress axis : x y z
#
# Youngs Moduli (GPa) = 16.45987 16.45987 137.73429
#
# Poissons Ratio (x) = 0.25318 0.58579
# Poissons Ratio (y) = 0.25318 0.58579
# Poissons Ratio (z) = 0.07000 0.07000
#
# Static dielectric constant tensor:
#      x y z
#    x 1.865010 0.000000 0.000000 
#    y 0.000000 1.865010 0.000000 
#    z 0.000000 0.000000 1.877610 
# 
# From -- ./inp_files/4026.got.cif
#   From: 2010.05.17/outbox.cif.g08.bks.cpg/sg82_3_cif.got.tgz:4026.got - 2010.06.03 18:52:26.
