data_PCOD9543245
_publ_section_title
;
Structure prediction by ZEFSAII (Michael W. Deem and Ramdas Pophale) SiO2 
 PCOD9543245
Probable space group: P 4/M
;
_chemical_formula_sum "Si O2"
_cell_formula_units_Z 64
_cell_length_a 20.788183
_cell_length_b 20.788183
_cell_length_c 7.465613
_cell_angle_alpha 90.000000
_cell_angle_beta 90.000000
_cell_angle_gamma 90.000000
_cell_volume 3226.253851
_symmetry_space_group_name_H-M "P 4/M"
_symmetry_group_IT_number 83
_symmetry_cell_setting 'tetragonal'
loop_
_space_group_symop_operation_xyz
x,y,z
-y,x,z
-x,-y,z
y,-x,z
-x,-y,-z
y,-x,-z
x,y,-z
-y,x,-z
loop_
_atom_site_type_symbol
_atom_site_label
_atom_site_fract_x
_atom_site_fract_y
_atom_site_fract_z
Si Si1 0.923705 0.345988 0.710275
Si Si2 0.249489 0.454868 0.701871
Si Si3 0.432023 0.424065 0.215814
Si Si4 0.492715 0.112637 0.209118
Si Si5 0.208114 0.707777 0.280240
Si Si6 0.938184 0.627532 0.283501
Si Si7 0.798977 0.678074 0.719416
Si Si8 0.289873 0.587661 0.709014
O O1 0.927684 0.331034 0.500000
O O2 0.905732 0.421868 0.725655
O O3 0.865437 0.301799 0.780747
O O4 0.995866 0.340883 0.784298
O O5 0.275038 0.447058 0.500000
O O6 0.176047 0.480514 0.694755
O O7 0.242801 0.383778 0.782291
O O8 0.282987 0.516474 0.792184
O O9 0.505362 0.413859 0.278349
O O10 0.391794 0.363759 0.278101
O O11 0.430966 0.425231 0.000000
O O12 0.551931 0.063262 0.231828
O O13 0.486845 0.127380 0.000000
O O14 0.207997 0.708006 0.500000
O O15 0.254312 0.766942 0.226590
O O16 0.244101 0.642628 0.219165
O O17 0.938456 0.629049 0.500000
O O18 0.872365 0.662742 0.224714
O O19 0.798113 0.676027 0.500000
O O20 0.273066 0.580509 0.500000
#
# Coordination Sequence:
#
# PCOD9543245 Si02
#       8
#     8   8   8   8   8   8   8   8
#     4  10  18  31  48  66  90 122 154 183 223 274
#     4   9  17  31  47  63  88 118 149 180 220 274
#     4   9  20  37  49  57  78 113 148 187 239 289
#     4  11  20  29  44  67  94 120 149 187 223 257
#     4   9  17  29  46  67  91 114 142 184 232 268
#     4   9  18  31  49  67  88 121 156 185 220 271
#     4   8  15  28  46  66  87 112 143 184 225 259
#     4  10  19  29  47  69  85 106 142 190 234 272
#
# _framework density 19.837249
#
# number of rings (size 3 to 8) (size 9 to 14) (size 15 to 20)
#    0.000    2.625    1.250    2.625    1.750    3.000 
#    0.000    0.625    0.000    3.000    0.000    0.000 
#    0.000    0.500    0.000    7.000    0.000    0.000 
#
# Total GULP energy -356976.517059 kJ/mol
# GULP energy per Si atom -5577.758079 kJ/mol
# Density = 1.979210 g / cm^3
# Si number density = 19.837249 Si / 1000 Ang^3
#
#
#
# Elastic Constant Matrix: (Units=GPa)
#
#
# Indices 1 2 3 4 5 6 
#
# 1 636.2105 -465.2944 -3.4222 0.0000 0.0000 -24.8534
# 2 -465.2944 636.2105 -3.4222 0.0000 0.0000 24.8534
# 3 -3.4222 -3.4222 64.5692 0.0000 0.0000 0.0000
# 4 0.0000 0.0000 0.0000 8.1495 0.0000 0.0000
# 5 0.0000 0.0000 0.0000 0.0000 8.1495 0.0000
# 6 -24.8534 24.8534 0.0000 0.0000 0.0000 28.4109
#
#
#
# Elastic Compliance Matrix: (Units=1/GPa)
#
#
# Indices 1 2 3 4 5 6 
#
# 1 0.003404 0.002459 0.000311 0.000000 0.000000 0.000827
# 2 0.002459 0.003404 0.000311 0.000000 0.000000 -0.000827
# 3 0.000311 0.000311 0.015520 0.000000 0.000000 0.000000
# 4 0.000000 0.000000 0.000000 0.122706 0.000000 0.000000
# 5 0.000000 0.000000 0.000000 0.000000 0.122706 0.000000
# 6 0.000827 -0.000827 0.000000 0.000000 0.000000 0.036644
#
#
# Mechanical properties :
#
#
# Convention : Reuss Voigt Hill
#
# Bulk Modulus (GPa) = 35.10035 43.63475 39.36755
# Shear Modulus (GPa) = 16.24850 129.55059 72.89954
#
# Velocity S-wave (km/s) = 2.86508 8.09003 6.06866
# Velocity P-wave (km/s) = 5.35514 10.45508 8.30621
#
# Compressibility (1/GPa) = 0.02848975
#
# Stress axis : x y z
#
# Youngs Moduli (GPa) = 293.75360 293.75360 64.43214
#
# Poissons Ratio (x) = -0.72236 -0.02002
# Poissons Ratio (y) = -0.72236 -0.02002
# Poissons Ratio (z) = -0.09128 -0.09128
#
# Static dielectric constant tensor:
#      x y z
#    x 1.737120 0.000000 0.000000 
#    y 0.000000 1.737120 0.000000 
#    z 0.000000 0.000000 1.743690 
# 
# From -- ./inp_files/1323.got.cif
#   From: 2010.05.17/outbox.cif.g08.bks.cpg/sg83_1_cif.got.tgz:1323.got - 2010.06.03 18:55:12.
