data_PCOD9543928
_publ_section_title
;
Structure prediction by ZEFSAII (Michael W. Deem and Ramdas Pophale) SiO2 
 PCOD9543928
Probable space group: P 4/M
;
_chemical_formula_sum "Si O2"
_cell_formula_units_Z 32
_cell_length_a 12.000000
_cell_length_b 12.000000
_cell_length_c 12.000000
_cell_angle_alpha 90.000000
_cell_angle_beta 90.000000
_cell_angle_gamma 90.000000
_cell_volume 1728.000000
_symmetry_space_group_name_H-M "P 4/M"
_symmetry_group_IT_number 83
_symmetry_cell_setting 'tetragonal'
loop_
_space_group_symop_operation_xyz
x,y,z
-y,x,z
-x,-y,z
y,-x,z
-x,-y,-z
y,-x,-z
x,y,-z
-y,x,-z
loop_
_atom_site_type_symbol
_atom_site_label
_atom_site_fract_x
_atom_site_fract_y
_atom_site_fract_z
Si Si1 0.687409 0.467220 0.500000
Si Si2 0.090952 0.678454 0.130135
Si Si3 0.830067 0.704048 0.177650
Si Si4 0.126817 0.495962 0.680034
Si Si5 0.667950 0.588967 0.000000
O O1 0.624013 0.587887 0.500000
O O2 0.772664 0.458966 0.604323
O O3 0.172665 0.776417 0.174918
O O4 0.115420 0.571032 0.207566
O O5 0.958681 0.706064 0.135771
O O6 0.117500 0.658189 0.000000
O O7 0.842075 0.631589 0.289947
O O8 0.743031 0.631906 0.103092
O O9 0.000000 0.500000 0.632306
O O10 0.544202 0.644792 0.000000
#
# Coordination Sequence:
#
# PCOD9543928 Si02
#       5
#     4   8   8   8   4
#     4  11  23  42  62  84 115 147 184 238 296 347
#     4  11  21  36  58  85 118 157 191 237 286 333
#     4  11  22  36  55  85 117 154 196 234 284 339
#     4  10  23  38  62  84 112 150 195 236 284 342
#     4  11  22  34  52  77 112 150 189 235 275 326
#
# _framework density 18.518519000000001
#
# number of rings (size 3 to 8) (size 9 to 14) (size 15 to 20)
#    0.000    1.250    2.500    3.375    1.750    2.000 
#    0.000    3.750    0.000    0.000    0.000    0.000 
#    0.000   18.000    0.000    0.000    0.000    0.000 
#
# Total GULP energy -178562.490511 kJ/mol
# GULP energy per Si atom -5580.077828 kJ/mol
# Density = 1.847637 g / cm^3
# Si number density = 18.518519 Si / 1000 Ang^3
#
#
#
# Elastic Constant Matrix: (Units=GPa)
#
#
# Indices 1 2 3 4 5 6 
#
# 1 151.1249 51.7972 28.3802 0.0000 0.0000 5.3982
# 2 51.7972 151.1249 28.3802 0.0000 0.0000 -5.3982
# 3 28.3802 28.3802 57.2437 0.0000 0.0000 0.0000
# 4 0.0000 0.0000 0.0000 24.6487 0.0000 0.0000
# 5 0.0000 0.0000 0.0000 0.0000 24.6487 0.0000
# 6 5.3982 -5.3982 0.0000 0.0000 0.0000 44.2310
#
#
#
# Elastic Compliance Matrix: (Units=1/GPa)
#
#
# Indices 1 2 3 4 5 6 
#
# 1 0.007962 -0.002241 -0.002837 0.000000 0.000000 -0.001245
# 2 -0.002241 0.007962 -0.002837 0.000000 0.000000 0.001245
# 3 -0.002837 -0.002837 0.020282 0.000000 0.000000 0.000000
# 4 0.000000 0.000000 0.000000 0.040570 0.000000 0.000000
# 5 0.000000 0.000000 0.000000 0.000000 0.040570 0.000000
# 6 -0.001245 0.001245 0.000000 0.000000 0.000000 0.022913
#
#
# Mechanical properties :
#
#
# Convention : Reuss Voigt Hill
#
# Bulk Modulus (GPa) = 49.07156 64.06762 56.56959
# Shear Modulus (GPa) = 30.69750 35.43472 33.06611
#
# Velocity S-wave (km/s) = 4.07586 4.37907 4.23018
# Velocity P-wave (km/s) = 6.97899 7.76144 7.38059
#
# Compressibility (1/GPa) = 0.02037840
#
# Stress axis : x y z
#
# Youngs Moduli (GPa) = 125.59295 125.59295 49.30532
#
# Poissons Ratio (x) = 0.28143 0.13986
# Poissons Ratio (y) = 0.28143 0.13986
# Poissons Ratio (z) = 0.35625 0.35625
#
# Static dielectric constant tensor:
#      x y z
#    x 1.641680 0.000000 0.000000 
#    y 0.000000 1.641680 0.000000 
#    z 0.000000 0.000000 1.683120 
# 
# From -- ./inp_files/1574.got.cif
#   From: 2010.05.17/outbox.ucp.g08.bks.cvg/sg83_1_cif.got.tgz:1574.got - 2010.06.11 10:34:49.
