data_PCOD9543027
_publ_section_title
;
Structure prediction by ZEFSAII (Michael W. Deem and Ramdas Pophale) SiO2 
 PCOD9543027
Probable space group: I -4 
;
_chemical_formula_sum "Si O2"
_cell_formula_units_Z 60
_cell_length_a 12.180665
_cell_length_b 12.180665
_cell_length_c 22.587612
_cell_angle_alpha 90.000000
_cell_angle_beta 90.000000
_cell_angle_gamma 90.000000
_cell_volume 3351.292366
_symmetry_space_group_name_H-M "I -4 "
_symmetry_group_IT_number 82
_symmetry_cell_setting 'tetragonal'
loop_
_space_group_symop_operation_xyz
x,y,z
y,-x,-z
-x,-y,z
-y,x,-z
1/2+x,1/2+y,1/2+z
1/2+y,1/2-x,1/2-z
1/2-x,1/2-y,1/2+z
1/2-y,1/2+x,1/2-z
loop_
_atom_site_type_symbol
_atom_site_label
_atom_site_fract_x
_atom_site_fract_y
_atom_site_fract_z
Si Si1 0.836108 0.102275 0.198623
Si Si2 0.000000 0.000000 0.292606
Si Si3 0.804454 0.589793 0.377320
Si Si4 0.757541 0.889983 0.128411
Si Si5 0.817824 0.375012 0.314309
Si Si6 0.437714 0.676187 0.500860
Si Si7 0.364902 0.893215 0.269911
Si Si8 0.256142 0.542028 0.183928
O O1 0.897391 0.195525 0.163003
O O2 0.733746 0.156349 0.232508
O O3 0.906441 0.044954 0.249154
O O4 0.800169 0.005731 0.154374
O O5 0.958735 0.888405 0.324223
O O6 0.859582 0.480849 0.350742
O O7 0.756310 0.576295 0.443111
O O8 0.884591 0.692047 0.364465
O O9 0.832236 0.790351 0.151808
O O10 0.643223 0.868913 0.162394
O O11 0.762104 0.899736 0.058496
O O12 0.781072 0.410071 0.248187
O O13 0.916479 0.287525 0.315258
O O14 0.563967 0.634288 0.494373
O O15 0.477266 0.856719 0.239007
#
# Coordination Sequence:
#
# PCOD9543027 Si02
#       8
#     8   4   8   8   8   8   8   8
#     4  11  20  34  60  93 121 155 202 253 312 368
#     4  12  22  36  58  95 123 162 204 252 314 380
#     4  12  23  38  59  92 129 160 209 256 312 374
#     4  11  20  37  62  88 124 162 205 250 304 369
#     4  12  22  37  60  92 127 168 200 259 317 370
#     4  11  23  38  63  91 122 163 205 254 303 364
#     4   9  20  35  56  85 122 158 195 250 311 369
#     4  12  24  37  61  93 129 165 206 259 318 378
#
# _framework density 17.90354
#
# number of rings (size 3 to 8) (size 9 to 14) (size 15 to 20)
#    0.000    0.800    6.667    2.000    1.867    0.000 
#    0.000    0.000   14.667    0.000    0.000    0.933 
#    0.000    0.000    0.000    0.000    0.000    0.000 
#
# Total GULP energy -167475.543468 kJ/mol
# GULP energy per Si atom -5582.518116 kJ/mol
# Density = 1.786279 g / cm^3
# Si number density = 17.903540 Si / 1000 Ang^3
#
#
#
# Elastic Constant Matrix: (Units=GPa)
#
#
# Indices 1 2 3 4 5 6 
#
# 1 76.7384 34.1380 39.5168 0.0000 0.0000 11.6758
# 2 34.1380 76.7384 39.5168 0.0000 0.0000 -11.6758
# 3 39.5168 39.5168 113.5018 0.0000 0.0000 0.0000
# 4 0.0000 0.0000 0.0000 22.8203 0.0000 0.0000
# 5 0.0000 0.0000 0.0000 0.0000 22.8203 0.0000
# 6 11.6758 -11.6758 0.0000 0.0000 0.0000 15.6272
#
#
#
# Elastic Compliance Matrix: (Units=1/GPa)
#
#
# Indices 1 2 3 4 5 6 
#
# 1 0.025876 -0.013880 -0.004177 0.000000 0.000000 -0.029704
# 2 -0.013880 0.025876 -0.004177 0.000000 0.000000 0.029704
# 3 -0.004177 -0.004177 0.011719 0.000000 0.000000 0.000000
# 4 0.000000 0.000000 0.000000 0.043821 0.000000 0.000000
# 5 0.000000 0.000000 0.000000 0.000000 0.043821 0.000000
# 6 -0.029704 0.029704 0.000000 0.000000 0.000000 0.108377
#
#
# Mechanical properties :
#
#
# Convention : Reuss Voigt Hill
#
# Bulk Modulus (GPa) = 52.61867 54.81351 53.71609
# Shear Modulus (GPa) = 16.11392 22.50735 19.31063
#
# Velocity S-wave (km/s) = 3.00332 3.54947 3.28776
# Velocity P-wave (km/s) = 6.44054 6.89063 6.66938
#
# Compressibility (1/GPa) = 0.01900466
#
# Stress axis : x y z
#
# Youngs Moduli (GPa) = 38.64561 38.64561 85.33399
#
# Poissons Ratio (x) = 0.53640 0.35640
# Poissons Ratio (y) = 0.53640 0.35640
# Poissons Ratio (z) = 0.16141 0.16141
#
# Static dielectric constant tensor:
#      x y z
#    x 1.698430 0.000000 0.000000 
#    y 0.000000 1.698430 0.000000 
#    z 0.000000 0.000000 1.586520 
# 
# From -- ./inp_files/3188.got.cif
#   From: 2010.05.17/outbox.cif.g08.bks.cpg/sg82_2_cif.got.tgz:3188.got - 2010.06.03 18:52:26.
