data_PCOD9543022
_publ_section_title
;
Structure prediction by ZEFSAII (Michael W. Deem and Ramdas Pophale) SiO2 
 PCOD9543022
Probable space group: I -4 
;
_chemical_formula_sum "Si O2"
_cell_formula_units_Z 24
_cell_length_a 9.663874
_cell_length_b 9.663874
_cell_length_c 13.938301
_cell_angle_alpha 90.000000
_cell_angle_beta 90.000000
_cell_angle_gamma 90.000000
_cell_volume 1301.704352
_symmetry_space_group_name_H-M "I -4 "
_symmetry_group_IT_number 82
_symmetry_cell_setting 'tetragonal'
loop_
_space_group_symop_operation_xyz
x,y,z
y,-x,-z
-x,-y,z
-y,x,-z
1/2+x,1/2+y,1/2+z
1/2+y,1/2-x,1/2-z
1/2-x,1/2-y,1/2+z
1/2-y,1/2+x,1/2-z
loop_
_atom_site_type_symbol
_atom_site_label
_atom_site_fract_x
_atom_site_fract_y
_atom_site_fract_z
Si Si1 0.618805 0.882252 0.380057
Si Si2 0.846538 0.947072 0.230961
Si Si3 0.900910 0.806832 0.039487
O O1 0.759406 0.917745 0.325834
O O2 0.557954 0.748815 0.324729
O O3 0.641164 0.835066 0.489191
O O4 0.500000 0.000000 0.372487
O O5 0.864211 0.825879 0.150875
O O6 0.000000 0.000000 0.250409
O O7 0.063931 0.829287 0.016787
#
# Coordination Sequence:
#
# PCOD9543022 Si02
#       3
#     8   8   8
#     4  11  20  36  62  91 113 154 203 241 285 356
#     4  11  19  36  63  87 117 157 197 238 293 355
#     4   9  17  34  60  82 109 154 195 227 285 357
#
# _framework density 18.437366000000001
#
# number of rings (size 3 to 8) (size 9 to 14) (size 15 to 20)
#    0.000    1.667   10.000    0.000    0.000    0.000 
#    0.000    6.667    0.000    0.000    0.000    0.000 
#    0.000    0.000    0.000    0.000    0.000    0.000 
#
# Total GULP energy -66835.787493 kJ/mol
# GULP energy per Si atom -5569.648958 kJ/mol
# Density = 1.839540 g / cm^3
# Si number density = 18.437366 Si / 1000 Ang^3
#
#
#
# Elastic Constant Matrix: (Units=GPa)
#
#
# Indices 1 2 3 4 5 6 
#
# 1 92.9213 49.7291 56.6142 0.0000 0.0000 1.8491
# 2 49.7291 92.9213 56.6142 0.0000 0.0000 -1.8491
# 3 56.6142 56.6142 103.2975 0.0000 0.0000 0.0000
# 4 0.0000 0.0000 0.0000 29.8008 0.0000 0.0000
# 5 0.0000 0.0000 0.0000 0.0000 29.8008 0.0000
# 6 1.8491 -1.8491 0.0000 0.0000 0.0000 9.2534
#
#
#
# Elastic Compliance Matrix: (Units=1/GPa)
#
#
# Indices 1 2 3 4 5 6 
#
# 1 0.017982 -0.005574 -0.006800 0.000000 0.000000 -0.004707
# 2 -0.005574 0.017982 -0.006800 0.000000 0.000000 0.004707
# 3 -0.006800 -0.006800 0.017135 0.000000 0.000000 0.000000
# 4 0.000000 0.000000 0.000000 0.033556 0.000000 0.000000
# 5 0.000000 0.000000 0.000000 0.000000 0.033556 0.000000
# 6 -0.004707 0.004707 0.000000 0.000000 0.000000 0.109950
#
#
# Mechanical properties :
#
#
# Convention : Reuss Voigt Hill
#
# Bulk Modulus (GPa) = 67.80023 68.33946 68.06985
# Shear Modulus (GPa) = 18.28651 22.18318 20.23484
#
# Velocity S-wave (km/s) = 3.15273 3.47243 3.31643
# Velocity P-wave (km/s) = 7.07856 7.29542 7.18781
#
# Compressibility (1/GPa) = 0.01474921
#
# Stress axis : x y z
#
# Youngs Moduli (GPa) = 55.61226 55.61226 58.36007
#
# Poissons Ratio (x) = 0.30996 0.39687
# Poissons Ratio (y) = 0.30996 0.39687
# Poissons Ratio (z) = 0.37819 0.37819
#
# Static dielectric constant tensor:
#      x y z
#    x 1.655860 0.000000 0.000000 
#    y 0.000000 1.655860 0.000000 
#    z 0.000000 0.000000 1.700930 
# 
# From -- ./inp_files/1372.got.cif
#   From: 2010.05.17/outbox.cif.g08.bks.cpg/sg82_1_cif.got.tgz:1372.got - 2010.06.03 18:52:26.
