data_PCOD9543438
_publ_section_title
;
Structure prediction by ZEFSAII (Michael W. Deem and Ramdas Pophale) SiO2 
 PCOD9543438
Probable space group: P 4/M
;
_chemical_formula_sum "Si O2"
_cell_formula_units_Z 52
_cell_length_a 18.403236
_cell_length_b 18.403236
_cell_length_c 7.479019
_cell_angle_alpha 90.000000
_cell_angle_beta 90.000000
_cell_angle_gamma 90.000000
_cell_volume 2532.987388
_symmetry_space_group_name_H-M "P 4/M"
_symmetry_group_IT_number 83
_symmetry_cell_setting 'tetragonal'
loop_
_space_group_symop_operation_xyz
x,y,z
-y,x,z
-x,-y,z
y,-x,z
-x,-y,-z
y,-x,-z
x,y,-z
-y,x,-z
loop_
_atom_site_type_symbol
_atom_site_label
_atom_site_fract_x
_atom_site_fract_y
_atom_site_fract_z
Si Si1 0.537317 0.070051 0.298405
Si Si2 0.425293 0.769097 0.788789
Si Si3 0.930164 0.098417 0.500000
Si Si4 0.483942 0.616491 0.781850
Si Si5 0.299193 0.963547 0.216233
Si Si6 0.107717 0.786151 0.215234
Si Si7 0.804347 0.735817 0.216483
O O1 0.508456 0.074384 0.500000
O O2 0.535293 0.152798 0.229347
O O3 0.621622 0.048805 0.294485
O O4 0.500000 0.000000 0.208133
O O5 0.467059 0.698138 0.719071
O O6 0.342555 0.777051 0.716391
O O7 0.417360 0.756953 0.000000
O O8 0.905541 0.140525 0.323417
O O9 0.017006 0.097410 0.500000
O O10 0.420199 0.560210 0.727546
O O11 0.485636 0.617033 0.000000
O O12 0.256574 0.889747 0.265985
O O13 0.265373 0.040596 0.267449
O O14 0.305439 0.963360 0.000000
O O15 0.190071 0.762917 0.264528
O O16 0.104868 0.795957 0.000000
O O17 0.802312 0.731806 0.000000
#
# Coordination Sequence:
#
# PCOD9543438 Si02
#       7
#     8   8   4   8   8   8   8
#     4  10  21  36  53  74 106 143 177 221 277 329
#     4   9  17  32  54  80 108 140 182 225 266 328
#     4  11  24  36  50  78 107 138 186 229 273 342
#     4   8  14  27  50  82 116 146 177 219 273 324
#     4   9  18  33  55  77  99 136 178 218 270 330
#     4  10  20  36  55  77 106 140 181 234 283 330
#     4   8  15  30  49  71 102 133 171 221 272 322
#
# _framework density 20.529119000000001
#
# number of rings (size 3 to 8) (size 9 to 14) (size 15 to 20)
#    0.000    2.846    0.000    2.769    1.077    3.077 
#    8.308    0.769    0.000    0.923    0.000    1.077 
#    0.000    0.000    0.000    0.000    0.000    0.000 
#
# Total GULP energy -289660.704414 kJ/mol
# GULP energy per Si atom -5570.398162 kJ/mol
# Density = 2.048239 g / cm^3
# Si number density = 20.529119 Si / 1000 Ang^3
#
#
#
# Elastic Constant Matrix: (Units=GPa)
#
#
# Indices 1 2 3 4 5 6 
#
# 1 128.9588 45.1197 4.8871 0.0000 0.0000 -7.5845
# 2 45.1197 128.9588 4.8871 0.0000 0.0000 7.5845
# 3 4.8871 4.8871 50.2441 0.0000 0.0000 0.0000
# 4 0.0000 0.0000 0.0000 -14.7637 0.0000 0.0000
# 5 0.0000 0.0000 0.0000 0.0000 -14.7637 0.0000
# 6 -7.5845 7.5845 0.0000 0.0000 0.0000 58.4271
#
#
#
# Elastic Compliance Matrix: (Units=1/GPa)
#
#
# Indices 1 2 3 4 5 6 
#
# 1 0.008995 -0.003219 -0.000562 0.000000 0.000000 0.001586
# 2 -0.003219 0.008995 -0.000562 0.000000 0.000000 -0.001586
# 3 -0.000562 -0.000562 0.020012 0.000000 0.000000 0.000000
# 4 0.000000 0.000000 0.000000 -0.067734 0.000000 0.000000
# 5 0.000000 0.000000 0.000000 0.000000 -0.067734 0.000000
# 6 0.001586 -0.001586 0.000000 0.000000 0.000000 0.017527
#
#
# Mechanical properties :
#
#
# Convention : Reuss Voigt Hill
#
# Bulk Modulus (GPa) = 34.10991 46.43885 40.27438
# Shear Modulus (GPa) = -81.32800 22.66444 -29.33178
#
# Velocity S-wave (km/s) = -6.30095 3.32628 -3.78403
# Velocity P-wave (km/s) = 6.02366 6.11737 0.75424
#
# Compressibility (1/GPa) = 0.02931699
#
# Stress axis : x y z
#
# Youngs Moduli (GPa) = 111.16930 111.16930 49.96967
#
# Poissons Ratio (x) = 0.35788 0.02807
# Poissons Ratio (y) = 0.35788 0.02807
# Poissons Ratio (z) = 0.06246 0.06246
#
# Static dielectric constant tensor:
#      x y z
#    x 1.743370 0.000000 0.000000 
#    y 0.000000 1.743370 0.000000 
#    z 0.000000 0.000000 1.768160 
# 
# From -- ./inp_files/1023.got.cif
#   From: 2010.05.17/outbox.cif.g08.bks.cpg/sg83_1_cif.got.tgz:1023.got - 2010.06.03 18:55:12.
