data_PCOD9543582
_publ_section_title
;
Structure prediction by ZEFSAII (Michael W. Deem and Ramdas Pophale) SiO2 
 PCOD9543582
Probable space group: P 4/M
;
_chemical_formula_sum "Si O2"
_cell_formula_units_Z 64
_cell_length_a 11.429970
_cell_length_b 11.429970
_cell_length_c 26.682328
_cell_angle_alpha 90.000000
_cell_angle_beta 90.000000
_cell_angle_gamma 90.000000
_cell_volume 3485.891775
_symmetry_space_group_name_H-M "P 4/M"
_symmetry_group_IT_number 83
_symmetry_cell_setting 'tetragonal'
loop_
_space_group_symop_operation_xyz
x,y,z
-y,x,z
-x,-y,z
y,-x,z
-x,-y,-z
y,-x,-z
x,y,-z
-y,x,-z
loop_
_atom_site_type_symbol
_atom_site_label
_atom_site_fract_x
_atom_site_fract_y
_atom_site_fract_z
Si Si1 0.789280 0.793059 0.298386
Si Si2 0.628862 0.356311 0.776408
Si Si3 0.005125 0.195285 0.440563
Si Si4 0.746632 0.640757 0.886340
Si Si5 0.989447 0.374531 0.141688
Si Si6 0.591761 0.808016 0.058684
Si Si7 0.829577 0.924762 0.797696
Si Si8 0.995103 0.356378 0.650244
O O1 0.724347 0.704795 0.260154
O O2 0.829398 0.897223 0.260965
O O3 0.896290 0.716830 0.322722
O O4 0.697550 0.868268 0.332245
O O5 0.660256 0.491034 0.766572
O O6 0.644019 0.327478 0.835235
O O7 0.005798 0.218334 0.500000
O O8 0.007104 0.310834 0.406975
O O9 0.890366 0.115454 0.429268
O O10 0.743697 0.515855 0.913838
O O11 0.704649 0.733040 0.927085
O O12 0.878974 0.661653 0.869310
O O13 0.928417 0.392577 0.088322
O O14 0.906688 0.292599 0.175032
O O15 0.000000 0.500000 0.168434
O O16 0.573173 0.820496 0.000000
O O17 0.942687 0.854339 0.813226
O O18 0.000000 0.500000 0.656282
#
# Coordination Sequence:
#
# PCOD9543582 Si02
#       8
#     8   8   8   8   8   8   8   8
#     4  12  24  40  59  92 132 168 215 267 320 379
#     4  11  23  41  62  82 119 164 210 252 309 372
#     4   9  18  37  68 101 135 178 225 280 341 390
#     4  11  22  40  58  86 109 142 191 244 291 371
#     4  10  23  38  59  83 115 147 188 240 297 378
#     4  11  23  39  60  84 112 145 184 241 309 365
#     4  11  22  38  59  84 113 154 201 242 306 367
#     4  12  25  40  63  98 136 179 226 274 329 390
#
# _framework density 18.359719999999999
#
# number of rings (size 3 to 8) (size 9 to 14) (size 15 to 20)
#    0.000    1.125    3.750    3.750    1.750    4.000 
#    0.000    0.625    0.000    0.000    0.000    2.625 
#    0.000    2.000    0.000    0.000    0.000    0.000 
#
# Total GULP energy -356460.086403 kJ/mol
# GULP energy per Si atom -5569.688850 kJ/mol
# Density = 1.831793 g / cm^3
# Si number density = 18.359720 Si / 1000 Ang^3
#
#
#
# Elastic Constant Matrix: (Units=GPa)
#
#
# Indices 1 2 3 4 5 6 
#
# 1 87.5723 53.4223 39.7021 0.0000 0.0000 -7.3150
# 2 53.4223 87.5723 39.7021 0.0000 0.0000 7.3150
# 3 39.7021 39.7021 82.6450 0.0000 0.0000 0.0000
# 4 0.0000 0.0000 0.0000 34.4164 0.0000 0.0000
# 5 0.0000 0.0000 0.0000 0.0000 34.4164 0.0000
# 6 -7.3150 7.3150 0.0000 0.0000 0.0000 38.9903
#
#
#
# Elastic Compliance Matrix: (Units=1/GPa)
#
#
# Indices 1 2 3 4 5 6 
#
# 1 0.020782 -0.011059 -0.004671 0.000000 0.000000 0.005974
# 2 -0.011059 0.020782 -0.004671 0.000000 0.000000 -0.005974
# 3 -0.004671 -0.004671 0.016588 0.000000 0.000000 0.000000
# 4 0.000000 0.000000 0.000000 0.029056 0.000000 0.000000
# 5 0.000000 0.000000 0.000000 0.000000 0.029056 0.000000
# 6 0.005974 -0.005974 0.000000 0.000000 0.000000 0.027889
#
#
# Mechanical properties :
#
#
# Convention : Reuss Voigt Hill
#
# Bulk Modulus (GPa) = 57.63633 58.16030 57.89832
# Shear Modulus (GPa) = 26.21387 29.89550 28.05468
#
# Velocity S-wave (km/s) = 3.78271 4.03962 3.91328
# Velocity P-wave (km/s) = 7.10912 7.31471 7.21265
#
# Compressibility (1/GPa) = 0.01735017
#
# Stress axis : x y z
#
# Youngs Moduli (GPa) = 48.11768 48.11768 60.28589
#
# Poissons Ratio (x) = 0.53215 0.28159
# Poissons Ratio (y) = 0.53215 0.28159
# Poissons Ratio (z) = 0.22475 0.22475
#
# Static dielectric constant tensor:
#      x y z
#    x 1.702260 0.000000 0.000000 
#    y 0.000000 1.702260 0.000000 
#    z 0.000000 0.000000 1.623200 
# 
# From -- ./inp_files/3210.got.cif
#   From: 2010.05.17/outbox.cif.g08.bks.cpg/sg83_2_cif.got.tgz:3210.got - 2010.06.03 18:55:12.
