data_PCOD9543524
_publ_section_title
;
Structure prediction by ZEFSAII (Michael W. Deem and Ramdas Pophale) SiO2 
 PCOD9543524
Probable space group: P 4/M
;
_chemical_formula_sum "Si O2"
_cell_formula_units_Z 48
_cell_length_a 7.955658
_cell_length_b 7.955658
_cell_length_c 34.893996
_cell_angle_alpha 90.000000
_cell_angle_beta 90.000000
_cell_angle_gamma 90.000000
_cell_volume 2208.528040
_symmetry_space_group_name_H-M "P 4/M"
_symmetry_group_IT_number 83
_symmetry_cell_setting 'tetragonal'
loop_
_space_group_symop_operation_xyz
x,y,z
-y,x,z
-x,-y,z
y,-x,z
-x,-y,-z
y,-x,-z
x,y,-z
-y,x,-z
loop_
_atom_site_type_symbol
_atom_site_label
_atom_site_fract_x
_atom_site_fract_y
_atom_site_fract_z
Si Si1 0.500000 0.000000 0.605166
Si Si2 0.409435 0.768001 0.117212
Si Si3 0.267996 0.093210 0.329740
Si Si4 0.000000 0.500000 0.264503
Si Si5 0.765551 0.599429 0.542586
Si Si6 0.269039 0.911857 0.958528
Si Si7 0.596633 0.232934 0.798792
O O1 0.613695 0.886552 0.633199
O O2 0.379793 0.893803 0.577124
O O3 0.296083 0.600134 0.116095
O O4 0.369338 0.871548 0.079567
O O5 0.375589 0.846306 0.159068
O O6 0.385143 0.112502 0.292469
O O7 0.102007 0.206230 0.329833
O O8 0.107812 0.382067 0.236324
O O9 0.595588 0.706910 0.545132
O O10 0.838312 0.628302 0.500000
O O11 0.102025 0.796932 0.957714
O O12 0.352878 0.878968 0.000000
O O13 0.705871 0.402152 0.796605
#
# Coordination Sequence:
#
# PCOD9543524 Si02
#       7
#     4   8   8   4   8   8   8
#     4  11  19  32  55  76  98 140 183 208 251 315
#     4   9  19  34  51  74 103 131 161 202 249 296
#     4  10  22  37  51  74 107 135 166 213 259 299
#     4  11  20  34  59  78  94 132 173 202 246 311
#     4   9  18  32  50  75 106 136 172 221 265 301
#     4   9  19  35  52  72 101 135 170 207 243 283
#     4   9  19  35  53  76 104 129 159 204 252 297
#
# _framework density 21.733934000000001
#
# number of rings (size 3 to 8) (size 9 to 14) (size 15 to 20)
#    0.000    2.500    0.000    4.250    0.000    4.000 
#    0.000    2.500    0.000   10.000    0.000    7.000 
#    0.000    0.000    0.000    0.000    0.000    0.000 
#
# Total GULP energy -268130.791231 kJ/mol
# GULP energy per Si atom -5586.058151 kJ/mol
# Density = 2.168447 g / cm^3
# Si number density = 21.733934 Si / 1000 Ang^3
#
#
#
# Elastic Constant Matrix: (Units=GPa)
#
#
# Indices 1 2 3 4 5 6 
#
# 1 35.4767 -8.9282 26.6205 0.0000 0.0000 -4.5640
# 2 -8.9282 35.4767 26.6205 0.0000 0.0000 4.5640
# 3 26.6205 26.6205 193.0948 0.0000 0.0000 0.0000
# 4 0.0000 0.0000 0.0000 32.0120 0.0000 0.0000
# 5 0.0000 0.0000 0.0000 0.0000 32.0120 0.0000
# 6 -4.5640 4.5640 0.0000 0.0000 0.0000 25.2680
#
#
#
# Elastic Compliance Matrix: (Units=1/GPa)
#
#
# Indices 1 2 3 4 5 6 
#
# 1 0.037724 0.014336 -0.007177 0.000000 0.000000 0.004224
# 2 0.014336 0.037724 -0.007177 0.000000 0.000000 -0.004224
# 3 -0.007177 -0.007177 0.007158 0.000000 0.000000 0.000000
# 4 0.000000 0.000000 0.000000 0.031238 0.000000 0.000000
# 5 0.000000 0.000000 0.000000 0.000000 0.031238 0.000000
# 6 0.004224 -0.004224 0.000000 0.000000 0.000000 0.041102
#
#
# Mechanical properties :
#
#
# Convention : Reuss Voigt Hill
#
# Bulk Modulus (GPa) = 12.11099 39.18599 25.64849
# Shear Modulus (GPa) = 23.39237 32.50741 27.94989
#
# Velocity S-wave (km/s) = 3.28427 3.87162 3.58998
# Velocity P-wave (km/s) = 4.46838 6.16887 5.38616
#
# Compressibility (1/GPa) = 0.08256961
#
# Stress axis : x y z
#
# Youngs Moduli (GPa) = 26.50807 26.50807 139.70910
#
# Poissons Ratio (x) = -0.38002 1.00272
# Poissons Ratio (y) = -0.38002 1.00272
# Poissons Ratio (z) = 0.19025 0.19025
#
# Static dielectric constant tensor:
#      x y z
#    x 1.797020 0.000000 0.000000 
#    y 0.000000 1.797020 0.000000 
#    z 0.000000 0.000000 1.808490 
# 
# From -- ./inp_files/3466.got.cif
#   From: 2010.05.17/outbox.cif.g08.bks.cpg/sg83_2_cif.got.tgz:3466.got - 2010.06.03 18:55:12.
