data_PCOD9543042
_publ_section_title
;
Structure prediction by ZEFSAII (Michael W. Deem and Ramdas Pophale) SiO2 
 PCOD9543042
Probable space group: I -4 
;
_chemical_formula_sum "Si O2"
_cell_formula_units_Z 44
_cell_length_a 8.742971
_cell_length_b 8.742971
_cell_length_c 26.097775
_cell_angle_alpha 90.000000
_cell_angle_beta 90.000000
_cell_angle_gamma 90.000000
_cell_volume 1994.901966
_symmetry_space_group_name_H-M "I -4 "
_symmetry_group_IT_number 82
_symmetry_cell_setting 'tetragonal'
loop_
_space_group_symop_operation_xyz
x,y,z
y,-x,-z
-x,-y,z
-y,x,-z
1/2+x,1/2+y,1/2+z
1/2+y,1/2-x,1/2-z
1/2-x,1/2-y,1/2+z
1/2-y,1/2+x,1/2-z
loop_
_atom_site_type_symbol
_atom_site_label
_atom_site_fract_x
_atom_site_fract_y
_atom_site_fract_z
Si Si1 0.234317 0.538307 0.254235
Si Si2 0.039366 0.748607 0.993250
Si Si3 0.545785 0.761535 0.381863
Si Si4 0.590301 0.188540 0.217836
Si Si5 0.000000 0.500000 0.070741
Si Si6 0.217328 0.960851 0.864586
O O1 0.151332 0.401006 0.226183
O O2 0.351988 0.638892 0.223211
O O3 0.291348 0.471205 0.307240
O O4 0.995608 0.678822 0.938007
O O5 0.883573 0.834657 0.012884
O O6 0.087840 0.612777 0.031506
O O7 0.622449 0.868880 0.338578
O O8 0.645490 0.607663 0.393440
O O9 0.388870 0.687058 0.361478
O O10 0.417976 0.174825 0.239164
O O11 0.923435 0.621468 0.109441
#
# Coordination Sequence:
#
# PCOD9543042 Si02
#       6
#     8   8   8   8   4   8
#     4  11  22  37  61  94 128 162 209 263 319 368
#     4  11  21  41  65  97 126 163 216 271 327 389
#     4  11  21  41  65  87 132 176 208 264 329 386
#     4  11  24  40  60  90 131 173 217 254 312 390
#     4  12  22  36  67 100 123 158 224 276 310 390
#     4  11  21  37  65  96 123 166 217 264 319 378
#
# _framework density 22.056221000000001
#
# number of rings (size 3 to 8) (size 9 to 14) (size 15 to 20)
#    0.000    0.909    7.273    2.182    0.000    2.182 
#    0.000    0.000    0.000    0.545    4.727    0.000 
#    0.000    0.000    0.000    0.000    0.000    0.000 
#
# Total GULP energy -122598.591184 kJ/mol
# GULP energy per Si atom -5572.663236 kJ/mol
# Density = 2.200602 g / cm^3
# Si number density = 22.056221 Si / 1000 Ang^3
#
#
#
# Elastic Constant Matrix: (Units=GPa)
#
#
# Indices 1 2 3 4 5 6 
#
# 1 62.3099 8.6344 5.2640 0.0000 0.0000 -2.7146
# 2 8.6344 62.3099 5.2640 0.0000 0.0000 2.7146
# 3 5.2640 5.2640 122.6038 0.0000 0.0000 0.0000
# 4 0.0000 0.0000 0.0000 33.9339 0.0000 0.0000
# 5 0.0000 0.0000 0.0000 0.0000 33.9339 0.0000
# 6 -2.7146 2.7146 0.0000 0.0000 0.0000 27.5168
#
#
#
# Elastic Compliance Matrix: (Units=1/GPa)
#
#
# Indices 1 2 3 4 5 6 
#
# 1 0.016502 -0.002316 -0.000609 0.000000 0.000000 0.001856
# 2 -0.002316 0.016502 -0.000609 0.000000 0.000000 -0.001856
# 3 -0.000609 -0.000609 0.008209 0.000000 0.000000 0.000000
# 4 0.000000 0.000000 0.000000 0.029469 0.000000 0.000000
# 5 0.000000 0.000000 0.000000 0.000000 0.029469 0.000000
# 6 0.001856 -0.001856 0.000000 0.000000 0.000000 0.036708
#
#
# Mechanical properties :
#
#
# Convention : Reuss Voigt Hill
#
# Bulk Modulus (GPa) = 29.28752 31.72761 30.50756
# Shear Modulus (GPa) = 32.19394 34.28100 33.23747
#
# Velocity S-wave (km/s) = 3.82466 3.94668 3.88615
# Velocity P-wave (km/s) = 5.72812 5.93165 5.83078
#
# Compressibility (1/GPa) = 0.03414424
#
# Stress axis : x y z
#
# Youngs Moduli (GPa) = 60.59838 60.59838 121.82269
#
# Poissons Ratio (x) = 0.14036 0.07420
# Poissons Ratio (y) = 0.14036 0.07420
# Poissons Ratio (z) = 0.03691 0.03691
#
# Static dielectric constant tensor:
#      x y z
#    x 1.848340 0.000000 0.000000 
#    y 0.000000 1.848340 0.000000 
#    z 0.000000 0.000000 1.881190 
# 
# From -- ./inp_files/3957.got.cif
#   From: 2010.05.17/outbox.cif.g08.bks.cpg/sg82_2_cif.got.tgz:3957.got - 2010.06.03 18:52:26.
