data_PCOD9543931
_publ_section_title
;
Structure prediction by ZEFSAII (Michael W. Deem and Ramdas Pophale) SiO2 
 PCOD9543931
Probable space group: P 4/M
;
_chemical_formula_sum "Si O2"
_cell_formula_units_Z 38
_cell_length_a 9.000000
_cell_length_b 9.000000
_cell_length_c 24.000000
_cell_angle_alpha 90.000000
_cell_angle_beta 90.000000
_cell_angle_gamma 90.000000
_cell_volume 1944.000000
_symmetry_space_group_name_H-M "P 4/M"
_symmetry_group_IT_number 83
_symmetry_cell_setting 'tetragonal'
loop_
_space_group_symop_operation_xyz
x,y,z
-y,x,z
-x,-y,z
y,-x,z
-x,-y,-z
y,-x,-z
x,y,-z
-y,x,-z
loop_
_atom_site_type_symbol
_atom_site_label
_atom_site_fract_x
_atom_site_fract_y
_atom_site_fract_z
Si Si1 0.000000 0.500000 0.500000
Si Si2 0.614206 0.716203 0.809960
Si Si3 0.725314 0.387077 0.000000
Si Si4 0.775931 0.887779 0.900400
Si Si5 0.753291 0.938091 0.407240
Si Si6 0.604657 0.723582 0.323350
O O1 0.058968 0.620338 0.452049
O O2 0.440632 0.693769 0.824961
O O3 0.697754 0.845830 0.842270
O O4 0.616824 0.735769 0.743404
O O5 0.692390 0.563164 0.000000
O O6 0.819396 0.331881 0.947059
O O7 0.936964 0.807908 0.905584
O O8 0.673493 0.868682 0.352393
O O9 0.896990 0.827101 0.412164
O O10 0.430884 0.691855 0.338340
#
# Coordination Sequence:
#
# PCOD9543931 Si02
#       6
#     2   8   4   8   8   8
#     4  12  24  42  64  86 120 160 200 242 296 360
#     4   9  19  37  61  89 122 161 206 252 301 365
#     4  11  24  41  62  86 112 149 204 265 324 388
#     4  11  24  39  56  84 122 161 205 258 314 374
#     4  11  24  41  63  92 125 160 201 252 306 361
#     4   9  19  38  64  94 128 166 208 255 309 372
#
# _framework density 19.547325000000001
#
# number of rings (size 3 to 8) (size 9 to 14) (size 15 to 20)
#    0.000    1.789    0.000    5.053    0.000    9.263 
#    0.000    6.316    0.000    3.789    0.000    0.000 
#    0.000    0.000    0.000    0.000    0.000    0.000 
#
# Total GULP energy -211573.751742 kJ/mol
# GULP energy per Si atom -5567.730309 kJ/mol
# Density = 1.950283 g / cm^3
# Si number density = 19.547325 Si / 1000 Ang^3
#
#
#
# Elastic Constant Matrix: (Units=GPa)
#
#
# Indices 1 2 3 4 5 6 
#
# 1 55.4222 3.6838 26.0122 0.0000 0.0000 -10.5617
# 2 3.6838 55.4222 26.0122 0.0000 0.0000 10.5617
# 3 26.0122 26.0122 65.4064 0.0000 0.0000 0.0000
# 4 0.0000 0.0000 0.0000 13.9614 0.0000 0.0000
# 5 0.0000 0.0000 0.0000 0.0000 13.9614 0.0000
# 6 -10.5617 10.5617 0.0000 0.0000 0.0000 43.8890
#
#
#
# Elastic Compliance Matrix: (Units=1/GPa)
#
#
# Indices 1 2 3 4 5 6 
#
# 1 0.023732 0.002299 -0.010352 0.000000 0.000000 0.005158
# 2 0.002299 0.023732 -0.010352 0.000000 0.000000 -0.005158
# 3 -0.010352 -0.010352 0.023523 0.000000 0.000000 0.000000
# 4 0.000000 0.000000 0.000000 0.071626 0.000000 0.000000
# 5 0.000000 0.000000 0.000000 0.000000 0.071626 0.000000
# 6 0.005158 -0.005158 0.000000 0.000000 0.000000 0.025267
#
#
# Mechanical properties :
#
#
# Convention : Reuss Voigt Hill
#
# Bulk Modulus (GPa) = 29.26098 31.96300 30.61199
# Shear Modulus (GPa) = 17.37845 22.39852 19.88848
#
# Velocity S-wave (km/s) = 2.98492 3.38873 3.19321
# Velocity P-wave (km/s) = 5.18473 5.63013 5.41202
#
# Compressibility (1/GPa) = 0.03417521
#
# Stress axis : x y z
#
# Youngs Moduli (GPa) = 42.13651 42.13651 42.51085
#
# Poissons Ratio (x) = -0.09685 0.44009
# Poissons Ratio (y) = -0.09685 0.44009
# Poissons Ratio (z) = 0.43622 0.43622
#
# Static dielectric constant tensor:
#      x y z
#    x 1.682520 0.000000 0.000000 
#    y 0.000000 1.682520 0.000000 
#    z 0.000000 0.000000 1.693060 
# 
# From -- ./inp_files/3107.got.cif
#   From: 2010.05.17/outbox.ucp.g08.bks.cvg/sg83_2_cif.got.tgz:3107.got - 2010.06.11 10:34:49.
