data_PCOD9543596
_publ_section_title
;
Structure prediction by ZEFSAII (Michael W. Deem and Ramdas Pophale) SiO2 
 PCOD9543596
Probable space group: P 4/M
;
_chemical_formula_sum "Si O2"
_cell_formula_units_Z 47
_cell_length_a 8.601726
_cell_length_b 8.601726
_cell_length_c 28.869193
_cell_angle_alpha 90.000000
_cell_angle_beta 90.000000
_cell_angle_gamma 90.000000
_cell_volume 2136.022646
_symmetry_space_group_name_H-M "P 4/M"
_symmetry_group_IT_number 83
_symmetry_cell_setting 'tetragonal'
loop_
_space_group_symop_operation_xyz
x,y,z
-y,x,z
-x,-y,z
y,-x,z
-x,-y,-z
y,-x,-z
x,y,-z
-y,x,-z
loop_
_atom_site_type_symbol
_atom_site_label
_atom_site_fract_x
_atom_site_fract_y
_atom_site_fract_z
Si Si1 0.500000 0.500000 0.618690
Si Si2 0.102746 0.657198 0.500000
Si Si3 0.162812 0.592459 0.600108
Si Si4 0.248316 0.577130 0.869149
Si Si5 0.250287 0.078966 0.052560
Si Si6 0.000000 0.000000 0.500000
Si Si7 0.425181 0.249361 0.765900
Si Si8 0.906845 0.236573 0.690697
O O1 0.308163 0.490844 0.617285
O O2 0.197288 0.651702 0.548087
O O3 0.000000 0.500000 0.500000
O O4 0.994136 0.808498 0.500000
O O5 0.125473 0.724350 0.637448
O O6 0.000000 0.500000 0.598219
O O7 0.313674 0.402085 0.872939
O O8 0.131601 0.628372 0.908988
O O9 0.181158 0.597653 0.817330
O O10 0.096511 0.187325 0.057455
O O11 0.309934 0.098456 0.000000
O O12 0.598470 0.315431 0.762785
O O13 0.376834 0.143245 0.723568
O O14 0.083632 0.193312 0.700801
#
# Coordination Sequence:
#
# PCOD9543596 Si02
#       8
#     2   4   8   8   8   1   8   8
#     4  12  28  45  80 100 136 192 216 280 349 388
#     4  10  28  49  74 111 141 182 237 281 338 413
#     4  11  27  48  71 108 139 173 233 277 329 412
#     4   9  19  37  57  84 116 152 198 254 310 371
#     4   9  19  35  54  79 114 156 199 246 303 370
#     4  12  28  44  84  96 140 204 212 276 364 384
#     4   9  21  40  64  86 116 160 211 258 314 389
#     4  11  26  42  62  94 132 166 209 270 328 386
#
# _framework density 22.003509000000001
#
# number of rings (size 3 to 8) (size 9 to 14) (size 15 to 20)
#    0.000    2.043    0.000    2.553   11.915    3.064 
#    0.000    7.660    0.000    0.000    0.000    0.000 
#    0.000    0.000    0.000    0.000    0.000    0.000 
#
# Total GULP energy -262047.848806 kJ/mol
# GULP energy per Si atom -5575.486145 kJ/mol
# Density = 2.195343 g / cm^3
# Si number density = 22.003509 Si / 1000 Ang^3
#
#
#
# Elastic Constant Matrix: (Units=GPa)
#
#
# Indices 1 2 3 4 5 6 
#
# 1 56.0681 34.0380 22.7522 0.0000 0.0000 20.5959
# 2 34.0380 56.0681 22.7522 0.0000 0.0000 -20.5959
# 3 22.7522 22.7522 95.7511 0.0000 0.0000 0.0000
# 4 0.0000 0.0000 0.0000 36.1358 0.0000 0.0000
# 5 0.0000 0.0000 0.0000 0.0000 36.1358 0.0000
# 6 20.5959 -20.5959 0.0000 0.0000 0.0000 -14.1970
#
#
#
# Elastic Compliance Matrix: (Units=1/GPa)
#
#
# Indices 1 2 3 4 5 6 
#
# 1 0.012419 0.000192 -0.002997 0.000000 0.000000 0.017738
# 2 0.000192 0.012419 -0.002997 0.000000 0.000000 -0.017738
# 3 -0.002997 -0.002997 0.011868 0.000000 0.000000 0.000000
# 4 0.000000 0.000000 0.000000 0.027673 0.000000 0.000000
# 5 0.000000 0.000000 0.000000 0.000000 0.027673 0.000000
# 6 0.017738 -0.017738 0.000000 0.000000 0.000000 -0.018973
#
#
# Mechanical properties :
#
#
# Convention : Reuss Voigt Hill
#
# Bulk Modulus (GPa) = 39.83447 40.77466 40.30457
# Shear Modulus (GPa) = 53.73448 20.17125 36.95286
#
# Velocity S-wave (km/s) = 4.94711 3.03104 4.10250
# Velocity P-wave (km/s) = 7.12565 5.55165 6.38732
#
# Compressibility (1/GPa) = 0.02510389
#
# Stress axis : x y z
#
# Youngs Moduli (GPa) = 80.52143 80.52143 84.26099
#
# Poissons Ratio (x) = -0.01549 0.25250
# Poissons Ratio (y) = -0.01549 0.25250
# Poissons Ratio (z) = 0.24130 0.24130
#
# Static dielectric constant tensor:
#      x y z
#    x 1.798180 0.000000 0.000000 
#    y 0.000000 1.798180 0.000000 
#    z 0.000000 0.000000 1.823370 
# 
# From -- ./inp_files/3522.got.cif
#   From: 2010.05.17/outbox.cif.g08.bks.cpg/sg83_2_cif.got.tgz:3522.got - 2010.06.03 18:55:12.
