data_PCOD9543628
_publ_section_title
;
Structure prediction by ZEFSAII (Michael W. Deem and Ramdas Pophale) SiO2 
 PCOD9543628
Probable space group: P 4/M
;
_chemical_formula_sum "Si O2"
_cell_formula_units_Z 40
_cell_length_a 10.031412
_cell_length_b 10.031412
_cell_length_c 24.838260
_cell_angle_alpha 90.000000
_cell_angle_beta 90.000000
_cell_angle_gamma 90.000000
_cell_volume 2499.454897
_symmetry_space_group_name_H-M "P 4/M"
_symmetry_group_IT_number 83
_symmetry_cell_setting 'tetragonal'
loop_
_space_group_symop_operation_xyz
x,y,z
-y,x,z
-x,-y,z
y,-x,z
-x,-y,-z
y,-x,-z
x,y,-z
-y,x,-z
loop_
_atom_site_type_symbol
_atom_site_label
_atom_site_fract_x
_atom_site_fract_y
_atom_site_fract_z
Si Si1 0.570424 0.286094 0.561257
Si Si2 0.346261 0.136342 0.713202
Si Si3 0.151546 0.362817 0.330047
Si Si4 0.215440 0.069559 0.057804
Si Si5 0.929153 0.215469 0.823944
O O1 0.661659 0.418574 0.567498
O O2 0.586459 0.236950 0.500000
O O3 0.606414 0.183623 0.607848
O O4 0.251379 0.251807 0.691667
O O5 0.499822 0.171869 0.702763
O O6 0.311926 0.105574 0.775110
O O7 0.320609 0.000160 0.680283
O O8 0.278156 0.090444 0.116516
O O9 0.081959 0.160207 0.057715
O O10 0.285403 0.092076 0.000000
O O11 0.081478 0.161613 0.819669
#
# Coordination Sequence:
#
# PCOD9543628 Si02
#       5
#     8   8   8   8   8
#     4   9  17  33  58  81 101 132 170 210 255 304
#     4  11  22  34  52  76 106 139 172 208 257 302
#     4  11  22  36  53  79 105 133 173 210 256 302
#     4   7  10  17  33  61  94 125 164 209 250 295
#     4   9  15  26  45  69  99 138 171 206 258 308
#
# _framework density 16.003488999999998
#
# number of rings (size 3 to 8) (size 9 to 14) (size 15 to 20)
#    0.000    2.600    4.000    2.400    0.000    0.800 
#    0.000    3.000    0.000    0.000    0.000    5.600 
#    0.000    0.000    0.000    1.800    0.000    0.000 
#
# Total GULP energy -222691.364314 kJ/mol
# GULP energy per Si atom -5567.284108 kJ/mol
# Density = 1.596706 g / cm^3
# Si number density = 16.003489 Si / 1000 Ang^3
#
#
#
# Elastic Constant Matrix: (Units=GPa)
#
#
# Indices 1 2 3 4 5 6 
#
# 1 62.0600 42.1177 45.4455 0.0000 0.0000 8.5480
# 2 42.1177 62.0600 45.4455 0.0000 0.0000 -8.5480
# 3 45.4455 45.4455 196.8792 0.0000 0.0000 0.0000
# 4 0.0000 0.0000 0.0000 18.1268 0.0000 0.0000
# 5 0.0000 0.0000 0.0000 0.0000 18.1268 0.0000
# 6 8.5480 -8.5480 0.0000 0.0000 0.0000 21.3833
#
#
#
# Elastic Compliance Matrix: (Units=1/GPa)
#
#
# Indices 1 2 3 4 5 6 
#
# 1 0.044154 -0.032134 -0.002774 0.000000 0.000000 -0.030496
# 2 -0.032134 0.044154 -0.002774 0.000000 0.000000 0.030496
# 3 -0.002774 -0.002774 0.006360 0.000000 0.000000 0.000000
# 4 0.000000 0.000000 0.000000 0.055167 0.000000 0.000000
# 5 0.000000 0.000000 0.000000 0.000000 0.055167 0.000000
# 6 -0.030496 0.030496 0.000000 0.000000 0.000000 0.071147
#
#
# Mechanical properties :
#
#
# Convention : Reuss Voigt Hill
#
# Bulk Modulus (GPa) = 51.80968 65.22406 58.51687
# Shear Modulus (GPa) = 13.96849 24.06008 19.01428
#
# Velocity S-wave (km/s) = 2.95759 3.88161 3.45067
# Velocity P-wave (km/s) = 6.64134 7.80601 7.24711
#
# Compressibility (1/GPa) = 0.01930141
#
# Stress axis : x y z
#
# Youngs Moduli (GPa) = 22.64814 22.64814 157.22985
#
# Poissons Ratio (x) = 0.72778 0.43623
# Poissons Ratio (y) = 0.72778 0.43623
# Poissons Ratio (z) = 0.06284 0.06284
#
# Static dielectric constant tensor:
#      x y z
#    x 1.522110 0.000000 0.000000 
#    y 0.000000 1.522110 0.000000 
#    z 0.000000 0.000000 1.576420 
# 
# From -- ./inp_files/3099.got.cif
#   From: 2010.05.17/outbox.cif.g08.bks.cpg/sg83_2_cif.got.tgz:3099.got - 2010.06.03 18:55:12.
