data_PCOD9543019
_publ_section_title
;
Structure prediction by ZEFSAII (Michael W. Deem and Ramdas Pophale) SiO2 
 PCOD9543019
Probable space group: I -4 
;
_chemical_formula_sum "Si O2"
_cell_formula_units_Z 64
_cell_length_a 12.021748
_cell_length_b 12.021748
_cell_length_c 22.375725
_cell_angle_alpha 90.000000
_cell_angle_beta 90.000000
_cell_angle_gamma 90.000000
_cell_volume 3233.794038
_symmetry_space_group_name_H-M "I -4 "
_symmetry_group_IT_number 82
_symmetry_cell_setting 'tetragonal'
loop_
_space_group_symop_operation_xyz
x,y,z
y,-x,-z
-x,-y,z
-y,x,-z
1/2+x,1/2+y,1/2+z
1/2+y,1/2-x,1/2-z
1/2-x,1/2-y,1/2+z
1/2-y,1/2+x,1/2-z
loop_
_atom_site_type_symbol
_atom_site_label
_atom_site_fract_x
_atom_site_fract_y
_atom_site_fract_z
Si Si1 0.219428 0.905300 0.121667
Si Si2 0.435120 0.895928 0.424408
Si Si3 0.974052 0.135509 0.044254
Si Si4 0.814860 0.837832 0.428524
Si Si5 0.437819 0.298722 0.128421
Si Si6 0.274885 0.443122 0.056181
Si Si7 0.824819 0.427966 0.748516
Si Si8 0.382630 0.974700 0.941266
O O1 0.093318 0.919043 0.099648
O O2 0.272114 0.799678 0.084829
O O3 0.254032 0.892063 0.190483
O O4 0.285133 0.015984 0.102885
O O5 0.306148 0.914077 0.415424
O O6 0.472794 0.895446 0.492606
O O7 0.500000 0.000000 0.394256
O O8 0.983532 0.259143 0.070418
O O9 0.092687 0.102761 0.012818
O O10 0.814419 0.908884 0.489952
O O11 0.924705 0.762919 0.433958
O O12 0.826078 0.932073 0.377837
O O13 0.362121 0.397542 0.104315
O O14 0.410681 0.250589 0.193182
O O15 0.157893 0.381367 0.060412
O O16 0.860600 0.558698 0.746622
O O17 0.500000 0.000000 0.908607
#
# Coordination Sequence:
#
# PCOD9543019 Si02
#       8
#     8   8   8   8   8   8   8   8
#     4  12  22  39  68  97 129 176 222 277 333 404
#     4  11  19  33  57  93 124 162 212 256 323 385
#     4  11  24  40  62  93 138 178 215 266 338 408
#     4  12  22  38  61  99 133 174 210 278 346 402
#     4  12  24  37  63  95 135 175 219 276 337 402
#     4  12  25  38  63  94 137 171 219 272 344 412
#     4  11  22  41  67  97 131 174 229 279 328 388
#     4  11  23  39  62  93 127 173 222 274 334 413
#
# _framework density 19.790994000000001
#
# number of rings (size 3 to 8) (size 9 to 14) (size 15 to 20)
#    0.000    0.500    7.500    1.875    3.500    0.000 
#    0.000    0.000    8.250    0.000    0.000    0.000 
#    0.000    0.000    0.000    0.000    0.000    0.000 
#
# Total GULP energy -178306.699069 kJ/mol
# GULP energy per Si atom -5572.084346 kJ/mol
# Density = 1.974595 g / cm^3
# Si number density = 19.790994 Si / 1000 Ang^3
#
#
#
# Elastic Constant Matrix: (Units=GPa)
#
#
# Indices 1 2 3 4 5 6 
#
# 1 59.4678 8.0326 13.6664 0.0000 0.0000 -8.5426
# 2 8.0326 59.4678 13.6664 0.0000 0.0000 8.5426
# 3 13.6664 13.6664 79.5467 0.0000 0.0000 0.0000
# 4 0.0000 0.0000 0.0000 20.4717 0.0000 0.0000
# 5 0.0000 0.0000 0.0000 0.0000 20.4717 0.0000
# 6 -8.5426 8.5426 0.0000 0.0000 0.0000 37.6690
#
#
#
# Elastic Compliance Matrix: (Units=1/GPa)
#
#
# Indices 1 2 3 4 5 6 
#
# 1 0.018474 -0.002552 -0.002736 0.000000 0.000000 0.004768
# 2 -0.002552 0.018474 -0.002736 0.000000 0.000000 -0.004768
# 3 -0.002736 -0.002736 0.013511 0.000000 0.000000 0.000000
# 4 0.000000 0.000000 0.000000 0.048848 0.000000 0.000000
# 5 0.000000 0.000000 0.000000 0.000000 0.048848 0.000000
# 6 0.004768 -0.004768 0.000000 0.000000 0.000000 0.028710
#
#
# Mechanical properties :
#
#
# Convention : Reuss Voigt Hill
#
# Bulk Modulus (GPa) = 29.05803 29.91257 29.48530
# Shear Modulus (GPa) = 24.46402 26.59694 25.53048
#
# Velocity S-wave (km/s) = 3.51966 3.66989 3.59556
# Velocity P-wave (km/s) = 5.58853 5.75365 5.67169
#
# Compressibility (1/GPa) = 0.03441390
#
# Stress axis : x y z
#
# Youngs Moduli (GPa) = 54.12986 54.12986 74.01279
#
# Poissons Ratio (x) = 0.13812 0.20246
# Poissons Ratio (y) = 0.13812 0.20246
# Poissons Ratio (z) = 0.14807 0.14807
#
# Static dielectric constant tensor:
#      x y z
#    x 1.797950 0.000000 0.000000 
#    y 0.000000 1.797950 0.000000 
#    z 0.000000 0.000000 1.877360 
# 
# From -- ./inp_files/3559.got.cif
#   From: 2010.05.17/outbox.cif.g08.bks.cpg/sg82_2_cif.got.tgz:3559.got - 2010.06.03 18:52:26.
