data_PCOD9543396
_publ_section_title
;
Structure prediction by ZEFSAII (Michael W. Deem and Ramdas Pophale) SiO2 
 PCOD9543396
Probable space group: P 4/M
;
_chemical_formula_sum "Si O2"
_cell_formula_units_Z 48
_cell_length_a 10.778096
_cell_length_b 10.778096
_cell_length_c 24.551211
_cell_angle_alpha 90.000000
_cell_angle_beta 90.000000
_cell_angle_gamma 90.000000
_cell_volume 2852.049204
_symmetry_space_group_name_H-M "P 4/M"
_symmetry_group_IT_number 83
_symmetry_cell_setting 'tetragonal'
loop_
_space_group_symop_operation_xyz
x,y,z
-y,x,z
-x,-y,z
y,-x,z
-x,-y,-z
y,-x,-z
x,y,-z
-y,x,-z
loop_
_atom_site_type_symbol
_atom_site_label
_atom_site_fract_x
_atom_site_fract_y
_atom_site_fract_z
Si Si1 0.626623 0.666772 0.939076
Si Si2 0.026267 0.350037 0.214322
Si Si3 0.684855 0.413560 0.721436
Si Si4 0.235159 0.717622 0.826643
Si Si5 0.027844 0.792984 0.440416
Si Si6 0.053223 0.636428 0.331917
O O1 0.477242 0.666809 0.934884
O O2 0.683523 0.739372 0.888764
O O3 0.660070 0.711057 0.000000
O O4 0.911358 0.281170 0.185613
O O5 0.020771 0.316052 0.278515
O O6 0.000000 0.500000 0.210661
O O7 0.156016 0.305864 0.189621
O O8 0.659460 0.557889 0.710022
O O9 0.713869 0.388098 0.785101
O O10 0.803888 0.369638 0.687831
O O11 0.036541 0.729471 0.500000
O O12 0.039341 0.711419 0.386995
O O13 0.897986 0.866206 0.438774
O O14 0.000000 0.500000 0.341633
#
# Coordination Sequence:
#
# PCOD9543396 Si02
#       6
#     8   8   8   8   8   8
#     4   9  17  30  52  80 104 136 188 241 281 323
#     4  10  22  35  52  83 111 144 184 228 269 339
#     4  10  20  33  53  78 106 141 177 214 273 334
#     4  11  20  35  53  73 115 147 180 225 283 320
#     4   9  20  37  56  78 103 137 182 222 257 311
#     4  10  21  33  54  80 112 134 172 222 270 318
#
# _framework density 16.830006000000001
#
# number of rings (size 3 to 8) (size 9 to 14) (size 15 to 20)
#    0.000    2.167    0.000    6.000    7.000    2.000 
#    0.000    0.833    0.000    3.000    0.000    2.333 
#    0.000    0.000    0.000    0.000    0.000    0.000 
#
# Total GULP energy -267702.257459 kJ/mol
# GULP energy per Si atom -5577.130364 kJ/mol
# Density = 1.679170 g / cm^3
# Si number density = 16.830006 Si / 1000 Ang^3
#
#
#
# Elastic Constant Matrix: (Units=GPa)
#
#
# Indices 1 2 3 4 5 6 
#
# 1 57.1254 27.8549 54.1354 0.0000 0.0000 4.6798
# 2 27.8549 57.1254 54.1354 0.0000 0.0000 -4.6798
# 3 54.1354 54.1354 185.4815 0.0000 0.0000 0.0000
# 4 0.0000 0.0000 0.0000 21.3617 0.0000 0.0000
# 5 0.0000 0.0000 0.0000 0.0000 21.3617 0.0000
# 6 4.6798 -4.6798 0.0000 0.0000 0.0000 12.5087
#
#
#
# Elastic Compliance Matrix: (Units=1/GPa)
#
#
# Indices 1 2 3 4 5 6 
#
# 1 0.028770 -0.010036 -0.005468 0.000000 0.000000 -0.014519
# 2 -0.010036 0.028770 -0.005468 0.000000 0.000000 0.014519
# 3 -0.005468 -0.005468 0.008583 0.000000 0.000000 0.000000
# 4 0.000000 0.000000 0.000000 0.046813 0.000000 0.000000
# 5 0.000000 0.000000 0.000000 0.000000 0.046813 0.000000
# 6 -0.014519 0.014519 0.000000 0.000000 0.000000 0.090808
#
#
# Mechanical properties :
#
#
# Convention : Reuss Voigt Hill
#
# Bulk Modulus (GPa) = 41.35722 63.55375 52.45549
# Shear Modulus (GPa) = 16.63561 21.95352 19.29457
#
# Velocity S-wave (km/s) = 3.14737 3.61560 3.38958
# Velocity P-wave (km/s) = 6.15100 7.43467 6.82309
#
# Compressibility (1/GPa) = 0.02417958
#
# Stress axis : x y z
#
# Youngs Moduli (GPa) = 34.75832 34.75832 116.50923
#
# Poissons Ratio (x) = 0.34885 0.63703
# Poissons Ratio (y) = 0.34885 0.63703
# Poissons Ratio (z) = 0.19005 0.19005
#
# Static dielectric constant tensor:
#      x y z
#    x 1.574400 0.000000 0.000000 
#    y 0.000000 1.574400 0.000000 
#    z 0.000000 0.000000 1.561670 
# 
# From -- ./inp_files/2620.got.cif
#   From: 2010.05.17/outbox.cif.g08.bks.cpg/sg83_2_cif.got.tgz:2620.got - 2010.06.03 18:55:12.
