data_PCOD9543977
_publ_section_title
;
Structure prediction by ZEFSAII (Michael W. Deem and Ramdas Pophale) SiO2 
 PCOD9543977
Probable space group: P 42/M
;
_chemical_formula_sum "Si O2"
_cell_formula_units_Z 64
_cell_length_a 14.514027
_cell_length_b 14.514027
_cell_length_c 18.030690
_cell_angle_alpha 90.000000
_cell_angle_beta 90.000000
_cell_angle_gamma 90.000000
_cell_volume 3798.290698
_symmetry_space_group_name_H-M "P 42/M"
_symmetry_group_IT_number 84
_symmetry_cell_setting 'tetragonal'
loop_
_space_group_symop_operation_xyz
x,y,z
-y,x,1/2+z
-x,-y,z
y,-x,1/2+z
-x,-y,-z
y,-x,1/2-z
x,y,-z
-y,x,1/2-z
loop_
_atom_site_type_symbol
_atom_site_label
_atom_site_fract_x
_atom_site_fract_y
_atom_site_fract_z
Si Si1 0.651134 0.861488 0.416794
Si Si2 0.254940 0.023114 0.304639
Si Si3 0.592402 0.943627 0.813405
Si Si4 0.830592 0.170245 0.295813
Si Si5 0.265647 0.348539 0.265305
Si Si6 0.715260 0.181345 0.915564
Si Si7 0.445289 0.232997 0.282185
Si Si8 0.968765 0.255427 0.415045
O O1 0.616559 0.873325 0.500000
O O2 0.692689 0.953589 0.380291
O O3 0.737795 0.791213 0.418385
O O4 0.577265 0.819803 0.359256
O O5 0.333572 0.010127 0.242351
O O6 0.198775 0.112735 0.277548
O O7 0.189753 0.936391 0.304899
O O8 0.579398 0.841204 0.781922
O O9 0.500000 0.000000 0.809992
O O10 0.638485 0.948546 0.893634
O O11 0.731771 0.220055 0.285634
O O12 0.898253 0.201969 0.361696
O O13 0.211224 0.346481 0.344735
O O14 0.370933 0.315303 0.277897
O O15 0.259913 0.448952 0.229049
O O16 0.756258 0.078850 0.901913
O O17 0.673996 0.177804 0.000000
O O18 0.950463 0.233860 0.500000
#
# Coordination Sequence:
#
# PCOD9543977 Si02
#       8
#     8   8   8   8   8   8   8   8
#     4   9  18  35  54  78 109 143 190 227 261 322
#     4  10  20  32  53  78 106 146 179 231 272 320
#     4  10  18  33  54  80 102 136 187 226 266 318
#     4  11  20  35  51  77 112 144 184 223 278 325
#     4  11  19  37  58  80 109 138 180 229 278 326
#     4   9  17  33  56  79 106 143 181 225 272 313
#     4  10  20  34  58  82 105 141 179 229 275 320
#     4  10  20  33  50  76 113 144 174 220 276 333
#
# _framework density 16.849685000000001
#
# number of rings (size 3 to 8) (size 9 to 14) (size 15 to 20)
#    0.000    2.000    5.000    3.000    0.000    1.250 
#    0.000    1.250    0.000   15.000    0.000    3.500 
#    0.000    0.000    0.000    0.000    0.000    0.000 
#
# Total GULP energy -356452.515981 kJ/mol
# GULP energy per Si atom -5569.570562 kJ/mol
# Density = 1.681133 g / cm^3
# Si number density = 16.849685 Si / 1000 Ang^3
#
#
#
# Elastic Constant Matrix: (Units=GPa)
#
#
# Indices 1 2 3 4 5 6 
#
# 1 97.4680 28.1586 29.8897 0.0000 0.0000 -2.9959
# 2 28.1586 97.4680 29.8897 0.0000 0.0000 2.9959
# 3 29.8897 29.8897 65.3390 0.0000 0.0000 0.0000
# 4 0.0000 0.0000 0.0000 14.7323 0.0000 0.0000
# 5 0.0000 0.0000 0.0000 0.0000 14.7323 0.0000
# 6 -2.9959 2.9959 0.0000 0.0000 0.0000 23.6392
#
#
#
# Elastic Compliance Matrix: (Units=1/GPa)
#
#
# Indices 1 2 3 4 5 6 
#
# 1 0.012381 -0.002206 -0.004655 0.000000 0.000000 0.001849
# 2 -0.002206 0.012381 -0.004655 0.000000 0.000000 -0.001849
# 3 -0.004655 -0.004655 0.019563 0.000000 0.000000 0.000000
# 4 0.000000 0.000000 0.000000 0.067878 0.000000 0.000000
# 5 0.000000 0.000000 0.000000 0.000000 0.067878 0.000000
# 6 0.001849 -0.001849 0.000000 0.000000 0.000000 0.042771
#
#
# Mechanical properties :
#
#
# Convention : Reuss Voigt Hill
#
# Bulk Modulus (GPa) = 46.95957 48.46119 47.71038
# Shear Modulus (GPa) = 19.76420 22.10992 20.93706
#
# Velocity S-wave (km/s) = 3.42858 3.62634 3.52885
# Velocity P-wave (km/s) = 6.60332 6.80861 6.70675
#
# Compressibility (1/GPa) = 0.02129492
#
# Stress axis : x y z
#
# Youngs Moduli (GPa) = 80.76605 80.76605 51.11601
#
# Poissons Ratio (x) = 0.17821 0.23792
# Poissons Ratio (y) = 0.17821 0.23792
# Poissons Ratio (z) = 0.37593 0.37593
#
# Static dielectric constant tensor:
#      x y z
#    x 1.575150 0.000000 0.000000 
#    y 0.000000 1.575150 0.000000 
#    z 0.000000 0.000000 1.607810 
# 
# From -- ./inp_files/3863.got.cif
#   From: 2010.05.17/outbox.cif.g08.bks.cpg/sg84_2_cif.got.tgz:3863.got - 2010.06.03 18:57:40.
