data_PCOD9543930
_publ_section_title
;
Structure prediction by ZEFSAII (Michael W. Deem and Ramdas Pophale) SiO2 
 PCOD9543930
Probable space group: P 4/M
;
_chemical_formula_sum "Si O2"
_cell_formula_units_Z 44
_cell_length_a 9.000000
_cell_length_b 9.000000
_cell_length_c 30.000000
_cell_angle_alpha 90.000000
_cell_angle_beta 90.000000
_cell_angle_gamma 90.000000
_cell_volume 2430.000000
_symmetry_space_group_name_H-M "P 4/M"
_symmetry_group_IT_number 83
_symmetry_cell_setting 'tetragonal'
loop_
_space_group_symop_operation_xyz
x,y,z
-y,x,z
-x,-y,z
y,-x,z
-x,-y,-z
y,-x,-z
x,y,-z
-y,x,-z
loop_
_atom_site_type_symbol
_atom_site_label
_atom_site_fract_x
_atom_site_fract_y
_atom_site_fract_z
Si Si1 0.000000 0.500000 0.880333
Si Si2 0.243383 0.059438 0.052921
Si Si3 0.769868 0.098358 0.710499
Si Si4 0.391659 0.728607 0.367164
Si Si5 0.778902 0.119071 0.447677
Si Si6 0.759240 0.073870 0.184442
O O1 0.080947 0.616195 0.914379
O O2 0.911268 0.614337 0.847243
O O3 0.173277 0.894030 0.060747
O O4 0.281934 0.068934 0.000000
O O5 0.656039 0.170356 0.675395
O O6 0.723858 0.101588 0.762968
O O7 0.925125 0.187952 0.703337
O O8 0.308217 0.567695 0.366250
O O9 0.335547 0.813593 0.411883
O O10 0.737119 0.141360 0.500000
O O11 0.941971 0.194391 0.441043
O O12 0.904431 0.178876 0.176749
#
# Coordination Sequence:
#
# PCOD9543930 Si02
#       6
#     4   8   8   8   8   8
#     4  12  19  28  56  88 110 138 179 228 278 326
#     4   9  19  36  56  79 110 148 190 233 271 314
#     4   9  19  37  59  79 101 135 183 231 270 318
#     4  11  24  37  51  78 115 149 179 218 271 330
#     4   9  19  37  60  84 108 137 180 231 275 320
#     4   9  20  37  55  79 109 140 179 227 274 325
#
# _framework density 18.106995999999999
#
# number of rings (size 3 to 8) (size 9 to 14) (size 15 to 20)
#    0.000    2.364    0.000    4.636    0.000    9.455 
#    0.000    2.727    0.000    8.727    0.000   10.182 
#    0.000    0.000    0.000    0.000    0.000    0.000 
#
# Total GULP energy -245498.662045 kJ/mol
# GULP energy per Si atom -5579.515046 kJ/mol
# Density = 1.806578 g / cm^3
# Si number density = 18.106996 Si / 1000 Ang^3
#
#
#
# Elastic Constant Matrix: (Units=GPa)
#
#
# Indices 1 2 3 4 5 6 
#
# 1 64.7077 5.5443 42.3711 0.0000 0.0000 -0.7645
# 2 5.5443 64.7077 42.3711 0.0000 0.0000 0.7645
# 3 42.3711 42.3711 126.8759 0.0000 0.0000 0.0000
# 4 0.0000 0.0000 0.0000 40.3457 0.0000 0.0000
# 5 0.0000 0.0000 0.0000 0.0000 40.3457 0.0000
# 6 -0.7645 0.7645 0.0000 0.0000 0.0000 27.4483
#
#
#
# Elastic Compliance Matrix: (Units=1/GPa)
#
#
# Indices 1 2 3 4 5 6 
#
# 1 0.020376 0.003461 -0.007960 0.000000 0.000000 0.000471
# 2 0.003461 0.020376 -0.007960 0.000000 0.000000 -0.000471
# 3 -0.007960 -0.007960 0.013199 0.000000 0.000000 0.000000
# 4 0.000000 0.000000 0.000000 0.024786 0.000000 0.000000
# 5 0.000000 0.000000 0.000000 0.000000 0.024786 0.000000
# 6 0.000471 -0.000471 0.000000 0.000000 0.000000 0.036458
#
#
# Mechanical properties :
#
#
# Convention : Reuss Voigt Hill
#
# Bulk Modulus (GPa) = 34.44655 48.54044 41.49350
# Shear Modulus (GPa) = 28.64077 32.69496 30.66787
#
# Velocity S-wave (km/s) = 3.98144 4.25391 4.11993
# Velocity P-wave (km/s) = 6.34043 7.14097 6.75257
#
# Compressibility (1/GPa) = 0.02903048
#
# Stress axis : x y z
#
# Youngs Moduli (GPa) = 49.07803 49.07803 75.76543
#
# Poissons Ratio (x) = -0.16987 0.60313
# Poissons Ratio (y) = -0.16987 0.60313
# Poissons Ratio (z) = 0.39069 0.39069
#
# Static dielectric constant tensor:
#      x y z
#    x 1.617140 0.000000 0.000000 
#    y 0.000000 1.617140 0.000000 
#    z 0.000000 0.000000 1.652540 
# 
# From -- ./inp_files/3366.got.cif
#   From: 2010.05.17/outbox.ucp.g08.bks.cvg/sg83_2_cif.got.tgz:3366.got - 2010.06.11 10:34:49.
