data_PCOD9543961
_publ_section_title
;
Structure prediction by ZEFSAII (Michael W. Deem and Ramdas Pophale) SiO2 
 PCOD9543961
Probable space group: P 42/M
;
_chemical_formula_sum "Si O2"
_cell_formula_units_Z 48
_cell_length_a 9.922117
_cell_length_b 9.922117
_cell_length_c 27.330244
_cell_angle_alpha 90.000000
_cell_angle_beta 90.000000
_cell_angle_gamma 90.000000
_cell_volume 2690.618951
_symmetry_space_group_name_H-M "P 42/M"
_symmetry_group_IT_number 84
_symmetry_cell_setting 'tetragonal'
loop_
_space_group_symop_operation_xyz
x,y,z
-y,x,1/2+z
-x,-y,z
y,-x,1/2+z
-x,-y,-z
y,-x,1/2-z
x,y,-z
-y,x,1/2-z
loop_
_atom_site_type_symbol
_atom_site_label
_atom_site_fract_x
_atom_site_fract_y
_atom_site_fract_z
Si Si1 0.353105 0.722071 0.620792
Si Si2 0.386865 0.199607 0.557773
Si Si3 0.114742 0.816682 0.237667
Si Si4 0.356776 0.635086 0.726367
Si Si5 0.495215 0.664798 0.055451
Si Si6 0.662538 0.990433 0.643643
O O1 0.467938 0.771441 0.582799
O O2 0.225710 0.724349 0.736012
O O3 0.408646 0.660070 0.671287
O O4 0.281954 0.859021 0.636731
O O5 0.399809 0.170149 0.500000
O O6 0.304203 0.338707 0.563237
O O7 0.327347 0.084323 0.591781
O O8 0.084252 0.744217 0.185951
O O9 0.829184 0.030323 0.235332
O O10 0.478767 0.673044 0.762749
O O11 0.277546 0.601718 0.593452
O O12 0.500000 0.500000 0.059448
O O13 0.533395 0.697993 0.000000
O O14 0.500000 0.000000 0.656181
#
# Coordination Sequence:
#
# PCOD9543961 Si02
#       6
#     8   8   8   8   8   8
#     4  10  18  30  46  74 111 147 186 230 292 353
#     4   9  18  30  51  81 118 154 190 238 301 358
#     4  11  24  42  59  79 114 164 205 248 299 358
#     4  11  24  35  56  88 117 154 194 249 306 358
#     4   8  15  26  44  70 106 145 177 220 283 352
#     4  10  20  34  54  80 114 146 195 250 295 349
#
# _framework density 17.839760999999999
#
# number of rings (size 3 to 8) (size 9 to 14) (size 15 to 20)
#    0.000    2.167    1.667    3.500    9.333    3.667 
#    0.000    0.000    0.000    0.000    0.000    4.667 
#    0.000    2.667    0.000    0.000    0.000    0.000 
#
# Total GULP energy -267224.229931 kJ/mol
# GULP energy per Si atom -5567.171457 kJ/mol
# Density = 1.779916 g / cm^3
# Si number density = 17.839761 Si / 1000 Ang^3
#
#
#
# Elastic Constant Matrix: (Units=GPa)
#
#
# Indices 1 2 3 4 5 6 
#
# 1 67.8249 28.5140 46.4356 0.0000 0.0000 -2.4936
# 2 28.5140 67.8249 46.4356 0.0000 0.0000 2.4936
# 3 46.4356 46.4356 134.6385 0.0000 0.0000 0.0000
# 4 0.0000 0.0000 0.0000 14.2959 0.0000 0.0000
# 5 0.0000 0.0000 0.0000 0.0000 14.2959 0.0000
# 6 -2.4936 2.4936 0.0000 0.0000 0.0000 22.0558
#
#
#
# Elastic Compliance Matrix: (Units=1/GPa)
#
#
# Indices 1 2 3 4 5 6 
#
# 1 0.020679 -0.005129 -0.005363 0.000000 0.000000 0.002918
# 2 -0.005129 0.020679 -0.005363 0.000000 0.000000 -0.002918
# 3 -0.005363 -0.005363 0.011127 0.000000 0.000000 0.000000
# 4 0.000000 0.000000 0.000000 0.069950 0.000000 0.000000
# 5 0.000000 0.000000 0.000000 0.000000 0.069950 0.000000
# 6 0.002918 -0.002918 0.000000 0.000000 0.000000 0.045999
#
#
# Mechanical properties :
#
#
# Convention : Reuss Voigt Hill
#
# Bulk Modulus (GPa) = 48.13604 57.00653 52.57128
# Shear Modulus (GPa) = 18.04920 20.05637 19.05278
#
# Velocity S-wave (km/s) = 3.18424 3.35662 3.27157
# Velocity P-wave (km/s) = 6.36869 6.85906 6.61842
#
# Compressibility (1/GPa) = 0.02077446
#
# Stress axis : x y z
#
# Youngs Moduli (GPa) = 48.35770 48.35770 89.87438
#
# Poissons Ratio (x) = 0.24804 0.48200
# Poissons Ratio (y) = 0.24804 0.48200
# Poissons Ratio (z) = 0.25935 0.25935
#
# Static dielectric constant tensor:
#      x y z
#    x 1.648300 0.000000 0.000000 
#    y 0.000000 1.648300 0.000000 
#    z 0.000000 0.000000 1.623090 
# 
# From -- ./inp_files/4401.got.cif
#   From: 2010.05.17/outbox.cif.g08.bks.cpg/sg84_3_cif.got.tgz:4401.got - 2010.06.03 18:57:40.
