data_PCOD9543373
_publ_section_title
;
Structure prediction by ZEFSAII (Michael W. Deem and Ramdas Pophale) SiO2 
 PCOD9543373
Probable space group: P 4/M
;
_chemical_formula_sum "Si O2"
_cell_formula_units_Z 48
_cell_length_a 12.880618
_cell_length_b 12.880618
_cell_length_c 11.347988
_cell_angle_alpha 90.000000
_cell_angle_beta 90.000000
_cell_angle_gamma 90.000000
_cell_volume 1882.748321
_symmetry_space_group_name_H-M "P 4/M"
_symmetry_group_IT_number 83
_symmetry_cell_setting 'tetragonal'
loop_
_space_group_symop_operation_xyz
x,y,z
-y,x,z
-x,-y,z
y,-x,z
-x,-y,-z
y,-x,-z
x,y,-z
-y,x,-z
loop_
_atom_site_type_symbol
_atom_site_label
_atom_site_fract_x
_atom_site_fract_y
_atom_site_fract_z
Si Si1 0.873731 0.157361 0.127921
Si Si2 0.825940 0.836024 0.373479
Si Si3 0.739426 0.353399 0.126962
Si Si4 0.630922 0.978087 0.870686
Si Si5 0.601210 0.759031 0.629469
Si Si6 0.398516 0.901508 0.370577
O O1 0.878710 0.116252 0.259665
O O2 0.769200 0.230417 0.127557
O O3 0.964772 0.244822 0.129567
O O4 0.880720 0.107123 0.000000
O O5 0.853551 0.881704 0.500000
O O6 0.699954 0.839058 0.361752
O O7 0.848032 0.713432 0.374132
O O8 0.856390 0.403213 0.128262
O O9 0.691749 0.386014 0.251412
O O10 0.690678 0.377351 0.000000
O O11 0.600133 0.035368 0.751744
O O12 0.604976 0.023985 0.000000
O O13 0.611193 0.708520 0.500000
O O14 0.493275 0.820583 0.631824
O O15 0.403346 0.956449 0.500000
#
# Coordination Sequence:
#
# PCOD9543373 Si02
#       6
#     8   8   8   8   8   8
#     4   7  13  27  44  60  81 111 141 167 203 255
#     4   9  17  30  44  58  82 116 148 180 219 256
#     4   7  13  26  41  57  81 109 136 164 201 255
#     4   8  16  29  43  64  90 114 138 170 212 258
#     4   9  17  29  43  59  82 116 148 178 219 257
#     4  10  20  29  41  64  88 111 148 188 215 254
#
# _framework density 25.494644000000001
#
# number of rings (size 3 to 8) (size 9 to 14) (size 15 to 20)
#    1.000    2.667    0.000    0.000    0.000    3.333 
#    0.000    3.333    0.000    0.500    0.000    3.500 
#    0.000    0.667    0.000   17.167    0.000   15.667 
#
# Total GULP energy -267289.307149 kJ/mol
# GULP energy per Si atom -5568.527232 kJ/mol
# Density = 2.543662 g / cm^3
# Si number density = 25.494644 Si / 1000 Ang^3
#
#
#
# Elastic Constant Matrix: (Units=GPa)
#
#
# Indices 1 2 3 4 5 6 
#
# 1 167.4287 -97.7181 23.4857 0.0000 0.0000 -267.6141
# 2 -97.7181 167.4287 23.4857 0.0000 0.0000 267.6141
# 3 23.4857 23.4857 332.2989 0.0000 0.0000 0.0000
# 4 0.0000 0.0000 0.0000 -169.1939 0.0000 0.0000
# 5 0.0000 0.0000 0.0000 0.0000 -169.1939 0.0000
# 6 -267.6141 267.6141 0.0000 0.0000 0.0000 666.9994
#
#
#
# Elastic Compliance Matrix: (Units=1/GPa)
#
#
# Indices 1 2 3 4 5 6 
#
# 1 0.017451 -0.002389 -0.001065 0.000000 0.000000 0.007960
# 2 -0.002389 0.017451 -0.001065 0.000000 0.000000 -0.007960
# 3 -0.001065 -0.001065 0.003160 0.000000 0.000000 0.000000
# 4 0.000000 0.000000 0.000000 -0.005910 0.000000 0.000000
# 5 0.000000 0.000000 0.000000 0.000000 -0.005910 0.000000
# 6 0.007960 -0.007960 0.000000 0.000000 0.000000 0.007887
#
#
# Mechanical properties :
#
#
# Convention : Reuss Voigt Hill
#
# Bulk Modulus (GPa) = 34.45155 62.85142 48.65149
# Shear Modulus (GPa) = 94.62432 113.58252 104.10342
#
# Velocity S-wave (km/s) = 6.09885 6.68193 6.39704
# Velocity P-wave (km/s) = 7.94589 9.17809 8.58413
#
# Compressibility (1/GPa) = 0.02902627
#
# Stress axis : x y z
#
# Youngs Moduli (GPa) = 57.30207 57.30207 316.47413
#
# Poissons Ratio (x) = 0.13690 0.33690
# Poissons Ratio (y) = 0.13690 0.33690
# Poissons Ratio (z) = 0.06100 0.06100
#
# Static dielectric constant tensor:
#      x y z
#    x 2.064660 0.000000 0.000000 
#    y 0.000000 2.064660 0.000000 
#    z 0.000000 0.000000 2.098120 
# 
# From -- ./inp_files/1803.got.cif
#   From: 2010.05.17/outbox.cif.g08.bks.cpg/sg83_1_cif.got.tgz:1803.got - 2010.06.03 18:55:12.
