data_PCOD9543733
_publ_section_title
;
Structure prediction by ZEFSAII (Michael W. Deem and Ramdas Pophale) SiO2 
 PCOD9543733
Probable space group: P 4/M
;
_chemical_formula_sum "Si O2"
_cell_formula_units_Z 48
_cell_length_a 8.430778
_cell_length_b 8.430778
_cell_length_c 32.679993
_cell_angle_alpha 90.000000
_cell_angle_beta 90.000000
_cell_angle_gamma 90.000000
_cell_volume 2322.829120
_symmetry_space_group_name_H-M "P 4/M"
_symmetry_group_IT_number 83
_symmetry_cell_setting 'tetragonal'
loop_
_space_group_symop_operation_xyz
x,y,z
-y,x,z
-x,-y,z
y,-x,z
-x,-y,-z
y,-x,-z
x,y,-z
-y,x,-z
loop_
_atom_site_type_symbol
_atom_site_label
_atom_site_fract_x
_atom_site_fract_y
_atom_site_fract_z
Si Si1 0.904362 0.751612 0.047764
Si Si2 0.000000 0.500000 0.263125
Si Si3 0.761159 0.542863 0.336490
Si Si4 0.242969 0.424955 0.879491
Si Si5 0.760152 0.572722 0.573179
Si Si6 0.046427 0.262222 0.810796
Si Si7 0.923280 0.742323 0.500000
O O1 0.841533 0.617306 0.077788
O O2 0.086743 0.803138 0.055150
O O3 0.888610 0.709138 0.000000
O O4 0.138126 0.463875 0.295699
O O5 0.021200 0.353132 0.231981
O O6 0.625441 0.674331 0.335929
O O7 0.834390 0.575136 0.381231
O O8 0.397773 0.310752 0.876537
O O9 0.118400 0.382719 0.844062
O O10 0.604320 0.687059 0.568983
O O11 0.879874 0.636449 0.539326
O O12 0.879037 0.174464 0.815356
O O13 0.101567 0.809646 0.500000
#
# Coordination Sequence:
#
# PCOD9543733 Si02
#       7
#     8   4   8   8   8   8   4
#     4   9  19  37  61  89 122 163 211 260 312 372
#     4  12  22  38  64  91 117 150 192 244 306 366
#     4   9  20  38  60  88 120 153 194 245 299 359
#     4  11  24  40  59  87 124 164 209 263 315 361
#     4   9  19  37  60  85 114 154 205 251 295 356
#     4  11  24  41  61  87 119 156 199 246 302 375
#     4  11  24  37  52  84 128 167 208 259 308 354
#
# _framework density 20.664453999999999
#
# number of rings (size 3 to 8) (size 9 to 14) (size 15 to 20)
#    0.000    1.917    0.000    5.000    0.000    8.667 
#    0.000    4.167    0.000    2.000    0.000    0.000 
#    0.000    0.000    0.000    0.000    0.000    0.000 
#
# Total GULP energy -267759.837704 kJ/mol
# GULP energy per Si atom -5578.329952 kJ/mol
# Density = 2.061742 g / cm^3
# Si number density = 20.664454 Si / 1000 Ang^3
#
#
#
# Elastic Constant Matrix: (Units=GPa)
#
#
# Indices 1 2 3 4 5 6 
#
# 1 84.2299 56.9411 71.3634 0.0000 0.0000 -3.8332
# 2 56.9411 84.2299 71.3634 0.0000 0.0000 3.8332
# 3 71.3634 71.3634 148.2543 0.0000 0.0000 0.0000
# 4 0.0000 0.0000 0.0000 8.8282 0.0000 0.0000
# 5 0.0000 0.0000 0.0000 0.0000 8.8282 0.0000
# 6 -3.8332 3.8332 0.0000 0.0000 0.0000 37.5121
#
#
#
# Elastic Compliance Matrix: (Units=1/GPa)
#
#
# Indices 1 2 3 4 5 6 
#
# 1 0.025764 -0.011965 -0.006642 0.000000 0.000000 0.003855
# 2 -0.011965 0.025764 -0.006642 0.000000 0.000000 -0.003855
# 3 -0.006642 -0.006642 0.013140 0.000000 0.000000 0.000000
# 4 0.000000 0.000000 0.000000 0.113274 0.000000 0.000000
# 5 0.000000 0.000000 0.000000 0.000000 0.113274 0.000000
# 6 0.003855 -0.003855 0.000000 0.000000 0.000000 0.027446
#
#
# Mechanical properties :
#
#
# Convention : Reuss Voigt Hill
#
# Bulk Modulus (GPa) = 70.57756 79.56111 75.06934
# Shear Modulus (GPa) = 13.37320 18.83676 16.10498
#
# Velocity S-wave (km/s) = 2.54669 3.02247 2.79472
# Velocity P-wave (km/s) = 6.54796 7.12499 6.84256
#
# Compressibility (1/GPa) = 0.01416881
#
# Stress axis : x y z
#
# Youngs Moduli (GPa) = 38.81436 38.81436 76.10444
#
# Poissons Ratio (x) = 0.46440 0.50551
# Poissons Ratio (y) = 0.46440 0.50551
# Poissons Ratio (z) = 0.25782 0.25782
#
# Static dielectric constant tensor:
#      x y z
#    x 1.791960 0.000000 0.000000 
#    y 0.000000 1.791960 0.000000 
#    z 0.000000 0.000000 1.734950 
# 
# From -- ./inp_files/3473.got.cif
#   From: 2010.05.17/outbox.cif.g08.bks.cpg/sg83_2_cif.got.tgz:3473.got - 2010.06.03 18:55:12.
