data_PCOD9543181
_publ_section_title
;
Structure prediction by ZEFSAII (Michael W. Deem and Ramdas Pophale) SiO2 
 PCOD9543181
Probable space group: I -4 
;
_chemical_formula_sum "Si O2"
_cell_formula_units_Z 48
_cell_length_a 8.932831
_cell_length_b 8.932831
_cell_length_c 27.229279
_cell_angle_alpha 90.000000
_cell_angle_beta 90.000000
_cell_angle_gamma 90.000000
_cell_volume 2172.773107
_symmetry_space_group_name_H-M "I -4 "
_symmetry_group_IT_number 82
_symmetry_cell_setting 'tetragonal'
loop_
_space_group_symop_operation_xyz
x,y,z
y,-x,-z
-x,-y,z
-y,x,-z
1/2+x,1/2+y,1/2+z
1/2+y,1/2-x,1/2-z
1/2-x,1/2-y,1/2+z
1/2-y,1/2+x,1/2-z
loop_
_atom_site_type_symbol
_atom_site_label
_atom_site_fract_x
_atom_site_fract_y
_atom_site_fract_z
Si Si1 0.667416 0.424512 0.934592
Si Si2 0.031561 0.672370 0.662549
Si Si3 0.802660 0.872503 0.704534
Si Si4 0.529437 0.674602 0.691322
Si Si5 0.803216 0.348577 0.137624
Si Si6 0.007736 0.325512 0.463036
O O1 0.500000 0.500000 0.928564
O O2 0.775409 0.462144 0.889782
O O3 0.639276 0.247696 0.939066
O O4 0.739447 0.471982 0.985988
O O5 0.966267 0.800420 0.698328
O O6 0.000000 0.500000 0.674430
O O7 0.204872 0.709145 0.656126
O O8 0.699609 0.725801 0.698424
O O9 0.789133 0.945632 0.757590
O O10 0.757768 0.002134 0.665261
O O11 0.500000 0.500000 0.679239
O O12 0.467085 0.797784 0.653100
O O13 0.795262 0.369116 0.079163
O O14 0.000000 0.500000 0.471719
#
# Coordination Sequence:
#
# PCOD9543181 Si02
#       6
#     8   8   8   8   8   8
#     4  12  21  43  72  99 135 179 231 280 338 425
#     4  12  25  44  69 106 141 178 228 295 360 424
#     4  12  24  44  70  97 135 186 238 291 348 431
#     4  12  26  44  65 101 138 182 237 297 358 420
#     4  12  24  44  69  99 134 184 234 287 352 427
#     4  12  23  39  69 102 130 176 230 284 339 411
#
# _framework density 22.091586
#
# number of rings (size 3 to 8) (size 9 to 14) (size 15 to 20)
#    0.000    0.000    6.667    4.500    0.000    0.000 
#    0.000    0.000    0.000    0.000    0.000    0.000 
#    0.000    0.000    0.000    0.000    0.000    0.000 
#
# Total GULP energy -134135.441189 kJ/mol
# GULP energy per Si atom -5588.976716 kJ/mol
# Density = 2.204130 g / cm^3
# Si number density = 22.091586 Si / 1000 Ang^3
#
#
#
# Elastic Constant Matrix: (Units=GPa)
#
#
# Indices 1 2 3 4 5 6 
#
# 1 95.8063 1.8605 -14.0036 0.0000 0.0000 -2.6008
# 2 1.8605 95.8063 -14.0036 0.0000 0.0000 2.6008
# 3 -14.0036 -14.0036 66.9780 0.0000 0.0000 0.0000
# 4 0.0000 0.0000 0.0000 28.3440 0.0000 0.0000
# 5 0.0000 0.0000 0.0000 0.0000 28.3440 0.0000
# 6 -2.6008 2.6008 0.0000 0.0000 0.0000 37.7335
#
#
#
# Elastic Compliance Matrix: (Units=1/GPa)
#
#
# Indices 1 2 3 4 5 6 
#
# 1 0.010789 0.000103 0.002277 0.000000 0.000000 0.000736
# 2 0.000103 0.010789 0.002277 0.000000 0.000000 -0.000736
# 3 0.002277 0.002277 0.015883 0.000000 0.000000 0.000000
# 4 0.000000 0.000000 0.000000 0.035281 0.000000 0.000000
# 5 0.000000 0.000000 0.000000 0.000000 0.035281 0.000000
# 6 0.000736 -0.000736 0.000000 0.000000 0.000000 0.026603
#
#
# Mechanical properties :
#
#
# Convention : Reuss Voigt Hill
#
# Bulk Modulus (GPa) = 21.37873 22.92189 22.15031
# Shear Modulus (GPa) = 35.48599 37.86677 36.67638
#
# Velocity S-wave (km/s) = 4.01223 4.14464 4.07897
# Velocity P-wave (km/s) = 5.58232 5.77082 5.67736
#
# Compressibility (1/GPa) = 0.04677545
#
# Stress axis : x y z
#
# Youngs Moduli (GPa) = 92.69066 92.69067 62.96226
#
# Poissons Ratio (x) = -0.00958 -0.14338
# Poissons Ratio (y) = -0.00958 -0.14338
# Poissons Ratio (z) = -0.21108 -0.21108
#
# Static dielectric constant tensor:
#      x y z
#    x 1.858700 0.000000 0.000000 
#    y 0.000000 1.858700 0.000000 
#    z 0.000000 0.000000 1.841340 
# 
# From -- ./inp_files/4050.got.cif
#   From: 2010.05.17/outbox.cif.g08.bks.cpg/sg82_3_cif.got.tgz:4050.got - 2010.06.03 18:52:26.
