data_PCOD9543563
_publ_section_title
;
Structure prediction by ZEFSAII (Michael W. Deem and Ramdas Pophale) SiO2 
 PCOD9543563
Probable space group: P 4/M
;
_chemical_formula_sum "Si O2"
_cell_formula_units_Z 36
_cell_length_a 14.263790
_cell_length_b 14.263790
_cell_length_c 9.087238
_cell_angle_alpha 90.000000
_cell_angle_beta 90.000000
_cell_angle_gamma 90.000000
_cell_volume 1848.850415
_symmetry_space_group_name_H-M "P 4/M"
_symmetry_group_IT_number 83
_symmetry_cell_setting 'tetragonal'
loop_
_space_group_symop_operation_xyz
x,y,z
-y,x,z
-x,-y,z
y,-x,z
-x,-y,-z
y,-x,-z
x,y,-z
-y,x,-z
loop_
_atom_site_type_symbol
_atom_site_label
_atom_site_fract_x
_atom_site_fract_y
_atom_site_fract_z
Si Si1 0.403848 0.621489 0.500000
Si Si2 0.111848 0.502749 0.326010
Si Si3 0.301168 0.142266 0.825544
Si Si4 0.318245 0.780355 0.331947
Si Si5 0.972680 0.153029 0.325591
O O1 0.373550 0.515148 0.500000
O O2 0.364183 0.678652 0.362300
O O3 0.135401 0.511769 0.500000
O O4 0.147804 0.594889 0.243010
O O5 0.154501 0.402775 0.277547
O O6 0.000000 0.500000 0.311315
O O7 0.238895 0.229631 0.768434
O O8 0.246242 0.051625 0.762667
O O9 0.305979 0.139989 0.000000
O O10 0.290112 0.812330 0.500000
O O11 0.968487 0.173056 0.500000
O O12 0.072108 0.104380 0.293989
#
# Coordination Sequence:
#
# PCOD9543563 Si02
#       5
#     4   8   8   8   8
#     4   9  16  30  59  88 110 139 191 260 308 342
#     4  10  22  41  65  93 121 159 215 268 308 353
#     4  12  25  38  59  90 132 169 196 243 315 390
#     4   9  20  37  61  83 116 155 207 258 292 355
#     4   9  20  40  65  88 113 153 211 265 302 351
#
# _framework density 19.47156
#
# number of rings (size 3 to 8) (size 9 to 14) (size 15 to 20)
#    0.667    1.444    0.000    4.000    3.111    2.222 
#    0.000    1.111    0.000    0.000    0.000    4.667 
#    0.000    0.000    0.000    0.000    0.000    0.000 
#
# Total GULP energy -200930.894258 kJ/mol
# GULP energy per Si atom -5581.413729 kJ/mol
# Density = 1.942724 g / cm^3
# Si number density = 19.471560 Si / 1000 Ang^3
#
#
#
# Elastic Constant Matrix: (Units=GPa)
#
#
# Indices 1 2 3 4 5 6 
#
# 1 92.9891 24.3342 37.5561 0.0000 0.0000 -60.7738
# 2 24.3342 92.9891 37.5561 0.0000 0.0000 60.7738
# 3 37.5561 37.5561 50.1452 0.0000 0.0000 0.0000
# 4 0.0000 0.0000 0.0000 -9.2692 0.0000 0.0000
# 5 0.0000 0.0000 0.0000 0.0000 -9.2692 0.0000
# 6 -60.7738 60.7738 0.0000 0.0000 0.0000 403.5996
#
#
#
# Elastic Compliance Matrix: (Units=1/GPa)
#
#
# Indices 1 2 3 4 5 6 
#
# 1 0.018118 -0.001742 -0.012264 0.000000 0.000000 0.002991
# 2 -0.001742 0.018118 -0.012264 0.000000 0.000000 -0.002991
# 3 -0.012264 -0.012264 0.038312 0.000000 0.000000 0.000000
# 4 0.000000 0.000000 0.000000 -0.107885 0.000000 0.000000
# 5 0.000000 0.000000 0.000000 0.000000 -0.107885 0.000000
# 6 0.002991 -0.002991 0.000000 0.000000 0.000000 0.003378
#
#
# Mechanical properties :
#
#
# Convention : Reuss Voigt Hill
#
# Bulk Modulus (GPa) = 45.44161 48.33512 46.88836
# Shear Modulus (GPa) = -64.12957 86.12406 10.99725
#
# Velocity S-wave (km/s) = -5.74513 6.65783 2.37910
# Velocity P-wave (km/s) = 4.54099 9.16404 5.62846
#
# Compressibility (1/GPa) = 0.02200626
#
# Stress axis : x y z
#
# Youngs Moduli (GPa) = 55.19505 55.19505 26.10128
#
# Poissons Ratio (x) = 0.09618 0.32011
# Poissons Ratio (y) = 0.09618 0.32011
# Poissons Ratio (z) = 0.67691 0.67691
#
# Static dielectric constant tensor:
#      x y z
#    x 1.697510 0.000000 0.000000 
#    y 0.000000 1.697510 0.000000 
#    z 0.000000 0.000000 1.640040 
# 
# From -- ./inp_files/530.got.cif
#   From: 2010.05.17/outbox.cif.g08.bks.cpg/sg83_1_cif.got.tgz:530.got - 2010.06.03 18:55:12.
