data_PCOD9543157
_publ_section_title
;
Structure prediction by ZEFSAII (Michael W. Deem and Ramdas Pophale) SiO2 
 PCOD9543157
Probable space group: I -4 
;
_chemical_formula_sum "Si O2"
_cell_formula_units_Z 28
_cell_length_a 8.818823
_cell_length_b 8.818823
_cell_length_c 14.761525
_cell_angle_alpha 90.000000
_cell_angle_beta 90.000000
_cell_angle_gamma 90.000000
_cell_volume 1148.027995
_symmetry_space_group_name_H-M "I -4 "
_symmetry_group_IT_number 82
_symmetry_cell_setting 'tetragonal'
loop_
_space_group_symop_operation_xyz
x,y,z
y,-x,-z
-x,-y,z
-y,x,-z
1/2+x,1/2+y,1/2+z
1/2+y,1/2-x,1/2-z
1/2-x,1/2-y,1/2+z
1/2-y,1/2+x,1/2-z
loop_
_atom_site_type_symbol
_atom_site_label
_atom_site_fract_x
_atom_site_fract_y
_atom_site_fract_z
Si Si1 0.000000 0.000000 0.000000
Si Si2 0.402264 0.220366 0.733806
Si Si3 0.264856 0.104498 0.373038
Si Si4 0.000000 0.500000 0.750000
Si Si5 0.700626 0.238064 0.446124
O O1 0.836816 0.953401 0.042645
O O2 0.577118 0.181038 0.720625
O O3 0.206828 0.564570 0.911779
O O4 0.330420 0.224117 0.635115
O O5 0.239750 0.209928 0.459321
O O6 0.131699 0.139050 0.300247
O O7 0.414184 0.123985 0.310434
#
# Coordination Sequence:
#
# PCOD9543157 Si02
#       5
#     2   8   8   2   8
#     4  12  28  48  76 108 152 214 260 320 416 488
#     4  11  26  48  74 112 161 213 266 328 398 485
#     4  12  26  49  79 120 159 213 275 339 404 482
#     4  12  24  48  76 120 166 208 272 344 408 484
#     4  12  27  48  80 116 160 211 267 338 407 486
#
# _framework density 24.389648999999999
#
# number of rings (size 3 to 8) (size 9 to 14) (size 15 to 20)
#    0.000    0.286    2.857    5.143    0.000   10.857 
#    0.000    0.000    0.000    0.000    0.000    0.000 
#    0.000    0.000    0.000    0.000    0.000    0.000 
#
# Total GULP energy -78158.555611 kJ/mol
# GULP energy per Si atom -5582.753972 kJ/mol
# Density = 2.433414 g / cm^3
# Si number density = 24.389649 Si / 1000 Ang^3
#
#
#
# Elastic Constant Matrix: (Units=GPa)
#
#
# Indices 1 2 3 4 5 6 
#
# 1 77.4811 43.3160 21.4580 0.0000 0.0000 -8.9077
# 2 43.3160 77.4811 21.4580 0.0000 0.0000 8.9077
# 3 21.4580 21.4580 136.3006 0.0000 0.0000 0.0000
# 4 0.0000 0.0000 0.0000 34.8546 0.0000 0.0000
# 5 0.0000 0.0000 0.0000 0.0000 34.8546 0.0000
# 6 -8.9077 8.9077 0.0000 0.0000 0.0000 39.5489
#
#
#
# Elastic Compliance Matrix: (Units=1/GPa)
#
#
# Indices 1 2 3 4 5 6 
#
# 1 0.020967 -0.012198 -0.001380 0.000000 0.000000 0.007470
# 2 -0.012198 0.020967 -0.001380 0.000000 0.000000 -0.007470
# 3 -0.001380 -0.001380 0.007771 0.000000 0.000000 0.000000
# 4 0.000000 0.000000 0.000000 0.028691 0.000000 0.000000
# 5 0.000000 0.000000 0.000000 0.000000 0.028691 0.000000
# 6 0.007470 -0.007470 0.000000 0.000000 0.000000 0.028650
#
#
# Mechanical properties :
#
#
# Convention : Reuss Voigt Hill
#
# Bulk Modulus (GPa) = 50.53815 51.52521 51.03168
# Shear Modulus (GPa) = 29.02761 35.52035 32.27398
#
# Velocity S-wave (km/s) = 3.45361 3.82038 3.64162
# Velocity P-wave (km/s) = 6.05553 6.37433 6.21697
#
# Compressibility (1/GPa) = 0.01978703
#
# Stress axis : x y z
#
# Youngs Moduli (GPa) = 47.69450 47.69450 128.67715
#
# Poissons Ratio (x) = 0.58178 0.17764
# Poissons Ratio (y) = 0.58178 0.17764
# Poissons Ratio (z) = 0.06584 0.06584
#
# Static dielectric constant tensor:
#      x y z
#    x 2.051220 0.000000 0.000000 
#    y 0.000000 2.051220 0.000000 
#    z 0.000000 0.000000 1.979260 
# 
# From -- ./inp_files/2076.got.cif
#   From: 2010.05.17/outbox.cif.g08.bks.cpg/sg82_2_cif.got.tgz:2076.got - 2010.06.03 18:52:26.
