data_PCOD9543560
_publ_section_title
;
Structure prediction by ZEFSAII (Michael W. Deem and Ramdas Pophale) SiO2 
 PCOD9543560
Probable space group: P 4/M
;
_chemical_formula_sum "Si O2"
_cell_formula_units_Z 48
_cell_length_a 8.138539
_cell_length_b 8.138539
_cell_length_c 33.320025
_cell_angle_alpha 90.000000
_cell_angle_beta 90.000000
_cell_angle_gamma 90.000000
_cell_volume 2206.979080
_symmetry_space_group_name_H-M "P 4/M"
_symmetry_group_IT_number 83
_symmetry_cell_setting 'tetragonal'
loop_
_space_group_symop_operation_xyz
x,y,z
-y,x,z
-x,-y,z
y,-x,z
-x,-y,-z
y,-x,-z
x,y,-z
-y,x,-z
loop_
_atom_site_type_symbol
_atom_site_label
_atom_site_fract_x
_atom_site_fract_y
_atom_site_fract_z
Si Si1 0.736549 0.083647 0.364341
Si Si2 0.762744 0.585841 0.286612
Si Si3 0.235670 0.416515 0.956110
Si Si4 0.092235 0.262687 0.791118
Si Si5 0.764158 0.417503 0.500000
Si Si6 0.500000 0.000000 0.431780
Si Si7 0.263261 0.914002 0.879858
O O1 0.638811 0.125999 0.323981
O O2 0.619066 0.102293 0.402602
O O3 0.896807 0.198568 0.365113
O O4 0.599950 0.699709 0.288605
O O5 0.853676 0.622643 0.244990
O O6 0.398220 0.302470 0.954535
O O7 0.129594 0.372678 0.917711
O O8 0.157125 0.387750 0.000000
O O9 0.116322 0.336616 0.835601
O O10 0.904472 0.200544 0.788105
O O11 0.698332 0.605872 0.500000
O O12 0.878583 0.399961 0.460977
O O13 0.099863 0.801485 0.881823
#
# Coordination Sequence:
#
# PCOD9543560 Si02
#       7
#     8   8   8   8   4   4   8
#     4  11  23  39  61  88 119 158 202 247 296 349
#     4  11  24  39  56  83 118 153 192 241 294 347
#     4   9  19  35  52  72 102 139 178 223 277 338
#     4   9  19  37  58  79 107 145 187 231 283 344
#     4  10  22  40  64  94 128 166 204 247 302 354
#     4  11  22  40  64  92 126 162 206 252 295 350
#     4   9  19  35  54  78 107 138 177 227 281 338
#
# _framework density 21.749188
#
# number of rings (size 3 to 8) (size 9 to 14) (size 15 to 20)
#    0.000    2.083    0.000    4.500    0.000    6.000 
#    0.000    9.167    0.000    4.000    0.000    0.000 
#    0.000    0.000    0.000    0.000    0.000    0.000 
#
# Total GULP energy -268628.031914 kJ/mol
# GULP energy per Si atom -5596.417332 kJ/mol
# Density = 2.169969 g / cm^3
# Si number density = 21.749188 Si / 1000 Ang^3
#
#
#
# Elastic Constant Matrix: (Units=GPa)
#
#
# Indices 1 2 3 4 5 6 
#
# 1 66.7363 29.9460 60.8859 0.0000 0.0000 2.0319
# 2 29.9460 66.7363 60.8859 0.0000 0.0000 -2.0319
# 3 60.8859 60.8859 214.3201 0.0000 0.0000 0.0000
# 4 0.0000 0.0000 0.0000 55.7958 0.0000 0.0000
# 5 0.0000 0.0000 0.0000 0.0000 55.7958 0.0000
# 6 2.0319 -2.0319 0.0000 0.0000 0.0000 37.8829
#
#
#
# Elastic Compliance Matrix: (Units=1/GPa)
#
#
# Indices 1 2 3 4 5 6 
#
# 1 0.021725 -0.005619 -0.004576 0.000000 0.000000 -0.001467
# 2 -0.005619 0.021725 -0.004576 0.000000 0.000000 0.001467
# 3 -0.004576 -0.004576 0.007266 0.000000 0.000000 0.000000
# 4 0.000000 0.000000 0.000000 0.017923 0.000000 0.000000
# 5 0.000000 0.000000 0.000000 0.000000 0.017923 0.000000
# 6 -0.001467 0.001467 0.000000 0.000000 0.000000 0.026554
#
#
# Mechanical properties :
#
#
# Convention : Reuss Voigt Hill
#
# Bulk Modulus (GPa) = 47.22421 72.35871 59.79146
# Shear Modulus (GPa) = 33.39745 42.96655 38.18200
#
# Velocity S-wave (km/s) = 3.92289 4.44953 4.19449
# Velocity P-wave (km/s) = 6.50223 7.72914 7.14208
#
# Compressibility (1/GPa) = 0.02117558
#
# Stress axis : x y z
#
# Youngs Moduli (GPa) = 46.03083 46.03083 137.63414
#
# Poissons Ratio (x) = 0.25862 0.62975
# Poissons Ratio (y) = 0.25862 0.62975
# Poissons Ratio (z) = 0.21062 0.21062
#
# Static dielectric constant tensor:
#      x y z
#    x 1.796860 0.000000 0.000000 
#    y 0.000000 1.796860 0.000000 
#    z 0.000000 0.000000 1.763900 
# 
# From -- ./inp_files/3436.got.cif
#   From: 2010.05.17/outbox.cif.g08.bks.cpg/sg83_2_cif.got.tgz:3436.got - 2010.06.03 18:55:12.
