data_PCOD9543057
_publ_section_title
;
Structure prediction by ZEFSAII (Michael W. Deem and Ramdas Pophale) SiO2 
 PCOD9543057
Probable space group: I -4 
;
_chemical_formula_sum "Si O2"
_cell_formula_units_Z 26
_cell_length_a 7.668284
_cell_length_b 7.668284
_cell_length_c 16.612085
_cell_angle_alpha 90.000000
_cell_angle_beta 90.000000
_cell_angle_gamma 90.000000
_cell_volume 976.833449
_symmetry_space_group_name_H-M "I -4 "
_symmetry_group_IT_number 82
_symmetry_cell_setting 'tetragonal'
loop_
_space_group_symop_operation_xyz
x,y,z
y,-x,-z
-x,-y,z
-y,x,-z
1/2+x,1/2+y,1/2+z
1/2+y,1/2-x,1/2-z
1/2-x,1/2-y,1/2+z
1/2-y,1/2+x,1/2-z
loop_
_atom_site_type_symbol
_atom_site_label
_atom_site_fract_x
_atom_site_fract_y
_atom_site_fract_z
Si Si1 0.677133 0.657537 0.179970
Si Si2 0.155298 0.356175 0.848866
Si Si3 0.221046 0.192608 0.509109
Si Si4 0.000000 0.500000 0.250000
O O1 0.474382 0.668083 0.153130
O O2 0.650423 0.746308 0.267822
O O3 0.761138 0.750573 0.100283
O O4 0.824274 0.516208 0.199066
O O5 0.000000 0.500000 0.848730
O O6 0.163279 0.253576 0.932921
O O7 0.019593 0.237761 0.489180
#
# Coordination Sequence:
#
# PCOD9543057 Si02
#       4
#     8   8   8   2
#     4  11  22  43  64 102 133 180 226 288 339 412
#     4  11  21  43  72  98 130 186 233 281 342 420
#     4   9  20  37  65  95 135 179 227 277 341 416
#     4  12  28  36  64 100 140 174 224 292 344 396
#
# _framework density 26.616617999999999
#
# number of rings (size 3 to 8) (size 9 to 14) (size 15 to 20)
#    0.000    1.538    3.077    1.846    2.154    3.692 
#    0.000    0.000    3.385    0.000    0.000    0.000 
#    0.000    0.000    0.000    0.000    0.000    0.000 
#
# Total GULP energy -72419.878192 kJ/mol
# GULP energy per Si atom -5570.759861 kJ/mol
# Density = 2.655604 g / cm^3
# Si number density = 26.616618 Si / 1000 Ang^3
#
#
#
# Elastic Constant Matrix: (Units=GPa)
#
#
# Indices 1 2 3 4 5 6 
#
# 1 51.3223 -1.4417 12.3969 0.0000 0.0000 2.9464
# 2 -1.4417 51.3223 12.3969 0.0000 0.0000 -2.9464
# 3 12.3969 12.3969 292.4420 0.0000 0.0000 0.0000
# 4 0.0000 0.0000 0.0000 29.7649 0.0000 0.0000
# 5 0.0000 0.0000 0.0000 0.0000 29.7649 0.0000
# 6 2.9464 -2.9464 0.0000 0.0000 0.0000 40.9564
#
#
#
# Elastic Compliance Matrix: (Units=1/GPa)
#
#
# Indices 1 2 3 4 5 6 
#
# 1 0.019793 0.000687 -0.000868 0.000000 0.000000 -0.001374
# 2 0.000687 0.019793 -0.000868 0.000000 0.000000 0.001374
# 3 -0.000868 -0.000868 0.003493 0.000000 0.000000 0.000000
# 4 0.000000 0.000000 0.000000 0.033597 0.000000 0.000000
# 5 0.000000 0.000000 0.000000 0.000000 0.033597 0.000000
# 6 -0.001374 0.001374 0.000000 0.000000 0.000000 0.024614
#
#
# Mechanical properties :
#
#
# Convention : Reuss Voigt Hill
#
# Bulk Modulus (GPa) = 24.40259 49.08787 36.74523
# Shear Modulus (GPa) = 33.19076 44.87952 39.03514
#
# Velocity S-wave (km/s) = 3.53511 4.11073 3.83374
# Velocity P-wave (km/s) = 5.08436 6.40417 5.78205
#
# Compressibility (1/GPa) = 0.04097926
#
# Stress axis : x y z
#
# Youngs Moduli (GPa) = 50.52397 50.52397 286.27997
#
# Poissons Ratio (x) = -0.03470 0.24853
# Poissons Ratio (y) = -0.03470 0.24853
# Poissons Ratio (z) = 0.04386 0.04386
#
# Static dielectric constant tensor:
#      x y z
#    x 2.256270 0.000000 0.000000 
#    y 0.000000 2.256270 0.000000 
#    z 0.000000 0.000000 2.144030 
# 
# From -- ./inp_files/2414.got.cif
#   From: 2010.05.17/outbox.cif.g08.bks.cpg/sg82_2_cif.got.tgz:2414.got - 2010.06.03 18:52:26.
