data_PCOD9543955
_publ_section_title
;
Structure prediction by ZEFSAII (Michael W. Deem and Ramdas Pophale) SiO2 
 PCOD9543955
Probable space group: P 42/M
;
_chemical_formula_sum "Si O2"
_cell_formula_units_Z 64
_cell_length_a 18.984346
_cell_length_b 18.984346
_cell_length_c 12.289558
_cell_angle_alpha 90.000000
_cell_angle_beta 90.000000
_cell_angle_gamma 90.000000
_cell_volume 4429.222981
_symmetry_space_group_name_H-M "P 42/M"
_symmetry_group_IT_number 84
_symmetry_cell_setting 'tetragonal'
loop_
_space_group_symop_operation_xyz
x,y,z
-y,x,1/2+z
-x,-y,z
y,-x,1/2+z
-x,-y,-z
y,-x,1/2-z
x,y,-z
-y,x,1/2-z
loop_
_atom_site_type_symbol
_atom_site_label
_atom_site_fract_x
_atom_site_fract_y
_atom_site_fract_z
Si Si1 0.076809 0.363995 0.625961
Si Si2 0.077635 0.498944 0.222144
Si Si3 0.225346 0.668995 0.728104
Si Si4 0.219444 0.532520 0.876603
Si Si5 0.315480 0.443448 0.715639
Si Si6 0.362129 0.081116 0.128714
Si Si7 0.407791 0.353607 0.876712
Si Si8 0.769042 0.689512 0.374387
O O1 0.076286 0.389572 0.500000
O O2 0.085901 0.428427 0.708122
O O3 0.146713 0.317498 0.637365
O O4 0.998408 0.332589 0.645022
O O5 0.139199 0.507750 0.136255
O O6 0.082149 0.563134 0.308561
O O7 0.000000 0.500000 0.172644
O O8 0.223125 0.608992 0.821400
O O9 0.148142 0.678646 0.677382
O O10 0.280421 0.635183 0.641910
O O11 0.257444 0.736972 0.786175
O O12 0.265753 0.479563 0.805553
O O13 0.243166 0.534588 0.000000
O O14 0.377442 0.404468 0.782420
O O15 0.341073 0.509073 0.643018
O O16 0.270072 0.385141 0.650826
O O17 0.371908 0.091350 0.000000
O O18 0.395778 0.378881 0.000000
O O19 0.753797 0.708839 0.500000
#
# Coordination Sequence:
#
# PCOD9543955 Si02
#       8
#     8   8   8   8   8   8   8   8
#     4   9  16  26  44  67  90 112 139 179 220 254
#     4   9  16  26  40  62  88 113 143 178 214 254
#     4   9  19  30  44  65  87 115 145 176 213 260
#     4  10  18  29  42  57  82 115 149 182 214 256
#     4  10  20  33  46  64  82 107 145 187 229 263
#     4   9  16  27  44  67  90 113 141 177 218 255
#     4  10  20  34  49  63  81 109 143 183 228 271
#     4  10  18  30  47  66  88 114 143 177 217 259
#
# _framework density 14.449486
#
# number of rings (size 3 to 8) (size 9 to 14) (size 15 to 20)
#    0.000    2.500    1.250    1.875    0.000    2.000 
#    0.000    2.500    0.000    0.000    0.000    0.000 
#    0.000    0.500    0.000    4.500    0.000    0.000 
#
# Total GULP energy -356406.471742 kJ/mol
# GULP energy per Si atom -5568.851121 kJ/mol
# Density = 1.441660 g / cm^3
# Si number density = 14.449486 Si / 1000 Ang^3
#
#
#
# Elastic Constant Matrix: (Units=GPa)
#
#
# Indices 1 2 3 4 5 6 
#
# 1 57.4641 14.9775 8.0344 0.0000 0.0000 0.5707
# 2 14.9775 57.4641 8.0344 0.0000 0.0000 -0.5707
# 3 8.0344 8.0344 46.1188 0.0000 0.0000 0.0000
# 4 0.0000 0.0000 0.0000 11.5615 0.0000 0.0000
# 5 0.0000 0.0000 0.0000 0.0000 11.5615 0.0000
# 6 0.5707 -0.5707 0.0000 0.0000 0.0000 11.4518
#
#
#
# Elastic Compliance Matrix: (Units=1/GPa)
#
#
# Indices 1 2 3 4 5 6 
#
# 1 0.018964 -0.004605 -0.002501 0.000000 0.000000 -0.001175
# 2 -0.004605 0.018964 -0.002501 0.000000 0.000000 0.001175
# 3 -0.002501 -0.002501 0.022555 0.000000 0.000000 0.000000
# 4 0.000000 0.000000 0.000000 0.086494 0.000000 0.000000
# 5 0.000000 0.000000 0.000000 0.000000 0.086494 0.000000
# 6 -0.001175 0.001175 0.000000 0.000000 0.000000 0.087440
#
#
# Mechanical properties :
#
#
# Convention : Reuss Voigt Hill
#
# Bulk Modulus (GPa) = 24.23251 24.79328 24.51289
# Shear Modulus (GPa) = 14.12904 15.58167 14.85535
#
# Velocity S-wave (km/s) = 3.13041 3.28739 3.20986
# Velocity P-wave (km/s) = 5.46561 5.62184 5.54427
#
# Compressibility (1/GPa) = 0.04126688
#
# Stress axis : x y z
#
# Youngs Moduli (GPa) = 52.73220 52.73220 44.33669
#
# Poissons Ratio (x) = 0.24281 0.11091
# Poissons Ratio (y) = 0.24281 0.11091
# Poissons Ratio (z) = 0.13191 0.13191
#
# Static dielectric constant tensor:
#      x y z
#    x 1.484410 0.000000 0.000000 
#    y 0.000000 1.484410 0.000000 
#    z 0.000000 0.000000 1.460340 
# 
# From -- ./inp_files/2363.got.cif
#   From: 2010.05.17/outbox.cif.g08.bks.cpg/sg84_2_cif.got.tgz:2363.got - 2010.06.03 18:57:40.
