data_PCOD9543180
_publ_section_title
;
Structure prediction by ZEFSAII (Michael W. Deem and Ramdas Pophale) SiO2 
 PCOD9543180
Probable space group: I -4 
;
_chemical_formula_sum "Si O2"
_cell_formula_units_Z 34
_cell_length_a 8.504242
_cell_length_b 8.504242
_cell_length_c 21.495497
_cell_angle_alpha 90.000000
_cell_angle_beta 90.000000
_cell_angle_gamma 90.000000
_cell_volume 1554.600171
_symmetry_space_group_name_H-M "I -4 "
_symmetry_group_IT_number 82
_symmetry_cell_setting 'tetragonal'
loop_
_space_group_symop_operation_xyz
x,y,z
y,-x,-z
-x,-y,z
-y,x,-z
1/2+x,1/2+y,1/2+z
1/2+y,1/2-x,1/2-z
1/2-x,1/2-y,1/2+z
1/2-y,1/2+x,1/2-z
loop_
_atom_site_type_symbol
_atom_site_label
_atom_site_fract_x
_atom_site_fract_y
_atom_site_fract_z
Si Si1 0.272708 0.806504 0.546681
Si Si2 0.783571 0.668686 0.692931
Si Si3 0.500000 0.500000 0.000000
Si Si4 0.419425 0.322680 0.572022
Si Si5 0.633030 0.199270 0.175558
O O1 0.294086 0.703666 0.483712
O O2 0.452764 0.814757 0.566495
O O3 0.194661 0.722441 0.606251
O O4 0.161319 0.954566 0.534742
O O5 0.661676 0.690183 0.638360
O O6 0.722711 0.706381 0.762317
O O7 0.832863 0.483737 0.691358
O O8 0.949951 0.747940 0.676162
O O9 0.500000 0.500000 0.568224
#
# Coordination Sequence:
#
# PCOD9543180 Si02
#       5
#     8   8   2   8   8
#     4  12  23  44  65 101 134 178 230 284 353 403
#     4   9  18  35  61 101 134 185 230 273 333 405
#     4  12  32  44  60  96 136 184 220 290 356 424
#     4  12  21  40  71 105 131 174 233 291 334 404
#     4   9  18  35  63  94 143 181 226 279 330 411
#
# _framework density 21.870576
#
# number of rings (size 3 to 8) (size 9 to 14) (size 15 to 20)
#    0.000    1.412    4.706    2.824    0.000    2.824 
#    2.118    2.353    0.000    0.000    0.000    0.000 
#    0.000    0.000    0.000    0.000    0.000    0.000 
#
# Total GULP energy -94684.488419 kJ/mol
# GULP energy per Si atom -5569.675789 kJ/mol
# Density = 2.182080 g / cm^3
# Si number density = 21.870576 Si / 1000 Ang^3
#
#
#
# Elastic Constant Matrix: (Units=GPa)
#
#
# Indices 1 2 3 4 5 6 
#
# 1 56.1894 33.1763 28.3071 0.0000 0.0000 -3.1467
# 2 33.1763 56.1894 28.3071 0.0000 0.0000 3.1467
# 3 28.3071 28.3071 134.4218 0.0000 0.0000 0.0000
# 4 0.0000 0.0000 0.0000 26.1237 0.0000 0.0000
# 5 0.0000 0.0000 0.0000 0.0000 26.1237 0.0000
# 6 -3.1467 3.1467 0.0000 0.0000 0.0000 33.5039
#
#
#
# Elastic Compliance Matrix: (Units=1/GPa)
#
#
# Indices 1 2 3 4 5 6 
#
# 1 0.028756 -0.015843 -0.002719 0.000000 0.000000 0.004189
# 2 -0.015843 0.028756 -0.002719 0.000000 0.000000 -0.004189
# 3 -0.002719 -0.002719 0.008585 0.000000 0.000000 0.000000
# 4 0.000000 0.000000 0.000000 0.038279 0.000000 0.000000
# 5 0.000000 0.000000 0.000000 0.000000 0.038279 0.000000
# 6 0.004189 -0.004189 0.000000 0.000000 0.000000 0.030634
#
#
# Mechanical properties :
#
#
# Convention : Reuss Voigt Hill
#
# Bulk Modulus (GPa) = 42.49359 47.37575 44.93467
# Shear Modulus (GPa) = 22.35172 27.61759 24.98466
#
# Velocity S-wave (km/s) = 3.20034 3.55741 3.38359
# Velocity P-wave (km/s) = 5.75569 6.21148 5.98792
#
# Compressibility (1/GPa) = 0.02353296
#
# Stress axis : x y z
#
# Youngs Moduli (GPa) = 34.77563 34.77563 116.48888
#
# Poissons Ratio (x) = 0.55096 0.31676
# Poissons Ratio (y) = 0.55096 0.31676
# Poissons Ratio (z) = 0.09456 0.09456
#
# Static dielectric constant tensor:
#      x y z
#    x 1.859480 0.000000 0.000000 
#    y 0.000000 1.859480 0.000000 
#    z 0.000000 0.000000 1.898330 
# 
# From -- ./inp_files/2959.got.cif
#   From: 2010.05.17/outbox.cif.g08.bks.cpg/sg82_2_cif.got.tgz:2959.got - 2010.06.03 18:52:26.
