data_PCOD9543892
_publ_section_title
;
Structure prediction by ZEFSAII (Michael W. Deem and Ramdas Pophale) SiO2 
 PCOD9543892
Probable space group: P 4/M
;
_chemical_formula_sum "Si O2"
_cell_formula_units_Z 32
_cell_length_a 10.588922
_cell_length_b 10.588922
_cell_length_c 14.765266
_cell_angle_alpha 90.000000
_cell_angle_beta 90.000000
_cell_angle_gamma 90.000000
_cell_volume 1655.559424
_symmetry_space_group_name_H-M "P 4/M"
_symmetry_group_IT_number 83
_symmetry_cell_setting 'tetragonal'
loop_
_space_group_symop_operation_xyz
x,y,z
-y,x,z
-x,-y,z
y,-x,z
-x,-y,-z
y,-x,-z
x,y,-z
-y,x,-z
loop_
_atom_site_type_symbol
_atom_site_label
_atom_site_fract_x
_atom_site_fract_y
_atom_site_fract_z
Si Si1 0.575616 0.883581 0.755531
Si Si2 0.045350 0.792008 0.896388
Si Si3 0.528541 0.288771 0.100821
Si Si4 0.309199 0.593234 0.603676
O O1 0.475285 0.809440 0.818908
O O2 0.628804 0.791341 0.679059
O O3 0.500000 0.000000 0.713398
O O4 0.684805 0.928174 0.823638
O O5 0.145115 0.907103 0.886720
O O6 0.057069 0.744113 0.000000
O O7 0.635676 0.395514 0.107873
O O8 0.538256 0.232611 0.000000
O O9 0.338370 0.443788 0.615283
O O10 0.267651 0.613934 0.500000
#
# Coordination Sequence:
#
# PCOD9543892 Si02
#       4
#     8   8   8   8
#     4  12  24  32  55  90 115 142 187 239 283 332
#     4   9  21  41  58  74 110 163 205 232 263 316
#     4   9  19  35  53  76 111 150 185 232 292 340
#     4   9  20  41  66  87 111 145 181 227 296 361
#
# _framework density 19.328814000000001
#
# number of rings (size 3 to 8) (size 9 to 14) (size 15 to 20)
#    0.000    2.250    0.000    4.500    7.000    4.500 
#    0.000    0.000    0.000    0.000    0.000    1.750 
#    0.000    0.000    0.000    0.000    0.000    0.000 
#
# Total GULP energy -178850.990530 kJ/mol
# GULP energy per Si atom -5589.093454 kJ/mol
# Density = 1.928482 g / cm^3
# Si number density = 19.328814 Si / 1000 Ang^3
#
#
#
# Elastic Constant Matrix: (Units=GPa)
#
#
# Indices 1 2 3 4 5 6 
#
# 1 45.0670 4.2071 30.2669 0.0000 0.0000 2.1068
# 2 4.2071 45.0670 30.2669 0.0000 0.0000 -2.1068
# 3 30.2669 30.2669 81.3214 0.0000 0.0000 0.0000
# 4 0.0000 0.0000 0.0000 0.8470 0.0000 0.0000
# 5 0.0000 0.0000 0.0000 0.0000 0.8470 0.0000
# 6 2.1068 -2.1068 0.0000 0.0000 0.0000 8.8128
#
#
#
# Elastic Compliance Matrix: (Units=1/GPa)
#
#
# Indices 1 2 3 4 5 6 
#
# 1 0.031242 0.006149 -0.013917 0.000000 0.000000 -0.005999
# 2 0.006149 0.031242 -0.013917 0.000000 0.000000 0.005999
# 3 -0.013917 -0.013917 0.022656 0.000000 0.000000 0.000000
# 4 0.000000 0.000000 0.000000 1.180663 0.000000 0.000000
# 5 0.000000 0.000000 0.000000 0.000000 1.180663 0.000000
# 6 -0.005999 0.005999 0.000000 0.000000 0.000000 0.116339
#
#
# Mechanical properties :
#
#
# Convention : Reuss Voigt Hill
#
# Bulk Modulus (GPa) = 23.93932 33.43748 28.68840
# Shear Modulus (GPa) = 1.90833 9.21565 5.56199
#
# Velocity S-wave (km/s) = 0.99471 2.18591 1.69818
# Velocity P-wave (km/s) = 3.70560 4.86906 4.32662
#
# Compressibility (1/GPa) = 0.04177228
#
# Stress axis : x y z
#
# Youngs Moduli (GPa) = 32.00825 32.00825 44.13815
#
# Poissons Ratio (x) = -0.19683 0.61426
# Poissons Ratio (y) = -0.19683 0.61426
# Poissons Ratio (z) = 0.44545 0.44545
#
# Static dielectric constant tensor:
#      x y z
#    x 1.693300 0.000000 0.000000 
#    y 0.000000 1.693300 0.000000 
#    z 0.000000 0.000000 1.654570 
# 
# From -- ./inp_files/2192.got.cif
#   From: 2010.05.17/outbox.cif.g08.bks.cpg/sg83_2_cif.got.tgz:2192.got - 2010.06.03 18:55:12.
