data_PCOD9543424
_publ_section_title
;
Structure prediction by ZEFSAII (Michael W. Deem and Ramdas Pophale) SiO2 
 PCOD9543424
Probable space group: P 4/M
;
_chemical_formula_sum "Si O2"
_cell_formula_units_Z 52
_cell_length_a 20.035513
_cell_length_b 20.035513
_cell_length_c 7.974303
_cell_angle_alpha 90.000000
_cell_angle_beta 90.000000
_cell_angle_gamma 90.000000
_cell_volume 3201.058914
_symmetry_space_group_name_H-M "P 4/M"
_symmetry_group_IT_number 83
_symmetry_cell_setting 'tetragonal'
loop_
_space_group_symop_operation_xyz
x,y,z
-y,x,z
-x,-y,z
y,-x,z
-x,-y,-z
y,-x,-z
x,y,-z
-y,x,-z
loop_
_atom_site_type_symbol
_atom_site_label
_atom_site_fract_x
_atom_site_fract_y
_atom_site_fract_z
Si Si1 0.271592 0.864123 0.199241
Si Si2 0.372655 0.759881 0.683849
Si Si3 0.984527 0.890289 0.500000
Si Si4 0.001255 0.791488 0.801258
Si Si5 0.155405 0.761926 0.201531
Si Si6 0.313822 0.584725 0.000000
Si Si7 0.567341 0.306692 0.000000
Si Si8 0.252508 0.651191 0.314927
O O1 0.334173 0.829359 0.286560
O O2 0.203540 0.824295 0.251050
O O3 0.263223 0.943026 0.223655
O O4 0.278967 0.851751 0.000000
O O5 0.404302 0.758124 0.500000
O O6 0.312716 0.705383 0.686595
O O7 0.419361 0.738586 0.836314
O O8 0.055040 0.927403 0.500000
O O9 0.981480 0.848251 0.670257
O O10 0.077423 0.771524 0.760917
O O11 0.998654 0.810704 0.000000
O O12 0.187144 0.695684 0.280445
O O13 0.161095 0.755961 0.000000
O O14 0.377909 0.633903 0.000000
O O15 0.333236 0.507623 0.000000
O O16 0.270002 0.602145 0.163850
O O17 0.249974 0.620531 0.500000
#
# Coordination Sequence:
#
# PCOD9543424 Si02
#       8
#     8   8   4   8   8   4   4   8
#     4   9  16  29  48  69  96 127 165 214 264 309
#     4   9  17  30  50  74  99 131 167 208 253 287
#     4  11  24  36  44  60  92 136 181 214 254 324
#     4  10  21  33  47  70  96 127 169 217 271 314
#     4   9  16  29  48  69  96 127 165 214 264 309
#     4  10  20  35  54  79 111 139 166 194 224 280
#     4  10  20  35  54  79 111 139 166 194 224 280
#     4   9  17  30  50  74  99 131 167 208 253 287
#
# _framework density 16.244623000000001
#
# number of rings (size 3 to 8) (size 9 to 14) (size 15 to 20)
#    0.000    2.538    1.538    0.923    2.154    2.615 
#    0.000    0.769    0.000    0.000    0.000    6.462 
#    0.000    2.462    0.000    0.000    0.000    0.000 
#
# Total GULP energy -289668.319096 kJ/mol
# GULP energy per Si atom -5570.544598 kJ/mol
# Density = 1.620765 g / cm^3
# Si number density = 16.244623 Si / 1000 Ang^3
#
#
#
# Elastic Constant Matrix: (Units=GPa)
#
#
# Indices 1 2 3 4 5 6 
#
# 1 44.5549 14.7241 25.8340 0.0000 0.0000 -1.4989
# 2 14.7241 44.5549 25.8340 0.0000 0.0000 1.4989
# 3 25.8340 25.8340 82.7513 0.0000 0.0000 0.0000
# 4 0.0000 0.0000 0.0000 -4.3514 0.0000 0.0000
# 5 0.0000 0.0000 0.0000 0.0000 -4.3514 0.0000
# 6 -1.4989 1.4989 0.0000 0.0000 0.0000 15.0290
#
#
#
# Elastic Compliance Matrix: (Units=1/GPa)
#
#
# Indices 1 2 3 4 5 6 
#
# 1 0.028519 -0.005343 -0.007235 0.000000 0.000000 0.003377
# 2 -0.005343 0.028519 -0.007235 0.000000 0.000000 -0.003377
# 3 -0.007235 -0.007235 0.016602 0.000000 0.000000 0.000000
# 4 0.000000 0.000000 0.000000 -0.229810 0.000000 0.000000
# 5 0.000000 0.000000 0.000000 0.000000 -0.229810 0.000000
# 6 0.003377 -0.003377 0.000000 0.000000 0.000000 0.067212
#
#
# Mechanical properties :
#
#
# Convention : Reuss Voigt Hill
#
# Bulk Modulus (GPa) = 29.40103 33.84949 31.62526
# Shear Modulus (GPa) = -18.67025 8.29651 -5.18687
#
# Velocity S-wave (km/s) = -3.39384 2.26237 -1.78883
# Velocity P-wave (km/s) = 1.66754 5.26375 3.90434
#
# Compressibility (1/GPa) = 0.03401242
#
# Stress axis : x y z
#
# Youngs Moduli (GPa) = 35.06477 35.06477 60.23416
#
# Poissons Ratio (x) = 0.18735 0.43580
# Poissons Ratio (y) = 0.18735 0.43580
# Poissons Ratio (z) = 0.25370 0.25370
#
# Static dielectric constant tensor:
#      x y z
#    x 1.529300 0.000000 0.000000 
#    y 0.000000 1.529300 0.000000 
#    z 0.000000 0.000000 1.604010 
# 
# From -- ./inp_files/1084.got.cif
#   From: 2010.05.17/outbox.cif.g08.bks.cpg/sg83_1_cif.got.tgz:1084.got - 2010.06.03 18:55:12.
