data_PCOD9543321
_publ_section_title
;
Structure prediction by ZEFSAII (Michael W. Deem and Ramdas Pophale) SiO2 
 PCOD9543321
Probable space group: P 4/M
;
_chemical_formula_sum "Si O2"
_cell_formula_units_Z 40
_cell_length_a 15.452841
_cell_length_b 15.452841
_cell_length_c 7.508247
_cell_angle_alpha 90.000000
_cell_angle_beta 90.000000
_cell_angle_gamma 90.000000
_cell_volume 1792.896516
_symmetry_space_group_name_H-M "P 4/M"
_symmetry_group_IT_number 83
_symmetry_cell_setting 'tetragonal'
loop_
_space_group_symop_operation_xyz
x,y,z
-y,x,z
-x,-y,z
y,-x,z
-x,-y,-z
y,-x,-z
x,y,-z
-y,x,-z
loop_
_atom_site_type_symbol
_atom_site_label
_atom_site_fract_x
_atom_site_fract_y
_atom_site_fract_z
Si Si1 0.582346 0.261599 0.291010
Si Si2 0.881392 0.929099 0.716883
Si Si3 0.609518 0.730464 0.281224
Si Si4 0.423660 0.939022 0.794126
Si Si5 0.693290 0.906886 0.284651
O O1 0.580485 0.281857 0.500000
O O2 0.487949 0.288235 0.220187
O O3 0.662088 0.318175 0.219880
O O4 0.590092 0.157335 0.278338
O O5 0.882737 0.927606 0.500000
O O6 0.885450 0.029463 0.773500
O O7 0.791286 0.889200 0.773998
O O8 0.609782 0.731716 0.500000
O O9 0.633576 0.827893 0.225333
O O10 0.500000 0.000000 0.713374
O O11 0.340315 0.000304 0.777753
O O12 0.445884 0.925680 0.000000
O O13 0.691942 0.909324 0.500000
#
# Coordination Sequence:
#
# PCOD9543321 Si02
#       5
#     8   8   8   8   8
#     4  10  20  37  59  85 114 145 183 229 278 335
#     4   8  15  27  45  73 107 139 173 216 264 316
#     4   9  19  33  55  86 114 142 183 230 281 331
#     4  11  23  38  55  78 109 145 183 225 276 325
#     4  10  19  32  54  82 108 140 181 228 276 327
#
# _framework density 22.310267
#
# number of rings (size 3 to 8) (size 9 to 14) (size 15 to 20)
#    0.000    2.400    2.000    1.200    2.800    1.200 
#    0.000    4.000    0.000    0.000    0.000    2.800 
#    0.000    0.000    0.000    0.000    0.000    0.000 
#
# Total GULP energy -223275.526121 kJ/mol
# GULP energy per Si atom -5581.888153 kJ/mol
# Density = 2.225949 g / cm^3
# Si number density = 22.310267 Si / 1000 Ang^3
#
#
#
# Elastic Constant Matrix: (Units=GPa)
#
#
# Indices 1 2 3 4 5 6 
#
# 1 108.9504 48.4540 -2.5000 0.0000 0.0000 12.9735
# 2 48.4540 108.9504 -2.5000 0.0000 0.0000 -12.9735
# 3 -2.5000 -2.5000 55.3482 0.0000 0.0000 0.0000
# 4 0.0000 0.0000 0.0000 -21.7284 0.0000 0.0000
# 5 0.0000 0.0000 0.0000 0.0000 -21.7284 0.0000
# 6 12.9735 -12.9735 0.0000 0.0000 0.0000 36.0504
#
#
#
# Elastic Compliance Matrix: (Units=1/GPa)
#
#
# Indices 1 2 3 4 5 6 
#
# 1 0.012955 -0.006592 0.000287 0.000000 0.000000 -0.007034
# 2 -0.006592 0.012955 0.000287 0.000000 0.000000 0.007034
# 3 0.000287 0.000287 0.018093 0.000000 0.000000 0.000000
# 4 0.000000 0.000000 0.000000 -0.046023 0.000000 0.000000
# 5 0.000000 0.000000 0.000000 0.000000 -0.046023 0.000000
# 6 -0.007034 0.007034 0.000000 0.000000 0.000000 0.032802
#
#
# Mechanical properties :
#
#
# Convention : Reuss Voigt Hill
#
# Bulk Modulus (GPa) = 31.28199 40.01744 35.64972
# Shear Modulus (GPa) = 671.15672 13.83841 342.49757
#
# Velocity S-wave (km/s) = 17.36323 2.49323 12.40359
# Velocity P-wave (km/s) = 20.39675 5.12484 14.87097
#
# Compressibility (1/GPa) = 0.03196727
#
# Stress axis : x y z
#
# Youngs Moduli (GPa) = 77.19283 77.19283 55.26878
#
# Poissons Ratio (x) = 0.50888 -0.01588
# Poissons Ratio (y) = 0.50888 -0.01588
# Poissons Ratio (z) = -0.02218 -0.02218
#
# Static dielectric constant tensor:
#      x y z
#    x 1.806530 0.000000 0.000000 
#    y 0.000000 1.806530 0.000000 
#    z 0.000000 0.000000 1.861960 
# 
# From -- ./inp_files/653.got.cif
#   From: 2010.05.17/outbox.cif.g08.bks.cpg/sg83_1_cif.got.tgz:653.got - 2010.06.03 18:55:12.
