data_PCOD9543420
_publ_section_title
;
Structure prediction by ZEFSAII (Michael W. Deem and Ramdas Pophale) SiO2 
 PCOD9543420
Probable space group: P 4/M
;
_chemical_formula_sum "Si O2"
_cell_formula_units_Z 30
_cell_length_a 8.013423
_cell_length_b 8.013423
_cell_length_c 22.305560
_cell_angle_alpha 90.000000
_cell_angle_beta 90.000000
_cell_angle_gamma 90.000000
_cell_volume 1432.350379
_symmetry_space_group_name_H-M "P 4/M"
_symmetry_group_IT_number 83
_symmetry_cell_setting 'tetragonal'
loop_
_space_group_symop_operation_xyz
x,y,z
-y,x,z
-x,-y,z
y,-x,z
-x,-y,-z
y,-x,-z
x,y,-z
-y,x,-z
loop_
_atom_site_type_symbol
_atom_site_label
_atom_site_fract_x
_atom_site_fract_y
_atom_site_fract_z
Si Si1 0.764822 0.597213 0.566237
Si Si2 0.000000 0.500000 0.000000
Si Si3 0.500000 0.000000 0.785094
Si Si4 0.229406 0.578853 0.110888
Si Si5 0.734958 0.086434 0.315089
O O1 0.594265 0.705113 0.569915
O O2 0.839287 0.626604 0.500000
O O3 0.877606 0.647784 0.621709
O O4 0.886651 0.408342 0.052785
O O5 0.602514 0.880689 0.829681
O O6 0.387533 0.889783 0.740718
O O7 0.300932 0.389107 0.109849
O O8 0.896589 0.202641 0.311659
#
# Coordination Sequence:
#
# PCOD9543420 Si02
#       5
#     8   2   4   8   8
#     4   9  19  37  60  84 110 144 190 243 297 356
#     4  10  20  34  60  90 122 146 174 226 282 322
#     4  11  22  39  59  82 115 154 194 238 287 336
#     4  10  21  38  62  89 116 151 195 236 274 326
#     4  11  23  37  55  82 116 152 191 239 297 357
#
# _framework density 20.944596000000001
#
# number of rings (size 3 to 8) (size 9 to 14) (size 15 to 20)
#    0.000    1.867    0.000    4.800    0.000    2.133 
#    0.000    7.333    0.000   30.400    0.000    0.000 
#    0.000    0.000    0.000    0.000    0.000    0.000 
#
# Total GULP energy -167206.499998 kJ/mol
# GULP energy per Si atom -5573.550000 kJ/mol
# Density = 2.089692 g / cm^3
# Si number density = 20.944596 Si / 1000 Ang^3
#
#
#
# Elastic Constant Matrix: (Units=GPa)
#
#
# Indices 1 2 3 4 5 6 
#
# 1 46.5727 -2.2649 38.7191 0.0000 0.0000 5.7173
# 2 -2.2649 46.5727 38.7191 0.0000 0.0000 -5.7173
# 3 38.7191 38.7191 214.2033 0.0000 0.0000 0.0000
# 4 0.0000 0.0000 0.0000 -50.0776 0.0000 0.0000
# 5 0.0000 0.0000 0.0000 0.0000 -50.0776 0.0000
# 6 5.7173 -5.7173 0.0000 0.0000 0.0000 24.3519
#
#
#
# Elastic Compliance Matrix: (Units=1/GPa)
#
#
# Indices 1 2 3 4 5 6 
#
# 1 0.027330 0.005663 -0.005964 0.000000 0.000000 -0.005087
# 2 0.005663 0.027330 -0.005964 0.000000 0.000000 0.005087
# 3 -0.005964 -0.005964 0.006824 0.000000 0.000000 0.000000
# 4 0.000000 0.000000 0.000000 -0.019969 0.000000 0.000000
# 5 0.000000 0.000000 0.000000 0.000000 -0.019969 0.000000
# 6 -0.005087 0.005087 0.000000 0.000000 0.000000 0.043453
#
#
# Mechanical properties :
#
#
# Convention : Reuss Voigt Hill
#
# Bulk Modulus (GPa) = 20.42724 50.85505 35.64115
# Shear Modulus (GPa) = 53.27868 0.31769 26.79819
#
# Velocity S-wave (km/s) = 5.04907 0.38988 3.58086
# Velocity P-wave (km/s) = 6.61551 4.95340 5.84385
#
# Compressibility (1/GPa) = 0.04895424
#
# Stress axis : x y z
#
# Youngs Moduli (GPa) = 36.59038 36.59038 146.53273
#
# Poissons Ratio (x) = -0.20720 0.87387
# Poissons Ratio (y) = -0.20720 0.87387
# Poissons Ratio (z) = 0.21821 0.21821
#
# Static dielectric constant tensor:
#      x y z
#    x 1.779630 0.000000 0.000000 
#    y 0.000000 1.779630 0.000000 
#    z 0.000000 0.000000 1.707790 
# 
# From -- ./inp_files/2798.got.cif
#   From: 2010.05.17/outbox.cif.g08.bks.cpg/sg83_2_cif.got.tgz:2798.got - 2010.06.03 18:55:12.
