data_PCOD9543490
_publ_section_title
;
Structure prediction by ZEFSAII (Michael W. Deem and Ramdas Pophale) SiO2 
 PCOD9543490
Probable space group: P 4/M
;
_chemical_formula_sum "Si O2"
_cell_formula_units_Z 58
_cell_length_a 18.149487
_cell_length_b 18.149487
_cell_length_c 7.879254
_cell_angle_alpha 90.000000
_cell_angle_beta 90.000000
_cell_angle_gamma 90.000000
_cell_volume 2595.456826
_symmetry_space_group_name_H-M "P 4/M"
_symmetry_group_IT_number 83
_symmetry_cell_setting 'tetragonal'
loop_
_space_group_symop_operation_xyz
x,y,z
-y,x,z
-x,-y,z
y,-x,z
-x,-y,-z
y,-x,-z
x,y,-z
-y,x,-z
loop_
_atom_site_type_symbol
_atom_site_label
_atom_site_fract_x
_atom_site_fract_y
_atom_site_fract_z
Si Si1 0.296412 0.852172 0.804418
Si Si2 0.019842 0.727243 0.793800
Si Si3 0.859850 0.392975 0.296442
Si Si4 0.451405 0.909913 0.812868
Si Si5 0.687931 0.713709 0.301554
Si Si6 0.000000 0.500000 0.500000
Si Si7 0.963958 0.112185 0.793322
Si Si8 0.576628 0.409696 0.796593
O O1 0.385265 0.852576 0.798632
O O2 0.273603 0.774697 0.727213
O O3 0.276266 0.933918 0.737790
O O4 0.270861 0.851043 0.000000
O O5 0.073815 0.663672 0.733107
O O6 0.052760 0.805717 0.738094
O O7 0.018315 0.724310 0.000000
O O8 0.860397 0.410973 0.500000
O O9 0.873406 0.469059 0.200993
O O10 0.784227 0.356660 0.234382
O O11 0.449499 0.963130 0.651806
O O12 0.440777 0.945161 0.000000
O O13 0.674763 0.715218 0.500000
O O14 0.653246 0.636344 0.242195
O O15 0.046540 0.089473 0.739487
O O16 0.963067 0.111731 0.000000
O O17 0.601587 0.491885 0.735861
O O18 0.572766 0.413204 0.000000
#
# Coordination Sequence:
#
# PCOD9543490 Si02
#       8
#     8   8   8   8   8   2   8   8
#     4  10  24  42  63  96 128 166 222 274 329 401
#     4  10  21  37  63  92 122 162 211 267 325 397
#     4  11  25  44  62  92 129 178 223 275 336 394
#     4  11  24  42  68  99 132 177 228 274 337 410
#     4  11  26  42  64  94 134 175 222 276 342 409
#     4  12  22  40  72  98 136 172 216 290 332 394
#     4   8  15  29  53  86 118 150 193 251 318 381
#     4   9  20  41  69  99 129 165 211 265 330 400
#
# _framework density 22.346741000000002
#
# number of rings (size 3 to 8) (size 9 to 14) (size 15 to 20)
#    0.000    1.931    0.690    2.690    4.828    4.414 
#    0.000    0.690    0.000    0.000    0.000    0.966 
#    0.000    0.000    0.000    0.000    0.000    0.000 
#
# Total GULP energy -323333.794854 kJ/mol
# GULP energy per Si atom -5574.720601 kJ/mol
# Density = 2.229588 g / cm^3
# Si number density = 22.346741 Si / 1000 Ang^3
#
#
#
# Elastic Constant Matrix: (Units=GPa)
#
#
# Indices 1 2 3 4 5 6 
#
# 1 44.6315 -22.9879 1.7874 0.0000 0.0000 -5.2168
# 2 -22.9879 44.6315 1.7874 0.0000 0.0000 5.2168
# 3 1.7874 1.7874 74.0813 0.0000 0.0000 0.0000
# 4 0.0000 0.0000 0.0000 19.1848 0.0000 0.0000
# 5 0.0000 0.0000 0.0000 0.0000 19.1848 0.0000
# 6 -5.2168 5.2168 0.0000 0.0000 0.0000 12.9085
#
#
#
# Elastic Compliance Matrix: (Units=1/GPa)
#
#
# Indices 1 2 3 4 5 6 
#
# 1 0.031080 0.015308 -0.001119 0.000000 0.000000 0.006374
# 2 0.015308 0.031080 -0.001119 0.000000 0.000000 -0.006374
# 3 -0.001119 -0.001119 0.013553 0.000000 0.000000 0.000000
# 4 0.000000 0.000000 0.000000 0.052125 0.000000 0.000000
# 5 0.000000 0.000000 0.000000 0.000000 0.052125 0.000000
# 6 0.006374 -0.006374 0.000000 0.000000 0.000000 0.082620
#
#
# Mechanical properties :
#
#
# Convention : Reuss Voigt Hill
#
# Bulk Modulus (GPa) = 9.81820 13.83533 11.82677
# Shear Modulus (GPa) = 18.49152 22.43944 20.46548
#
# Velocity S-wave (km/s) = 2.87972 3.17227 3.02953
# Velocity P-wave (km/s) = 3.93194 4.42971 4.18823
#
# Compressibility (1/GPa) = 0.10185163
#
# Stress axis : x y z
#
# Youngs Moduli (GPa) = 32.17500 32.17500 73.78607
#
# Poissons Ratio (x) = -0.49253 0.08258
# Poissons Ratio (y) = -0.49253 0.08258
# Poissons Ratio (z) = 0.03601 0.03601
#
# Static dielectric constant tensor:
#      x y z
#    x 1.880850 0.000000 0.000000 
#    y 0.000000 1.880850 0.000000 
#    z 0.000000 0.000000 1.832890 
# 
# From -- ./inp_files/1102.got.cif
#   From: 2010.05.17/outbox.cif.g08.bks.cpg/sg83_1_cif.got.tgz:1102.got - 2010.06.03 18:55:12.
