data_PCOD9543190
_publ_section_title
;
Structure prediction by ZEFSAII (Michael W. Deem and Ramdas Pophale) SiO2 
 PCOD9543190
Probable space group: I -4 
;
_chemical_formula_sum "Si O2"
_cell_formula_units_Z 34
_cell_length_a 10.871807
_cell_length_b 10.871807
_cell_length_c 11.871999
_cell_angle_alpha 90.000000
_cell_angle_beta 90.000000
_cell_angle_gamma 90.000000
_cell_volume 1403.225019
_symmetry_space_group_name_H-M "I -4 "
_symmetry_group_IT_number 82
_symmetry_cell_setting 'tetragonal'
loop_
_space_group_symop_operation_xyz
x,y,z
y,-x,-z
-x,-y,z
-y,x,-z
1/2+x,1/2+y,1/2+z
1/2+y,1/2-x,1/2-z
1/2-x,1/2-y,1/2+z
1/2-y,1/2+x,1/2-z
loop_
_atom_site_type_symbol
_atom_site_label
_atom_site_fract_x
_atom_site_fract_y
_atom_site_fract_z
Si Si1 0.585437 0.732738 0.134416
Si Si2 0.094217 0.807391 0.828024
Si Si3 0.056266 0.376819 0.436993
Si Si4 0.500000 0.500000 0.500000
Si Si5 0.753225 0.542895 0.265051
O O1 0.689950 0.837040 0.123581
O O2 0.472629 0.748300 0.218873
O O3 0.651263 0.621504 0.198687
O O4 0.539643 0.749669 0.006981
O O5 0.010782 0.880728 0.918876
O O6 0.191308 0.911872 0.791420
O O7 0.189215 0.399246 0.378331
O O8 0.000000 0.500000 0.495069
O O9 0.969469 0.357625 0.328885
#
# Coordination Sequence:
#
# PCOD9543190 Si02
#       5
#     8   8   8   2   8
#     4  12  29  44  76 112 155 191 258 323 382 458
#     4  12  27  48  76 112 153 202 259 315 394 463
#     4  12  25  47  80 109 153 203 257 320 385 465
#     4  12  24  52  84 106 156 212 264 312 386 480
#     4  12  23  52  75 110 147 204 261 311 386 471
#
# _framework density 24.229897999999999
#
# number of rings (size 3 to 8) (size 9 to 14) (size 15 to 20)
#    0.000    0.000    7.059    1.412    6.588    0.000 
#    0.000    0.000    0.000    0.000    0.000    0.000 
#    0.000    0.000    0.000    0.000    0.000    0.000 
#
# Total GULP energy -94841.849574 kJ/mol
# GULP energy per Si atom -5578.932328 kJ/mol
# Density = 2.417475 g / cm^3
# Si number density = 24.229898 Si / 1000 Ang^3
#
#
#
# Elastic Constant Matrix: (Units=GPa)
#
#
# Indices 1 2 3 4 5 6 
#
# 1 39.8227 -8.5661 30.1416 0.0000 0.0000 13.2936
# 2 -8.5661 39.8227 30.1416 0.0000 0.0000 -13.2936
# 3 30.1416 30.1416 140.9849 0.0000 0.0000 0.0000
# 4 0.0000 0.0000 0.0000 44.4655 0.0000 0.0000
# 5 0.0000 0.0000 0.0000 0.0000 44.4655 0.0000
# 6 13.2936 -13.2936 0.0000 0.0000 0.0000 44.5075
#
#
#
# Elastic Compliance Matrix: (Units=1/GPa)
#
#
# Indices 1 2 3 4 5 6 
#
# 1 0.039582 0.014859 -0.011639 0.000000 0.000000 -0.007384
# 2 0.014859 0.039582 -0.011639 0.000000 0.000000 0.007384
# 3 -0.011639 -0.011639 0.012070 0.000000 0.000000 0.000000
# 4 0.000000 0.000000 0.000000 0.022489 0.000000 0.000000
# 5 0.000000 0.000000 0.000000 0.000000 0.022489 0.000000
# 6 -0.007384 0.007384 0.000000 0.000000 0.000000 0.026879
#
#
# Mechanical properties :
#
#
# Convention : Reuss Voigt Hill
#
# Bulk Modulus (GPa) = 13.44167 36.00714 24.72440
# Shear Modulus (GPa) = 24.42248 37.94857 31.18553
#
# Velocity S-wave (km/s) = 3.17826 3.96180 3.59147
# Velocity P-wave (km/s) = 4.36212 5.98504 5.23683
#
# Compressibility (1/GPa) = 0.07439550
#
# Stress axis : x y z
#
# Youngs Moduli (GPa) = 25.26385 25.26385 82.85221
#
# Poissons Ratio (x) = -0.37539 0.96433
# Poissons Ratio (y) = -0.37539 0.96433
# Poissons Ratio (z) = 0.29405 0.29405
#
# Static dielectric constant tensor:
#      x y z
#    x 1.975870 0.000000 0.000000 
#    y 0.000000 1.975870 0.000000 
#    z 0.000000 0.000000 2.304090 
# 
# From -- ./inp_files/1548.got.cif
#   From: 2010.05.17/outbox.cif.g08.bks.cpg/sg82_1_cif.got.tgz:1548.got - 2010.06.03 18:52:26.
