data_PCOD9543450
_publ_section_title
;
Structure prediction by ZEFSAII (Michael W. Deem and Ramdas Pophale) SiO2 
 PCOD9543450
Probable space group: P 4/M
;
_chemical_formula_sum "Si O2"
_cell_formula_units_Z 52
_cell_length_a 19.321673
_cell_length_b 19.321673
_cell_length_c 7.313338
_cell_angle_alpha 90.000000
_cell_angle_beta 90.000000
_cell_angle_gamma 90.000000
_cell_volume 2730.266883
_symmetry_space_group_name_H-M "P 4/M"
_symmetry_group_IT_number 83
_symmetry_cell_setting 'tetragonal'
loop_
_space_group_symop_operation_xyz
x,y,z
-y,x,z
-x,-y,z
y,-x,z
-x,-y,-z
y,-x,-z
x,y,-z
-y,x,-z
loop_
_atom_site_type_symbol
_atom_site_label
_atom_site_fract_x
_atom_site_fract_y
_atom_site_fract_z
Si Si1 0.207273 0.250543 0.500000
Si Si2 0.104581 0.728891 0.500000
Si Si3 0.473536 0.820416 0.778640
Si Si4 0.419143 0.577747 0.777841
Si Si5 0.607295 0.885004 0.783370
Si Si6 0.398572 0.960588 0.216776
Si Si7 0.721823 0.046099 0.500000
Si Si8 0.282120 0.351496 0.221299
O O1 0.222691 0.169845 0.500000
O O2 0.124337 0.253172 0.500000
O O3 0.242993 0.290463 0.328244
O O4 0.113736 0.677445 0.672175
O O5 0.027563 0.761649 0.500000
O O6 0.553256 0.826358 0.721387
O O7 0.439021 0.892769 0.719939
O O8 0.422653 0.758610 0.728793
O O9 0.475847 0.820302 0.000000
O O10 0.404863 0.498478 0.721625
O O11 0.365654 0.637975 0.725672
O O12 0.419140 0.577710 0.000000
O O13 0.573374 0.961580 0.753408
O O14 0.619436 0.878165 0.000000
O O15 0.326823 0.959143 0.322467
O O16 0.390076 0.953568 0.000000
O O17 0.277965 0.342130 0.000000
#
# Coordination Sequence:
#
# PCOD9543450 Si02
#       8
#     4   4   8   8   8   8   4   8
#     4  12  24  39  58  80 107 134 168 217 266 319
#     4  10  24  38  53  81 105 136 180 209 260 328
#     4   9  16  28  48  76 107 143 179 210 251 304
#     4   8  15  31  54  76 101 140 189 234 272 307
#     4   9  18  32  50  75 111 143 172 213 252 300
#     4   9  16  29  50  76 104 140 181 209 242 303
#     4  10  20  37  57  74 103 141 169 213 265 312
#     4  10  21  35  54  80 108 141 180 222 270 314
#
# _framework density 19.045757999999999
#
# number of rings (size 3 to 8) (size 9 to 14) (size 15 to 20)
#    0.000    2.615    1.538    0.923    0.000    4.923 
#    0.000    6.154    0.000    1.154    0.000    0.000 
#    0.000    0.000    0.000    9.077    0.000    0.000 
#
# Total GULP energy -289784.587015 kJ/mol
# GULP energy per Si atom -5572.780520 kJ/mol
# Density = 1.900241 g / cm^3
# Si number density = 19.045758 Si / 1000 Ang^3
#
#
#
# Elastic Constant Matrix: (Units=GPa)
#
#
# Indices 1 2 3 4 5 6 
#
# 1 74.5239 48.8018 12.9461 0.0000 0.0000 7.8305
# 2 48.8018 74.5239 12.9461 0.0000 0.0000 -7.8305
# 3 12.9461 12.9461 59.2537 0.0000 0.0000 0.0000
# 4 0.0000 0.0000 0.0000 0.5289 0.0000 0.0000
# 5 0.0000 0.0000 0.0000 0.0000 0.5289 0.0000
# 6 7.8305 -7.8305 0.0000 0.0000 0.0000 25.7373
#
#
#
# Elastic Compliance Matrix: (Units=1/GPa)
#
#
# Indices 1 2 3 4 5 6 
#
# 1 0.028107 -0.019609 -0.001857 0.000000 0.000000 -0.014518
# 2 -0.019609 0.028107 -0.001857 0.000000 0.000000 0.014518
# 3 -0.001857 -0.001857 0.017688 0.000000 0.000000 0.000000
# 4 0.000000 0.000000 0.000000 1.890608 0.000000 0.000000
# 5 0.000000 0.000000 0.000000 0.000000 1.890608 0.000000
# 6 -0.014518 0.014518 0.000000 0.000000 0.000000 0.047688
#
#
# Mechanical properties :
#
#
# Convention : Reuss Voigt Hill
#
# Bulk Modulus (GPa) = 36.68691 39.74327 38.21509
# Shear Modulus (GPa) = 1.26309 14.26621 7.76465
#
# Velocity S-wave (km/s) = 0.81525 2.73985 2.02131
# Velocity P-wave (km/s) = 4.49338 5.56072 5.05530
#
# Compressibility (1/GPa) = 0.02725768
#
# Stress axis : x y z
#
# Youngs Moduli (GPa) = 35.57803 35.57803 56.53562
#
# Poissons Ratio (x) = 0.69764 0.10497
# Poissons Ratio (y) = 0.69764 0.10497
# Poissons Ratio (z) = 0.06606 0.06606
#
# Static dielectric constant tensor:
#      x y z
#    x 1.682510 0.000000 0.000000 
#    y 0.000000 1.682510 0.000000 
#    z 0.000000 0.000000 1.692720 
# 
# From -- ./inp_files/1055.got.cif
#   From: 2010.05.17/outbox.cif.g08.bks.cpg/sg83_1_cif.got.tgz:1055.got - 2010.06.03 18:55:12.
