data_PCOD9543578
_publ_section_title
;
Structure prediction by ZEFSAII (Michael W. Deem and Ramdas Pophale) SiO2 
 PCOD9543578
Probable space group: P 4/M
;
_chemical_formula_sum "Si O2"
_cell_formula_units_Z 48
_cell_length_a 12.447498
_cell_length_b 12.447498
_cell_length_c 20.098916
_cell_angle_alpha 90.000000
_cell_angle_beta 90.000000
_cell_angle_gamma 90.000000
_cell_volume 3114.130195
_symmetry_space_group_name_H-M "P 4/M"
_symmetry_group_IT_number 83
_symmetry_cell_setting 'tetragonal'
loop_
_space_group_symop_operation_xyz
x,y,z
-y,x,z
-x,-y,z
y,-x,z
-x,-y,-z
y,-x,-z
x,y,-z
-y,x,-z
loop_
_atom_site_type_symbol
_atom_site_label
_atom_site_fract_x
_atom_site_fract_y
_atom_site_fract_z
Si Si1 0.409913 0.781714 0.783974
Si Si2 0.554909 0.325838 0.354007
Si Si3 0.384566 0.992027 0.140758
Si Si4 0.673425 0.554604 0.500000
Si Si5 0.833402 0.039935 0.079384
Si Si6 0.242121 0.631438 0.855525
Si Si7 0.659076 0.408913 0.000000
O O1 0.420319 0.751687 0.706998
O O2 0.403873 0.909087 0.798851
O O3 0.309656 0.720507 0.816702
O O4 0.515030 0.736502 0.822324
O O5 0.629290 0.432705 0.348995
O O6 0.570855 0.275130 0.427565
O O7 0.287226 0.940460 0.100676
O O8 0.500000 0.000000 0.104534
O O9 0.353117 0.114698 0.154059
O O10 0.566976 0.628548 0.500000
O O11 0.922827 0.124653 0.102310
O O12 0.836916 0.040000 0.000000
O O13 0.277855 0.625757 0.932957
O O14 0.642023 0.538746 0.000000
#
# Coordination Sequence:
#
# PCOD9543578 Si02
#       7
#     8   8   8   4   8   8   4
#     4  11  20  34  51  70  96 131 162 195 246 293
#     4   9  15  25  48  75 104 130 156 193 234 283
#     4  10  23  36  44  65  96 124 155 197 240 295
#     4   7  12  22  38  74 109 127 149 188 235 276
#     4   9  18  35  55  68  78 106 155 208 254 292
#     4  11  22  36  49  71  95 123 168 206 249 296
#     4  11  22  36  53  71  93 122 163 222 253 293
#
# _framework density 15.413614000000001
#
# number of rings (size 3 to 8) (size 9 to 14) (size 15 to 20)
#    0.000    2.167    3.333    2.500    1.167    0.667 
#    6.000    0.000    0.000    0.000    0.000    6.417 
#    0.000    0.000    0.000    0.000    0.000    8.833 
#
# Total GULP energy -267288.902447 kJ/mol
# GULP energy per Si atom -5568.518801 kJ/mol
# Density = 1.537853 g / cm^3
# Si number density = 15.413614 Si / 1000 Ang^3
#
#
#
# Elastic Constant Matrix: (Units=GPa)
#
#
# Indices 1 2 3 4 5 6 
#
# 1 75.5391 15.4096 31.5168 0.0000 0.0000 7.8584
# 2 15.4096 75.5391 31.5168 0.0000 0.0000 -7.8584
# 3 31.5168 31.5168 127.4209 0.0000 0.0000 0.0000
# 4 0.0000 0.0000 0.0000 10.2402 0.0000 0.0000
# 5 0.0000 0.0000 0.0000 0.0000 10.2402 0.0000
# 6 7.8584 -7.8584 0.0000 0.0000 0.0000 10.7369
#
#
#
# Elastic Compliance Matrix: (Units=1/GPa)
#
#
# Indices 1 2 3 4 5 6 
#
# 1 0.016918 -0.003648 -0.003282 0.000000 0.000000 -0.015052
# 2 -0.003648 0.016918 -0.003282 0.000000 0.000000 0.015052
# 3 -0.003282 -0.003282 0.009472 0.000000 0.000000 0.000000
# 4 0.000000 0.000000 0.000000 0.097654 0.000000 0.000000
# 5 0.000000 0.000000 0.000000 0.000000 0.097654 0.000000
# 6 -0.015052 0.015052 0.000000 0.000000 0.000000 0.115170
#
#
# Mechanical properties :
#
#
# Convention : Reuss Voigt Hill
#
# Bulk Modulus (GPa) = 43.70110 48.37619 46.03864
# Shear Modulus (GPa) = 13.09460 19.58051 16.33756
#
# Velocity S-wave (km/s) = 2.91786 3.56805 3.25921
# Velocity P-wave (km/s) = 6.30601 6.95903 6.64055
#
# Compressibility (1/GPa) = 0.02288272
#
# Stress axis : x y z
#
# Youngs Moduli (GPa) = 59.11019 59.11019 105.57758
#
# Poissons Ratio (x) = 0.21560 0.34653
# Poissons Ratio (y) = 0.21560 0.34653
# Poissons Ratio (z) = 0.19402 0.19402
#
# Static dielectric constant tensor:
#      x y z
#    x 1.536060 0.000000 0.000000 
#    y 0.000000 1.536060 0.000000 
#    z 0.000000 0.000000 1.508960 
# 
# From -- ./inp_files/2963.got.cif
#   From: 2010.05.17/outbox.cif.g08.bks.cpg/sg83_2_cif.got.tgz:2963.got - 2010.06.03 18:55:12.
