data_PCOD9543694
_publ_section_title
;
Structure prediction by ZEFSAII (Michael W. Deem and Ramdas Pophale) SiO2 
 PCOD9543694
Probable space group: P 4/M
;
_chemical_formula_sum "Si O2"
_cell_formula_units_Z 44
_cell_length_a 8.142570
_cell_length_b 8.142570
_cell_length_c 29.921182
_cell_angle_alpha 90.000000
_cell_angle_beta 90.000000
_cell_angle_gamma 90.000000
_cell_volume 1983.817639
_symmetry_space_group_name_H-M "P 4/M"
_symmetry_group_IT_number 83
_symmetry_cell_setting 'tetragonal'
loop_
_space_group_symop_operation_xyz
x,y,z
-y,x,z
-x,-y,z
y,-x,z
-x,-y,-z
y,-x,-z
x,y,-z
-y,x,-z
loop_
_atom_site_type_symbol
_atom_site_label
_atom_site_fract_x
_atom_site_fract_y
_atom_site_fract_z
Si Si1 0.912313 0.736612 0.915098
Si Si2 0.088066 0.263245 0.815703
Si Si3 0.736686 0.091050 0.355169
Si Si4 0.737956 0.096673 0.547755
Si Si5 0.422030 0.763956 0.000000
Si Si6 0.763557 0.579647 0.269418
O O1 0.886063 0.665645 0.865398
O O2 0.098630 0.801242 0.918381
O O3 0.863322 0.620773 0.955466
O O4 0.137610 0.378597 0.775280
O O5 0.901649 0.198922 0.812433
O O6 0.657441 0.124503 0.404029
O O7 0.624415 0.136902 0.313784
O O8 0.903598 0.199940 0.352661
O O9 0.652455 0.129522 0.500000
O O10 0.907252 0.201251 0.547739
O O11 0.303421 0.605317 0.000000
O O12 0.604155 0.697315 0.269601
#
# Coordination Sequence:
#
# PCOD9543694 Si02
#       6
#     8   8   8   8   4   8
#     4   9  19  37  60  83 105 131 167 211 255 300
#     4   9  19  37  60  83 103 125 161 210 259 305
#     4   9  17  30  51  77 100 125 162 206 249 297
#     4   7  10  19  39  69 100 123 147 190 248 299
#     4  11  24  37  50  76 114 149 178 209 244 286
#     4  11  24  37  48  68 101 138 172 206 246 295
#
# _framework density 22.179459999999999
#
# number of rings (size 3 to 8) (size 9 to 14) (size 15 to 20)
#    0.000    2.818    0.000    4.364    0.000    8.000 
#    0.000    5.455    0.000    1.091    0.000    6.364 
#    0.000    0.000    0.000    0.000    0.000    0.000 
#
# Total GULP energy -246047.150420 kJ/mol
# GULP energy per Si atom -5591.980691 kJ/mol
# Density = 2.212898 g / cm^3
# Si number density = 22.179460 Si / 1000 Ang^3
#
#
#
# Elastic Constant Matrix: (Units=GPa)
#
#
# Indices 1 2 3 4 5 6 
#
# 1 58.8042 44.9298 68.3217 0.0000 0.0000 3.1661
# 2 44.9298 58.8042 68.3217 0.0000 0.0000 -3.1661
# 3 68.3217 68.3217 248.4491 0.0000 0.0000 0.0000
# 4 0.0000 0.0000 0.0000 -110.6956 0.0000 0.0000
# 5 0.0000 0.0000 0.0000 0.0000 -110.6956 0.0000
# 6 3.1661 -3.1661 0.0000 0.0000 0.0000 36.9295
#
#
#
# Elastic Compliance Matrix: (Units=1/GPa)
#
#
# Indices 1 2 3 4 5 6 
#
# 1 0.045063 -0.029947 -0.004157 0.000000 0.000000 -0.006431
# 2 -0.029947 0.045063 -0.004157 0.000000 0.000000 0.006431
# 3 -0.004157 -0.004157 0.006311 0.000000 0.000000 0.000000
# 4 0.000000 0.000000 0.000000 -0.009034 0.000000 0.000000
# 5 0.000000 0.000000 0.000000 0.000000 -0.009034 0.000000
# 6 -0.006431 0.006431 0.000000 0.000000 0.000000 0.028181
#
#
# Mechanical properties :
#
#
# Convention : Reuss Voigt Hill
#
# Bulk Modulus (GPa) = 50.21275 81.02264 65.61770
# Shear Modulus (GPa) = 26.35613 -24.59337 0.88138
#
# Velocity S-wave (km/s) = 3.45093 -3.33353 0.63107
# Velocity P-wave (km/s) = 6.21023 4.66832 5.49364
#
# Compressibility (1/GPa) = 0.01991526
#
# Stress axis : x y z
#
# Youngs Moduli (GPa) = 22.19138 22.19138 158.45262
#
# Poissons Ratio (x) = 0.66457 0.65862
# Poissons Ratio (y) = 0.66457 0.65862
# Poissons Ratio (z) = 0.09224 0.09224
#
# Static dielectric constant tensor:
#      x y z
#    x 1.786690 0.000000 0.000000 
#    y 0.000000 1.786690 0.000000 
#    z 0.000000 0.000000 1.821130 
# 
# From -- ./inp_files/3361.got.cif
#   From: 2010.05.17/outbox.cif.g08.bks.cpg/sg83_2_cif.got.tgz:3361.got - 2010.06.03 18:55:12.
