data_PCOD9543774
_publ_section_title
;
Structure prediction by ZEFSAII (Michael W. Deem and Ramdas Pophale) SiO2 
 PCOD9543774
Probable space group: P 4/M
;
_chemical_formula_sum "Si O2"
_cell_formula_units_Z 48
_cell_length_a 8.125814
_cell_length_b 8.125814
_cell_length_c 32.401260
_cell_angle_alpha 90.000000
_cell_angle_beta 90.000000
_cell_angle_gamma 90.000000
_cell_volume 2139.418039
_symmetry_space_group_name_H-M "P 4/M"
_symmetry_group_IT_number 83
_symmetry_cell_setting 'tetragonal'
loop_
_space_group_symop_operation_xyz
x,y,z
-y,x,z
-x,-y,z
y,-x,z
-x,-y,-z
y,-x,-z
x,y,-z
-y,x,-z
loop_
_atom_site_type_symbol
_atom_site_label
_atom_site_fract_x
_atom_site_fract_y
_atom_site_fract_z
Si Si1 0.736158 0.914158 0.419411
Si Si2 0.092482 0.736956 0.740701
Si Si3 0.592191 0.764024 0.000000
Si Si4 0.236203 0.586627 0.500000
Si Si5 0.763229 0.414643 0.339336
Si Si6 0.764253 0.413317 0.089064
Si Si7 0.263298 0.087180 0.831867
O O1 0.631616 0.865427 0.459329
O O2 0.637935 0.873402 0.377943
O O3 0.899803 0.800431 0.420171
O O4 0.145986 0.622367 0.703465
O O5 0.117414 0.662697 0.786408
O O6 0.904403 0.799102 0.737672
O O7 0.403595 0.699926 0.000000
O O8 0.620679 0.847059 0.955664
O O9 0.300093 0.400294 0.500000
O O10 0.699578 0.600394 0.341426
O O11 0.698977 0.599799 0.090395
O O12 0.868647 0.371518 0.129003
O O13 0.099255 0.199266 0.833807
#
# Coordination Sequence:
#
# PCOD9543774 Si02
#       7
#     8   8   4   4   8   8   8
#     4  11  24  41  62  88 116 149 191 231 268 319
#     4   9  19  37  58  77 100 136 180 219 258 312
#     4   7  12  26  46  67  94 128 164 205 254 305
#     4  11  24  41  62  90 122 153 188 231 276 320
#     4  11  24  39  56  83 116 145 177 221 271 320
#     4   9  17  30  50  74  98 127 167 213 258 307
#     4   9  19  35  52  72 102 137 171 210 258 312
#
# _framework density 22.436005999999999
#
# number of rings (size 3 to 8) (size 9 to 14) (size 15 to 20)
#    0.000    2.333    0.000    4.500    0.000   10.667 
#    0.000    5.833    0.000    4.000    0.000    0.000 
#    0.000    0.000    0.000    0.000    0.000    0.000 
#
# Total GULP energy -268719.501766 kJ/mol
# GULP energy per Si atom -5598.322953 kJ/mol
# Density = 2.238494 g / cm^3
# Si number density = 22.436006 Si / 1000 Ang^3
#
#
#
# Elastic Constant Matrix: (Units=GPa)
#
#
# Indices 1 2 3 4 5 6 
#
# 1 72.7233 46.4957 62.7258 0.0000 0.0000 0.7968
# 2 46.4957 72.7233 62.7258 0.0000 0.0000 -0.7968
# 3 62.7258 62.7258 235.4355 0.0000 0.0000 0.0000
# 4 0.0000 0.0000 0.0000 160.6400 0.0000 0.0000
# 5 0.0000 0.0000 0.0000 0.0000 160.6400 0.0000
# 6 0.7968 -0.7968 0.0000 0.0000 0.0000 41.4231
#
#
#
# Elastic Compliance Matrix: (Units=1/GPa)
#
#
# Indices 1 2 3 4 5 6 
#
# 1 0.024914 -0.013258 -0.003105 0.000000 0.000000 -0.000734
# 2 -0.013258 0.024914 -0.003105 0.000000 0.000000 0.000734
# 3 -0.003105 -0.003105 0.005902 0.000000 0.000000 0.000000
# 4 0.000000 0.000000 0.000000 0.006225 0.000000 0.000000
# 5 0.000000 0.000000 0.000000 0.000000 0.006225 0.000000
# 6 -0.000734 0.000734 0.000000 0.000000 0.000000 0.024169
#
#
# Mechanical properties :
#
#
# Convention : Reuss Voigt Hill
#
# Bulk Modulus (GPa) = 59.55224 80.53075 70.04150
# Shear Modulus (GPa) = 36.52691 86.46958 61.49825
#
# Velocity S-wave (km/s) = 4.03929 6.21484 5.24119
# Velocity P-wave (km/s) = 6.95379 9.35256 8.24092
#
# Compressibility (1/GPa) = 0.01679198
#
# Stress axis : x y z
#
# Youngs Moduli (GPa) = 40.13799 40.13799 169.43039
#
# Poissons Ratio (x) = 0.53217 0.52614
# Poissons Ratio (y) = 0.53217 0.52614
# Poissons Ratio (z) = 0.12464 0.12464
#
# Static dielectric constant tensor:
#      x y z
#    x 1.811460 0.000000 0.000000 
#    y 0.000000 1.811460 0.000000 
#    z 0.000000 0.000000 1.806400 
# 
# From -- ./inp_files/3440.got.cif
#   From: 2010.05.17/outbox.cif.g08.bks.cpg/sg83_2_cif.got.tgz:3440.got - 2010.06.03 18:55:12.
