data_PCOD9543979
_publ_section_title
;
Structure prediction by ZEFSAII (Michael W. Deem and Ramdas Pophale) SiO2 
 PCOD9543979
Probable space group: P 42/M
;
_chemical_formula_sum "Si O2"
_cell_formula_units_Z 24
_cell_length_a 8.948204
_cell_length_b 8.948204
_cell_length_c 13.648485
_cell_angle_alpha 90.000000
_cell_angle_beta 90.000000
_cell_angle_gamma 90.000000
_cell_volume 1092.839037
_symmetry_space_group_name_H-M "P 42/M"
_symmetry_group_IT_number 84
_symmetry_cell_setting 'tetragonal'
loop_
_space_group_symop_operation_xyz
x,y,z
-y,x,1/2+z
-x,-y,z
y,-x,1/2+z
-x,-y,-z
y,-x,1/2-z
x,y,-z
-y,x,1/2-z
loop_
_atom_site_type_symbol
_atom_site_label
_atom_site_fract_x
_atom_site_fract_y
_atom_site_fract_z
Si Si1 0.550681 0.824098 0.000000
Si Si2 0.994353 0.177030 0.500000
Si Si3 0.275998 0.552073 0.288003
Si Si4 0.779471 0.972821 0.213905
O O1 0.506641 0.741460 0.098625
O O2 0.500000 0.000000 0.000000
O O3 0.732015 0.838029 0.000000
O O4 0.053104 0.225465 0.607654
O O5 0.000000 0.000000 0.500000
O O6 0.155221 0.908403 0.289922
O O7 0.327515 0.408226 0.227372
O O8 0.117975 0.630204 0.263058
#
# Coordination Sequence:
#
# PCOD9543979 Si02
#       4
#     4   4   8   8
#     4  10  24  41  67  92 126 173 215 257 326 385
#     4  10  18  34  53  88 121 147 198 257 307 366
#     4  10  24  41  60  92 128 167 212 260 316 382
#     4  10  20  34  59  88 119 161 207 260 315 375
#
# _framework density 21.96115
#
# number of rings (size 3 to 8) (size 9 to 14) (size 15 to 20)
#    0.000    2.000    3.333    0.000    9.333    2.667 
#    0.000    3.333    0.000    6.000    0.000    0.000 
#    0.000    0.000    0.000    0.000    0.000    0.000 
#
# Total GULP energy -133676.738927 kJ/mol
# GULP energy per Si atom -5569.864122 kJ/mol
# Density = 2.191117 g / cm^3
# Si number density = 21.961150 Si / 1000 Ang^3
#
#
#
# Elastic Constant Matrix: (Units=GPa)
#
#
# Indices 1 2 3 4 5 6 
#
# 1 99.3188 60.1345 39.5832 0.0000 0.0000 8.4997
# 2 60.1345 99.3188 39.5832 0.0000 0.0000 -8.4997
# 3 39.5832 39.5832 139.8225 0.0000 0.0000 0.0000
# 4 0.0000 0.0000 0.0000 8.0572 0.0000 0.0000
# 5 0.0000 0.0000 0.0000 0.0000 8.0572 0.0000
# 6 8.4997 -8.4997 0.0000 0.0000 0.0000 72.0006
#
#
#
# Elastic Compliance Matrix: (Units=1/GPa)
#
#
# Indices 1 2 3 4 5 6 
#
# 1 0.017098 -0.009800 -0.002066 0.000000 0.000000 -0.003175
# 2 -0.009800 0.017098 -0.002066 0.000000 0.000000 0.003175
# 3 -0.002066 -0.002066 0.008322 0.000000 0.000000 0.000000
# 4 0.000000 0.000000 0.000000 0.124113 0.000000 0.000000
# 5 0.000000 0.000000 0.000000 0.000000 0.124113 0.000000
# 6 -0.003175 0.003175 0.000000 0.000000 0.000000 0.014638
#
#
# Mechanical properties :
#
#
# Convention : Reuss Voigt Hill
#
# Bulk Modulus (GPa) = 68.24736 68.56245 68.40490
# Shear Modulus (GPa) = 14.78725 30.90026 22.84376
#
# Velocity S-wave (km/s) = 2.59769 3.75513 3.22870
# Velocity P-wave (km/s) = 6.33571 7.07735 6.71677
#
# Compressibility (1/GPa) = 0.01465258
#
# Stress axis : x y z
#
# Youngs Moduli (GPa) = 58.48807 58.48807 120.16997
#
# Poissons Ratio (x) = 0.57321 0.24824
# Poissons Ratio (y) = 0.57321 0.24824
# Poissons Ratio (z) = 0.12082 0.12082
#
# Static dielectric constant tensor:
#      x y z
#    x 1.887590 0.000000 0.000000 
#    y 0.000000 1.887590 0.000000 
#    z 0.000000 0.000000 1.862560 
# 
# From -- ./inp_files/2646.got.cif
#   From: 2010.05.17/outbox.cif.g08.bks.cpg/sg84_2_cif.got.tgz:2646.got - 2010.06.03 18:57:40.
