data_PCOD9543087
_publ_section_title
;
Structure prediction by ZEFSAII (Michael W. Deem and Ramdas Pophale) SiO2 
 PCOD9543087
Probable space group: I -4 
;
_chemical_formula_sum "Si O2"
_cell_formula_units_Z 36
_cell_length_a 14.349303
_cell_length_b 14.349303
_cell_length_c 8.500749
_cell_angle_alpha 90.000000
_cell_angle_beta 90.000000
_cell_angle_gamma 90.000000
_cell_volume 1750.325442
_symmetry_space_group_name_H-M "I -4 "
_symmetry_group_IT_number 82
_symmetry_cell_setting 'tetragonal'
loop_
_space_group_symop_operation_xyz
x,y,z
y,-x,-z
-x,-y,z
-y,x,-z
1/2+x,1/2+y,1/2+z
1/2+y,1/2-x,1/2-z
1/2-x,1/2-y,1/2+z
1/2-y,1/2+x,1/2-z
loop_
_atom_site_type_symbol
_atom_site_label
_atom_site_fract_x
_atom_site_fract_y
_atom_site_fract_z
Si Si1 0.279601 0.949487 0.261887
Si Si2 0.500000 0.000000 0.750000
Si Si3 0.105742 0.832100 0.167806
Si Si4 0.961141 0.151181 0.502176
Si Si5 0.858196 0.576365 0.506310
Si Si6 0.000000 0.000000 0.000000
O O1 0.207544 0.877151 0.185085
O O2 0.338125 0.902178 0.399505
O O3 0.217259 0.029314 0.347274
O O4 0.345793 0.992529 0.130392
O O5 0.453837 0.923082 0.637198
O O6 0.072217 0.801749 0.341521
O O7 0.101146 0.744677 0.054261
O O8 0.039085 0.915430 0.105766
O O9 0.063754 0.107485 0.473888
#
# Coordination Sequence:
#
# PCOD9543087 Si02
#       6
#     8   2   8   8   8   2
#     4  11  24  42  64  97 132 176 227 283 339 408
#     4  12  28  50  68  92 136 194 240 284 340 402
#     4  11  23  40  70 100 135 174 223 287 350 417
#     4   9  19  37  64  95 127 169 214 272 344 410
#     4  12  26  44  68  94 133 185 231 286 338 412
#     4  12  20  44  70 104 140 172 222 288 376 408
#
# _framework density 20.567605
#
# number of rings (size 3 to 8) (size 9 to 14) (size 15 to 20)
#    0.000    1.111    2.222    5.333    0.000    5.333 
#    0.000    0.000    0.000    0.000    0.000    0.000 
#    0.000    0.000    0.000    0.000    0.000    0.000 
#
# Total GULP energy -100703.934787 kJ/mol
# GULP energy per Si atom -5594.663044 kJ/mol
# Density = 2.052079 g / cm^3
# Si number density = 20.567605 Si / 1000 Ang^3
#
#
#
# Elastic Constant Matrix: (Units=GPa)
#
#
# Indices 1 2 3 4 5 6 
#
# 1 53.7471 19.7846 23.8706 0.0000 0.0000 1.9254
# 2 19.7846 53.7471 23.8706 0.0000 0.0000 -1.9254
# 3 23.8706 23.8706 79.1824 0.0000 0.0000 0.0000
# 4 0.0000 0.0000 0.0000 48.1473 0.0000 0.0000
# 5 0.0000 0.0000 0.0000 0.0000 48.1473 0.0000
# 6 1.9254 -1.9254 0.0000 0.0000 0.0000 20.1437
#
#
#
# Elastic Compliance Matrix: (Units=1/GPa)
#
#
# Indices 1 2 3 4 5 6 
#
# 1 0.023338 -0.006429 -0.005098 0.000000 0.000000 -0.002845
# 2 -0.006429 0.023338 -0.005098 0.000000 0.000000 0.002845
# 3 -0.005098 -0.005098 0.015702 0.000000 0.000000 0.000000
# 4 0.000000 0.000000 0.000000 0.020770 0.000000 0.000000
# 5 0.000000 0.000000 0.000000 0.000000 0.020770 0.000000
# 6 -0.002845 0.002845 0.000000 0.000000 0.000000 0.050187
#
#
# Mechanical properties :
#
#
# Convention : Reuss Voigt Hill
#
# Bulk Modulus (GPa) = 34.32789 35.74759 35.03774
# Shear Modulus (GPa) = 25.37262 31.23105 28.30183
#
# Velocity S-wave (km/s) = 3.51610 3.90097 3.71352
# Velocity P-wave (km/s) = 5.76285 6.14071 5.95478
#
# Compressibility (1/GPa) = 0.02913084
#
# Stress axis : x y z
#
# Youngs Moduli (GPa) = 42.84857 42.84857 63.68415
#
# Poissons Ratio (x) = 0.27547 0.32463
# Poissons Ratio (y) = 0.27547 0.32463
# Poissons Ratio (z) = 0.21842 0.21842
#
# Static dielectric constant tensor:
#      x y z
#    x 1.725990 0.000000 0.000000 
#    y 0.000000 1.725990 0.000000 
#    z 0.000000 0.000000 1.728600 
# 
# From -- ./inp_files/858.got.cif
#   From: 2010.05.17/outbox.cif.g08.bks.cpg/sg82_1_cif.got.tgz:858.got - 2010.06.03 18:52:26.
