data_PCOD9543193
_publ_section_title
;
Structure prediction by ZEFSAII (Michael W. Deem and Ramdas Pophale) SiO2 
 PCOD9543193
Probable space group: I -4 
;
_chemical_formula_sum "Si O2"
_cell_formula_units_Z 40
_cell_length_a 18.911925
_cell_length_b 18.911925
_cell_length_c 4.944303
_cell_angle_alpha 90.000000
_cell_angle_beta 90.000000
_cell_angle_gamma 90.000000
_cell_volume 1768.383896
_symmetry_space_group_name_H-M "I -4 "
_symmetry_group_IT_number 82
_symmetry_cell_setting 'tetragonal'
loop_
_space_group_symop_operation_xyz
x,y,z
y,-x,-z
-x,-y,z
-y,x,-z
1/2+x,1/2+y,1/2+z
1/2+y,1/2-x,1/2-z
1/2-x,1/2-y,1/2+z
1/2-y,1/2+x,1/2-z
loop_
_atom_site_type_symbol
_atom_site_label
_atom_site_fract_x
_atom_site_fract_y
_atom_site_fract_z
Si Si1 0.128679 0.109111 0.313015
Si Si2 0.113410 0.382993 0.416027
Si Si3 0.258965 0.203449 0.155501
Si Si4 0.665182 0.034503 0.099295
Si Si5 0.951350 0.833244 0.813022
O O1 0.202747 0.142693 0.219618
O O2 0.108229 0.142236 0.600835
O O3 0.137156 0.025165 0.301776
O O4 0.069209 0.133492 0.100264
O O5 0.170609 0.327241 0.524499
O O6 0.046260 0.372808 0.613642
O O7 0.146317 0.459512 0.467529
O O8 0.092094 0.364606 0.112026
O O9 0.273681 0.244429 0.432228
O O10 0.748997 0.042382 0.147708
#
# Coordination Sequence:
#
# PCOD9543193 Si02
#       5
#     8   8   8   8   8
#     4  12  26  45  73 103 146 191 232 302 356 429
#     4  12  26  45  73 103 146 191 232 302 356 429
#     4  12  24  44  72 106 134 184 250 288 354 410
#     4  12  26  47  71 106 146 187 243 294 362 427
#     4  12  26  47  71 106 146 187 243 294 362 427
#
# _framework density 22.619520000000001
#
# number of rings (size 3 to 8) (size 9 to 14) (size 15 to 20)
#    0.000    0.000    2.000    9.600    0.000    4.800 
#    0.000    0.000    0.000    0.000    0.000    0.000 
#    0.000    0.000    0.000    0.000    0.000    0.000 
#
# Total GULP energy -112147.710512 kJ/mol
# GULP energy per Si atom -5607.385526 kJ/mol
# Density = 2.256804 g / cm^3
# Si number density = 22.619520 Si / 1000 Ang^3
#
#
#
# Elastic Constant Matrix: (Units=GPa)
#
#
# Indices 1 2 3 4 5 6 
#
# 1 75.3107 11.3347 1.0960 0.0000 0.0000 -4.4517
# 2 11.3347 75.3107 1.0960 0.0000 0.0000 4.4517
# 3 1.0960 1.0960 96.5215 0.0000 0.0000 0.0000
# 4 0.0000 0.0000 0.0000 32.9553 0.0000 0.0000
# 5 0.0000 0.0000 0.0000 0.0000 32.9553 0.0000
# 6 -4.4517 4.4517 0.0000 0.0000 0.0000 -7.6266
#
#
#
# Elastic Compliance Matrix: (Units=1/GPa)
#
#
# Indices 1 2 3 4 5 6 
#
# 1 0.013001 -0.001456 -0.000131 0.000000 0.000000 -0.008438
# 2 -0.001456 0.013001 -0.000131 0.000000 0.000000 0.008438
# 3 -0.000131 -0.000131 0.010363 0.000000 0.000000 0.000000
# 4 0.000000 0.000000 0.000000 0.030344 0.000000 0.000000
# 5 0.000000 0.000000 0.000000 0.000000 0.030344 0.000000
# 6 -0.008438 0.008438 0.000000 0.000000 0.000000 -0.121269
#
#
# Mechanical properties :
#
#
# Convention : Reuss Voigt Hill
#
# Bulk Modulus (GPa) = 30.36910 30.46627 30.41769
# Shear Modulus (GPa) = -509.98814 27.23121 -241.37846
#
# Velocity S-wave (km/s) = -15.03174 3.47346 -10.34138
# Velocity P-wave (km/s) = 16.96513 5.43920 11.36290
#
# Compressibility (1/GPa) = 0.03292821
#
# Stress axis : x y z
#
# Youngs Moduli (GPa) = 76.91975 76.91975 96.49381
#
# Poissons Ratio (x) = 0.11199 0.01265
# Poissons Ratio (y) = 0.11199 0.01265
# Poissons Ratio (z) = 0.01008 0.01008
#
# Static dielectric constant tensor:
#      x y z
#    x 1.829320 0.000000 0.000000 
#    y 0.000000 1.829320 0.000000 
#    z 0.000000 0.000000 1.792790 
# 
# From -- ./inp_files/210.got.cif
#   From: 2010.05.17/outbox.cif.g08.bks.cpg/sg82_1_cif.got.tgz:210.got - 2010.06.03 18:52:26.
