data_PCOD9543046
_publ_section_title
;
Structure prediction by ZEFSAII (Michael W. Deem and Ramdas Pophale) SiO2 
 PCOD9543046
Probable space group: I -4 
;
_chemical_formula_sum "Si O2"
_cell_formula_units_Z 32
_cell_length_a 7.564922
_cell_length_b 7.564922
_cell_length_c 28.450116
_cell_angle_alpha 90.000000
_cell_angle_beta 90.000000
_cell_angle_gamma 90.000000
_cell_volume 1628.144515
_symmetry_space_group_name_H-M "I -4 "
_symmetry_group_IT_number 82
_symmetry_cell_setting 'tetragonal'
loop_
_space_group_symop_operation_xyz
x,y,z
y,-x,-z
-x,-y,z
-y,x,-z
1/2+x,1/2+y,1/2+z
1/2+y,1/2-x,1/2-z
1/2-x,1/2-y,1/2+z
1/2-y,1/2+x,1/2-z
loop_
_atom_site_type_symbol
_atom_site_label
_atom_site_fract_x
_atom_site_fract_y
_atom_site_fract_z
Si Si1 0.209371 0.790730 0.999566
Si Si2 0.001430 0.714160 0.574854
Si Si3 0.474565 0.211364 0.181159
Si Si4 0.764378 0.341544 0.254932
O O1 0.262861 0.672214 0.955001
O O2 0.328633 0.736325 0.043861
O O3 0.000290 0.763268 0.008666
O O4 0.000000 0.500000 0.577640
O O5 0.004097 0.777258 0.628323
O O6 0.608846 0.298979 0.218309
O O7 0.276409 0.241976 0.198945
O O8 0.500000 0.000000 0.183239
O O9 0.779881 0.547684 0.266178
#
# Coordination Sequence:
#
# PCOD9543046 Si02
#       4
#     8   8   8   8
#     4   9  18  37  58  80 120 157 190 245 290 352
#     4   9  20  36  60  90 116 156 204 240 300 355
#     4  11  21  39  65  90 121 163 202 255 309 357
#     4  11  23  40  60  84 121 161 200 254 302 363
#
# _framework density 19.654275999999999
#
# number of rings (size 3 to 8) (size 9 to 14) (size 15 to 20)
#    0.000    2.000    2.500    0.750    0.000    2.500 
#    9.000    5.000    0.000    0.000    0.000    0.000 
#    0.000    0.000    0.000    0.000    0.000    0.000 
#
# Total GULP energy -89345.788965 kJ/mol
# GULP energy per Si atom -5584.111810 kJ/mol
# Density = 1.960954 g / cm^3
# Si number density = 19.654276 Si / 1000 Ang^3
#
#
#
# Elastic Constant Matrix: (Units=GPa)
#
#
# Indices 1 2 3 4 5 6 
#
# 1 70.3293 8.9203 18.0483 0.0000 0.0000 0.1182
# 2 8.9203 70.3293 18.0483 0.0000 0.0000 -0.1182
# 3 18.0483 18.0483 114.3805 0.0000 0.0000 0.0000
# 4 0.0000 0.0000 0.0000 3.2481 0.0000 0.0000
# 5 0.0000 0.0000 0.0000 0.0000 3.2481 0.0000
# 6 0.1182 -0.1182 0.0000 0.0000 0.0000 19.2852
#
#
#
# Elastic Compliance Matrix: (Units=1/GPa)
#
#
# Indices 1 2 3 4 5 6 
#
# 1 0.014940 -0.001345 -0.002145 0.000000 0.000000 -0.000100
# 2 -0.001345 0.014940 -0.002145 0.000000 0.000000 0.000100
# 3 -0.002145 -0.002145 0.009420 0.000000 0.000000 0.000000
# 4 0.000000 0.000000 0.000000 0.307870 0.000000 0.000000
# 5 0.000000 0.000000 0.000000 0.000000 0.307872 0.000000
# 6 -0.000100 0.000100 0.000000 0.000000 0.000000 0.051854
#
#
# Mechanical properties :
#
#
# Convention : Reuss Voigt Hill
#
# Bulk Modulus (GPa) = 35.67643 38.34142 37.00893
# Shear Modulus (GPa) = 6.87276 19.15776 13.01526
#
# Velocity S-wave (km/s) = 1.87201 3.12547 2.57614
# Velocity P-wave (km/s) = 4.78163 5.70745 5.26493
#
# Compressibility (1/GPa) = 0.02802971
#
# Stress axis : x y z
#
# Youngs Moduli (GPa) = 66.93410 66.93411 106.15991
#
# Poissons Ratio (x) = 0.09000 0.22774
# Poissons Ratio (y) = 0.09000 0.22774
# Poissons Ratio (z) = 0.14359 0.14359
#
# Static dielectric constant tensor:
#      x y z
#    x 1.702800 0.000000 0.000000 
#    y 0.000000 1.702800 0.000000 
#    z 0.000000 0.000000 1.655380 
# 
# From -- ./inp_files/3612.got.cif
#   From: 2010.05.17/outbox.cif.g08.bks.cpg/sg82_2_cif.got.tgz:3612.got - 2010.06.03 18:52:26.
