data_PCOD9543025
_publ_section_title
;
Structure prediction by ZEFSAII (Michael W. Deem and Ramdas Pophale) SiO2 
 PCOD9543025
Probable space group: I -4 
;
_chemical_formula_sum "Si O2"
_cell_formula_units_Z 34
_cell_length_a 13.152587
_cell_length_b 13.152587
_cell_length_c 7.211954
_cell_angle_alpha 90.000000
_cell_angle_beta 90.000000
_cell_angle_gamma 90.000000
_cell_volume 1247.599851
_symmetry_space_group_name_H-M "I -4 "
_symmetry_group_IT_number 82
_symmetry_cell_setting 'tetragonal'
loop_
_space_group_symop_operation_xyz
x,y,z
y,-x,-z
-x,-y,z
-y,x,-z
1/2+x,1/2+y,1/2+z
1/2+y,1/2-x,1/2-z
1/2-x,1/2-y,1/2+z
1/2-y,1/2+x,1/2-z
loop_
_atom_site_type_symbol
_atom_site_label
_atom_site_fract_x
_atom_site_fract_y
_atom_site_fract_z
Si Si1 0.384437 0.525908 0.789691
Si Si2 0.500000 0.000000 0.750000
Si Si3 0.157625 0.270260 0.611262
Si Si4 0.934253 0.219013 0.043134
Si Si5 0.629530 0.837752 0.536266
O O1 0.500000 0.500000 0.826118
O O2 0.303745 0.563698 0.941012
O O3 0.394851 0.627509 0.665674
O O4 0.329252 0.443711 0.662907
O O5 0.583171 0.942641 0.616577
O O6 0.184838 0.360910 0.473311
O O7 0.260083 0.201311 0.600375
O O8 0.133613 0.323859 0.810360
O O9 0.044306 0.257043 0.099230
#
# Coordination Sequence:
#
# PCOD9543025 Si02
#       5
#     8   2   8   8   8
#     4  11  19  37  73 102 142 195 256 308 381 460
#     4  12  28  44  70 116 156 200 258 332 396 472
#     4  11  23  43  75 110 148 205 263 320 389 471
#     4  11  19  40  71 107 138 201 255 316 383 458
#     4  11  26  46  76 106 160 200 265 322 401 466
#
# _framework density 27.252330000000001
#
# number of rings (size 3 to 8) (size 9 to 14) (size 15 to 20)
#    0.000    0.941    7.059    1.412    0.000    3.765 
#    0.000    0.000    0.000    1.412    0.000    0.000 
#    0.000    0.000    0.000    0.000    0.000    0.000 
#
# Total GULP energy -95147.237021 kJ/mol
# GULP energy per Si atom -5596.896295 kJ/mol
# Density = 2.719030 g / cm^3
# Si number density = 27.252330 Si / 1000 Ang^3
#
#
#
# Elastic Constant Matrix: (Units=GPa)
#
#
# Indices 1 2 3 4 5 6 
#
# 1 119.3934 45.3434 15.3625 0.0000 0.0000 -4.8371
# 2 45.3434 119.3934 15.3625 0.0000 0.0000 4.8371
# 3 15.3625 15.3625 73.2088 0.0000 0.0000 0.0000
# 4 0.0000 0.0000 0.0000 38.5948 0.0000 0.0000
# 5 0.0000 0.0000 0.0000 0.0000 38.5948 0.0000
# 6 -4.8371 4.8371 0.0000 0.0000 0.0000 73.5979
#
#
#
# Elastic Compliance Matrix: (Units=1/GPa)
#
#
# Indices 1 2 3 4 5 6 
#
# 1 0.009969 -0.003652 -0.001326 0.000000 0.000000 0.000895
# 2 -0.003652 0.009969 -0.001326 0.000000 0.000000 -0.000895
# 3 -0.001326 -0.001326 0.014216 0.000000 0.000000 0.000000
# 4 0.000000 0.000000 0.000000 0.025910 0.000000 0.000000
# 5 0.000000 0.000000 0.000000 0.000000 0.025910 0.000000
# 6 0.000895 -0.000895 0.000000 0.000000 0.000000 0.013705
#
#
# Mechanical properties :
#
#
# Convention : Reuss Voigt Hill
#
# Bulk Modulus (GPa) = 46.40753 51.57023 48.98888
# Shear Modulus (GPa) = 41.85162 45.88597 43.86880
#
# Velocity S-wave (km/s) = 3.92306 4.10780 4.01649
# Velocity P-wave (km/s) = 6.13077 6.43918 6.28686
#
# Compressibility (1/GPa) = 0.02154823
#
# Stress axis : x y z
#
# Youngs Moduli (GPa) = 100.30644 100.30644 70.34357
#
# Poissons Ratio (x) = 0.36631 0.09325
# Poissons Ratio (y) = 0.36631 0.09325
# Poissons Ratio (z) = 0.13298 0.13298
#
# Static dielectric constant tensor:
#      x y z
#    x 2.140620 0.000000 0.000000 
#    y 0.000000 2.140620 0.000000 
#    z 0.000000 0.000000 2.198420 
# 
# From -- ./inp_files/796.got.cif
#   From: 2010.05.17/outbox.cif.g08.bks.cpg/sg82_1_cif.got.tgz:796.got - 2010.06.03 18:52:26.
