data_PCOD9543038
_publ_section_title
;
Structure prediction by ZEFSAII (Michael W. Deem and Ramdas Pophale) SiO2 
 PCOD9543038
Probable space group: I -4 
;
_chemical_formula_sum "Si O2"
_cell_formula_units_Z 36
_cell_length_a 8.396716
_cell_length_b 8.396716
_cell_length_c 22.822949
_cell_angle_alpha 90.000000
_cell_angle_beta 90.000000
_cell_angle_gamma 90.000000
_cell_volume 1609.128358
_symmetry_space_group_name_H-M "I -4 "
_symmetry_group_IT_number 82
_symmetry_cell_setting 'tetragonal'
loop_
_space_group_symop_operation_xyz
x,y,z
y,-x,-z
-x,-y,z
-y,x,-z
1/2+x,1/2+y,1/2+z
1/2+y,1/2-x,1/2-z
1/2-x,1/2-y,1/2+z
1/2-y,1/2+x,1/2-z
loop_
_atom_site_type_symbol
_atom_site_label
_atom_site_fract_x
_atom_site_fract_y
_atom_site_fract_z
Si Si1 0.000000 0.500000 0.111124
Si Si2 0.918304 0.743873 0.771654
Si Si3 0.742833 0.976560 0.993626
Si Si4 0.430152 0.673277 0.830909
Si Si5 0.664591 0.925683 0.121937
O O1 0.009431 0.353703 0.064955
O O2 0.836220 0.485959 0.148337
O O3 0.804466 0.589482 0.758881
O O4 0.841470 0.892987 0.738243
O O5 0.962184 0.780161 0.839237
O O6 0.654379 0.925506 0.052376
O O7 0.869403 0.837778 0.984599
O O8 0.500000 0.500000 0.849378
O O9 0.254312 0.684397 0.858518
O O10 0.500000 0.000000 0.143628
#
# Coordination Sequence:
#
# PCOD9543038 Si02
#       5
#     4   8   8   8   8
#     4  12  26  44  72 113 153 194 254 312 398 472
#     4   9  17  38  70  98 127 182 246 282 349 445
#     4  11  25  44  67 103 141 186 240 305 377 453
#     4  11  25  45  68 109 150 188 248 319 383 458
#     4  11  20  42  76 100 132 194 246 294 363 470
#
# _framework density 22.372361000000001
#
# number of rings (size 3 to 8) (size 9 to 14) (size 15 to 20)
#    0.000    1.333    7.778    0.000    3.111    0.000 
#    4.000    8.889    0.000    1.333    0.000    0.000 
#    0.000    0.000    0.000    0.000    0.000    0.000 
#
# Total GULP energy -100315.797946 kJ/mol
# GULP energy per Si atom -5573.099886 kJ/mol
# Density = 2.232144 g / cm^3
# Si number density = 22.372361 Si / 1000 Ang^3
#
#
#
# Elastic Constant Matrix: (Units=GPa)
#
#
# Indices 1 2 3 4 5 6 
#
# 1 75.3352 13.2139 15.0077 0.0000 0.0000 -4.8586
# 2 13.2139 75.3352 15.0077 0.0000 0.0000 4.8586
# 3 15.0077 15.0077 75.4764 0.0000 0.0000 0.0000
# 4 0.0000 0.0000 0.0000 18.1800 0.0000 0.0000
# 5 0.0000 0.0000 0.0000 0.0000 18.1800 0.0000
# 6 -4.8586 4.8586 0.0000 0.0000 0.0000 25.2191
#
#
#
# Elastic Compliance Matrix: (Units=1/GPa)
#
#
# Indices 1 2 3 4 5 6 
#
# 1 0.014354 -0.002244 -0.002408 0.000000 0.000000 0.003198
# 2 -0.002244 0.014354 -0.002408 0.000000 0.000000 -0.003198
# 3 -0.002408 -0.002408 0.014207 0.000000 0.000000 0.000000
# 4 0.000000 0.000000 0.000000 0.055006 0.000000 0.000000
# 5 0.000000 0.000000 0.000000 0.000000 0.055006 0.000000
# 6 0.003198 -0.003198 0.000000 0.000000 0.000000 0.040885
#
#
# Mechanical properties :
#
#
# Convention : Reuss Voigt Hill
#
# Bulk Modulus (GPa) = 34.72932 34.73396 34.73164
# Shear Modulus (GPa) = 22.98563 24.51031 23.74797
#
# Velocity S-wave (km/s) = 3.20880 3.31352 3.26158
# Velocity P-wave (km/s) = 5.41162 5.49530 5.45362
#
# Compressibility (1/GPa) = 0.02879411
#
# Stress axis : x y z
#
# Youngs Moduli (GPa) = 69.66928 69.66928 70.38927
#
# Poissons Ratio (x) = 0.15635 0.16948
# Poissons Ratio (y) = 0.15635 0.16948
# Poissons Ratio (z) = 0.16775 0.16775
#
# Static dielectric constant tensor:
#      x y z
#    x 1.901600 0.000000 0.000000 
#    y 0.000000 1.901600 0.000000 
#    z 0.000000 0.000000 1.812740 
# 
# From -- ./inp_files/2975.got.cif
#   From: 2010.05.17/outbox.cif.g08.bks.cpg/sg82_2_cif.got.tgz:2975.got - 2010.06.03 18:52:26.
