data_PCOD9543911
_publ_section_title
;
Structure prediction by ZEFSAII (Michael W. Deem and Ramdas Pophale) SiO2 
 PCOD9543911
Probable space group: P 4/M
;
_chemical_formula_sum "Si O2"
_cell_formula_units_Z 44
_cell_length_a 8.074334
_cell_length_b 8.074334
_cell_length_c 30.594899
_cell_angle_alpha 90.000000
_cell_angle_beta 90.000000
_cell_angle_gamma 90.000000
_cell_volume 1994.630449
_symmetry_space_group_name_H-M "P 4/M"
_symmetry_group_IT_number 83
_symmetry_cell_setting 'tetragonal'
loop_
_space_group_symop_operation_xyz
x,y,z
-y,x,z
-x,-y,z
y,-x,z
-x,-y,-z
y,-x,-z
x,y,-z
-y,x,-z
loop_
_atom_site_type_symbol
_atom_site_label
_atom_site_fract_x
_atom_site_fract_y
_atom_site_fract_z
Si Si1 0.765283 0.405953 0.000000
Si Si2 0.265720 0.086302 0.821104
Si Si3 0.588036 0.765631 0.094270
Si Si4 0.734369 0.913576 0.274258
Si Si5 0.589145 0.765248 0.641028
Si Si6 0.597588 0.764470 0.453271
O O1 0.701620 0.596064 0.000000
O O2 0.848893 0.377010 0.046939
O O3 0.370774 0.129841 0.863290
O O4 0.345524 0.116415 0.773418
O O5 0.101018 0.199909 0.822681
O O6 0.400160 0.700501 0.095639
O O7 0.629825 0.869922 0.316522
O O8 0.899081 0.800025 0.275801
O O9 0.400993 0.700914 0.642394
O O10 0.625544 0.848037 0.593708
O O11 0.406481 0.702911 0.453277
O O12 0.630936 0.850271 0.500000
#
# Coordination Sequence:
#
# PCOD9543911 Si02
#       6
#     4   8   8   8   8   8
#     4   7  12  26  46  67  94 124 148 173 212 263
#     4   9  19  35  50  64  87 120 156 191 226 266
#     4   9  17  30  50  74  96 119 149 184 221 263
#     4   9  19  35  50  62  83 121 161 189 220 268
#     4   9  17  28  45  72  98 115 141 186 230 266
#     4   7  10  19  37  61  89 118 143 170 212 264
#
# _framework density 22.059221999999998
#
# number of rings (size 3 to 8) (size 9 to 14) (size 15 to 20)
#    0.000    3.545    0.000    3.818    0.000    2.909 
#    0.000    6.364    0.000    5.455    0.000    6.364 
#    0.000    0.000    0.000    0.000    0.000    0.000 
#
# Total GULP energy -245528.551988 kJ/mol
# GULP energy per Si atom -5580.194363 kJ/mol
# Density = 2.200901 g / cm^3
# Si number density = 22.059222 Si / 1000 Ang^3
#
#
#
# Elastic Constant Matrix: (Units=GPa)
#
#
# Indices 1 2 3 4 5 6 
#
# 1 36.3603 21.1765 57.8616 0.0000 0.0000 1.7345
# 2 21.1765 36.3603 57.8616 0.0000 0.0000 -1.7345
# 3 57.8616 57.8616 298.2906 0.0000 0.0000 0.0000
# 4 0.0000 0.0000 0.0000 204.2557 0.0000 0.0000
# 5 0.0000 0.0000 0.0000 0.0000 204.2557 0.0000
# 6 1.7345 -1.7345 0.0000 0.0000 0.0000 28.8045
#
#
#
# Elastic Compliance Matrix: (Units=1/GPa)
#
#
# Indices 1 2 3 4 5 6 
#
# 1 0.047639 -0.019140 -0.005528 0.000000 0.000000 -0.004021
# 2 -0.019140 0.047639 -0.005528 0.000000 0.000000 0.004021
# 3 -0.005528 -0.005528 0.005497 0.000000 0.000000 0.000000
# 4 0.000000 0.000000 0.000000 0.004896 0.000000 0.000000
# 5 0.000000 0.000000 0.000000 0.000000 0.004896 0.000000
# 6 -0.004021 0.004021 0.000000 0.000000 0.000000 0.035201
#
#
# Mechanical properties :
#
#
# Convention : Reuss Voigt Hill
#
# Bulk Modulus (GPa) = 24.76332 71.64559 48.20446
# Shear Modulus (GPa) = 22.76665 103.07060 62.91863
#
# Velocity S-wave (km/s) = 3.21607 6.84295 5.34645
# Velocity P-wave (km/s) = 5.00410 9.74596 7.74677
#
# Compressibility (1/GPa) = 0.04038230
#
# Stress axis : x y z
#
# Youngs Moduli (GPa) = 20.99141 20.99141 181.91423
#
# Poissons Ratio (x) = 0.40177 1.00564
# Poissons Ratio (y) = 0.40177 1.00564
# Poissons Ratio (z) = 0.11604 0.11604
#
# Static dielectric constant tensor:
#      x y z
#    x 1.797160 0.000000 0.000000 
#    y 0.000000 1.797160 0.000000 
#    z 0.000000 0.000000 1.870050 
# 
# From -- ./inp_files/3351.got.cif
#   From: 2010.05.17/outbox.cif.g08.bks.cpg/sg83_2_cif.got.tgz:3351.got - 2010.06.03 18:55:12.
