data_PCOD9543237
_publ_section_title
;
Structure prediction by ZEFSAII (Michael W. Deem and Ramdas Pophale) SiO2 
 PCOD9543237
Probable space group: P 4/M
;
_chemical_formula_sum "Si O2"
_cell_formula_units_Z 40
_cell_length_a 16.180086
_cell_length_b 16.180086
_cell_length_c 8.798942
_cell_angle_alpha 90.000000
_cell_angle_beta 90.000000
_cell_angle_gamma 90.000000
_cell_volume 2303.520631
_symmetry_space_group_name_H-M "P 4/M"
_symmetry_group_IT_number 83
_symmetry_cell_setting 'tetragonal'
loop_
_space_group_symop_operation_xyz
x,y,z
-y,x,z
-x,-y,z
y,-x,z
-x,-y,-z
y,-x,-z
x,y,-z
-y,x,-z
loop_
_atom_site_type_symbol
_atom_site_label
_atom_site_fract_x
_atom_site_fract_y
_atom_site_fract_z
Si Si1 0.936759 0.687064 0.318495
Si Si2 0.539845 0.370745 0.317123
Si Si3 0.040494 0.126868 0.685130
Si Si4 0.933199 0.425098 0.825487
Si Si5 0.442336 0.807989 0.817616
O O1 0.928453 0.684486 0.500000
O O2 0.934745 0.781835 0.264833
O O3 0.864754 0.631247 0.246535
O O4 0.024302 0.646048 0.271890
O O5 0.599778 0.447040 0.276427
O O6 0.542782 0.361672 0.500000
O O7 0.562507 0.285070 0.239756
O O8 0.040703 0.127706 0.500000
O O9 0.947772 0.100711 0.732227
O O10 0.850429 0.470356 0.769006
O O11 0.000000 0.500000 0.827150
O O12 0.922548 0.397439 0.000000
O O13 0.440305 0.812268 0.000000
#
# Coordination Sequence:
#
# PCOD9543237 Si02
#       5
#     8   8   8   8   8
#     4  10  18  29  51  79 103 130 171 217 260 302
#     4   9  19  37  58  78 102 132 167 212 260 299
#     4   8  15  30  50  71  99 133 167 206 255 306
#     4   8  16  31  48  67  98 137 167 200 250 300
#     4  10  20  34  52  74 105 140 172 205 249 307
#
# _framework density 17.364726000000001
#
# number of rings (size 3 to 8) (size 9 to 14) (size 15 to 20)
#    0.000    3.000    0.000    3.600    0.000    5.200 
#    3.600    1.000    0.000    3.600    0.000    5.600 
#    0.000    0.000    0.000    0.000    0.000    0.000 
#
# Total GULP energy -222828.970794 kJ/mol
# GULP energy per Si atom -5570.724270 kJ/mol
# Density = 1.732520 g / cm^3
# Si number density = 17.364726 Si / 1000 Ang^3
#
#
#
# Elastic Constant Matrix: (Units=GPa)
#
#
# Indices 1 2 3 4 5 6 
#
# 1 117.6308 62.1092 32.7321 0.0000 0.0000 -0.3388
# 2 62.1092 117.6308 32.7321 0.0000 0.0000 0.3388
# 3 32.7321 32.7321 30.1657 0.0000 0.0000 0.0000
# 4 0.0000 0.0000 0.0000 3.8999 0.0000 0.0000
# 5 0.0000 0.0000 0.0000 0.0000 3.8999 0.0000
# 6 -0.3388 0.3388 0.0000 0.0000 0.0000 10.7777
#
#
#
# Elastic Compliance Matrix: (Units=1/GPa)
#
#
# Indices 1 2 3 4 5 6 
#
# 1 0.013609 -0.004409 -0.009982 0.000000 0.000000 0.000566
# 2 -0.004409 0.013609 -0.009982 0.000000 0.000000 -0.000566
# 3 -0.009982 -0.009982 0.054812 0.000000 0.000000 0.000000
# 4 0.000000 0.000000 0.000000 0.256414 0.000000 0.000000
# 5 0.000000 0.000000 0.000000 0.000000 0.256414 0.000000
# 6 0.000566 -0.000566 0.000000 0.000000 0.000000 0.092819
#
#
# Mechanical properties :
#
#
# Convention : Reuss Voigt Hill
#
# Bulk Modulus (GPa) = 30.04504 57.84158 43.94331
# Shear Modulus (GPa) = 6.68881 12.90578 9.79729
#
# Velocity S-wave (km/s) = 1.96477 2.72916 2.37788
# Velocity P-wave (km/s) = 4.74204 6.58128 5.73586
#
# Compressibility (1/GPa) = 0.03328337
#
# Stress axis : x y z
#
# Youngs Moduli (GPa) = 73.48343 73.48343 18.24417
#
# Poissons Ratio (x) = 0.32402 0.18211
# Poissons Ratio (y) = 0.32402 0.18211
# Poissons Ratio (z) = 0.73349 0.73349
#
# Static dielectric constant tensor:
#      x y z
#    x 1.590820 0.000000 0.000000 
#    y 0.000000 1.590820 0.000000 
#    z 0.000000 0.000000 1.584750 
# 
# From -- ./inp_files/684.got.cif
#   From: 2010.05.17/outbox.cif.g08.bks.cpg/sg83_1_cif.got.tgz:684.got - 2010.06.03 18:55:12.
