data_PCOD9543023
_publ_section_title
;
Structure prediction by ZEFSAII (Michael W. Deem and Ramdas Pophale) SiO2 
 PCOD9543023
Probable space group: I -4 
;
_chemical_formula_sum "Si O2"
_cell_formula_units_Z 24
_cell_length_a 7.528857
_cell_length_b 7.528857
_cell_length_c 13.413085
_cell_angle_alpha 90.000000
_cell_angle_beta 90.000000
_cell_angle_gamma 90.000000
_cell_volume 760.303122
_symmetry_space_group_name_H-M "I -4 "
_symmetry_group_IT_number 82
_symmetry_cell_setting 'tetragonal'
loop_
_space_group_symop_operation_xyz
x,y,z
y,-x,-z
-x,-y,z
-y,x,-z
1/2+x,1/2+y,1/2+z
1/2+y,1/2-x,1/2-z
1/2-x,1/2-y,1/2+z
1/2-y,1/2+x,1/2-z
loop_
_atom_site_type_symbol
_atom_site_label
_atom_site_fract_x
_atom_site_fract_y
_atom_site_fract_z
Si Si1 0.036416 0.703880 0.622333
Si Si2 0.312304 0.407690 0.270969
Si Si3 0.398311 0.243528 0.548032
O O1 0.221935 0.745141 0.677462
O O2 0.081576 0.697948 0.506742
O O3 0.000000 0.500000 0.650168
O O4 0.889237 0.834441 0.665643
O O5 0.500000 0.500000 0.309471
O O6 0.194581 0.544574 0.338104
O O7 0.284925 0.420010 0.517454
#
# Coordination Sequence:
#
# PCOD9543023 Si02
#       3
#     8   8   8
#     4  11  20  36  67 102 131 198 259 289 392 473
#     4  11  19  36  67  96 138 190 251 306 376 460
#     4   9  17  34  63  92 133 189 238 297 381 442
#
# _framework density 31.566352999999999
#
# number of rings (size 3 to 8) (size 9 to 14) (size 15 to 20)
#    0.000    1.667   10.000    0.000    0.000    0.000 
#    0.000    0.000   44.000    0.000    0.000    0.000 
#    0.000    0.000    0.000    0.000    0.000    0.000 
#
# Total GULP energy -66982.540646 kJ/mol
# GULP energy per Si atom -5581.878387 kJ/mol
# Density = 3.149451 g / cm^3
# Si number density = 31.566353 Si / 1000 Ang^3
#
#
#
# Elastic Constant Matrix: (Units=GPa)
#
#
# Indices 1 2 3 4 5 6 
#
# 1 200.7606 18.4618 61.5107 0.0000 0.0000 -12.1577
# 2 18.4618 200.7606 61.5107 0.0000 0.0000 12.1577
# 3 61.5107 61.5107 294.5019 0.0000 0.0000 0.0000
# 4 0.0000 0.0000 0.0000 29.5085 0.0000 0.0000
# 5 0.0000 0.0000 0.0000 0.0000 29.5085 0.0000
# 6 -12.1577 12.1577 0.0000 0.0000 0.0000 8.8182
#
#
#
# Elastic Compliance Matrix: (Units=1/GPa)
#
#
# Indices 1 2 3 4 5 6 
#
# 1 0.005944 -0.000777 -0.001079 0.000000 0.000000 0.009267
# 2 -0.000777 0.005944 -0.001079 0.000000 0.000000 -0.009267
# 3 -0.001079 -0.001079 0.003846 0.000000 0.000000 0.000000
# 4 0.000000 0.000000 0.000000 0.033889 0.000000 0.000000
# 5 0.000000 0.000000 0.000000 0.000000 0.033889 0.000000
# 6 0.009267 -0.009267 0.000000 0.000000 0.000000 0.138955
#
#
# Mechanical properties :
#
#
# Convention : Reuss Voigt Hill
#
# Bulk Modulus (GPa) = 101.38024 108.77662 105.07843
# Shear Modulus (GPa) = 21.58651 50.53637 36.06144
#
# Velocity S-wave (km/s) = 2.61788 4.00554 3.38361
# Velocity P-wave (km/s) = 6.42838 7.47843 6.97320
#
# Compressibility (1/GPa) = 0.00986386
#
# Stress axis : x y z
#
# Youngs Moduli (GPa) = 168.22578 168.22578 259.98377
#
# Poissons Ratio (x) = 0.13074 0.28059
# Poissons Ratio (y) = 0.13074 0.28059
# Poissons Ratio (z) = 0.18156 0.18156
#
# Static dielectric constant tensor:
#      x y z
#    x 2.535360 0.000000 0.000000 
#    y 0.000000 2.535360 0.000000 
#    z 0.000000 0.000000 2.546750 
# 
# From -- ./inp_files/2404.got.cif
#   From: 2010.05.17/outbox.cif.g08.bks.cpg/sg82_2_cif.got.tgz:2404.got - 2010.06.03 18:52:26.
