data_PCOD9543271
_publ_section_title
;
Structure prediction by ZEFSAII (Michael W. Deem and Ramdas Pophale) SiO2 
 PCOD9543271
Probable space group: P 4/M
;
_chemical_formula_sum "Si O2"
_cell_formula_units_Z 64
_cell_length_a 21.267797
_cell_length_b 21.267797
_cell_length_c 8.582620
_cell_angle_alpha 90.000000
_cell_angle_beta 90.000000
_cell_angle_gamma 90.000000
_cell_volume 3882.083720
_symmetry_space_group_name_H-M "P 4/M"
_symmetry_group_IT_number 83
_symmetry_cell_setting 'tetragonal'
loop_
_space_group_symop_operation_xyz
x,y,z
-y,x,z
-x,-y,z
y,-x,z
-x,-y,-z
y,-x,-z
x,y,-z
-y,x,-z
loop_
_atom_site_type_symbol
_atom_site_label
_atom_site_fract_x
_atom_site_fract_y
_atom_site_fract_z
Si Si1 0.778230 0.848035 0.312341
Si Si2 0.876643 0.741359 0.312829
Si Si3 0.560494 0.325977 0.812212
Si Si4 0.352316 0.780812 0.177892
Si Si5 0.772443 0.990554 0.679122
Si Si6 0.579460 0.665794 0.685545
Si Si7 0.758541 0.323471 0.821575
Si Si8 0.987515 0.895782 0.175231
O O1 0.784257 0.850330 0.500000
O O2 0.835787 0.802543 0.255770
O O3 0.713601 0.813461 0.266327
O O4 0.775074 0.919971 0.252115
O O5 0.880076 0.747276 0.500000
O O6 0.837078 0.679371 0.271525
O O7 0.948350 0.737415 0.251864
O O8 0.587490 0.257524 0.761135
O O9 0.489828 0.335977 0.757160
O O10 0.606877 0.379237 0.745576
O O11 0.564587 0.327640 0.000000
O O12 0.298571 0.726874 0.175010
O O13 0.363689 0.801114 0.000000
O O14 0.752224 0.983381 0.500000
O O15 0.843989 0.014488 0.693329
O O16 0.576415 0.663791 0.500000
O O17 0.615928 0.728775 0.740044
O O18 0.776148 0.337241 0.000000
O O19 0.052735 0.933326 0.187688
O O20 0.984217 0.867877 0.000000
#
# Coordination Sequence:
#
# PCOD9543271 Si02
#       8
#     8   8   8   8   8   8   8   8
#     4   9  17  29  44  63  89 119 154 197 240 285
#     4   9  17  28  43  63  88 118 151 192 240 286
#     4  10  20  35  52  73 103 137 168 196 227 265
#     4   8  16  30  48  67  88 118 156 194 229 269
#     4  10  19  29  42  63  88 114 147 189 240 292
#     4  11  21  33  51  77 105 133 165 197 229 266
#     4   9  17  31  49  68  91 122 159 196 236 279
#     4   9  18  30  40  52  75 109 147 185 226 277
#
# _framework density 16.485990999999999
#
# number of rings (size 3 to 8) (size 9 to 14) (size 15 to 20)
#    0.000    2.625    0.000    3.750    0.000    6.250 
#    0.000    4.375    0.000    0.000    0.000    0.875 
#    0.000    7.000    0.000    0.000    0.000    0.000 
#
# Total GULP energy -356278.255909 kJ/mol
# GULP energy per Si atom -5566.847749 kJ/mol
# Density = 1.644847 g / cm^3
# Si number density = 16.485991 Si / 1000 Ang^3
#
#
#
# Elastic Constant Matrix: (Units=GPa)
#
#
# Indices 1 2 3 4 5 6 
#
# 1 57.7534 34.1305 7.2570 0.0000 0.0000 4.0944
# 2 34.1305 57.7534 7.2570 0.0000 0.0000 -4.0944
# 3 7.2570 7.2570 24.7797 0.0000 0.0000 0.0000
# 4 0.0000 0.0000 0.0000 15.4880 0.0000 0.0000
# 5 0.0000 0.0000 0.0000 0.0000 15.4880 0.0000
# 6 4.0944 -4.0944 0.0000 0.0000 0.0000 7.1108
#
#
#
# Elastic Compliance Matrix: (Units=1/GPa)
#
#
# Indices 1 2 3 4 5 6 
#
# 1 0.032150 -0.020739 -0.003342 0.000000 0.000000 -0.030453
# 2 -0.020739 0.032150 -0.003342 0.000000 0.000000 0.030453
# 3 -0.003342 -0.003342 0.042313 0.000000 0.000000 0.000000
# 4 0.000000 0.000000 0.000000 0.064566 0.000000 0.000000
# 5 0.000000 0.000000 0.000000 0.000000 0.064566 0.000000
# 6 -0.030453 0.030453 0.000000 0.000000 0.000000 0.175702
#
#
# Mechanical properties :
#
#
# Convention : Reuss Voigt Hill
#
# Bulk Modulus (GPa) = 19.31698 26.39726 22.85712
# Shear Modulus (GPa) = 10.34025 13.72684 12.03354
#
# Velocity S-wave (km/s) = 2.50714 2.88867 2.70464
# Velocity P-wave (km/s) = 4.48594 5.21274 4.86293
#
# Compressibility (1/GPa) = 0.05176792
#
# Stress axis : x y z
#
# Youngs Moduli (GPa) = 31.10442 31.10442 23.63337
#
# Poissons Ratio (x) = 0.64506 0.07898
# Poissons Ratio (y) = 0.64506 0.07898
# Poissons Ratio (z) = 0.10395 0.10395
#
# Static dielectric constant tensor:
#      x y z
#    x 1.563000 0.000000 0.000000 
#    y 0.000000 1.563000 0.000000 
#    z 0.000000 0.000000 1.583560 
# 
# From -- ./inp_files/1266.got.cif
#   From: 2010.05.17/outbox.cif.g08.bks.cpg/sg83_1_cif.got.tgz:1266.got - 2010.06.03 18:55:12.
