data_PCOD9543618
_publ_section_title
;
Structure prediction by ZEFSAII (Michael W. Deem and Ramdas Pophale) SiO2 
 PCOD9543618
Probable space group: P 4/M
;
_chemical_formula_sum "Si O2"
_cell_formula_units_Z 60
_cell_length_a 11.302431
_cell_length_b 11.302431
_cell_length_c 24.872068
_cell_angle_alpha 90.000000
_cell_angle_beta 90.000000
_cell_angle_gamma 90.000000
_cell_volume 3177.280996
_symmetry_space_group_name_H-M "P 4/M"
_symmetry_group_IT_number 83
_symmetry_cell_setting 'tetragonal'
loop_
_space_group_symop_operation_xyz
x,y,z
-y,x,z
-x,-y,z
y,-x,z
-x,-y,-z
y,-x,-z
x,y,-z
-y,x,-z
loop_
_atom_site_type_symbol
_atom_site_label
_atom_site_fract_x
_atom_site_fract_y
_atom_site_fract_z
Si Si1 0.584540 0.754649 0.812218
Si Si2 0.689689 0.520430 0.701033
Si Si3 0.578524 0.317460 0.000000
Si Si4 0.785830 0.627173 0.884018
Si Si5 0.359049 0.022598 0.750834
Si Si6 0.818363 0.075646 0.436338
Si Si7 0.923674 0.606371 0.640817
Si Si8 0.060423 0.189112 0.164222
O O1 0.499289 0.698716 0.765803
O O2 0.674117 0.678835 0.849072
O O3 0.496082 0.815386 0.854684
O O4 0.657082 0.848237 0.776261
O O5 0.601461 0.626070 0.685255
O O6 0.813444 0.549376 0.673224
O O7 0.649396 0.440535 0.000000
O O8 0.607692 0.250911 0.054967
O O9 0.892940 0.719243 0.879742
O O10 0.500000 0.000000 0.759345
O O11 0.338425 0.005863 0.687907
O O12 0.270128 0.935887 0.782029
O O13 0.794051 0.086177 0.500000
O O14 0.850774 0.937989 0.425266
O O15 0.706950 0.111751 0.400707
O O16 0.000000 0.500000 0.615427
O O17 0.927118 0.141090 0.160953
#
# Coordination Sequence:
#
# PCOD9543618 Si02
#       8
#     8   8   4   8   8   8   8   8
#     4  12  21  35  62  88 124 168 201 246 315 388
#     4  11  23  36  54  87 130 170 205 245 309 389
#     4  11  24  40  62  99 128 148 203 277 323 370
#     4  12  23  39  64  89 125 161 202 259 320 374
#     4  11  21  37  57  94 128 161 205 255 310 373
#     4   9  21  43  68  94 125 168 224 279 326 368
#     4  11  23  36  62  94 130 169 211 263 316 377
#     4  11  24  40  61  88 121 166 208 248 307 384
#
# _framework density 18.884072
#
# number of rings (size 3 to 8) (size 9 to 14) (size 15 to 20)
#    0.000    1.000    8.000    0.400    1.867    1.600 
#    0.000    2.000    0.000    2.400    0.000    0.933 
#    0.000    0.000    0.000    0.000    0.000    0.000 
#
# Total GULP energy -334502.936298 kJ/mol
# GULP energy per Si atom -5575.048938 kJ/mol
# Density = 1.884109 g / cm^3
# Si number density = 18.884072 Si / 1000 Ang^3
#
#
#
# Elastic Constant Matrix: (Units=GPa)
#
#
# Indices 1 2 3 4 5 6 
#
# 1 156.8530 -68.3418 28.9749 0.0000 0.0000 -5.0779
# 2 -68.3418 156.8530 28.9749 0.0000 0.0000 5.0779
# 3 28.9749 28.9749 64.7961 0.0000 0.0000 0.0000
# 4 0.0000 0.0000 0.0000 25.6069 0.0000 0.0000
# 5 0.0000 0.0000 0.0000 0.0000 25.6069 0.0000
# 6 -5.0779 5.0779 0.0000 0.0000 0.0000 29.1498
#
#
#
# Elastic Compliance Matrix: (Units=1/GPa)
#
#
# Indices 1 2 3 4 5 6 
#
# 1 0.010225 0.005750 -0.007144 0.000000 0.000000 0.000780
# 2 0.005750 0.010225 -0.007144 0.000000 0.000000 -0.000780
# 3 -0.007144 -0.007144 0.021822 0.000000 0.000000 0.000000
# 4 0.000000 0.000000 0.000000 0.039052 0.000000 0.000000
# 5 0.000000 0.000000 0.000000 0.000000 0.039052 0.000000
# 6 0.000780 -0.000780 0.000000 0.000000 0.000000 0.034577
#
#
# Mechanical properties :
#
#
# Convention : Reuss Voigt Hill
#
# Bulk Modulus (GPa) = 39.68632 39.74647 39.71639
# Shear Modulus (GPa) = 27.71190 41.99900 34.85545
#
# Velocity S-wave (km/s) = 3.83492 4.72109 4.30089
# Velocity P-wave (km/s) = 6.37732 7.12823 6.76320
#
# Compressibility (1/GPa) = 0.02519760
#
# Stress axis : x y z
#
# Youngs Moduli (GPa) = 97.79568 97.79568 45.82565
#
# Poissons Ratio (x) = -0.56229 0.32736
# Poissons Ratio (y) = -0.56229 0.32736
# Poissons Ratio (z) = 0.69861 0.69861
#
# Static dielectric constant tensor:
#      x y z
#    x 1.703980 0.000000 0.000000 
#    y 0.000000 1.703980 0.000000 
#    z 0.000000 0.000000 1.627800 
# 
# From -- ./inp_files/3062.got.cif
#   From: 2010.05.17/outbox.cif.g08.bks.cpg/sg83_2_cif.got.tgz:3062.got - 2010.06.03 18:55:12.
