data_PCOD9543967
_publ_section_title
;
Structure prediction by ZEFSAII (Michael W. Deem and Ramdas Pophale) SiO2 
 PCOD9543967
Probable space group: P 42/M
;
_chemical_formula_sum "Si O2"
_cell_formula_units_Z 64
_cell_length_a 11.580668
_cell_length_b 11.580668
_cell_length_c 25.653852
_cell_angle_alpha 90.000000
_cell_angle_beta 90.000000
_cell_angle_gamma 90.000000
_cell_volume 3440.486098
_symmetry_space_group_name_H-M "P 42/M"
_symmetry_group_IT_number 84
_symmetry_cell_setting 'tetragonal'
loop_
_space_group_symop_operation_xyz
x,y,z
-y,x,1/2+z
-x,-y,z
y,-x,1/2+z
-x,-y,-z
y,-x,1/2-z
x,y,-z
-y,x,1/2-z
loop_
_atom_site_type_symbol
_atom_site_label
_atom_site_fract_x
_atom_site_fract_y
_atom_site_fract_z
Si Si1 0.513991 0.133082 0.440199
Si Si2 0.973340 0.178350 0.730728
Si Si3 0.192242 0.801639 0.059631
Si Si4 0.626342 0.713204 0.636670
Si Si5 0.478884 0.661719 0.221791
Si Si6 0.920700 0.772103 0.057972
Si Si7 0.137486 0.018959 0.885598
Si Si8 0.886236 0.425139 0.768878
O O1 0.467118 0.133818 0.500000
O O2 0.465433 0.238992 0.406390
O O3 0.650535 0.140337 0.443531
O O4 0.500000 0.000000 0.419837
O O5 0.011379 0.182450 0.670940
O O6 0.928807 0.302963 0.746596
O O7 0.081325 0.127242 0.763263
O O8 0.270167 0.742064 0.103138
O O9 0.058536 0.760412 0.069057
O O10 0.190113 0.937008 0.071001
O O11 0.223594 0.777832 0.000000
O O12 0.632427 0.591774 0.668698
O O13 0.608630 0.808944 0.681428
O O14 0.602381 0.598248 0.231709
O O15 0.503240 0.796716 0.232005
O O16 0.854157 0.848837 0.099337
O O17 0.917659 0.826440 0.000000
O O18 0.000000 0.000000 0.885394
O O19 0.000000 0.500000 0.780644
#
# Coordination Sequence:
#
# PCOD9543967 Si02
#       8
#     8   8   8   8   8   8   8   8
#     4  10  18  31  52  86 127 156 198 263 323 368
#     4  11  23  39  58  91 129 162 194 257 317 378
#     4  10  19  31  54  86 121 162 203 243 295 378
#     4  11  21  36  60  86 117 161 201 258 313 363
#     4   9  22  46  62  81 116 158 215 265 302 360
#     4   9  18  31  48  77 122 160 195 241 299 369
#     4  10  19  33  52  79 121 169 197 223 300 370
#     4  11  26  38  63  88 120 159 211 255 313 385
#
# _framework density 18.602024
#
# number of rings (size 3 to 8) (size 9 to 14) (size 15 to 20)
#    0.000    1.875    2.500    1.875    7.000    1.500 
#    6.750    0.000    0.000    0.000    0.000   32.375 
#    0.000    0.000    0.000    0.000    0.000    0.000 
#
# Total GULP energy -356308.396358 kJ/mol
# GULP energy per Si atom -5567.318693 kJ/mol
# Density = 1.855968 g / cm^3
# Si number density = 18.602024 Si / 1000 Ang^3
#
#
#
# Elastic Constant Matrix: (Units=GPa)
#
#
# Indices 1 2 3 4 5 6 
#
# 1 72.1218 32.9789 27.4101 0.0000 0.0000 -2.0948
# 2 32.9789 72.1218 27.4101 0.0000 0.0000 2.0948
# 3 27.4101 27.4101 72.9978 0.0000 0.0000 0.0000
# 4 0.0000 0.0000 0.0000 20.0359 0.0000 0.0000
# 5 0.0000 0.0000 0.0000 0.0000 20.0359 0.0000
# 6 -2.0948 2.0948 0.0000 0.0000 0.0000 6.6608
#
#
#
# Elastic Compliance Matrix: (Units=1/GPa)
#
#
# Indices 1 2 3 4 5 6 
#
# 1 0.019135 -0.007303 -0.004443 0.000000 0.000000 0.008314
# 2 -0.007303 0.019135 -0.004443 0.000000 0.000000 -0.008314
# 3 -0.004443 -0.004443 0.017036 0.000000 0.000000 0.000000
# 4 0.000000 0.000000 0.000000 0.049910 0.000000 0.000000
# 5 0.000000 0.000000 0.000000 0.000000 0.049910 0.000000
# 6 0.008314 -0.008314 0.000000 0.000000 0.000000 0.155362
#
#
# Mechanical properties :
#
#
# Convention : Reuss Voigt Hill
#
# Bulk Modulus (GPa) = 43.61424 43.64884 43.63154
# Shear Modulus (GPa) = 14.26506 17.97603 16.12055
#
# Velocity S-wave (km/s) = 2.77222 3.11199 2.94700
# Velocity P-wave (km/s) = 5.80894 6.03557 5.92334
#
# Compressibility (1/GPa) = 0.02292829
#
# Stress axis : x y z
#
# Youngs Moduli (GPa) = 52.26110 52.26110 58.70082
#
# Poissons Ratio (x) = 0.38164 0.26080
# Poissons Ratio (y) = 0.38164 0.26080
# Poissons Ratio (z) = 0.23219 0.23219
#
# Static dielectric constant tensor:
#      x y z
#    x 1.671090 0.000000 0.000000 
#    y 0.000000 1.671090 0.000000 
#    z 0.000000 0.000000 1.683210 
# 
# From -- ./inp_files/5088.got.cif
#   From: 2010.05.17/outbox.cif.g08.bks.cpg/sg84_3_cif.got.tgz:5088.got - 2010.06.03 18:57:40.
