data_PCOD9543707
_publ_section_title
;
Structure prediction by ZEFSAII (Michael W. Deem and Ramdas Pophale) SiO2 
 PCOD9543707
Probable space group: P 4/M
;
_chemical_formula_sum "Si O2"
_cell_formula_units_Z 40
_cell_length_a 8.053430
_cell_length_b 8.053430
_cell_length_c 27.730613
_cell_angle_alpha 90.000000
_cell_angle_beta 90.000000
_cell_angle_gamma 90.000000
_cell_volume 1798.544743
_symmetry_space_group_name_H-M "P 4/M"
_symmetry_group_IT_number 83
_symmetry_cell_setting 'tetragonal'
loop_
_space_group_symop_operation_xyz
x,y,z
-y,x,z
-x,-y,z
y,-x,z
-x,-y,-z
y,-x,-z
x,y,-z
-y,x,-z
loop_
_atom_site_type_symbol
_atom_site_label
_atom_site_fract_x
_atom_site_fract_y
_atom_site_fract_z
Si Si1 0.897524 0.263859 0.000000
Si Si2 0.735606 0.900023 0.896832
Si Si3 0.588477 0.766585 0.593369
Si Si4 0.234205 0.587240 0.300955
Si Si5 0.266311 0.079387 0.500000
Si Si6 0.734421 0.909933 0.207099
O O1 0.864855 0.349705 0.051610
O O2 0.090355 0.205098 0.000000
O O3 0.651357 0.872251 0.845032
O O4 0.907866 0.795824 0.896839
O O5 0.400113 0.700756 0.590710
O O6 0.617398 0.844217 0.646330
O O7 0.634973 0.878168 0.548361
O O8 0.299238 0.399323 0.299269
O O9 0.129909 0.630611 0.254207
O O10 0.106055 0.199025 0.500000
O O11 0.901288 0.798317 0.208471
#
# Coordination Sequence:
#
# PCOD9543707 Si02
#       6
#     4   8   8   8   4   8
#     4   7   8  12  26  48  76 111 146 178 216 265
#     4   7  10  17  30  52  83 115 145 179 222 271
#     4   9  19  37  58  75  92 120 160 200 232 265
#     4   9  19  35  52  70  92 120 158 199 232 266
#     4  11  24  37  50  76 110 133 150 179 222 272
#     4   9  17  28  43  67  98 125 149 185 235 285
#
# _framework density 22.240205
#
# number of rings (size 3 to 8) (size 9 to 14) (size 15 to 20)
#    0.000    3.400    0.000    4.200    0.000    4.800 
#    0.000    6.000    0.000    0.000    0.000    1.400 
#    0.000    9.600    0.000    0.000    0.000    0.000 
#
# Total GULP energy -223304.198944 kJ/mol
# GULP energy per Si atom -5582.604974 kJ/mol
# Density = 2.218959 g / cm^3
# Si number density = 22.240205 Si / 1000 Ang^3
#
#
#
# Elastic Constant Matrix: (Units=GPa)
#
#
# Indices 1 2 3 4 5 6 
#
# 1 40.1024 26.7548 59.1329 0.0000 0.0000 -0.4304
# 2 26.7548 40.1024 59.1329 0.0000 0.0000 0.4304
# 3 59.1329 59.1329 290.9736 0.0000 0.0000 0.0000
# 4 0.0000 0.0000 0.0000 69.6666 0.0000 0.0000
# 5 0.0000 0.0000 0.0000 0.0000 69.6666 0.0000
# 6 -0.4304 0.4304 0.0000 0.0000 0.0000 28.2178
#
#
#
# Elastic Compliance Matrix: (Units=1/GPa)
#
#
# Indices 1 2 3 4 5 6 
#
# 1 0.049173 -0.025821 -0.004746 0.000000 0.000000 0.001144
# 2 -0.025821 0.049173 -0.004746 0.000000 0.000000 -0.001144
# 3 -0.004746 -0.004746 0.005366 0.000000 0.000000 0.000000
# 4 0.000000 0.000000 0.000000 0.014354 0.000000 0.000000
# 5 0.000000 0.000000 0.000000 0.000000 0.014354 0.000000
# 6 0.001144 -0.001144 0.000000 0.000000 0.000000 0.035474
#
#
# Mechanical properties :
#
#
# Convention : Reuss Voigt Hill
#
# Bulk Modulus (GPa) = 30.22336 73.46884 51.84610
# Shear Modulus (GPa) = 20.03636 48.58739 34.31187
#
# Velocity S-wave (km/s) = 3.00477 4.67911 3.93209
# Velocity P-wave (km/s) = 5.06529 7.89291 6.63156
#
# Compressibility (1/GPa) = 0.03308699
#
# Stress axis : x y z
#
# Youngs Moduli (GPa) = 20.33643 20.33643 186.37152
#
# Poissons Ratio (x) = 0.52510 0.88447
# Poissons Ratio (y) = 0.52510 0.88447
# Poissons Ratio (z) = 0.09651 0.09651
#
# Static dielectric constant tensor:
#      x y z
#    x 1.814100 0.000000 0.000000 
#    y 0.000000 1.814100 0.000000 
#    z 0.000000 0.000000 1.872820 
# 
# From -- ./inp_files/3258.got.cif
#   From: 2010.05.17/outbox.cif.g08.bks.cpg/sg83_2_cif.got.tgz:3258.got - 2010.06.03 18:55:12.
