data_PCOD9543270
_publ_section_title
;
Structure prediction by ZEFSAII (Michael W. Deem and Ramdas Pophale) SiO2 
 PCOD9543270
Probable space group: P 4/M
;
_chemical_formula_sum "Si O2"
_cell_formula_units_Z 48
_cell_length_a 15.293847
_cell_length_b 15.293847
_cell_length_c 7.925434
_cell_angle_alpha 90.000000
_cell_angle_beta 90.000000
_cell_angle_gamma 90.000000
_cell_volume 1853.772930
_symmetry_space_group_name_H-M "P 4/M"
_symmetry_group_IT_number 83
_symmetry_cell_setting 'tetragonal'
loop_
_space_group_symop_operation_xyz
x,y,z
-y,x,z
-x,-y,z
y,-x,z
-x,-y,-z
y,-x,-z
x,y,-z
-y,x,-z
loop_
_atom_site_type_symbol
_atom_site_label
_atom_site_fract_x
_atom_site_fract_y
_atom_site_fract_z
Si Si1 0.675071 0.989730 0.806804
Si Si2 0.482191 0.121719 0.205372
Si Si3 0.352880 0.788966 0.188725
Si Si4 0.639852 0.539262 0.694732
Si Si5 0.188931 0.688026 0.309410
Si Si6 0.972908 0.860158 0.206041
O O1 0.579730 0.959391 0.737499
O O2 0.716090 0.890584 0.808932
O O3 0.759165 0.042144 0.736011
O O4 0.659923 0.015413 0.000000
O O5 0.584113 0.133637 0.257038
O O6 0.415839 0.198843 0.267919
O O7 0.483343 0.120653 0.000000
O O8 0.425746 0.713395 0.184381
O O9 0.273835 0.746462 0.288320
O O10 0.321099 0.805545 0.000000
O O11 0.556762 0.602523 0.716982
O O12 0.670194 0.548653 0.500000
O O13 0.157549 0.694727 0.500000
O O14 0.901729 0.933149 0.258143
O O15 0.971835 0.857264 0.000000
#
# Coordination Sequence:
#
# PCOD9543270 Si02
#       6
#     8   8   8   8   8   8
#     4   8  15  30  45  64  98 128 151 181 220 266
#     4   8  17  30  42  58  81 116 153 190 238 278
#     4  11  19  27  39  55  76 104 148 196 238 279
#     4   9  18  29  37  48  70 100 135 179 235 288
#     4  10  19  29  42  59  82 115 157 196 233 275
#     4   8  13  23  47  84 114 130 146 171 207 257
#
# _framework density 25.893136999999999
#
# number of rings (size 3 to 8) (size 9 to 14) (size 15 to 20)
#    1.000    2.000    0.000    3.500    0.000    4.667 
#    0.000    0.833    0.000    1.000    0.000    2.333 
#    0.000    9.333    0.000    0.000    0.000    0.000 
#
# Total GULP energy -267499.213415 kJ/mol
# GULP energy per Si atom -5572.900279 kJ/mol
# Density = 2.583420 g / cm^3
# Si number density = 25.893137 Si / 1000 Ang^3
#
#
#
# Elastic Constant Matrix: (Units=GPa)
#
#
# Indices 1 2 3 4 5 6 
#
# 1 119.3483 -27.3158 11.9605 0.0000 0.0000 11.9050
# 2 -27.3158 119.3483 11.9605 0.0000 0.0000 -11.9050
# 3 11.9605 11.9605 51.4790 0.0000 0.0000 0.0000
# 4 0.0000 0.0000 0.0000 -15.6206 0.0000 0.0000
# 5 0.0000 0.0000 0.0000 0.0000 -15.6206 0.0000
# 6 11.9050 -11.9050 0.0000 0.0000 0.0000 30.3533
#
#
#
# Elastic Compliance Matrix: (Units=1/GPa)
#
#
# Indices 1 2 3 4 5 6 
#
# 1 0.009423 0.002141 -0.002687 0.000000 0.000000 -0.002856
# 2 0.002141 0.009423 -0.002687 0.000000 0.000000 0.002856
# 3 -0.002687 -0.002687 0.020674 0.000000 0.000000 0.000000
# 4 0.000000 0.000000 0.000000 -0.064018 0.000000 0.000000
# 5 0.000000 0.000000 0.000000 0.000000 -0.064018 0.000000
# 6 -0.002856 0.002856 0.000000 0.000000 0.000000 0.035186
#
#
# Mechanical properties :
#
#
# Convention : Reuss Voigt Hill
#
# Bulk Modulus (GPa) = 30.25265 31.48732 30.86999
# Shear Modulus (GPa) = -139.48070 19.39378 -60.04346
#
# Velocity S-wave (km/s) = -7.34743 2.73974 -4.82071
# Velocity P-wave (km/s) = 7.76342 4.71117 4.36323
#
# Compressibility (1/GPa) = 0.03305495
#
# Stress axis : x y z
#
# Youngs Moduli (GPa) = 106.12313 106.12313 48.37027
#
# Poissons Ratio (x) = -0.22721 0.12996
# Poissons Ratio (y) = -0.22721 0.12996
# Poissons Ratio (z) = 0.28513 0.28513
#
# Static dielectric constant tensor:
#      x y z
#    x 2.198020 0.000000 0.000000 
#    y 0.000000 2.198020 0.000000 
#    z 0.000000 0.000000 1.988480 
# 
# From -- ./inp_files/915.got.cif
#   From: 2010.05.17/outbox.cif.g08.bks.cpg/sg83_1_cif.got.tgz:915.got - 2010.06.03 18:55:12.
