data_PCOD9543150
_publ_section_title
;
Structure prediction by ZEFSAII (Michael W. Deem and Ramdas Pophale) SiO2 
 PCOD9543150
Probable space group: I -4 
;
_chemical_formula_sum "Si O2"
_cell_formula_units_Z 56
_cell_length_a 11.021996
_cell_length_b 11.021996
_cell_length_c 20.779231
_cell_angle_alpha 90.000000
_cell_angle_beta 90.000000
_cell_angle_gamma 90.000000
_cell_volume 2524.352324
_symmetry_space_group_name_H-M "I -4 "
_symmetry_group_IT_number 82
_symmetry_cell_setting 'tetragonal'
loop_
_space_group_symop_operation_xyz
x,y,z
y,-x,-z
-x,-y,z
-y,x,-z
1/2+x,1/2+y,1/2+z
1/2+y,1/2-x,1/2-z
1/2-x,1/2-y,1/2+z
1/2-y,1/2+x,1/2-z
loop_
_atom_site_type_symbol
_atom_site_label
_atom_site_fract_x
_atom_site_fract_y
_atom_site_fract_z
Si Si1 0.694854 0.465234 0.515572
Si Si2 0.868421 0.947851 0.271602
Si Si3 0.300519 0.993149 0.154678
Si Si4 0.902686 0.606775 0.089706
Si Si5 0.512918 0.299338 0.993016
Si Si6 0.915298 0.678934 0.231487
Si Si7 0.012852 0.308933 0.627543
O O1 0.594664 0.363804 0.500782
O O2 0.725875 0.463731 0.590623
O O3 0.809828 0.442274 0.470084
O O4 0.777664 0.001930 0.218493
O O5 0.872764 0.802276 0.265059
O O6 0.820868 0.994363 0.340145
O O7 0.000000 0.000000 0.258220
O O8 0.363535 0.123715 0.144800
O O9 0.406816 0.893579 0.156230
O O10 0.774629 0.546697 0.070662
O O11 0.896254 0.684446 0.154712
O O12 0.000000 0.500000 0.100378
O O13 0.391232 0.378389 0.989510
O O14 0.497676 0.204238 0.051169
O O15 0.845563 0.558119 0.255209
#
# Coordination Sequence:
#
# PCOD9543150 Si02
#       7
#     8   8   8   8   8   8   8
#     4  11  26  43  72 109 146 187 238 302 361 429
#     4  12  30  45  79 106 141 191 247 303 360 433
#     4  11  25  49  72 107 142 188 247 299 372 424
#     4  12  25  46  77 104 145 190 237 297 366 429
#     4  11  28  46  73 108 146 191 240 298 360 434
#     4  11  27  50  71 107 146 193 239 291 364 438
#     4  11  26  49  74 104 144 190 244 297 370 429
#
# _framework density 22.183909
#
# number of rings (size 3 to 8) (size 9 to 14) (size 15 to 20)
#    0.000    0.714    2.857    2.571   18.000    1.143 
#    0.000    0.000    0.000    0.000    0.000    0.000 
#    0.000    0.000    0.000    0.000    0.000    0.000 
#
# Total GULP energy -156891.831295 kJ/mol
# GULP energy per Si atom -5603.279689 kJ/mol
# Density = 2.213342 g / cm^3
# Si number density = 22.183909 Si / 1000 Ang^3
#
#
#
# Elastic Constant Matrix: (Units=GPa)
#
#
# Indices 1 2 3 4 5 6 
#
# 1 35.7149 -2.0967 -15.3573 0.0000 0.0000 0.4963
# 2 -2.0967 35.7149 -15.3573 0.0000 0.0000 -0.4963
# 3 -15.3573 -15.3573 63.1734 0.0000 0.0000 0.0000
# 4 0.0000 0.0000 0.0000 22.5397 0.0000 0.0000
# 5 0.0000 0.0000 0.0000 0.0000 22.5397 0.0000
# 6 0.4963 -0.4963 0.0000 0.0000 0.0000 12.2648
#
#
#
# Elastic Compliance Matrix: (Units=1/GPa)
#
#
# Indices 1 2 3 4 5 6 
#
# 1 0.032357 0.005882 0.009296 0.000000 0.000000 -0.001071
# 2 0.005882 0.032357 0.009296 0.000000 0.000000 0.001071
# 3 0.009296 0.009296 0.020349 0.000000 0.000000 0.000000
# 4 0.000000 0.000000 0.000000 0.044366 0.000000 0.000000
# 5 0.000000 0.000000 0.000000 0.000000 0.044366 0.000000
# 6 -0.001071 0.001071 0.000000 0.000000 0.000000 0.081621
#
#
# Mechanical properties :
#
#
# Convention : Reuss Voigt Hill
#
# Bulk Modulus (GPa) = 7.46217 7.66450 7.56334
# Shear Modulus (GPa) = 19.90927 22.62980 21.26954
#
# Velocity S-wave (km/s) = 2.99902 3.19737 3.09978
# Velocity P-wave (km/s) = 3.91960 4.13441 4.02844
#
# Compressibility (1/GPa) = 0.13400928
#
# Stress axis : x y z
#
# Youngs Moduli (GPa) = 30.90536 30.90536 49.14249
#
# Poissons Ratio (x) = -0.18178 -0.45682
# Poissons Ratio (y) = -0.18178 -0.45682
# Poissons Ratio (z) = -0.28729 -0.28729
#
# Static dielectric constant tensor:
#      x y z
#    x 1.798250 0.000000 0.000000 
#    y 0.000000 1.798250 0.000000 
#    z 0.000000 0.000000 1.771560 
# 
# From -- ./inp_files/3152.got.cif
#   From: 2010.05.17/outbox.cif.g08.bks.cpg/sg82_2_cif.got.tgz:3152.got - 2010.06.03 18:52:26.
