data_PCOD9543187
_publ_section_title
;
Structure prediction by ZEFSAII (Michael W. Deem and Ramdas Pophale) SiO2 
 PCOD9543187
Probable space group: I -4 
;
_chemical_formula_sum "Si O2"
_cell_formula_units_Z 52
_cell_length_a 20.944012
_cell_length_b 20.944012
_cell_length_c 5.155345
_cell_angle_alpha 90.000000
_cell_angle_beta 90.000000
_cell_angle_gamma 90.000000
_cell_volume 2261.400532
_symmetry_space_group_name_H-M "I -4 "
_symmetry_group_IT_number 82
_symmetry_cell_setting 'tetragonal'
loop_
_space_group_symop_operation_xyz
x,y,z
y,-x,-z
-x,-y,z
-y,x,-z
1/2+x,1/2+y,1/2+z
1/2+y,1/2-x,1/2-z
1/2-x,1/2-y,1/2+z
1/2-y,1/2+x,1/2-z
loop_
_atom_site_type_symbol
_atom_site_label
_atom_site_fract_x
_atom_site_fract_y
_atom_site_fract_z
Si Si1 0.718720 0.729771 0.951445
Si Si2 0.537807 0.275371 0.703028
Si Si3 0.970381 0.088835 0.385267
Si Si4 0.377169 0.919304 0.153602
Si Si5 0.773975 0.596103 0.812166
Si Si6 0.791826 0.417886 0.137369
Si Si7 0.500000 0.000000 0.250000
Si Si8 0.000000 0.000000 0.000000
O O1 0.760662 0.772598 0.751948
O O2 0.733586 0.661162 0.828055
O O3 0.648769 0.758921 0.932600
O O4 0.557874 0.343345 0.824416
O O5 0.553922 0.260757 0.406773
O O6 0.463979 0.264496 0.765443
O O7 0.570884 0.224987 0.893870
O O8 0.028866 0.078533 0.587525
O O9 0.010791 0.066875 0.139168
O O10 0.394139 0.848123 0.255034
O O11 0.330210 0.943671 0.384467
O O12 0.439868 0.963365 0.116329
O O13 0.339625 0.913298 0.882559
#
# Coordination Sequence:
#
# PCOD9543187 Si02
#       8
#     8   8   8   8   8   8   2   2
#     4  12  23  46  76 104 134 200 237 297 369 442
#     4  12  27  41  68 107 140 179 234 292 350 422
#     4   9  22  42  63  91 135 184 224 282 340 410
#     4  12  26  49  72 101 145 182 236 297 345 444
#     4  12  26  47  70 104 146 183 238 300 360 423
#     4  12  25  47  72 104 148 180 238 301 361 419
#     4  12  28  46  80 106 136 206 244 270 400 414
#     4   8  18  40  68  82 132 184 214 276 326 396
#
# _framework density 22.994599000000001
#
# number of rings (size 3 to 8) (size 9 to 14) (size 15 to 20)
#    0.000    0.769    3.077    4.615    6.462    1.846 
#    0.000    0.000    0.000    0.000    0.000    0.000 
#    0.000    0.000    0.000    0.000    0.000    0.000 
#
# Total GULP energy -144937.129247 kJ/mol
# GULP energy per Si atom -5574.504971 kJ/mol
# Density = 2.294226 g / cm^3
# Si number density = 22.994599 Si / 1000 Ang^3
#
#
#
# Elastic Constant Matrix: (Units=GPa)
#
#
# Indices 1 2 3 4 5 6 
#
# 1 61.7664 -0.9426 0.0720 0.0000 0.0000 10.1651
# 2 -0.9426 61.7664 0.0720 0.0000 0.0000 -10.1651
# 3 0.0720 0.0720 97.0973 0.0000 0.0000 0.0000
# 4 0.0000 0.0000 0.0000 14.2126 0.0000 0.0000
# 5 0.0000 0.0000 0.0000 0.0000 14.2126 0.0000
# 6 10.1651 -10.1651 0.0000 0.0000 0.0000 38.7275
#
#
#
# Elastic Compliance Matrix: (Units=1/GPa)
#
#
# Indices 1 2 3 4 5 6 
#
# 1 0.016935 -0.000494 -0.000012 0.000000 0.000000 -0.004575
# 2 -0.000494 0.016935 -0.000012 0.000000 0.000000 0.004575
# 3 -0.000012 -0.000012 0.010299 0.000000 0.000000 0.000000
# 4 0.000000 0.000000 0.000000 0.070360 0.000000 0.000000
# 5 0.000000 0.000000 0.000000 0.000000 0.070360 0.000000
# 6 -0.004575 0.004575 0.000000 0.000000 0.000000 0.028223
#
#
# Mechanical properties :
#
#
# Convention : Reuss Voigt Hill
#
# Bulk Modulus (GPa) = 23.18460 24.33702 23.76081
# Shear Modulus (GPa) = 21.87909 28.19242 25.03576
#
# Velocity S-wave (km/s) = 3.08797 3.50529 3.30323
# Velocity P-wave (km/s) = 4.77688 5.19515 4.99040
#
# Compressibility (1/GPa) = 0.04313207
#
# Stress axis : x y z
#
# Youngs Moduli (GPa) = 59.04784 59.04784 97.09713
#
# Poissons Ratio (x) = 0.02920 0.00118
# Poissons Ratio (y) = 0.02920 0.00118
# Poissons Ratio (z) = 0.00072 0.00072
#
# Static dielectric constant tensor:
#      x y z
#    x 1.941490 0.000000 0.000000 
#    y 0.000000 1.941490 0.000000 
#    z 0.000000 0.000000 1.969180 
# 
# From -- ./inp_files/392.got.cif
#   From: 2010.05.17/outbox.cif.g08.bks.cpg/sg82_1_cif.got.tgz:392.got - 2010.06.03 18:52:26.
