data_PCOD9543933
_publ_section_title
;
Structure prediction by ZEFSAII (Michael W. Deem and Ramdas Pophale) SiO2 
 PCOD9543933
Probable space group: P 4/M
;
_chemical_formula_sum "Si O2"
_cell_formula_units_Z 44
_cell_length_a 9.000000
_cell_length_b 9.000000
_cell_length_c 30.000000
_cell_angle_alpha 90.000000
_cell_angle_beta 90.000000
_cell_angle_gamma 90.000000
_cell_volume 2430.000000
_symmetry_space_group_name_H-M "P 4/M"
_symmetry_group_IT_number 83
_symmetry_cell_setting 'tetragonal'
loop_
_space_group_symop_operation_xyz
x,y,z
-y,x,z
-x,-y,z
y,-x,z
-x,-y,-z
y,-x,-z
x,y,-z
-y,x,-z
loop_
_atom_site_type_symbol
_atom_site_label
_atom_site_fract_x
_atom_site_fract_y
_atom_site_fract_z
Si Si1 0.000000 0.500000 0.382320
Si Si2 0.756522 0.945753 0.448665
Si Si3 0.558880 0.254267 0.314626
Si Si4 0.742205 0.566717 0.216622
Si Si5 0.916851 0.766234 0.052604
Si Si6 0.258464 0.424840 0.118875
O O1 0.928496 0.375209 0.413942
O O2 0.872702 0.571104 0.351319
O O3 0.704827 0.933901 0.500000
O O4 0.891002 0.829653 0.442865
O O5 0.671917 0.393832 0.318324
O O6 0.582610 0.185269 0.265018
O O7 0.598972 0.674428 0.216550
O O8 0.813195 0.591502 0.168353
O O9 0.855624 0.631992 0.082035
O O10 0.086251 0.816826 0.061571
O O11 0.905322 0.732968 0.000000
O O12 0.407241 0.321493 0.115138
#
# Coordination Sequence:
#
# PCOD9543933 Si02
#       6
#     4   8   8   8   8   8
#     4  12  19  28  50  80  98 118 163 212 240 274
#     4   9  19  35  51  68  96 133 166 198 242 291
#     4   9  18  32  48  68  98 131 158 191 240 292
#     4   7  12  27  47  64  89 124 154 182 225 282
#     4   9  19  35  50  65  92 129 161 190 234 291
#     4   9  17  30  50  74  95 118 154 199 238 275
#
# _framework density 18.106995999999999
#
# number of rings (size 3 to 8) (size 9 to 14) (size 15 to 20)
#    0.000    3.091    0.000    4.636    0.000    1.455 
#    0.000    8.182    0.000    0.000    0.000   10.182 
#    0.000    0.000    0.000    0.000    0.000    0.000 
#
# Total GULP energy -245133.454000 kJ/mol
# GULP energy per Si atom -5571.214864 kJ/mol
# Density = 1.806578 g / cm^3
# Si number density = 18.106996 Si / 1000 Ang^3
#
#
#
# Elastic Constant Matrix: (Units=GPa)
#
#
# Indices 1 2 3 4 5 6 
#
# 1 25.1030 0.3590 31.1233 0.0000 0.0000 -1.4390
# 2 0.3590 25.1030 31.1233 0.0000 0.0000 1.4390
# 3 31.1233 31.1233 113.3989 0.0000 0.0000 0.0000
# 4 0.0000 0.0000 0.0000 -0.7726 0.0000 0.0000
# 5 0.0000 0.0000 0.0000 0.0000 -0.7726 0.0000
# 6 -1.4390 1.4390 0.0000 0.0000 0.0000 21.3222
#
#
#
# Elastic Compliance Matrix: (Units=1/GPa)
#
#
# Indices 1 2 3 4 5 6 
#
# 1 0.080048 0.039314 -0.032760 0.000000 0.000000 0.002749
# 2 0.039314 0.080048 -0.032760 0.000000 0.000000 -0.002749
# 3 -0.032760 -0.032760 0.026801 0.000000 0.000000 0.000000
# 4 0.000000 0.000000 0.000000 -1.294260 0.000000 0.000000
# 5 0.000000 0.000000 0.000000 0.000000 -1.294260 0.000000
# 6 0.002749 -0.002749 0.000000 0.000000 0.000000 0.047271
#
#
# Mechanical properties :
#
#
# Convention : Reuss Voigt Hill
#
# Bulk Modulus (GPa) = 7.43574 32.09070 19.76322
# Shear Modulus (GPa) = -2.21522 10.68866 4.23672
#
# Velocity S-wave (km/s) = -1.10728 2.43226 1.53131
# Velocity P-wave (km/s) = 1.57503 5.06450 3.75032
#
# Compressibility (1/GPa) = 0.13448562
#
# Stress axis : x y z
#
# Youngs Moduli (GPa) = 12.49251 12.49251 37.31201
#
# Poissons Ratio (x) = -0.49114 1.22234
# Poissons Ratio (y) = -0.49114 1.22234
# Poissons Ratio (z) = 0.40926 0.40926
#
# Static dielectric constant tensor:
#      x y z
#    x 1.606530 0.000000 0.000000 
#    y 0.000000 1.606530 0.000000 
#    z 0.000000 0.000000 1.651570 
# 
# From -- ./inp_files/3352.got.cif
#   From: 2010.05.17/outbox.ucp.g08.bks.cvg/sg83_2_cif.got.tgz:3352.got - 2010.06.11 10:34:49.
