data_PCOD9543213
_publ_section_title
;
Structure prediction by ZEFSAII (Michael W. Deem and Ramdas Pophale) SiO2 
 PCOD9543213
Probable space group: I -4 
;
_chemical_formula_sum "Si O2"
_cell_formula_units_Z 32
_cell_length_a 6.733161
_cell_length_b 6.733161
_cell_length_c 22.644937
_cell_angle_alpha 90.000000
_cell_angle_beta 90.000000
_cell_angle_gamma 90.000000
_cell_volume 1026.618569
_symmetry_space_group_name_H-M "I -4 "
_symmetry_group_IT_number 82
_symmetry_cell_setting 'tetragonal'
loop_
_space_group_symop_operation_xyz
x,y,z
y,-x,-z
-x,-y,z
-y,x,-z
1/2+x,1/2+y,1/2+z
1/2+y,1/2-x,1/2-z
1/2-x,1/2-y,1/2+z
1/2-y,1/2+x,1/2-z
loop_
_atom_site_type_symbol
_atom_site_label
_atom_site_fract_x
_atom_site_fract_y
_atom_site_fract_z
Si Si1 0.173864 0.694011 0.446117
Si Si2 0.194011 0.826134 0.696116
Si Si3 0.747700 0.340718 0.319516
Si Si4 0.747701 0.840719 0.430484
O O1 0.303404 0.639640 0.388630
O O2 0.217157 0.618444 0.512429
O O3 0.064314 0.811165 0.318898
O O4 0.200204 0.933986 0.448222
O O5 0.433987 0.799793 0.698222
O O6 0.139639 0.696596 0.638630
O O7 0.118445 0.782841 0.762429
O O8 0.935684 0.688833 0.431102
#
# Coordination Sequence:
#
# PCOD9543213 Si02
#       4
#     8   8   8   8
#     4   8  13  21  34  52  71  90 115 147 178 207
#     4   8  13  21  34  52  71  90 115 147 178 207
#     4   8  13  21  34  52  71  90 115 147 178 207
#     4   8  13  21  34  52  71  90 115 147 178 207
#
# _framework density 31.170290000000001
#
# number of rings (size 3 to 8) (size 9 to 14) (size 15 to 20)
#    0.000    4.000    0.000    3.000    0.000    0.000 
#    0.000    0.000    0.000    3.000    0.000    0.000 
#    0.000    0.000    0.000    0.000    0.000    0.000 
#
# Total GULP energy -89347.028075 kJ/mol
# GULP energy per Si atom -5584.189255 kJ/mol
# Density = 3.109935 g / cm^3
# Si number density = 31.170290 Si / 1000 Ang^3
#
#
#
# Elastic Constant Matrix: (Units=GPa)
#
#
# Indices 1 2 3 4 5 6 
#
# 1 88.9782 12.2253 23.9750 0.0000 0.0000 5.5950
# 2 12.2253 88.9782 23.9750 0.0000 0.0000 -5.5950
# 3 23.9750 23.9750 474.1772 0.0000 0.0000 0.0000
# 4 0.0000 0.0000 0.0000 51.2366 0.0000 0.0000
# 5 0.0000 0.0000 0.0000 0.0000 51.2366 0.0000
# 6 5.5950 -5.5950 0.0000 0.0000 0.0000 33.7120
#
#
#
# Elastic Compliance Matrix: (Units=1/GPa)
#
#
# Indices 1 2 3 4 5 6 
#
# 1 0.011738 -0.001614 -0.000512 0.000000 0.000000 -0.002216
# 2 -0.001614 0.011738 -0.000512 0.000000 0.000000 0.002216
# 3 -0.000512 -0.000512 0.002161 0.000000 0.000000 0.000000
# 4 0.000000 0.000000 0.000000 0.019517 0.000000 0.000000
# 5 0.000000 0.000000 0.000000 0.000000 0.019517 0.000000
# 6 -0.002216 0.002216 0.000000 0.000000 0.000000 0.030399
#
#
# Mechanical properties :
#
#
# Convention : Reuss Voigt Hill
#
# Bulk Modulus (GPa) = 49.11488 85.83159 67.47324
# Shear Modulus (GPa) = 46.67146 66.70094 56.68620
#
# Velocity S-wave (km/s) = 3.87370 4.63091 4.26913
# Velocity P-wave (km/s) = 5.98319 7.49599 6.78191
#
# Compressibility (1/GPa) = 0.02036043
#
# Stress axis : x y z
#
# Youngs Moduli (GPa) = 85.19523 85.19525 462.81790
#
# Poissons Ratio (x) = 0.13752 0.23690
# Poissons Ratio (y) = 0.13752 0.23690
# Poissons Ratio (z) = 0.04361 0.04361
#
# Static dielectric constant tensor:
#      x y z
#    x 2.563950 0.000000 0.000000 
#    y 0.000000 2.563950 0.000000 
#    z 0.000000 0.000000 2.388300 
# 
# From -- ./inp_files/2511.got.cif
#   From: 2010.05.17/outbox.cif.g08.bks.cpg/sg82_2_cif.got.tgz:2511.got - 2010.06.03 18:52:26.
