data_PCOD9543121
_publ_section_title
;
Structure prediction by ZEFSAII (Michael W. Deem and Ramdas Pophale) SiO2 
 PCOD9543121
Probable space group: I -4 
;
_chemical_formula_sum "Si O2"
_cell_formula_units_Z 16
_cell_length_a 9.049616
_cell_length_b 9.049616
_cell_length_c 7.139324
_cell_angle_alpha 90.000000
_cell_angle_beta 90.000000
_cell_angle_gamma 90.000000
_cell_volume 584.678864
_symmetry_space_group_name_H-M "I -4 "
_symmetry_group_IT_number 82
_symmetry_cell_setting 'tetragonal'
loop_
_space_group_symop_operation_xyz
x,y,z
y,-x,-z
-x,-y,z
-y,x,-z
1/2+x,1/2+y,1/2+z
1/2+y,1/2-x,1/2-z
1/2-x,1/2-y,1/2+z
1/2-y,1/2+x,1/2-z
loop_
_atom_site_type_symbol
_atom_site_label
_atom_site_fract_x
_atom_site_fract_y
_atom_site_fract_z
Si Si1 0.068865 0.230279 0.045989
Si Si2 0.274121 0.473000 0.039816
O O1 0.140780 0.377224 0.961241
O O2 0.053020 0.263374 0.267065
O O3 0.909843 0.177435 0.975555
O O4 0.353655 0.595620 0.913749
#
# Coordination Sequence:
#
# PCOD9543121 Si02
#       2
#     8   8
#     4  11  24  43  68  98 132 171 218 269 322 386
#     4  11  24  43  68  98 132 171 218 269 322 386
#
# _framework density 27.365448000000001
#
# number of rings (size 3 to 8) (size 9 to 14) (size 15 to 20)
#    0.000    1.000    0.000    9.000    0.000    7.000 
#    0.000    5.000    0.000   36.000    0.000    0.000 
#    0.000    0.000    0.000    0.000    0.000    0.000 
#
# Total GULP energy -44872.810334 kJ/mol
# GULP energy per Si atom -5609.101292 kJ/mol
# Density = 2.730316 g / cm^3
# Si number density = 27.365448 Si / 1000 Ang^3
#
#
#
# Elastic Constant Matrix: (Units=GPa)
#
#
# Indices 1 2 3 4 5 6 
#
# 1 86.6555 92.6071 8.3504 0.0000 0.0000 -10.0599
# 2 92.6071 86.6555 8.3504 0.0000 0.0000 10.0599
# 3 8.3504 8.3504 44.4383 0.0000 0.0000 0.0000
# 4 0.0000 0.0000 0.0000 37.2938 0.0000 0.0000
# 5 0.0000 0.0000 0.0000 0.0000 37.2938 0.0000
# 6 -10.0599 10.0599 0.0000 0.0000 0.0000 99.1749
#
#
#
# Elastic Compliance Matrix: (Units=1/GPa)
#
#
# Indices 1 2 3 4 5 6 
#
# 1 -0.059720 0.065398 -0.001067 0.000000 0.000000 -0.012691
# 2 0.065398 -0.059720 -0.001067 0.000000 0.000000 0.012691
# 3 -0.001067 -0.001067 0.022904 0.000000 0.000000 0.000000
# 4 0.000000 0.000000 0.000000 0.026814 0.000000 0.000000
# 5 0.000000 0.000000 0.000000 0.000000 0.026814 0.000000
# 6 -0.012691 0.012691 0.000000 0.000000 0.000000 0.007508
#
#
# Mechanical properties :
#
#
# Convention : Reuss Voigt Hill
#
# Bulk Modulus (GPa) = 33.34219 48.48502 40.91360
# Shear Modulus (GPa) = -32.90993 41.98191 4.53599
#
# Velocity S-wave (km/s) = -3.47163 3.92103 1.28886
# Velocity P-wave (km/s) = 1.96446 6.18510 4.14707
#
# Compressibility (1/GPa) = 0.02999203
#
# Stress axis : x y z
#
# Youngs Moduli (GPa) = -16.74481 -16.74481 43.66032
#
# Poissons Ratio (x) = 1.09507 0.04658
# Poissons Ratio (y) = 1.09507 0.04658
# Poissons Ratio (z) = -0.01787 -0.01787
#
# Static dielectric constant tensor:
#      x y z
#    x 2.082810 0.000000 0.000000 
#    y 0.000000 2.082810 0.000000 
#    z 0.000000 0.000000 2.045210 
# 
# From -- ./inp_files/503.got.cif
#   From: 2010.05.17/outbox.cif.g08.bks.cpg/sg82_1_cif.got.tgz:503.got - 2010.06.03 18:52:26.
