data_PCOD9543867
_publ_section_title
;
Structure prediction by ZEFSAII (Michael W. Deem and Ramdas Pophale) SiO2 
 PCOD9543867
Probable space group: P 4/M
;
_chemical_formula_sum "Si O2"
_cell_formula_units_Z 36
_cell_length_a 15.643514
_cell_length_b 15.643514
_cell_length_c 7.479982
_cell_angle_alpha 90.000000
_cell_angle_beta 90.000000
_cell_angle_gamma 90.000000
_cell_volume 1830.497681
_symmetry_space_group_name_H-M "P 4/M"
_symmetry_group_IT_number 83
_symmetry_cell_setting 'tetragonal'
loop_
_space_group_symop_operation_xyz
x,y,z
-y,x,z
-x,-y,z
y,-x,z
-x,-y,-z
y,-x,-z
x,y,-z
-y,x,-z
loop_
_atom_site_type_symbol
_atom_site_label
_atom_site_fract_x
_atom_site_fract_y
_atom_site_fract_z
Si Si1 0.037930 0.713094 0.217809
Si Si2 0.812797 0.414628 0.788198
Si Si3 0.564912 0.081186 0.205659
Si Si4 0.140630 0.025515 0.500000
Si Si5 0.437763 0.378756 0.714732
O O1 0.123430 0.660120 0.271269
O O2 0.035076 0.800222 0.325354
O O3 0.957717 0.653008 0.276007
O O4 0.036659 0.722029 0.000000
O O5 0.843759 0.506919 0.712670
O O6 0.712978 0.400340 0.761875
O O7 0.828538 0.420479 0.000000
O O8 0.500000 0.000000 0.205060
O O9 0.584032 0.104249 0.000000
O O10 0.066451 0.095715 0.500000
O O11 0.536312 0.388413 0.777709
O O12 0.438848 0.382908 0.500000
#
# Coordination Sequence:
#
# PCOD9543867 Si02
#       5
#     8   8   8   4   8
#     4   9  19  39  63  88 118 145 182 240 295 343
#     4   9  17  32  56  85 114 147 188 236 288 335
#     4   7  12  28  53  79 112 146 173 218 284 340
#     4  11  26  46  63  84 114 149 194 235 285 365
#     4   9  19  35  49  68 110 163 201 228 269 324
#
# _framework density 19.666784
#
# number of rings (size 3 to 8) (size 9 to 14) (size 15 to 20)
#    0.000    3.222    0.000    3.333    1.556    1.778 
#    6.000    3.889    0.000    0.000    0.000    0.000 
#    0.000    0.000    0.000    0.000    0.000    0.000 
#
# Total GULP energy -200480.518161 kJ/mol
# GULP energy per Si atom -5568.903282 kJ/mol
# Density = 1.962202 g / cm^3
# Si number density = 19.666784 Si / 1000 Ang^3
#
#
#
# Elastic Constant Matrix: (Units=GPa)
#
#
# Indices 1 2 3 4 5 6 
#
# 1 97.7621 42.4066 29.4119 0.0000 0.0000 2.3961
# 2 42.4066 97.7621 29.4119 0.0000 0.0000 -2.3961
# 3 29.4119 29.4119 74.2720 0.0000 0.0000 0.0000
# 4 0.0000 0.0000 0.0000 48.4174 0.0000 0.0000
# 5 0.0000 0.0000 0.0000 0.0000 48.4174 0.0000
# 6 2.3961 -2.3961 0.0000 0.0000 0.0000 7.3672
#
#
#
# Elastic Compliance Matrix: (Units=1/GPa)
#
#
# Indices 1 2 3 4 5 6 
#
# 1 0.013572 -0.005016 -0.003388 0.000000 0.000000 -0.006046
# 2 -0.005016 0.013572 -0.003388 0.000000 0.000000 0.006046
# 3 -0.003388 -0.003388 0.016148 0.000000 0.000000 0.000000
# 4 0.000000 0.000000 0.000000 0.020654 0.000000 0.000000
# 5 0.000000 0.000000 0.000000 0.000000 0.020654 0.000000
# 6 -0.006046 0.006046 0.000000 0.000000 0.000000 0.139668
#
#
# Mechanical properties :
#
#
# Convention : Reuss Voigt Hill
#
# Bulk Modulus (GPa) = 50.74378 52.47300 51.60839
# Shear Modulus (GPa) = 19.65238 32.07814 25.86526
#
# Velocity S-wave (km/s) = 3.16455 4.04305 3.63047
# Velocity P-wave (km/s) = 6.26181 6.96663 6.62360
#
# Compressibility (1/GPa) = 0.01970685
#
# Stress axis : x y z
#
# Youngs Moduli (GPa) = 73.67945 73.67945 61.92891
#
# Poissons Ratio (x) = 0.36958 0.20983
# Poissons Ratio (y) = 0.36958 0.20983
# Poissons Ratio (z) = 0.24965 0.24965
#
# Static dielectric constant tensor:
#      x y z
#    x 1.698560 0.000000 0.000000 
#    y 0.000000 1.698560 0.000000 
#    z 0.000000 0.000000 1.739670 
# 
# From -- ./inp_files/498.got.cif
#   From: 2010.05.17/outbox.cif.g08.bks.cpg/sg83_1_cif.got.tgz:498.got - 2010.06.03 18:55:12.
