data_PCOD9543115
_publ_section_title
;
Structure prediction by ZEFSAII (Michael W. Deem and Ramdas Pophale) SiO2 
 PCOD9543115
Probable space group: I -4 
;
_chemical_formula_sum "Si O2"
_cell_formula_units_Z 42
_cell_length_a 9.265264
_cell_length_b 9.265264
_cell_length_c 23.243923
_cell_angle_alpha 90.000000
_cell_angle_beta 90.000000
_cell_angle_gamma 90.000000
_cell_volume 1995.377289
_symmetry_space_group_name_H-M "I -4 "
_symmetry_group_IT_number 82
_symmetry_cell_setting 'tetragonal'
loop_
_space_group_symop_operation_xyz
x,y,z
y,-x,-z
-x,-y,z
-y,x,-z
1/2+x,1/2+y,1/2+z
1/2+y,1/2-x,1/2-z
1/2-x,1/2-y,1/2+z
1/2-y,1/2+x,1/2-z
loop_
_atom_site_type_symbol
_atom_site_label
_atom_site_fract_x
_atom_site_fract_y
_atom_site_fract_z
Si Si1 0.486761 0.166551 0.063136
Si Si2 0.500000 0.000000 0.250000
Si Si3 0.728887 0.856087 0.832389
Si Si4 0.500000 0.500000 0.722467
Si Si5 0.000000 0.500000 0.250000
Si Si6 0.310433 0.759983 0.539784
Si Si7 0.000000 0.000000 0.000000
Si Si8 0.752724 0.980802 0.317462
O O1 0.642418 0.216340 0.040269
O O2 0.457560 0.269978 0.118253
O O3 0.500000 0.000000 0.083482
O O4 0.632022 0.831943 0.013297
O O5 0.380831 0.933559 0.290724
O O6 0.599652 0.898437 0.789744
O O7 0.677000 0.858343 0.898518
O O8 0.780252 0.689902 0.824822
O O9 0.861679 0.961852 0.816705
O O10 0.371289 0.486420 0.768456
O O11 0.404598 0.615278 0.534205
#
# Coordination Sequence:
#
# PCOD9543115 Si02
#       8
#     8   2   8   4   2   8   2   8
#     4  11  24  46  68 101 136 182 236 292 349 421
#     4  12  20  40  66  96 128 172 220 282 336 408
#     4  11  25  43  66 101 137 177 225 282 351 413
#     4  12  23  44  66 106 140 175 226 294 346 420
#     4  12  24  44  66  96 140 176 224 286 352 416
#     4  11  26  45  72  99 138 184 237 289 352 423
#     4  12  22  44  68 108 132 182 236 284 350 416
#     4  11  24  41  70  98 135 175 229 283 346 414
#
# _framework density 21.048649999999999
#
# number of rings (size 3 to 8) (size 9 to 14) (size 15 to 20)
#    0.000    0.762    6.667    0.571    1.333    3.429 
#    6.857    0.000    0.000    0.000    0.000    0.000 
#    0.000    0.000    0.000    0.000    0.000    0.000 
#
# Total GULP energy -117165.744538 kJ/mol
# GULP energy per Si atom -5579.321168 kJ/mol
# Density = 2.100074 g / cm^3
# Si number density = 21.048650 Si / 1000 Ang^3
#
#
#
# Elastic Constant Matrix: (Units=GPa)
#
#
# Indices 1 2 3 4 5 6 
#
# 1 59.7409 4.2383 40.1347 0.0000 0.0000 7.7879
# 2 4.2383 59.7409 40.1347 0.0000 0.0000 -7.7879
# 3 40.1347 40.1347 142.0926 0.0000 0.0000 0.0000
# 4 0.0000 0.0000 0.0000 28.7283 0.0000 0.0000
# 5 0.0000 0.0000 0.0000 0.0000 28.7283 0.0000
# 6 7.7879 -7.7879 0.0000 0.0000 0.0000 24.6597
#
#
#
# Elastic Compliance Matrix: (Units=1/GPa)
#
#
# Indices 1 2 3 4 5 6 
#
# 1 0.021989 0.002220 -0.006838 0.000000 0.000000 -0.006243
# 2 0.002220 0.021989 -0.006838 0.000000 0.000000 0.006243
# 3 -0.006838 -0.006838 0.010900 0.000000 0.000000 0.000000
# 4 0.000000 0.000000 0.000000 0.034809 0.000000 0.000000
# 5 0.000000 0.000000 0.000000 0.000000 0.034809 0.000000
# 6 -0.006243 0.006243 0.000000 0.000000 0.000000 0.044496
#
#
# Mechanical properties :
#
#
# Convention : Reuss Voigt Hill
#
# Bulk Modulus (GPa) = 31.28244 47.84329 39.56287
# Shear Modulus (GPa) = 24.68406 28.22772 26.45589
#
# Velocity S-wave (km/s) = 3.42821 3.66604 3.54911
# Velocity P-wave (km/s) = 5.52851 6.37957 5.96923
#
# Compressibility (1/GPa) = 0.03196682
#
# Stress axis : x y z
#
# Youngs Moduli (GPa) = 45.47687 45.47687 91.73903
#
# Poissons Ratio (x) = -0.10095 0.62731
# Poissons Ratio (y) = -0.10095 0.62731
# Poissons Ratio (z) = 0.31097 0.31097
#
# Static dielectric constant tensor:
#      x y z
#    x 1.849900 0.000000 0.000000 
#    y 0.000000 1.849900 0.000000 
#    z 0.000000 0.000000 1.793270 
# 
# From -- ./inp_files/3770.got.cif
#   From: 2010.05.17/outbox.cif.g08.bks.cpg/sg82_2_cif.got.tgz:3770.got - 2010.06.03 18:52:26.
