data_PCOD9543407
_publ_section_title
;
Structure prediction by ZEFSAII (Michael W. Deem and Ramdas Pophale) SiO2 
 PCOD9543407
Probable space group: P 4/M
;
_chemical_formula_sum "Si O2"
_cell_formula_units_Z 40
_cell_length_a 16.313654
_cell_length_b 16.313654
_cell_length_c 8.068064
_cell_angle_alpha 90.000000
_cell_angle_beta 90.000000
_cell_angle_gamma 90.000000
_cell_volume 2147.196688
_symmetry_space_group_name_H-M "P 4/M"
_symmetry_group_IT_number 83
_symmetry_cell_setting 'tetragonal'
loop_
_space_group_symop_operation_xyz
x,y,z
-y,x,z
-x,-y,z
y,-x,z
-x,-y,-z
y,-x,-z
x,y,-z
-y,x,-z
loop_
_atom_site_type_symbol
_atom_site_label
_atom_site_fract_x
_atom_site_fract_y
_atom_site_fract_z
Si Si1 0.676640 0.662533 0.194670
Si Si2 0.937860 0.883401 0.797700
Si Si3 0.284471 0.855886 0.200633
Si Si4 0.916919 0.541426 0.699457
Si Si5 0.507634 0.737771 0.304799
O O1 0.762333 0.701086 0.258152
O O2 0.596235 0.699282 0.277212
O O3 0.686627 0.565146 0.220294
O O4 0.670449 0.680012 0.000000
O O5 0.894648 0.800591 0.740374
O O6 0.032822 0.892412 0.746874
O O7 0.937217 0.882352 0.000000
O O8 0.363382 0.908014 0.254139
O O9 0.283609 0.854185 0.000000
O O10 0.918579 0.535105 0.500000
O O11 0.832020 0.498912 0.756720
O O12 0.000000 0.500000 0.764195
O O13 0.489102 0.738270 0.500000
#
# Coordination Sequence:
#
# PCOD9543407 Si02
#       5
#     8   8   8   8   8
#     4  10  20  34  51  74 103 129 159 205 254 292
#     4   8  14  26  45  70 100 131 162 197 237 283
#     4   9  18  31  49  74 100 127 162 203 245 288
#     4   9  19  35  52  71  98 131 165 201 242 289
#     4  10  20  35  54  74  98 131 169 202 239 295
#
# _framework density 18.628941999999999
#
# number of rings (size 3 to 8) (size 9 to 14) (size 15 to 20)
#    0.000    2.800    0.000    1.800    0.000    4.000 
#    0.000    4.000    0.000    1.200    0.000    1.400 
#    0.000    0.000    0.000    0.000    0.000    0.000 
#
# Total GULP energy -223061.441157 kJ/mol
# GULP energy per Si atom -5576.536029 kJ/mol
# Density = 1.858654 g / cm^3
# Si number density = 18.628942 Si / 1000 Ang^3
#
#
#
# Elastic Constant Matrix: (Units=GPa)
#
#
# Indices 1 2 3 4 5 6 
#
# 1 129.3936 89.0355 -4.7787 0.0000 0.0000 -18.1093
# 2 89.0355 129.3936 -4.7787 0.0000 0.0000 18.1093
# 3 -4.7787 -4.7787 9.2149 0.0000 0.0000 0.0000
# 4 0.0000 0.0000 0.0000 12.8402 0.0000 0.0000
# 5 0.0000 0.0000 0.0000 0.0000 12.8402 0.0000
# 6 -18.1093 18.1093 0.0000 0.0000 0.0000 30.0032
#
#
#
# Elastic Compliance Matrix: (Units=1/GPa)
#
#
# Indices 1 2 3 4 5 6 
#
# 1 0.029373 -0.024689 0.002429 0.000000 0.000000 0.032631
# 2 -0.024689 0.029373 0.002429 0.000000 0.000000 -0.032631
# 3 0.002429 0.002429 0.111039 0.000000 0.000000 0.000000
# 4 0.000000 0.000000 0.000000 0.077880 0.000000 0.000000
# 5 0.000000 0.000000 0.000000 0.000000 0.077880 0.000000
# 6 0.032631 -0.032631 0.000000 0.000000 0.000000 0.072720
#
#
# Mechanical properties :
#
#
# Convention : Reuss Voigt Hill
#
# Bulk Modulus (GPa) = 7.68491 47.43982 27.56236
# Shear Modulus (GPa) = 10.38849 23.70500 17.04675
#
# Velocity S-wave (km/s) = 2.36403 3.57106 3.02829
# Velocity P-wave (km/s) = 3.40378 6.52106 5.20144
#
# Compressibility (1/GPa) = 0.13012512
#
# Stress axis : x y z
#
# Youngs Moduli (GPa) = 34.04460 34.04460 9.00583
#
# Poissons Ratio (x) = 0.84052 -0.02188
# Poissons Ratio (y) = 0.84052 -0.02188
# Poissons Ratio (z) = -0.08270 -0.08270
#
# Static dielectric constant tensor:
#      x y z
#    x 1.626550 0.000000 0.000000 
#    y 0.000000 1.626550 0.000000 
#    z 0.000000 0.000000 1.648240 
# 
# From -- ./inp_files/651.got.cif
#   From: 2010.05.17/outbox.cif.g08.bks.cpg/sg83_1_cif.got.tgz:651.got - 2010.06.03 18:55:12.
