data_PCOD9543068
_publ_section_title
;
Structure prediction by ZEFSAII (Michael W. Deem and Ramdas Pophale) SiO2 
 PCOD9543068
Probable space group: I -4 
;
_chemical_formula_sum "Si O2"
_cell_formula_units_Z 26
_cell_length_a 7.470970
_cell_length_b 7.470970
_cell_length_c 21.348340
_cell_angle_alpha 90.000000
_cell_angle_beta 90.000000
_cell_angle_gamma 90.000000
_cell_volume 1191.565981
_symmetry_space_group_name_H-M "I -4 "
_symmetry_group_IT_number 82
_symmetry_cell_setting 'tetragonal'
loop_
_space_group_symop_operation_xyz
x,y,z
y,-x,-z
-x,-y,z
-y,x,-z
1/2+x,1/2+y,1/2+z
1/2+y,1/2-x,1/2-z
1/2-x,1/2-y,1/2+z
1/2-y,1/2+x,1/2-z
loop_
_atom_site_type_symbol
_atom_site_label
_atom_site_fract_x
_atom_site_fract_y
_atom_site_fract_z
Si Si1 0.952945 0.769191 0.111935
Si Si2 0.934938 0.799143 0.370561
Si Si3 0.111026 0.777836 0.759524
Si Si4 0.500000 0.500000 0.500000
O O1 0.835240 0.592139 0.113444
O O2 0.877673 0.864182 0.174711
O O3 0.169371 0.733825 0.109683
O O4 0.902842 0.870284 0.048488
O O5 0.900300 0.817926 0.296536
O O6 0.000000 0.000000 0.392114
O O7 0.220476 0.591699 0.756642
#
# Coordination Sequence:
#
# PCOD9543068 Si02
#       4
#     8   8   8   2
#     4  11  25  46  71 101 147 195 242 293 371 432
#     4  11  23  45  71 109 138 186 242 311 367 426
#     4  11  22  40  74 112 148 186 238 309 373 434
#     4  12  28  52  68  96 140 200 244 298 360 444
#
# _framework density 21.820024
#
# number of rings (size 3 to 8) (size 9 to 14) (size 15 to 20)
#    0.000    0.923    3.077    3.692    2.154    2.462 
#   11.077    0.000    0.000    0.000    0.000    0.000 
#    0.000    0.000    0.000    0.000    0.000    0.000 
#
# Total GULP energy -72404.686685 kJ/mol
# GULP energy per Si atom -5569.591283 kJ/mol
# Density = 2.177036 g / cm^3
# Si number density = 21.820024 Si / 1000 Ang^3
#
#
#
# Elastic Constant Matrix: (Units=GPa)
#
#
# Indices 1 2 3 4 5 6 
#
# 1 132.5692 27.7417 25.9111 0.0000 0.0000 -10.3535
# 2 27.7417 132.5692 25.9111 0.0000 0.0000 10.3535
# 3 25.9111 25.9111 80.2613 0.0000 0.0000 0.0000
# 4 0.0000 0.0000 0.0000 36.1567 0.0000 0.0000
# 5 0.0000 0.0000 0.0000 0.0000 36.1567 0.0000
# 6 -10.3535 10.3535 0.0000 0.0000 0.0000 44.9448
#
#
#
# Elastic Compliance Matrix: (Units=1/GPa)
#
#
# Indices 1 2 3 4 5 6 
#
# 1 0.008479 -0.001515 -0.002248 0.000000 0.000000 0.002302
# 2 -0.001515 0.008479 -0.002248 0.000000 0.000000 -0.002302
# 3 -0.002248 -0.002248 0.013911 0.000000 0.000000 0.000000
# 4 0.000000 0.000000 0.000000 0.027657 0.000000 0.000000
# 5 0.000000 0.000000 0.000000 0.000000 0.027657 0.000000
# 6 0.002302 -0.002302 0.000000 0.000000 0.000000 0.023310
#
#
# Mechanical properties :
#
#
# Convention : Reuss Voigt Hill
#
# Bulk Modulus (GPa) = 53.05974 56.05864 54.55919
# Shear Modulus (GPa) = 39.12343 41.17401 40.14872
#
# Velocity S-wave (km/s) = 4.23898 4.34865 4.29417
# Velocity P-wave (km/s) = 6.95187 7.13874 7.04592
#
# Compressibility (1/GPa) = 0.01884668
#
# Stress axis : x y z
#
# Youngs Moduli (GPa) = 117.93164 117.93164 71.88528
#
# Poissons Ratio (x) = 0.17864 0.16163
# Poissons Ratio (y) = 0.17864 0.16163
# Poissons Ratio (z) = 0.26516 0.26516
#
# Static dielectric constant tensor:
#      x y z
#    x 1.886090 0.000000 0.000000 
#    y 0.000000 1.886090 0.000000 
#    z 0.000000 0.000000 1.713840 
# 
# From -- ./inp_files/2473.got.cif
#   From: 2010.05.17/outbox.cif.g08.bks.cpg/sg82_2_cif.got.tgz:2473.got - 2010.06.03 18:52:26.
