data_PCOD9543796
_publ_section_title
;
Structure prediction by ZEFSAII (Michael W. Deem and Ramdas Pophale) SiO2 
 PCOD9543796
Probable space group: P 4/M
;
_chemical_formula_sum "Si O2"
_cell_formula_units_Z 41
_cell_length_a 8.346373
_cell_length_b 8.346373
_cell_length_c 27.971392
_cell_angle_alpha 90.000000
_cell_angle_beta 90.000000
_cell_angle_gamma 90.000000
_cell_volume 1948.541494
_symmetry_space_group_name_H-M "P 4/M"
_symmetry_group_IT_number 83
_symmetry_cell_setting 'tetragonal'
loop_
_space_group_symop_operation_xyz
x,y,z
-y,x,z
-x,-y,z
y,-x,z
-x,-y,-z
y,-x,-z
x,y,-z
-y,x,-z
loop_
_atom_site_type_symbol
_atom_site_label
_atom_site_fract_x
_atom_site_fract_y
_atom_site_fract_z
Si Si1 0.500000 0.500000 0.500000
Si Si2 0.751116 0.889828 0.703498
Si Si3 0.083654 0.256763 0.054059
Si Si4 0.000000 0.500000 0.870687
Si Si5 0.755489 0.414600 0.794823
Si Si6 0.575768 0.824492 0.500000
Si Si7 0.758737 0.879431 0.402753
O O1 0.442771 0.685017 0.500000
O O2 0.630690 0.836172 0.744528
O O3 0.687567 0.852638 0.650129
O O4 0.922084 0.797028 0.707882
O O5 0.900392 0.193649 0.058628
O O6 0.105421 0.388679 0.094491
O O7 0.105197 0.319848 0.000000
O O8 0.113752 0.604946 0.836441
O O9 0.695578 0.597877 0.798336
O O10 0.660901 0.825717 0.448205
O O11 0.500000 0.000000 0.500000
O O12 0.931222 0.794198 0.405144
#
# Coordination Sequence:
#
# PCOD9543796 Si02
#       7
#     1   8   8   4   8   4   8
#     4  12  28  44  60 104 140 156 236 268 316 424
#     4   9  19  39  64  89 116 153 205 254 299 371
#     4   9  19  36  58  87 119 150 193 247 298 351
#     4  12  21  36  60  84 114 161 202 240 296 368
#     4  11  24  40  55  83 120 157 200 251 308 361
#     4  12  24  43  62  91 136 174 202 270 326 382
#     4   9  18  37  66  93 120 161 209 252 314 385
#
# _framework density 21.041381000000001
#
# number of rings (size 3 to 8) (size 9 to 14) (size 15 to 20)
#    0.000    1.951    0.000    6.146    0.000    0.780 
#   12.293    1.951    0.000    0.000    0.000    8.195 
#    0.000    0.000    0.000    0.000    0.000    0.000 
#
# Total GULP energy -228775.190090 kJ/mol
# GULP energy per Si atom -5579.882685 kJ/mol
# Density = 2.099349 g / cm^3
# Si number density = 21.041381 Si / 1000 Ang^3
#
#
#
# Elastic Constant Matrix: (Units=GPa)
#
#
# Indices 1 2 3 4 5 6 
#
# 1 42.6263 6.3477 44.8304 0.0000 0.0000 5.9253
# 2 6.3477 42.6263 44.8304 0.0000 0.0000 -5.9253
# 3 44.8304 44.8304 190.5415 0.0000 0.0000 0.0000
# 4 0.0000 0.0000 0.0000 34.3485 0.0000 0.0000
# 5 0.0000 0.0000 0.0000 0.0000 34.3485 0.0000
# 6 5.9253 -5.9253 0.0000 0.0000 0.0000 19.9865
#
#
#
# Elastic Compliance Matrix: (Units=1/GPa)
#
#
# Indices 1 2 3 4 5 6 
#
# 1 0.033195 0.002675 -0.008439 0.000000 0.000000 -0.009048
# 2 0.002675 0.033195 -0.008439 0.000000 0.000000 0.009048
# 3 -0.008439 -0.008439 0.009219 0.000000 0.000000 0.000000
# 4 0.000000 0.000000 0.000000 0.029113 0.000000 0.000000
# 5 0.000000 0.000000 0.000000 0.000000 0.029113 0.000000
# 6 -0.009048 0.009048 0.000000 0.000000 0.000000 0.055398
#
#
# Mechanical properties :
#
#
# Convention : Reuss Voigt Hill
#
# Bulk Modulus (GPa) = 21.18584 51.97901 36.58242
# Shear Modulus (GPa) = 21.42464 29.72239 25.57352
#
# Velocity S-wave (km/s) = 3.19441 3.76249 3.49003
# Velocity P-wave (km/s) = 4.86787 6.60545 5.80208
#
# Compressibility (1/GPa) = 0.04720135
#
# Stress axis : x y z
#
# Youngs Moduli (GPa) = 30.12512 30.12512 108.46656
#
# Poissons Ratio (x) = -0.08058 0.91539
# Poissons Ratio (y) = -0.08058 0.91539
# Poissons Ratio (z) = 0.25424 0.25424
#
# Static dielectric constant tensor:
#      x y z
#    x 1.504400 0.000000 0.000000 
#    y 0.000000 1.504400 0.000000 
#    z 0.000000 0.000000 1.747120 
# 
# From -- ./inp_files/3309.got.cif
#   From: 2010.05.17/outbox.cif.g08.bks.cpg/sg83_2_cif.got.tgz:3309.got - 2010.06.03 18:55:12.
