data_PCOD9543062
_publ_section_title
;
Structure prediction by ZEFSAII (Michael W. Deem and Ramdas Pophale) SiO2 
 PCOD9543062
Probable space group: I -4 
;
_chemical_formula_sum "Si O2"
_cell_formula_units_Z 40
_cell_length_a 15.107426
_cell_length_b 15.107426
_cell_length_c 7.582522
_cell_angle_alpha 90.000000
_cell_angle_beta 90.000000
_cell_angle_gamma 90.000000
_cell_volume 1730.591755
_symmetry_space_group_name_H-M "I -4 "
_symmetry_group_IT_number 82
_symmetry_cell_setting 'tetragonal'
loop_
_space_group_symop_operation_xyz
x,y,z
y,-x,-z
-x,-y,z
-y,x,-z
1/2+x,1/2+y,1/2+z
1/2+y,1/2-x,1/2-z
1/2-x,1/2-y,1/2+z
1/2-y,1/2+x,1/2-z
loop_
_atom_site_type_symbol
_atom_site_label
_atom_site_fract_x
_atom_site_fract_y
_atom_site_fract_z
Si Si1 0.044633 0.377460 0.725774
Si Si2 0.583209 0.733617 0.477151
Si Si3 0.762658 0.885329 0.905769
Si Si4 0.743917 0.548055 0.015338
Si Si5 0.142838 0.216149 0.379091
O O1 0.090355 0.463972 0.650097
O O2 0.989400 0.331452 0.573729
O O3 0.103511 0.311886 0.839619
O O4 0.476602 0.731558 0.484484
O O5 0.637076 0.651090 0.402050
O O6 0.620457 0.740376 0.676011
O O7 0.738264 0.914115 0.708503
O O8 0.697719 0.801932 0.954683
O O9 0.694567 0.453111 0.035138
O O10 0.698553 0.626412 0.904833
#
# Coordination Sequence:
#
# PCOD9543062 Si02
#       5
#     8   8   8   8   8
#     4  11  22  38  62  93 130 170 214 263 316 379
#     4  11  24  41  66  96 128 169 215 261 320 380
#     4  11  23  42  67  95 131 170 212 264 318 378
#     4  11  24  41  66  96 128 169 215 261 320 380
#     4  11  23  42  67  95 131 170 212 264 318 378
#
# _framework density 23.113482000000001
#
# number of rings (size 3 to 8) (size 9 to 14) (size 15 to 20)
#    0.000    1.000    0.000    7.200    0.000    0.800 
#    0.000    4.000    0.000   14.400    0.000    0.000 
#    0.000    0.000    0.000    0.000    0.000    0.000 
#
# Total GULP energy -111587.328227 kJ/mol
# GULP energy per Si atom -5579.366411 kJ/mol
# Density = 2.306087 g / cm^3
# Si number density = 23.113482 Si / 1000 Ang^3
#
#
#
# Elastic Constant Matrix: (Units=GPa)
#
#
# Indices 1 2 3 4 5 6 
#
# 1 122.6957 56.2872 25.0936 0.0000 0.0000 -3.5789
# 2 56.2872 122.6957 25.0936 0.0000 0.0000 3.5789
# 3 25.0936 25.0936 59.4237 0.0000 0.0000 0.0000
# 4 0.0000 0.0000 0.0000 26.2154 0.0000 0.0000
# 5 0.0000 0.0000 0.0000 0.0000 26.2154 0.0000
# 6 -3.5789 3.5789 0.0000 0.0000 0.0000 46.6944
#
#
#
# Elastic Compliance Matrix: (Units=1/GPa)
#
#
# Indices 1 2 3 4 5 6 
#
# 1 0.010761 -0.004423 -0.002676 0.000000 0.000000 0.001164
# 2 -0.004423 0.010761 -0.002676 0.000000 0.000000 -0.001164
# 3 -0.002676 -0.002676 0.019089 0.000000 0.000000 0.000000
# 4 0.000000 0.000000 0.000000 0.038146 0.000000 0.000000
# 5 0.000000 0.000000 0.000000 0.000000 0.038146 0.000000
# 6 0.001164 -0.001164 0.000000 0.000000 0.000000 0.021594
#
#
# Mechanical properties :
#
#
# Convention : Reuss Voigt Hill
#
# Bulk Modulus (GPa) = 47.48629 57.52932 52.50780
# Shear Modulus (GPa) = 30.29093 33.04775 31.66934
#
# Velocity S-wave (km/s) = 3.62405 3.78538 3.70559
# Velocity P-wave (km/s) = 6.17261 6.63697 6.40900
#
# Compressibility (1/GPa) = 0.02105871
#
# Stress axis : x y z
#
# Youngs Moduli (GPa) = 92.93121 92.93121 52.38742
#
# Poissons Ratio (x) = 0.41104 0.14020
# Poissons Ratio (y) = 0.41104 0.14020
# Poissons Ratio (z) = 0.24871 0.24871
#
# Static dielectric constant tensor:
#      x y z
#    x 1.923700 0.000000 0.000000 
#    y 0.000000 1.923700 0.000000 
#    z 0.000000 0.000000 1.929170 
# 
# From -- ./inp_files/963.got.cif
#   From: 2010.05.17/outbox.cif.g08.bks.cpg/sg82_1_cif.got.tgz:963.got - 2010.06.03 18:52:26.
