data_PCOD9543428
_publ_section_title
;
Structure prediction by ZEFSAII (Michael W. Deem and Ramdas Pophale) SiO2 
 PCOD9543428
Probable space group: P 4/M
;
_chemical_formula_sum "Si O2"
_cell_formula_units_Z 36
_cell_length_a 14.617337
_cell_length_b 14.617337
_cell_length_c 9.930061
_cell_angle_alpha 90.000000
_cell_angle_beta 90.000000
_cell_angle_gamma 90.000000
_cell_volume 2121.721786
_symmetry_space_group_name_H-M "P 4/M"
_symmetry_group_IT_number 83
_symmetry_cell_setting 'tetragonal'
loop_
_space_group_symop_operation_xyz
x,y,z
-y,x,z
-x,-y,z
y,-x,z
-x,-y,-z
y,-x,-z
x,y,-z
-y,x,-z
loop_
_atom_site_type_symbol
_atom_site_label
_atom_site_fract_x
_atom_site_fract_y
_atom_site_fract_z
Si Si1 0.336819 0.952931 0.344308
Si Si2 0.645088 0.873498 0.153663
Si Si3 0.653455 0.511669 0.500000
Si Si4 0.204458 0.461617 0.739349
Si Si5 0.809445 0.731627 0.847113
O O1 0.314566 0.968113 0.500000
O O2 0.427587 0.889383 0.333038
O O3 0.263641 0.889802 0.263583
O O4 0.349980 0.044838 0.260361
O O5 0.551102 0.818772 0.176377
O O6 0.730103 0.805093 0.173303
O O7 0.647339 0.908930 0.000000
O O8 0.581369 0.595034 0.500000
O O9 0.718335 0.518429 0.629877
O O10 0.228968 0.371605 0.826161
O O11 0.844392 0.739888 0.000000
#
# Coordination Sequence:
#
# PCOD9543428 Si02
#       5
#     8   8   4   8   8
#     4  10  22  36  55  85 113 149 188 240 286 336
#     4  11  22  35  59  84 113 153 187 236 292 339
#     4  11  22  36  55  82 122 162 195 232 277 335
#     4  10  20  35  56  79 113 147 189 231 275 337
#     4   9  20  37  54  80 115 149 187 232 283 340
#
# _framework density 16.967352000000002
#
# number of rings (size 3 to 8) (size 9 to 14) (size 15 to 20)
#    1.333    0.556    1.111    3.333    1.556    2.667 
#    0.000    0.000    0.000    0.667    0.000   14.000 
#    0.000    0.000    0.000    0.000    0.000    0.000 
#
# Total GULP energy -200485.450772 kJ/mol
# GULP energy per Si atom -5569.040299 kJ/mol
# Density = 1.692873 g / cm^3
# Si number density = 16.967352 Si / 1000 Ang^3
#
#
#
# Elastic Constant Matrix: (Units=GPa)
#
#
# Indices 1 2 3 4 5 6 
#
# 1 80.0169 44.1954 58.0852 0.0000 0.0000 1.3621
# 2 44.1954 80.0169 58.0852 0.0000 0.0000 -1.3621
# 3 58.0852 58.0852 145.6724 0.0000 0.0000 0.0000
# 4 0.0000 0.0000 0.0000 29.3667 0.0000 0.0000
# 5 0.0000 0.0000 0.0000 0.0000 29.3667 0.0000
# 6 1.3621 -1.3621 0.0000 0.0000 0.0000 14.2430
#
#
#
# Elastic Compliance Matrix: (Units=1/GPa)
#
#
# Indices 1 2 3 4 5 6 
#
# 1 0.020480 -0.007641 -0.005119 0.000000 0.000000 -0.002689
# 2 -0.007641 0.020480 -0.005119 0.000000 0.000000 0.002689
# 3 -0.005119 -0.005119 0.010947 0.000000 0.000000 0.000000
# 4 0.000000 0.000000 0.000000 0.034052 0.000000 0.000000
# 5 0.000000 0.000000 0.000000 0.000000 0.034052 0.000000
# 6 -0.002689 0.002689 0.000000 0.000000 0.000000 0.070724
#
#
# Mechanical properties :
#
#
# Convention : Reuss Voigt Hill
#
# Bulk Modulus (GPa) = 61.92964 69.60418 65.76691
# Shear Modulus (GPa) = 21.56321 24.28464 22.92393
#
# Velocity S-wave (km/s) = 3.56879 3.78730 3.67967
# Velocity P-wave (km/s) = 7.31848 7.76121 7.54309
#
# Compressibility (1/GPa) = 0.01614736
#
# Stress axis : x y z
#
# Youngs Moduli (GPa) = 48.82907 48.82907 91.34783
#
# Poissons Ratio (x) = 0.37311 0.46763
# Poissons Ratio (y) = 0.37311 0.46763
# Poissons Ratio (z) = 0.24997 0.24997
#
# Static dielectric constant tensor:
#      x y z
#    x 1.558680 0.000000 0.000000 
#    y 0.000000 1.558680 0.000000 
#    z 0.000000 0.000000 1.574040 
# 
# From -- ./inp_files/567.got.cif
#   From: 2010.05.17/outbox.cif.g08.bks.cpg/sg83_1_cif.got.tgz:567.got - 2010.06.03 18:55:12.
