data_PCOD9543599
_publ_section_title
;
Structure prediction by ZEFSAII (Michael W. Deem and Ramdas Pophale) SiO2 
 PCOD9543599
Probable space group: P 4/M
;
_chemical_formula_sum "Si O2"
_cell_formula_units_Z 44
_cell_length_a 15.565979
_cell_length_b 15.565979
_cell_length_c 12.528334
_cell_angle_alpha 90.000000
_cell_angle_beta 90.000000
_cell_angle_gamma 90.000000
_cell_volume 3035.611598
_symmetry_space_group_name_H-M "P 4/M"
_symmetry_group_IT_number 83
_symmetry_cell_setting 'tetragonal'
loop_
_space_group_symop_operation_xyz
x,y,z
-y,x,z
-x,-y,z
y,-x,z
-x,-y,-z
y,-x,-z
x,y,-z
-y,x,-z
loop_
_atom_site_type_symbol
_atom_site_label
_atom_site_fract_x
_atom_site_fract_y
_atom_site_fract_z
Si Si1 0.066602 0.129117 0.000000
Si Si2 0.740047 0.495798 0.874015
Si Si3 0.311520 0.319895 0.130630
Si Si4 0.068509 0.124608 0.372806
Si Si5 0.568825 0.069510 0.873290
Si Si6 0.873264 0.750946 0.805317
O O1 0.095011 0.184174 0.897514
O O2 0.964333 0.111674 0.000000
O O3 0.689299 0.579886 0.835622
O O4 0.720675 0.401132 0.832244
O O5 0.838760 0.522670 0.863064
O O6 0.720558 0.489679 0.000000
O O7 0.226445 0.273416 0.174535
O O8 0.303992 0.316433 0.000000
O O9 0.075583 0.137364 0.500000
O O10 0.109169 0.200679 0.304879
O O11 0.967273 0.112476 0.346999
O O12 0.660960 0.075496 0.816967
O O13 0.500000 0.000000 0.835501
O O14 0.585602 0.054784 0.000000
#
# Coordination Sequence:
#
# PCOD9543599 Si02
#       6
#     4   8   8   8   8   8
#     4  11  22  30  39  64  96 117 139 178 226 266
#     4   8  15  25  39  56  86 121 154 186 215 259
#     4   9  16  28  41  63  91 120 151 187 224 267
#     4   9  19  35  51  66  86 116 155 193 227 266
#     4   9  17  29  41  61  93 127 155 176 212 276
#     4  11  18  31  46  66  92 119 150 186 222 267
#
# _framework density 14.494607
#
# number of rings (size 3 to 8) (size 9 to 14) (size 15 to 20)
#    0.000    2.636    1.818    2.727    0.000    4.727 
#    0.000    1.818    0.000    0.545    0.000    5.091 
#    0.000    0.000    0.000    6.545    0.000    0.727 
#
# Total GULP energy -244962.157098 kJ/mol
# GULP energy per Si atom -5567.321752 kJ/mol
# Density = 1.446162 g / cm^3
# Si number density = 14.494607 Si / 1000 Ang^3
#
#
#
# Elastic Constant Matrix: (Units=GPa)
#
#
# Indices 1 2 3 4 5 6 
#
# 1 86.4550 60.9904 32.3205 0.0000 0.0000 -19.3644
# 2 60.9904 86.4550 32.3205 0.0000 0.0000 19.3644
# 3 32.3205 32.3205 31.6610 0.0000 0.0000 0.0000
# 4 0.0000 0.0000 0.0000 16.3038 0.0000 0.0000
# 5 0.0000 0.0000 0.0000 0.0000 16.3038 0.0000
# 6 -19.3644 19.3644 0.0000 0.0000 0.0000 13.7049
#
#
#
# Elastic Compliance Matrix: (Units=1/GPa)
#
#
# Indices 1 2 3 4 5 6 
#
# 1 -0.010951 0.023228 -0.012532 0.000000 0.000000 -0.048294
# 2 0.023228 -0.010951 -0.012532 0.000000 0.000000 0.048294
# 3 -0.012532 -0.012532 0.057171 0.000000 0.000000 0.000000
# 4 0.000000 0.000000 0.000000 0.061335 0.000000 0.000000
# 5 0.000000 0.000000 0.000000 0.000000 0.061335 0.000000
# 6 -0.048294 0.048294 0.000000 0.000000 0.000000 -0.063507
#
#
# Mechanical properties :
#
#
# Convention : Reuss Voigt Hill
#
# Bulk Modulus (GPa) = 31.65035 50.64820 41.14927
# Shear Modulus (GPa) = 46.02569 14.52516 30.27543
#
# Velocity S-wave (km/s) = 5.64115 3.16904 4.57523
# Velocity P-wave (km/s) = 8.01957 6.95766 7.50742
#
# Compressibility (1/GPa) = 0.03159523
#
# Stress axis : x y z
#
# Youngs Moduli (GPa) = -91.31178 -91.31178 17.49152
#
# Poissons Ratio (x) = 2.12097 0.21920
# Poissons Ratio (y) = 2.12097 0.21920
# Poissons Ratio (z) = -1.14432 -1.14432
#
# Static dielectric constant tensor:
#      x y z
#    x 1.491470 0.000000 0.000000 
#    y 0.000000 1.491470 0.000000 
#    z 0.000000 0.000000 1.460930 
# 
# From -- ./inp_files/1702.got.cif
#   From: 2010.05.17/outbox.cif.g08.bks.cpg/sg83_1_cif.got.tgz:1702.got - 2010.06.03 18:55:12.
