data_PCOD9543129
_publ_section_title
;
Structure prediction by ZEFSAII (Michael W. Deem and Ramdas Pophale) SiO2 
 PCOD9543129
Probable space group: I -4 
;
_chemical_formula_sum "Si O2"
_cell_formula_units_Z 36
_cell_length_a 12.644583
_cell_length_b 12.644583
_cell_length_c 10.446778
_cell_angle_alpha 90.000000
_cell_angle_beta 90.000000
_cell_angle_gamma 90.000000
_cell_volume 1670.288107
_symmetry_space_group_name_H-M "I -4 "
_symmetry_group_IT_number 82
_symmetry_cell_setting 'tetragonal'
loop_
_space_group_symop_operation_xyz
x,y,z
y,-x,-z
-x,-y,z
-y,x,-z
1/2+x,1/2+y,1/2+z
1/2+y,1/2-x,1/2-z
1/2-x,1/2-y,1/2+z
1/2-y,1/2+x,1/2-z
loop_
_atom_site_type_symbol
_atom_site_label
_atom_site_fract_x
_atom_site_fract_y
_atom_site_fract_z
Si Si1 0.470274 0.142567 0.322953
Si Si2 0.922634 0.864908 0.543629
Si Si3 0.132348 0.621852 0.057433
Si Si4 0.851885 0.866181 0.820446
Si Si5 0.000000 0.500000 0.250000
Si Si6 0.500000 0.500000 0.500000
O O1 0.380877 0.054332 0.292058
O O2 0.539063 0.128940 0.451430
O O3 0.415325 0.255419 0.326950
O O4 0.901260 0.744936 0.506289
O O5 0.860227 0.895285 0.671826
O O6 0.048168 0.884544 0.559683
O O7 0.143208 0.733499 0.129345
O O8 0.096404 0.534996 0.160057
O O9 0.911263 0.949892 0.909519
#
# Coordination Sequence:
#
# PCOD9543129 Si02
#       6
#     8   8   8   8   2   2
#     4  11  24  46  75 107 144 198 251 303 376 454
#     4  11  26  48  72 105 146 195 246 305 380 451
#     4  12  27  47  77 108 148 197 250 311 379 455
#     4  12  26  45  74 109 144 200 239 317 371 451
#     4  12  28  48  70 112 148 196 252 314 360 456
#     4  12  24  48  70 108 156 184 256 302 388 448
#
# _framework density 21.553167999999999
#
# number of rings (size 3 to 8) (size 9 to 14) (size 15 to 20)
#    0.000    0.444    4.444    4.000    3.111    1.778 
#    4.000    0.000    0.000    0.000    0.000    0.000 
#    0.000    0.000    0.000    0.000    0.000    0.000 
#
# Total GULP energy -100692.840318 kJ/mol
# GULP energy per Si atom -5594.046684 kJ/mol
# Density = 2.150411 g / cm^3
# Si number density = 21.553168 Si / 1000 Ang^3
#
#
#
# Elastic Constant Matrix: (Units=GPa)
#
#
# Indices 1 2 3 4 5 6 
#
# 1 76.7784 15.5552 31.2369 0.0000 0.0000 4.1308
# 2 15.5552 76.7784 31.2369 0.0000 0.0000 -4.1308
# 3 31.2369 31.2369 102.2379 0.0000 0.0000 0.0000
# 4 0.0000 0.0000 0.0000 37.7720 0.0000 0.0000
# 5 0.0000 0.0000 0.0000 0.0000 37.7720 0.0000
# 6 4.1308 -4.1308 0.0000 0.0000 0.0000 39.7815
#
#
#
# Elastic Compliance Matrix: (Units=1/GPa)
#
#
# Indices 1 2 3 4 5 6 
#
# 1 0.015109 -0.001457 -0.004171 0.000000 0.000000 -0.001720
# 2 -0.001457 0.015109 -0.004171 0.000000 0.000000 0.001720
# 3 -0.004171 -0.004171 0.012330 0.000000 0.000000 0.000000
# 4 0.000000 0.000000 0.000000 0.026475 0.000000 0.000000
# 5 0.000000 0.000000 0.000000 0.000000 0.026475 0.000000
# 6 -0.001720 0.001720 0.000000 0.000000 0.000000 0.025495
#
#
# Mechanical properties :
#
#
# Convention : Reuss Voigt Hill
#
# Bulk Modulus (GPa) = 43.57283 45.76141 44.66712
# Shear Modulus (GPa) = 33.72892 34.91614 34.32253
#
# Velocity S-wave (km/s) = 3.96019 4.02929 3.99489
# Velocity P-wave (km/s) = 6.41648 6.55171 6.48444
#
# Compressibility (1/GPa) = 0.02295008
#
# Stress axis : x y z
#
# Youngs Moduli (GPa) = 66.18471 66.18471 81.10276
#
# Poissons Ratio (x) = 0.09640 0.33830
# Poissons Ratio (y) = 0.09640 0.33830
# Poissons Ratio (z) = 0.27608 0.27608
#
# Static dielectric constant tensor:
#      x y z
#    x 1.768300 0.000000 0.000000 
#    y 0.000000 1.768300 0.000000 
#    z 0.000000 0.000000 1.812330 
# 
# From -- ./inp_files/1619.got.cif
#   From: 2010.05.17/outbox.cif.g08.bks.cpg/sg82_1_cif.got.tgz:1619.got - 2010.06.03 18:52:26.
