data_PCOD9543857
_publ_section_title
;
Structure prediction by ZEFSAII (Michael W. Deem and Ramdas Pophale) SiO2 
 PCOD9543857
Probable space group: P 4/M
;
_chemical_formula_sum "Si O2"
_cell_formula_units_Z 33
_cell_length_a 8.396601
_cell_length_b 8.396601
_cell_length_c 21.976015
_cell_angle_alpha 90.000000
_cell_angle_beta 90.000000
_cell_angle_gamma 90.000000
_cell_volume 1549.372972
_symmetry_space_group_name_H-M "P 4/M"
_symmetry_group_IT_number 83
_symmetry_cell_setting 'tetragonal'
loop_
_space_group_symop_operation_xyz
x,y,z
-y,x,z
-x,-y,z
y,-x,z
-x,-y,-z
y,-x,-z
x,y,-z
-y,x,-z
loop_
_atom_site_type_symbol
_atom_site_label
_atom_site_fract_x
_atom_site_fract_y
_atom_site_fract_z
Si Si1 0.113580 0.761843 0.630939
Si Si2 0.500000 0.500000 0.500000
Si Si3 0.753101 0.416763 0.741551
Si Si4 0.386662 0.151832 0.500000
Si Si5 0.500000 0.000000 0.836057
Si Si6 0.255418 0.917799 0.930908
O O1 0.175838 0.624976 0.675675
O O2 0.143261 0.715695 0.561353
O O3 0.927667 0.795299 0.642856
O O4 0.498676 0.305605 0.500000
O O5 0.693528 0.597960 0.747767
O O6 0.888037 0.395068 0.792321
O O7 0.500000 0.000000 0.500000
O O8 0.388870 0.895634 0.880329
O O9 0.192246 0.099750 0.924630
O O10 0.316253 0.897342 0.000000
#
# Coordination Sequence:
#
# PCOD9543857 Si02
#       6
#     8   1   8   4   4   8
#     4  11  25  46  70  98 131 171 220 281 342 402
#     4  12  28  44  76 112 132 196 228 284 382 436
#     4  11  26  42  62  91 128 172 222 273 328 402
#     4  12  28  45  72 107 140 173 231 285 349 431
#     4  12  21  38  62  89 126 168 214 268 330 391
#     4   9  19  36  60  91 124 161 209 263 322 393
#
# _framework density 21.298938
#
# number of rings (size 3 to 8) (size 9 to 14) (size 15 to 20)
#    0.000    1.212    0.000    6.182    8.485    0.970 
#    0.000    2.424    0.000    0.000    0.000   10.182 
#    0.000    0.000    0.000    0.000    0.000    0.000 
#
# Total GULP energy -184392.655604 kJ/mol
# GULP energy per Si atom -5587.656230 kJ/mol
# Density = 2.125046 g / cm^3
# Si number density = 21.298938 Si / 1000 Ang^3
#
#
#
# Elastic Constant Matrix: (Units=GPa)
#
#
# Indices 1 2 3 4 5 6 
#
# 1 72.4302 10.1362 28.9476 0.0000 0.0000 3.3283
# 2 10.1362 72.4302 28.9476 0.0000 0.0000 -3.3283
# 3 28.9476 28.9476 134.1702 0.0000 0.0000 0.0000
# 4 0.0000 0.0000 0.0000 17.6536 0.0000 0.0000
# 5 0.0000 0.0000 0.0000 0.0000 17.6536 0.0000
# 6 3.3283 -3.3283 0.0000 0.0000 0.0000 25.5861
#
#
#
# Elastic Compliance Matrix: (Units=1/GPa)
#
#
# Indices 1 2 3 4 5 6 
#
# 1 0.015275 -0.001004 -0.003079 0.000000 0.000000 -0.002118
# 2 -0.001004 0.015275 -0.003079 0.000000 0.000000 0.002118
# 3 -0.003079 -0.003079 0.008782 0.000000 0.000000 0.000000
# 4 0.000000 0.000000 0.000000 0.056646 0.000000 0.000000
# 5 0.000000 0.000000 0.000000 0.000000 0.056646 0.000000
# 6 -0.002118 0.002118 0.000000 0.000000 0.000000 0.039635
#
#
# Mechanical properties :
#
#
# Convention : Reuss Voigt Hill
#
# Bulk Modulus (GPa) = 39.98877 46.12147 43.05512
# Shear Modulus (GPa) = 23.26476 26.24527 24.75502
#
# Velocity S-wave (km/s) = 3.30858 3.51413 3.41290
# Velocity P-wave (km/s) = 5.78025 6.17793 5.98240
#
# Compressibility (1/GPa) = 0.02500702
#
# Stress axis : x y z
#
# Youngs Moduli (GPa) = 65.46738 65.46738 113.87219
#
# Poissons Ratio (x) = 0.06576 0.35060
# Poissons Ratio (y) = 0.06576 0.35060
# Poissons Ratio (z) = 0.20157 0.20157
#
# Static dielectric constant tensor:
#      x y z
#    x 1.813110 0.000000 0.000000 
#    y 0.000000 1.813110 0.000000 
#    z 0.000000 0.000000 1.753090 
# 
# From -- ./inp_files/2893.got.cif
#   From: 2010.05.17/outbox.cif.g08.bks.cpg/sg83_2_cif.got.tgz:2893.got - 2010.06.03 18:55:12.
