data_PCOD9543107
_publ_section_title
;
Structure prediction by ZEFSAII (Michael W. Deem and Ramdas Pophale) SiO2 
 PCOD9543107
Probable space group: I -4 
;
_chemical_formula_sum "Si O2"
_cell_formula_units_Z 18
_cell_length_a 7.783060
_cell_length_b 7.783060
_cell_length_c 11.246985
_cell_angle_alpha 90.000000
_cell_angle_beta 90.000000
_cell_angle_gamma 90.000000
_cell_volume 681.297622
_symmetry_space_group_name_H-M "I -4 "
_symmetry_group_IT_number 82
_symmetry_cell_setting 'tetragonal'
loop_
_space_group_symop_operation_xyz
x,y,z
y,-x,-z
-x,-y,z
-y,x,-z
1/2+x,1/2+y,1/2+z
1/2+y,1/2-x,1/2-z
1/2-x,1/2-y,1/2+z
1/2-y,1/2+x,1/2-z
loop_
_atom_site_type_symbol
_atom_site_label
_atom_site_fract_x
_atom_site_fract_y
_atom_site_fract_z
Si Si1 0.140346 0.127025 0.822612
Si Si2 0.438236 0.281328 0.927121
Si Si3 0.500000 0.000000 0.250000
O O1 0.312372 0.125788 0.901420
O O2 0.054919 0.314841 0.807147
O O3 0.189575 0.045578 0.693462
O O4 0.000000 0.000000 0.871815
O O5 0.302514 0.432392 0.963894
#
# Coordination Sequence:
#
# PCOD9543107 Si02
#       3
#     8   8   2
#     4  12  24  47  94 128 174 243 290 365 453 522
#     4  11  23  52  89 121 178 231 289 373 432 520
#     4  12  20  44  80 120 176 214 288 364 412 520
#
# _framework density 26.420169000000001
#
# number of rings (size 3 to 8) (size 9 to 14) (size 15 to 20)
#    0.000    0.444    8.889    0.000    0.000    0.889 
#    0.000   17.778   29.333    0.000    0.000    0.000 
#    0.000    0.000    0.000    0.000    0.000    0.000 
#
# Total GULP energy -50225.494627 kJ/mol
# GULP energy per Si atom -5580.610514 kJ/mol
# Density = 2.636004 g / cm^3
# Si number density = 26.420169 Si / 1000 Ang^3
#
#
#
# Elastic Constant Matrix: (Units=GPa)
#
#
# Indices 1 2 3 4 5 6 
#
# 1 123.1492 49.4828 44.9552 0.0000 0.0000 15.9985
# 2 49.4828 123.1492 44.9552 0.0000 0.0000 -15.9985
# 3 44.9552 44.9552 105.2601 0.0000 0.0000 0.0000
# 4 0.0000 0.0000 0.0000 26.7850 0.0000 0.0000
# 5 0.0000 0.0000 0.0000 0.0000 26.7850 0.0000
# 6 15.9985 -15.9985 0.0000 0.0000 0.0000 73.4874
#
#
#
# Elastic Compliance Matrix: (Units=1/GPa)
#
#
# Indices 1 2 3 4 5 6 
#
# 1 0.011221 -0.003771 -0.003182 0.000000 0.000000 -0.003264
# 2 -0.003771 0.011221 -0.003182 0.000000 0.000000 0.003264
# 3 -0.003182 -0.003182 0.012218 0.000000 0.000000 0.000000
# 4 0.000000 0.000000 0.000000 0.037334 0.000000 0.000000
# 5 0.000000 0.000000 0.000000 0.000000 0.037334 0.000000
# 6 -0.003264 0.003264 0.000000 0.000000 0.000000 0.015029
#
#
# Mechanical properties :
#
#
# Convention : Reuss Voigt Hill
#
# Bulk Modulus (GPa) = 69.48916 70.03835 69.76375
# Shear Modulus (GPa) = 33.46180 39.55582 36.50881
#
# Velocity S-wave (km/s) = 3.56269 3.87354 3.72136
# Velocity P-wave (km/s) = 6.57893 6.82442 6.70280
#
# Compressibility (1/GPa) = 0.01439073
#
# Stress axis : x y z
#
# Youngs Moduli (GPa) = 89.11801 89.11801 81.84650
#
# Poissons Ratio (x) = 0.33609 0.26041
# Poissons Ratio (y) = 0.33609 0.26041
# Poissons Ratio (z) = 0.28355 0.28355
#
# Static dielectric constant tensor:
#      x y z
#    x 2.124710 0.000000 0.000000 
#    y 0.000000 2.124710 0.000000 
#    z 0.000000 0.000000 2.061130 
# 
# From -- ./inp_files/1296.got.cif
#   From: 2010.05.17/outbox.cif.g08.bks.cpg/sg82_1_cif.got.tgz:1296.got - 2010.06.03 18:52:26.
