data_PCOD9543274
_publ_section_title
;
Structure prediction by ZEFSAII (Michael W. Deem and Ramdas Pophale) SiO2 
 PCOD9543274
Probable space group: P 4/M
;
_chemical_formula_sum "Si O2"
_cell_formula_units_Z 56
_cell_length_a 21.048879
_cell_length_b 21.048879
_cell_length_c 8.868561
_cell_angle_alpha 90.000000
_cell_angle_beta 90.000000
_cell_angle_gamma 90.000000
_cell_volume 3929.263018
_symmetry_space_group_name_H-M "P 4/M"
_symmetry_group_IT_number 83
_symmetry_cell_setting 'tetragonal'
loop_
_space_group_symop_operation_xyz
x,y,z
-y,x,z
-x,-y,z
y,-x,z
-x,-y,-z
y,-x,-z
x,y,-z
-y,x,-z
loop_
_atom_site_type_symbol
_atom_site_label
_atom_site_fract_x
_atom_site_fract_y
_atom_site_fract_z
Si Si1 0.742989 0.840037 0.817988
Si Si2 0.058907 0.147269 0.169533
Si Si3 0.368094 0.080909 0.319297
Si Si4 0.739093 0.160052 0.171480
Si Si5 0.931727 0.636670 0.319692
Si Si6 0.497732 0.923604 0.171218
Si Si7 0.065794 0.845359 0.323670
O O1 0.675795 0.865837 0.758778
O O2 0.772729 0.770542 0.777143
O O3 0.790354 0.890667 0.742763
O O4 0.745529 0.843999 0.000000
O O5 0.113896 0.199724 0.164415
O O6 0.090906 0.084087 0.234146
O O7 0.006070 0.170266 0.284746
O O8 0.033552 0.139887 0.000000
O O9 0.361254 0.084380 0.500000
O O10 0.440457 0.093433 0.268323
O O11 0.351533 0.006682 0.274030
O O12 0.688662 0.119661 0.266575
O O13 0.714752 0.167740 0.000000
O O14 0.932378 0.632712 0.500000
O O15 0.910368 0.569436 0.249358
O O16 0.500000 0.000000 0.161617
O O17 0.501087 0.898432 0.000000
O O18 0.076976 0.853255 0.500000
#
# Coordination Sequence:
#
# PCOD9543274 Si02
#       7
#     8   8   8   8   8   8   8
#     4  10  20  33  46  61  82 110 141 170 205 251
#     4  10  20  34  47  58  74  98 127 161 204 254
#     4  10  19  30  45  66  89 111 139 178 219 255
#     4   9  19  32  45  60  79 105 138 171 202 245
#     4  10  19  29  44  65  88 111 137 174 217 256
#     4   9  17  29  45  64  86 112 140 169 206 255
#     4  11  21  32  45  61  77  94 123 165 209 250
#
# _framework density 14.252036
#
# number of rings (size 3 to 8) (size 9 to 14) (size 15 to 20)
#    0.000    2.143    0.000    5.143    0.000    9.429 
#    0.000    1.429    0.000    0.000    0.000    0.000 
#    0.000    0.000    0.000    0.000    0.000    0.714 
#
# Total GULP energy -311829.263448 kJ/mol
# GULP energy per Si atom -5568.379704 kJ/mol
# Density = 1.421960 g / cm^3
# Si number density = 14.252036 Si / 1000 Ang^3
#
#
#
# Elastic Constant Matrix: (Units=GPa)
#
#
# Indices 1 2 3 4 5 6 
#
# 1 54.2817 28.6262 22.7508 0.0000 0.0000 2.1975
# 2 28.6262 54.2817 22.7508 0.0000 0.0000 -2.1975
# 3 22.7508 22.7508 58.7222 0.0000 0.0000 0.0000
# 4 0.0000 0.0000 0.0000 12.5801 0.0000 0.0000
# 5 0.0000 0.0000 0.0000 0.0000 12.5801 0.0000
# 6 2.1975 -2.1975 0.0000 0.0000 0.0000 13.7645
#
#
#
# Elastic Compliance Matrix: (Units=1/GPa)
#
#
# Indices 1 2 3 4 5 6 
#
# 1 0.027696 -0.012378 -0.005935 0.000000 0.000000 -0.006398
# 2 -0.012378 0.027696 -0.005935 0.000000 0.000000 0.006398
# 3 -0.005935 -0.005935 0.021628 0.000000 0.000000 0.000000
# 4 0.000000 0.000000 0.000000 0.079491 0.000000 0.000000
# 5 0.000000 0.000000 0.000000 0.000000 0.079491 0.000000
# 6 -0.006398 0.006398 0.000000 0.000000 0.000000 0.074693
#
#
# Mechanical properties :
#
#
# Convention : Reuss Voigt Hill
#
# Bulk Modulus (GPa) = 35.05597 35.06015 35.05806
# Shear Modulus (GPa) = 13.56120 13.99547 13.77833
#
# Velocity S-wave (km/s) = 3.08803 3.13708 3.11265
# Velocity P-wave (km/s) = 6.11270 6.14616 6.12945
#
# Compressibility (1/GPa) = 0.02852581
#
# Stress axis : x y z
#
# Youngs Moduli (GPa) = 36.10583 36.10583 46.23607
#
# Poissons Ratio (x) = 0.44690 0.27441
# Poissons Ratio (y) = 0.44690 0.27441
# Poissons Ratio (z) = 0.21429 0.21429
#
# Static dielectric constant tensor:
#      x y z
#    x 1.483310 0.000000 0.000000 
#    y 0.000000 1.483310 0.000000 
#    z 0.000000 0.000000 1.484330 
# 
# From -- ./inp_files/1195.got.cif
#   From: 2010.05.17/outbox.cif.g08.bks.cpg/sg83_1_cif.got.tgz:1195.got - 2010.06.03 18:55:12.
