data_PCOD9543223
_publ_section_title
;
Structure prediction by ZEFSAII (Michael W. Deem and Ramdas Pophale) SiO2 
 PCOD9543223
Probable space group: P 4/M
;
_chemical_formula_sum "Si O2"
_cell_formula_units_Z 36
_cell_length_a 12.402186
_cell_length_b 12.402186
_cell_length_c 13.310054
_cell_angle_alpha 90.000000
_cell_angle_beta 90.000000
_cell_angle_gamma 90.000000
_cell_volume 2047.275542
_symmetry_space_group_name_H-M "P 4/M"
_symmetry_group_IT_number 83
_symmetry_cell_setting 'tetragonal'
loop_
_space_group_symop_operation_xyz
x,y,z
-y,x,z
-x,-y,z
y,-x,z
-x,-y,-z
y,-x,-z
x,y,-z
-y,x,-z
loop_
_atom_site_type_symbol
_atom_site_label
_atom_site_fract_x
_atom_site_fract_y
_atom_site_fract_z
Si Si1 0.298359 0.944058 0.191466
Si Si2 0.180683 0.019385 0.000000
Si Si3 0.000539 0.817773 0.613159
Si Si4 0.184115 0.487180 0.881086
Si Si5 0.715059 0.729824 0.880097
O O1 0.267035 0.993337 0.297276
O O2 0.422004 0.911023 0.173430
O O3 0.241390 0.825895 0.176601
O O4 0.254635 0.014910 0.098856
O O5 0.110709 0.909400 0.000000
O O6 0.000667 0.772316 0.500000
O O7 0.103024 0.896990 0.622517
O O8 0.216517 0.604941 0.844409
O O9 0.282908 0.401221 0.871902
O O10 0.157957 0.493175 0.000000
O O11 0.725643 0.751067 0.000000
#
# Coordination Sequence:
#
# PCOD9543223 Si02
#       5
#     8   4   8   8   8
#     4  10  16  29  43  67  92 116 137 182 220 260
#     4  11  20  28  42  64  85 110 144 182 223 262
#     4   9  18  32  50  69  84 105 144 189 230 267
#     4   8  14  25  42  65  93 120 147 175 208 254
#     4   8  14  25  42  65  93 120 147 175 208 254
#
# _framework density 17.584344999999999
#
# number of rings (size 3 to 8) (size 9 to 14) (size 15 to 20)
#    1.333    1.667    2.222    2.000    0.000    2.222 
#    0.000    2.222    0.000    8.000    0.000    3.111 
#    0.000    1.778    0.000    0.000    0.000    0.000 
#
# Total GULP energy -200429.271174 kJ/mol
# GULP energy per Si atom -5567.479755 kJ/mol
# Density = 1.754432 g / cm^3
# Si number density = 17.584345 Si / 1000 Ang^3
#
#
#
# Elastic Constant Matrix: (Units=GPa)
#
#
# Indices 1 2 3 4 5 6 
#
# 1 50.1034 37.1125 23.4416 0.0000 0.0000 -14.2639
# 2 37.1125 50.1034 23.4416 0.0000 0.0000 14.2639
# 3 23.4416 23.4416 96.7746 0.0000 0.0000 0.0000
# 4 0.0000 0.0000 0.0000 14.3641 0.0000 0.0000
# 5 0.0000 0.0000 0.0000 0.0000 14.3641 0.0000
# 6 -14.2639 14.2639 0.0000 0.0000 0.0000 32.1895
#
#
#
# Elastic Compliance Matrix: (Units=1/GPa)
#
#
# Indices 1 2 3 4 5 6 
#
# 1 1.436648 -1.423466 -0.003193 0.000000 0.000000 1.267380
# 2 -1.423466 1.436648 -0.003193 0.000000 0.000000 -1.267380
# 3 -0.003193 -0.003193 0.011880 0.000000 0.000000 0.000000
# 4 0.000000 0.000000 0.000000 0.069618 0.000000 0.000000
# 5 0.000000 0.000000 0.000000 0.000000 0.069618 0.000000
# 6 1.267380 -1.267380 0.000000 0.000000 0.000000 1.154274
#
#
# Mechanical properties :
#
#
# Convention : Reuss Voigt Hill
#
# Bulk Modulus (GPa) = 39.25837 40.55252 39.90545
# Shear Modulus (GPa) = 0.70953 19.71592 10.21273
#
# Velocity S-wave (km/s) = 0.63591 3.35210 2.41256
# Velocity P-wave (km/s) = 4.78679 6.17202 5.52301
#
# Compressibility (1/GPa) = 0.02547227
#
# Stress axis : x y z
#
# Youngs Moduli (GPa) = 0.69606 0.69606 84.17356
#
# Poissons Ratio (x) = 0.99082 0.26878
# Poissons Ratio (y) = 0.99082 0.26878
# Poissons Ratio (z) = 0.00222 0.00222
#
# Static dielectric constant tensor:
#      x y z
#    x 1.640570 0.000000 0.000000 
#    y 0.000000 1.640570 0.000000 
#    z 0.000000 0.000000 1.568330 
# 
# From -- ./inp_files/1674.got.cif
#   From: 2010.05.17/outbox.cif.g08.bks.cpg/sg83_1_cif.got.tgz:1674.got - 2010.06.03 18:55:12.
