data_PCOD9543807
_publ_section_title
;
Structure prediction by ZEFSAII (Michael W. Deem and Ramdas Pophale) SiO2 
 PCOD9543807
Probable space group: P 4/M
;
_chemical_formula_sum "Si O2"
_cell_formula_units_Z 25
_cell_length_a 8.702132
_cell_length_b 8.702132
_cell_length_c 16.052720
_cell_angle_alpha 90.000000
_cell_angle_beta 90.000000
_cell_angle_gamma 90.000000
_cell_volume 1215.625954
_symmetry_space_group_name_H-M "P 4/M"
_symmetry_group_IT_number 83
_symmetry_cell_setting 'tetragonal'
loop_
_space_group_symop_operation_xyz
x,y,z
-y,x,z
-x,-y,z
y,-x,z
-x,-y,-z
y,-x,-z
x,y,-z
-y,x,-z
loop_
_atom_site_type_symbol
_atom_site_label
_atom_site_fract_x
_atom_site_fract_y
_atom_site_fract_z
Si Si1 0.073041 0.669633 0.000000
Si Si2 0.263321 0.608132 0.650484
Si Si3 0.240172 0.096334 0.500000
Si Si4 0.383459 0.269169 0.838160
Si Si5 0.000000 0.000000 0.000000
O O1 0.165832 0.670449 0.086668
O O2 0.000000 0.500000 0.000000
O O3 0.960639 0.815230 0.000000
O O4 0.304583 0.427681 0.641312
O O5 0.146313 0.664852 0.581160
O O6 0.207260 0.640741 0.744572
O O7 0.081257 0.193015 0.500000
O O8 0.565320 0.302160 0.844823
#
# Coordination Sequence:
#
# PCOD9543807 Si02
#       5
#     4   8   4   8   1
#     4  12  24  43  64  93 138 180 216 268 324 396
#     4   9  19  38  64  91 118 154 209 264 312 375
#     4  11  24  41  54  84 124 165 204 253 326 388
#     4   9  18  37  65  94 124 167 217 266 325 388
#     4  12  28  44  60 104 132 166 236 276 324 384
#
# _framework density 20.565539000000001
#
# number of rings (size 3 to 8) (size 9 to 14) (size 15 to 20)
#    0.000    2.080    0.000    5.760    0.000    5.120 
#   17.280    0.000    0.000    0.000    0.000    0.000 
#    0.000    0.000    0.000    0.000    0.000    0.000 
#
# Total GULP energy -139465.558203 kJ/mol
# GULP energy per Si atom -5578.622328 kJ/mol
# Density = 2.051873 g / cm^3
# Si number density = 20.565539 Si / 1000 Ang^3
#
#
#
# Elastic Constant Matrix: (Units=GPa)
#
#
# Indices 1 2 3 4 5 6 
#
# 1 44.9450 22.8027 44.7787 0.0000 0.0000 -5.6932
# 2 22.8027 44.9450 44.7787 0.0000 0.0000 5.6932
# 3 44.7787 44.7787 156.6969 0.0000 0.0000 0.0000
# 4 0.0000 0.0000 0.0000 2.5733 0.0000 0.0000
# 5 0.0000 0.0000 0.0000 0.0000 2.5733 0.0000
# 6 -5.6932 5.6932 0.0000 0.0000 0.0000 25.8097
#
#
#
# Elastic Compliance Matrix: (Units=1/GPa)
#
#
# Indices 1 2 3 4 5 6 
#
# 1 0.037331 -0.013609 -0.006779 0.000000 0.000000 0.011237
# 2 -0.013609 0.037331 -0.006779 0.000000 0.000000 -0.011237
# 3 -0.006779 -0.006779 0.010256 0.000000 0.000000 0.000000
# 4 0.000000 0.000000 0.000000 0.388604 0.000000 0.000000
# 5 0.000000 0.000000 0.000000 0.000000 0.388604 0.000000
# 6 0.011237 -0.011237 0.000000 0.000000 0.000000 0.043702
#
#
# Mechanical properties :
#
#
# Convention : Reuss Voigt Hill
#
# Bulk Modulus (GPa) = 32.69659 52.36745 42.53202
# Shear Modulus (GPa) = 5.15274 15.13973 10.14623
#
# Velocity S-wave (km/s) = 1.58460 2.71619 2.22358
# Velocity P-wave (km/s) = 4.39103 5.94608 5.22671
#
# Compressibility (1/GPa) = 0.03058423
#
# Stress axis : x y z
#
# Youngs Moduli (GPa) = 26.78722 26.78722 97.50278
#
# Poissons Ratio (x) = 0.36456 0.66096
# Poissons Ratio (y) = 0.36456 0.66096
# Poissons Ratio (z) = 0.18159 0.18159
#
# Static dielectric constant tensor:
#      x y z
#    x 1.737640 0.000000 0.000000 
#    y 0.000000 1.737640 0.000000 
#    z 0.000000 0.000000 1.709600 
# 
# From -- ./inp_files/2537.got.cif
#   From: 2010.05.17/outbox.cif.g08.bks.cpg/sg83_2_cif.got.tgz:2537.got - 2010.06.03 18:55:12.
