data_PCOD9543543
_publ_section_title
;
Structure prediction by ZEFSAII (Michael W. Deem and Ramdas Pophale) SiO2 
 PCOD9543543
Probable space group: P 4/M
;
_chemical_formula_sum "Si O2"
_cell_formula_units_Z 48
_cell_length_a 7.840640
_cell_length_b 7.840640
_cell_length_c 35.114538
_cell_angle_alpha 90.000000
_cell_angle_beta 90.000000
_cell_angle_gamma 90.000000
_cell_volume 2158.688543
_symmetry_space_group_name_H-M "P 4/M"
_symmetry_group_IT_number 83
_symmetry_cell_setting 'tetragonal'
loop_
_space_group_symop_operation_xyz
x,y,z
-y,x,z
-x,-y,z
y,-x,z
-x,-y,-z
y,-x,-z
x,y,-z
-y,x,-z
loop_
_atom_site_type_symbol
_atom_site_label
_atom_site_fract_x
_atom_site_fract_y
_atom_site_fract_z
Si Si1 0.894217 0.267666 0.042313
Si Si2 0.229570 0.405359 0.831350
Si Si3 0.113726 0.732846 0.459312
Si Si4 0.232143 0.594528 0.298739
Si Si5 0.500000 0.000000 0.235621
Si Si6 0.500000 0.000000 0.895626
Si Si7 0.732204 0.892472 0.377116
O O1 0.872655 0.398253 0.076568
O O2 0.093223 0.211487 0.044873
O O3 0.863729 0.340871 0.000000
O O4 0.397226 0.291451 0.832643
O O5 0.124147 0.395512 0.792367
O O6 0.106276 0.379140 0.867272
O O7 0.151225 0.645617 0.500000
O O8 0.146701 0.648449 0.418380
O O9 0.913988 0.786701 0.459298
O O10 0.291361 0.399463 0.295292
O O11 0.154396 0.626022 0.340192
O O12 0.103994 0.621898 0.264080
O O13 0.909865 0.787656 0.375683
#
# Coordination Sequence:
#
# PCOD9543543 Si02
#       7
#     8   8   8   8   4   4   8
#     4   9  18  32  50  76 113 155 197 239 279 317
#     4  10  22  39  58  82 111 140 172 216 274 335
#     4   7  10  19  39  69 104 140 177 216 255 295
#     4  11  23  38  57  80 107 139 173 214 270 330
#     4  11  22  38  61  78  96 130 173 212 254 325
#     4  11  19  32  57  84 110 146 191 232 271 321
#     4   9  17  30  51  81 113 143 179 221 260 305
#
# _framework density 22.235724999999999
#
# number of rings (size 3 to 8) (size 9 to 14) (size 15 to 20)
#    0.000    2.500    0.000    5.250    0.000    1.333 
#    0.000    0.000    0.000   19.500    0.000   13.417 
#    0.000    0.000    0.000    0.000    0.000    0.000 
#
# Total GULP energy -268133.380402 kJ/mol
# GULP energy per Si atom -5586.112092 kJ/mol
# Density = 2.218512 g / cm^3
# Si number density = 22.235725 Si / 1000 Ang^3
#
#
#
# Elastic Constant Matrix: (Units=GPa)
#
#
# Indices 1 2 3 4 5 6 
#
# 1 52.3552 2.6454 33.3067 0.0000 0.0000 -4.4047
# 2 2.6454 52.3552 33.3067 0.0000 0.0000 4.4047
# 3 33.3067 33.3067 211.7130 0.0000 0.0000 0.0000
# 4 0.0000 0.0000 0.0000 -66.6842 0.0000 0.0000
# 5 0.0000 0.0000 0.0000 0.0000 -66.6842 0.0000
# 6 -4.4047 4.4047 0.0000 0.0000 0.0000 16.7795
#
#
#
# Elastic Compliance Matrix: (Units=1/GPa)
#
#
# Indices 1 2 3 4 5 6 
#
# 1 0.021780 0.000682 -0.003534 0.000000 0.000000 0.005538
# 2 0.000682 0.021780 -0.003534 0.000000 0.000000 -0.005538
# 3 -0.003534 -0.003534 0.005835 0.000000 0.000000 0.000000
# 4 0.000000 0.000000 0.000000 -0.014996 0.000000 0.000000
# 5 0.000000 0.000000 0.000000 0.000000 -0.014996 0.000000
# 6 0.005538 -0.005538 0.000000 0.000000 0.000000 0.062504
#
#
# Mechanical properties :
#
#
# Convention : Reuss Voigt Hill
#
# Bulk Modulus (GPa) = 27.30497 50.54898 38.92698
# Shear Modulus (GPa) = 46.77876 -6.84013 19.96932
#
# Velocity S-wave (km/s) = 4.59166 -1.75581 3.00004
# Velocity P-wave (km/s) = 6.35748 4.32112 5.43551
#
# Compressibility (1/GPa) = 0.03662337
#
# Stress axis : x y z
#
# Youngs Moduli (GPa) = 45.91408 45.91408 171.37401
#
# Poissons Ratio (x) = -0.03129 0.60557
# Poissons Ratio (y) = -0.03129 0.60557
# Poissons Ratio (z) = 0.16224 0.16224
#
# Static dielectric constant tensor:
#      x y z
#    x 1.831080 0.000000 0.000000 
#    y 0.000000 1.831080 0.000000 
#    z 0.000000 0.000000 1.844930 
# 
# From -- ./inp_files/3468.got.cif
#   From: 2010.05.17/outbox.cif.g08.bks.cpg/sg83_2_cif.got.tgz:3468.got - 2010.06.03 18:55:12.
