data_PCOD9543826
_publ_section_title
;
Structure prediction by ZEFSAII (Michael W. Deem and Ramdas Pophale) SiO2 
 PCOD9543826
Probable space group: P 4/M
;
_chemical_formula_sum "Si O2"
_cell_formula_units_Z 34
_cell_length_a 8.768467
_cell_length_b 8.768467
_cell_length_c 21.772339
_cell_angle_alpha 90.000000
_cell_angle_beta 90.000000
_cell_angle_gamma 90.000000
_cell_volume 1673.988351
_symmetry_space_group_name_H-M "P 4/M"
_symmetry_group_IT_number 83
_symmetry_cell_setting 'tetragonal'
loop_
_space_group_symop_operation_xyz
x,y,z
-y,x,z
-x,-y,z
y,-x,z
-x,-y,-z
y,-x,-z
x,y,-z
-y,x,-z
loop_
_atom_site_type_symbol
_atom_site_label
_atom_site_fract_x
_atom_site_fract_y
_atom_site_fract_z
Si Si1 0.226688 0.879402 0.933286
Si Si2 0.766804 0.108704 0.569278
Si Si3 0.500000 0.500000 0.178049
Si Si4 0.580102 0.164774 0.187549
Si Si5 0.732591 0.612800 0.318923
O O1 0.317693 0.836377 0.873272
O O2 0.060744 0.802143 0.932029
O O3 0.299034 0.841157 0.000000
O O4 0.707937 0.135842 0.500000
O O5 0.658811 0.169702 0.622313
O O6 0.929625 0.194837 0.575018
O O7 0.473173 0.314068 0.180967
O O8 0.653160 0.183367 0.255333
O O9 0.500000 0.000000 0.187914
O O10 0.567766 0.695234 0.319688
#
# Coordination Sequence:
#
# PCOD9543826 Si02
#       5
#     8   8   2   8   8
#     4   9  20  40  65  96 133 175 231 290 343 417
#     4   9  21  41  64  94 130 169 222 282 337 408
#     4  12  24  48  61 100 149 168 232 306 320 420
#     4  12  24  41  68  93 135 187 224 281 364 408
#     4  11  24  42  62  91 133 172 219 282 336 403
#
# _framework density 20.310772
#
# number of rings (size 3 to 8) (size 9 to 14) (size 15 to 20)
#    0.000    1.647    2.353    2.824    3.294    1.412 
#    0.000    7.647    0.000    0.000    0.000    0.000 
#    0.000    0.000    0.000    0.000    0.000    0.000 
#
# Total GULP energy -189308.613154 kJ/mol
# GULP energy per Si atom -5567.900387 kJ/mol
# Density = 2.026454 g / cm^3
# Si number density = 20.310772 Si / 1000 Ang^3
#
#
#
# Elastic Constant Matrix: (Units=GPa)
#
#
# Indices 1 2 3 4 5 6 
#
# 1 67.8575 28.7193 57.2597 0.0000 0.0000 -19.9966
# 2 28.7193 67.8575 57.2597 0.0000 0.0000 19.9966
# 3 57.2597 57.2597 203.2610 0.0000 0.0000 0.0000
# 4 0.0000 0.0000 0.0000 24.9520 0.0000 0.0000
# 5 0.0000 0.0000 0.0000 0.0000 24.9520 0.0000
# 6 -19.9966 19.9966 0.0000 0.0000 0.0000 79.6950
#
#
#
# Elastic Compliance Matrix: (Units=1/GPa)
#
#
# Indices 1 2 3 4 5 6 
#
# 1 0.024954 -0.009406 -0.004380 0.000000 0.000000 0.008622
# 2 -0.009406 0.024954 -0.004380 0.000000 0.000000 -0.008622
# 3 -0.004380 -0.004380 0.007388 0.000000 0.000000 0.000000
# 4 0.000000 0.000000 0.000000 0.040077 0.000000 0.000000
# 5 0.000000 0.000000 0.000000 0.000000 0.040077 0.000000
# 6 0.008622 -0.008622 0.000000 0.000000 0.000000 0.016874
#
#
# Mechanical properties :
#
#
# Convention : Reuss Voigt Hill
#
# Bulk Modulus (GPa) = 47.70108 69.49481 58.59795
# Shear Modulus (GPa) = 25.29796 38.96898 32.13347
#
# Velocity S-wave (km/s) = 3.53306 4.38498 3.98186
# Velocity P-wave (km/s) = 6.33876 7.74128 7.07486
#
# Compressibility (1/GPa) = 0.02096389
#
# Stress axis : x y z
#
# Youngs Moduli (GPa) = 40.07326 40.07326 135.36336
#
# Poissons Ratio (x) = 0.37693 0.59289
# Poissons Ratio (y) = 0.37693 0.59289
# Poissons Ratio (z) = 0.17552 0.17552
#
# Static dielectric constant tensor:
#      x y z
#    x 1.731890 0.000000 0.000000 
#    y 0.000000 1.731890 0.000000 
#    z 0.000000 0.000000 1.741430 
# 
# From -- ./inp_files/2836.got.cif
#   From: 2010.05.17/outbox.cif.g08.bks.cpg/sg83_2_cif.got.tgz:2836.got - 2010.06.03 18:55:12.
