data_PCOD9543148
_publ_section_title
;
Structure prediction by ZEFSAII (Michael W. Deem and Ramdas Pophale) SiO2 
 PCOD9543148
Probable space group: I -4 
;
_chemical_formula_sum "Si O2"
_cell_formula_units_Z 40
_cell_length_a 15.537596
_cell_length_b 15.537596
_cell_length_c 7.849418
_cell_angle_alpha 90.000000
_cell_angle_beta 90.000000
_cell_angle_gamma 90.000000
_cell_volume 1894.982078
_symmetry_space_group_name_H-M "I -4 "
_symmetry_group_IT_number 82
_symmetry_cell_setting 'tetragonal'
loop_
_space_group_symop_operation_xyz
x,y,z
y,-x,-z
-x,-y,z
-y,x,-z
1/2+x,1/2+y,1/2+z
1/2+y,1/2-x,1/2-z
1/2-x,1/2-y,1/2+z
1/2-y,1/2+x,1/2-z
loop_
_atom_site_type_symbol
_atom_site_label
_atom_site_fract_x
_atom_site_fract_y
_atom_site_fract_z
Si Si1 0.641512 0.780455 0.906021
Si Si2 0.314509 0.379085 0.405849
Si Si3 0.624511 0.073355 0.256688
Si Si4 0.753125 0.433448 0.442549
Si Si5 0.399278 0.595895 0.954018
O O1 0.735072 0.816846 0.861175
O O2 0.580136 0.793357 0.743287
O O3 0.607603 0.830242 0.072705
O O4 0.641402 0.679659 0.951275
O O5 0.372880 0.330293 0.542365
O O6 0.275794 0.468803 0.467651
O O7 0.371954 0.397415 0.239776
O O8 0.529767 0.112922 0.235487
O O9 0.682846 0.093159 0.092988
O O10 0.493107 0.614814 0.031672
#
# Coordination Sequence:
#
# PCOD9543148 Si02
#       5
#     8   8   8   8   8
#     4  12  26  48  76 109 150 195 247 308 374 444
#     4  12  27  49  71 111 145 197 246 310 368 445
#     4  11  26  48  76 111 152 196 244 305 372 446
#     4  12  28  45  77 108 148 191 249 305 373 447
#     4  11  25  47  75 108 147 197 244 308 375 437
#
# _framework density 21.108378999999999
#
# number of rings (size 3 to 8) (size 9 to 14) (size 15 to 20)
#    0.000    0.400    6.000    1.200    5.600    2.000 
#    0.000    2.000    0.000    0.000    0.000    0.000 
#    0.000    0.000    0.000    0.000    0.000    0.000 
#
# Total GULP energy -111978.376472 kJ/mol
# GULP energy per Si atom -5598.918824 kJ/mol
# Density = 2.106034 g / cm^3
# Si number density = 21.108379 Si / 1000 Ang^3
#
#
#
# Elastic Constant Matrix: (Units=GPa)
#
#
# Indices 1 2 3 4 5 6 
#
# 1 78.1649 17.5076 0.5094 0.0000 0.0000 4.2167
# 2 17.5076 78.1649 0.5094 0.0000 0.0000 -4.2167
# 3 0.5094 0.5094 115.2803 0.0000 0.0000 0.0000
# 4 0.0000 0.0000 0.0000 25.4063 0.0000 0.0000
# 5 0.0000 0.0000 0.0000 0.0000 25.4063 0.0000
# 6 4.2167 -4.2167 0.0000 0.0000 0.0000 13.3520
#
#
#
# Elastic Compliance Matrix: (Units=1/GPa)
#
#
# Indices 1 2 3 4 5 6 
#
# 1 0.013848 -0.003395 -0.000046 0.000000 0.000000 -0.005446
# 2 -0.003395 0.013848 -0.000046 0.000000 0.000000 0.005446
# 3 -0.000046 -0.000046 0.008675 0.000000 0.000000 0.000000
# 4 0.000000 0.000000 0.000000 0.039360 0.000000 0.000000
# 5 0.000000 0.000000 0.000000 0.000000 0.039360 0.000000
# 6 -0.005446 0.005446 0.000000 0.000000 0.000000 0.078335
#
#
# Mechanical properties :
#
#
# Convention : Reuss Voigt Hill
#
# Bulk Modulus (GPa) = 34.01847 34.29588 34.15718
# Shear Modulus (GPa) = 23.78687 29.70516 26.74602
#
# Velocity S-wave (km/s) = 3.36056 3.75543 3.56347
# Velocity P-wave (km/s) = 5.58650 5.92344 5.75743
#
# Compressibility (1/GPa) = 0.02939579
#
# Stress axis : x y z
#
# Youngs Moduli (GPa) = 72.21255 72.21255 115.27485
#
# Poissons Ratio (x) = 0.24518 0.00532
# Poissons Ratio (y) = 0.24518 0.00532
# Poissons Ratio (z) = 0.00334 0.00334
#
# Static dielectric constant tensor:
#      x y z
#    x 1.741710 0.000000 0.000000 
#    y 0.000000 1.741710 0.000000 
#    z 0.000000 0.000000 1.731840 
# 
# From -- ./inp_files/933.got.cif
#   From: 2010.05.17/outbox.cif.g08.bks.cpg/sg82_1_cif.got.tgz:933.got - 2010.06.03 18:52:26.
