data_PCOD9543992
_publ_section_title
;
Structure prediction by ZEFSAII (Michael W. Deem and Ramdas Pophale) SiO2 
 PCOD9543992
Probable space group: P 42/M
;
_chemical_formula_sum "Si O2"
_cell_formula_units_Z 48
_cell_length_a 17.313257
_cell_length_b 17.313257
_cell_length_c 8.773936
_cell_angle_alpha 90.000000
_cell_angle_beta 90.000000
_cell_angle_gamma 90.000000
_cell_volume 2629.977383
_symmetry_space_group_name_H-M "P 42/M"
_symmetry_group_IT_number 84
_symmetry_cell_setting 'tetragonal'
loop_
_space_group_symop_operation_xyz
x,y,z
-y,x,1/2+z
-x,-y,z
y,-x,1/2+z
-x,-y,-z
y,-x,1/2-z
x,y,-z
-y,x,1/2-z
loop_
_atom_site_type_symbol
_atom_site_label
_atom_site_fract_x
_atom_site_fract_y
_atom_site_fract_z
Si Si1 0.023446 0.105994 0.829909
Si Si2 0.729013 0.822946 0.316022
Si Si3 0.002377 0.713745 0.176201
Si Si4 0.578192 0.285166 0.682300
Si Si5 0.689991 0.156856 0.182433
Si Si6 0.599691 0.696366 0.682944
O O1 0.937322 0.076295 0.791807
O O2 0.021731 0.196686 0.822818
O O3 0.046618 0.081930 0.000000
O O4 0.737054 0.830620 0.500000
O O5 0.714551 0.910160 0.259113
O O6 0.803152 0.771766 0.264254
O O7 0.655001 0.769369 0.283448
O O8 0.930389 0.675877 0.262218
O O9 0.004652 0.686442 0.000000
O O10 0.582726 0.277969 0.500000
O O11 0.623690 0.213794 0.756984
O O12 0.488522 0.288982 0.726910
O O13 0.623309 0.361654 0.735860
O O14 0.691316 0.158725 0.000000
O O15 0.603000 0.684421 0.500000
#
# Coordination Sequence:
#
# PCOD9543992 Si02
#       6
#     8   8   8   8   8   8
#     4  10  19  29  42  63  92 125 164 214 270 322
#     4   8  16  33  53  71  97 135 175 213 256 308
#     4  10  19  31  49  71  94 127 175 221 258 305
#     4  10  20  35  57  83 109 137 172 212 254 308
#     4  10  20  35  54  75 104 140 175 215 266 316
#     4   9  19  36  57  81 109 141 173 208 258 313
#
# _framework density 18.251107999999999
#
# number of rings (size 3 to 8) (size 9 to 14) (size 15 to 20)
#    0.000    2.500    0.000    4.000    0.000    4.333 
#    0.000    6.667    0.000    5.000    0.000    0.000 
#    0.000    0.000    0.000    0.000    0.000    0.000 
#
# Total GULP energy -267515.457959 kJ/mol
# GULP energy per Si atom -5573.238707 kJ/mol
# Density = 1.820957 g / cm^3
# Si number density = 18.251108 Si / 1000 Ang^3
#
#
#
# Elastic Constant Matrix: (Units=GPa)
#
#
# Indices 1 2 3 4 5 6 
#
# 1 107.2824 29.0444 21.9289 0.0000 0.0000 0.8946
# 2 29.0444 107.2824 21.9289 0.0000 0.0000 -0.8946
# 3 21.9289 21.9289 31.9076 0.0000 0.0000 0.0000
# 4 0.0000 0.0000 0.0000 23.3534 0.0000 0.0000
# 5 0.0000 0.0000 0.0000 0.0000 23.3534 0.0000
# 6 0.8946 -0.8946 0.0000 0.0000 0.0000 1.1304
#
#
#
# Elastic Compliance Matrix: (Units=1/GPa)
#
#
# Indices 1 2 3 4 5 6 
#
# 1 0.011217 -0.001800 -0.006472 0.000000 0.000000 -0.010301
# 2 -0.001800 0.011217 -0.006472 0.000000 0.000000 0.010301
# 3 -0.006472 -0.006472 0.040237 0.000000 0.000000 0.000000
# 4 0.000000 0.000000 0.000000 0.042820 0.000000 0.000000
# 5 0.000000 0.000000 0.000000 0.000000 0.042820 0.000000
# 6 -0.010301 0.010301 0.000000 0.000000 0.000000 0.900952
#
#
# Mechanical properties :
#
#
# Convention : Reuss Voigt Hill
#
# Bulk Modulus (GPa) = 30.13620 43.58630 36.86125
# Shear Modulus (GPa) = 4.58794 21.13879 12.86336
#
# Velocity S-wave (km/s) = 1.58721 3.40695 2.65769
# Velocity P-wave (km/s) = 4.46171 6.27772 5.44594
#
# Compressibility (1/GPa) = 0.03318269
#
# Stress axis : x y z
#
# Youngs Moduli (GPa) = 89.14803 89.14803 24.85283
#
# Poissons Ratio (x) = 0.16045 0.16086
# Poissons Ratio (y) = 0.16045 0.16086
# Poissons Ratio (z) = 0.57699 0.57699
#
# Static dielectric constant tensor:
#      x y z
#    x 1.637080 0.000000 0.000000 
#    y 0.000000 1.637080 0.000000 
#    z 0.000000 0.000000 1.638670 
# 
# From -- ./inp_files/991.got.cif
#   From: 2010.05.17/outbox.cif.g08.bks.cpg/sg84_1_cif.got.tgz:991.got - 2010.06.03 18:57:40.
