data_PCOD9543616
_publ_section_title
;
Structure prediction by ZEFSAII (Michael W. Deem and Ramdas Pophale) SiO2 
 PCOD9543616
Probable space group: P 4/M
;
_chemical_formula_sum "Si O2"
_cell_formula_units_Z 60
_cell_length_a 11.302587
_cell_length_b 11.302587
_cell_length_c 23.094818
_cell_angle_alpha 90.000000
_cell_angle_beta 90.000000
_cell_angle_gamma 90.000000
_cell_volume 2950.327731
_symmetry_space_group_name_H-M "P 4/M"
_symmetry_group_IT_number 83
_symmetry_cell_setting 'tetragonal'
loop_
_space_group_symop_operation_xyz
x,y,z
-y,x,z
-x,-y,z
y,-x,z
-x,-y,-z
y,-x,-z
x,y,-z
-y,x,-z
loop_
_atom_site_type_symbol
_atom_site_label
_atom_site_fract_x
_atom_site_fract_y
_atom_site_fract_z
Si Si1 0.839694 0.113495 0.568895
Si Si2 0.669103 0.397405 0.061013
Si Si3 0.321343 0.905805 0.881627
Si Si4 0.142554 0.531154 0.710493
Si Si5 0.181320 0.912660 0.000000
Si Si6 0.167902 0.899330 0.774014
Si Si7 0.767481 0.720303 0.670617
Si Si8 0.846705 0.415079 0.848268
O O1 0.822061 0.125498 0.500000
O O2 0.745248 0.185169 0.606278
O O3 0.972934 0.159299 0.582411
O O4 0.652942 0.538148 0.059825
O O5 0.730441 0.366605 0.120832
O O6 0.731162 0.364343 0.000000
O O7 0.249413 0.859196 0.826392
O O8 0.456216 0.865358 0.877150
O O9 0.334406 0.046126 0.869710
O O10 0.256112 0.885292 0.942097
O O11 0.206287 0.645406 0.680887
O O12 0.220253 0.417032 0.690286
O O13 0.151537 0.561425 0.779448
O O14 0.000000 0.500000 0.699818
O O15 0.053815 0.848630 0.000000
O O16 0.220006 0.862551 0.713190
O O17 0.038904 0.845319 0.778059
#
# Coordination Sequence:
#
# PCOD9543616 Si02
#       8
#     8   8   8   8   4   8   8   8
#     4   9  18  36  66 107 148 184 232 291 346 402
#     4   9  21  39  57  80 106 139 194 258 316 384
#     4  11  23  40  58  81 117 158 195 262 342 408
#     4  12  25  45  65  99 136 176 234 295 338 419
#     4  11  26  43  58  84 118 153 206 275 350 444
#     4  11  21  36  62  91 117 157 215 272 338 409
#     4  12  24  41  68  95 139 187 226 279 346 397
#     4  11  23  39  60  83 119 154 208 262 336 400
#
# _framework density 20.336724
#
# number of rings (size 3 to 8) (size 9 to 14) (size 15 to 20)
#    0.000    1.267    2.667    4.800    3.733    5.067 
#    0.000    0.667    0.000    2.400    0.000    0.933 
#    0.000    0.000    0.000    0.000    0.000    0.000 
#
# Total GULP energy -335080.590342 kJ/mol
# GULP energy per Si atom -5584.676506 kJ/mol
# Density = 2.029044 g / cm^3
# Si number density = 20.336724 Si / 1000 Ang^3
#
#
#
# Elastic Constant Matrix: (Units=GPa)
#
#
# Indices 1 2 3 4 5 6 
#
# 1 114.4298 -16.9906 28.7406 0.0000 0.0000 21.1507
# 2 -16.9906 114.4298 28.7406 0.0000 0.0000 -21.1507
# 3 28.7406 28.7406 85.7377 0.0000 0.0000 0.0000
# 4 0.0000 0.0000 0.0000 24.8024 0.0000 0.0000
# 5 0.0000 0.0000 0.0000 0.0000 24.8024 0.0000
# 6 21.1507 -21.1507 0.0000 0.0000 0.0000 18.5989
#
#
#
# Elastic Compliance Matrix: (Units=1/GPa)
#
#
# Indices 1 2 3 4 5 6 
#
# 1 0.012398 0.000395 -0.004288 0.000000 0.000000 -0.013649
# 2 0.000395 0.012398 -0.004288 0.000000 0.000000 0.013649
# 3 -0.004288 -0.004288 0.014538 0.000000 0.000000 0.000000
# 4 0.000000 0.000000 0.000000 0.040319 0.000000 0.000000
# 5 0.000000 0.000000 0.000000 0.000000 0.040319 0.000000
# 6 -0.013649 0.013649 0.000000 0.000000 0.000000 0.084811
#
#
# Mechanical properties :
#
#
# Convention : Reuss Voigt Hill
#
# Bulk Modulus (GPa) = 43.53408 43.95316 43.74362
# Shear Modulus (GPa) = 21.85293 31.91452 26.88373
#
# Velocity S-wave (km/s) = 3.28160 3.96574 3.63978
# Velocity P-wave (km/s) = 5.98428 6.52910 6.26262
#
# Compressibility (1/GPa) = 0.02297051
#
# Stress axis : x y z
#
# Youngs Moduli (GPa) = 80.66081 80.66081 68.78308
#
# Poissons Ratio (x) = -0.03186 0.29496
# Poissons Ratio (y) = -0.03186 0.29496
# Poissons Ratio (z) = 0.34589 0.34589
#
# Static dielectric constant tensor:
#      x y z
#    x 1.767540 0.000000 0.000000 
#    y 0.000000 1.767540 0.000000 
#    z 0.000000 0.000000 1.703610 
# 
# From -- ./inp_files/3051.got.cif
#   From: 2010.05.17/outbox.cif.g08.bks.cpg/sg83_2_cif.got.tgz:3051.got - 2010.06.03 18:55:12.
