data_PCOD9543094
_publ_section_title
;
Structure prediction by ZEFSAII (Michael W. Deem and Ramdas Pophale) SiO2 
 PCOD9543094
Probable space group: I -4 
;
_chemical_formula_sum "Si O2"
_cell_formula_units_Z 36
_cell_length_a 13.268330
_cell_length_b 13.268330
_cell_length_c 9.463552
_cell_angle_alpha 90.000000
_cell_angle_beta 90.000000
_cell_angle_gamma 90.000000
_cell_volume 1666.044901
_symmetry_space_group_name_H-M "I -4 "
_symmetry_group_IT_number 82
_symmetry_cell_setting 'tetragonal'
loop_
_space_group_symop_operation_xyz
x,y,z
y,-x,-z
-x,-y,z
-y,x,-z
1/2+x,1/2+y,1/2+z
1/2+y,1/2-x,1/2-z
1/2-x,1/2-y,1/2+z
1/2-y,1/2+x,1/2-z
loop_
_atom_site_type_symbol
_atom_site_label
_atom_site_fract_x
_atom_site_fract_y
_atom_site_fract_z
Si Si1 0.000000 0.500000 0.443966
Si Si2 0.194131 0.815759 0.560757
Si Si3 0.286694 0.335220 0.625734
Si Si4 0.492931 0.229420 0.532341
Si Si5 0.525259 0.231333 0.851432
O O1 0.888348 0.492218 0.512670
O O2 0.999701 0.611689 0.369546
O O3 0.296476 0.801783 0.474496
O O4 0.185614 0.762313 0.712186
O O5 0.197034 0.931622 0.607900
O O6 0.111759 0.771213 0.454514
O O7 0.383109 0.272545 0.571406
O O8 0.294786 0.452436 0.587402
O O9 0.548031 0.240845 0.685097
#
# Coordination Sequence:
#
# PCOD9543094 Si02
#       5
#     4   8   8   8   8
#     4  12  21  40  69  94 125 168 213 258 317 380
#     4  11  24  41  64  95 130 167 209 262 318 376
#     4  11  24  41  64  95 130 167 209 262 318 376
#     4  11  23  42  67  92 125 169 212 258 316 379
#     4  11  23  42  67  92 125 169 212 258 316 379
#
# _framework density 21.608060999999999
#
# number of rings (size 3 to 8) (size 9 to 14) (size 15 to 20)
#    0.000    0.889    4.444    3.333    0.000    4.444 
#    0.000    5.556    0.000    0.000    0.000    0.000 
#    0.000    0.000    0.000    0.000    0.000    0.000 
#
# Total GULP energy -100280.623205 kJ/mol
# GULP energy per Si atom -5571.145734 kJ/mol
# Density = 2.155888 g / cm^3
# Si number density = 21.608061 Si / 1000 Ang^3
#
#
#
# Elastic Constant Matrix: (Units=GPa)
#
#
# Indices 1 2 3 4 5 6 
#
# 1 58.6035 18.3243 22.2086 0.0000 0.0000 5.3582
# 2 18.3243 58.6035 22.2086 0.0000 0.0000 -5.3582
# 3 22.2086 22.2086 76.5237 0.0000 0.0000 0.0000
# 4 0.0000 0.0000 0.0000 29.7858 0.0000 0.0000
# 5 0.0000 0.0000 0.0000 0.0000 29.7858 0.0000
# 6 5.3582 -5.3582 0.0000 0.0000 0.0000 37.4915
#
#
#
# Elastic Compliance Matrix: (Units=1/GPa)
#
#
# Indices 1 2 3 4 5 6 
#
# 1 0.020712 -0.005096 -0.004532 0.000000 0.000000 -0.003688
# 2 -0.005096 0.020712 -0.004532 0.000000 0.000000 0.003688
# 3 -0.004532 -0.004532 0.015698 0.000000 0.000000 0.000000
# 4 0.000000 0.000000 0.000000 0.033573 0.000000 0.000000
# 5 0.000000 0.000000 0.000000 0.000000 0.033573 0.000000
# 6 -0.003688 0.003688 0.000000 0.000000 0.000000 0.027727
#
#
# Mechanical properties :
#
#
# Convention : Reuss Voigt Hill
#
# Bulk Modulus (GPa) = 34.71963 35.46820 35.09391
# Shear Modulus (GPa) = 26.32736 28.14522 27.23629
#
# Velocity S-wave (km/s) = 3.49435 3.61298 3.55416
# Velocity P-wave (km/s) = 5.69065 5.81849 5.75492
#
# Compressibility (1/GPa) = 0.02880215
#
# Stress axis : x y z
#
# Youngs Moduli (GPa) = 48.28117 48.28117 63.70067
#
# Poissons Ratio (x) = 0.24604 0.28869
# Poissons Ratio (y) = 0.24604 0.28869
# Poissons Ratio (z) = 0.21881 0.21881
#
# Static dielectric constant tensor:
#      x y z
#    x 1.841910 0.000000 0.000000 
#    y 0.000000 1.841910 0.000000 
#    z 0.000000 0.000000 1.791280 
# 
# From -- ./inp_files/835.got.cif
#   From: 2010.05.17/outbox.cif.g08.bks.cpg/sg82_1_cif.got.tgz:835.got - 2010.06.03 18:52:26.
