data_PCOD9543550
_publ_section_title
;
Structure prediction by ZEFSAII (Michael W. Deem and Ramdas Pophale) SiO2 
 PCOD9543550
Probable space group: P 4/M
;
_chemical_formula_sum "Si O2"
_cell_formula_units_Z 28
_cell_length_a 7.478705
_cell_length_b 7.478705
_cell_length_c 20.871265
_cell_angle_alpha 90.000000
_cell_angle_beta 90.000000
_cell_angle_gamma 90.000000
_cell_volume 1167.351317
_symmetry_space_group_name_H-M "P 4/M"
_symmetry_group_IT_number 83
_symmetry_cell_setting 'tetragonal'
loop_
_space_group_symop_operation_xyz
x,y,z
-y,x,z
-x,-y,z
y,-x,z
-x,-y,-z
y,-x,-z
x,y,-z
-y,x,-z
loop_
_atom_site_type_symbol
_atom_site_label
_atom_site_fract_x
_atom_site_fract_y
_atom_site_fract_z
Si Si1 0.726357 0.866435 0.636994
Si Si2 0.103576 0.278775 0.000000
Si Si3 0.727568 0.863186 0.500000
Si Si4 0.000000 0.500000 0.114825
Si Si5 0.276699 0.121130 0.774840
O O1 0.921373 0.772315 0.637004
O O2 0.637992 0.821618 0.568528
O O3 0.637210 0.831529 0.705783
O O4 0.119157 0.384213 0.933986
O O5 0.896576 0.219847 0.000000
O O6 0.771211 0.076097 0.500000
O O7 0.133036 0.605780 0.162199
O O8 0.223616 0.910690 0.776622
#
# Coordination Sequence:
#
# PCOD9543550 Si02
#       5
#     8   4   4   4   8
#     4   7  10  17  32  56  85 117 153 190 224 258
#     4  10  22  40  58  74  92 116 148 182 218 270
#     4   7   8  12  26  51  82 114 150 190 226 256
#     4  11  20  30  54  79  94 114 148 185 224 266
#     4   9  17  30  48  70  96 126 159 191 224 268
#
# _framework density 23.985921000000001
#
# number of rings (size 3 to 8) (size 9 to 14) (size 15 to 20)
#    0.000    3.429    0.000    5.143    0.000    2.286 
#    0.000    0.000    0.000   36.000    0.000    0.000 
#    0.000    0.000    0.000    0.000    0.000  133.143 
#
# Total GULP energy -156158.693070 kJ/mol
# GULP energy per Si atom -5577.096181 kJ/mol
# Density = 2.393133 g / cm^3
# Si number density = 23.985921 Si / 1000 Ang^3
#
#
#
# Elastic Constant Matrix: (Units=GPa)
#
#
# Indices 1 2 3 4 5 6 
#
# 1 47.5124 -7.1224 37.2342 0.0000 0.0000 -9.7752
# 2 -7.1224 47.5124 37.2342 0.0000 0.0000 9.7752
# 3 37.2342 37.2342 300.0873 0.0000 0.0000 0.0000
# 4 0.0000 0.0000 0.0000 -65.3596 0.0000 0.0000
# 5 0.0000 0.0000 0.0000 0.0000 -65.3596 0.0000
# 6 -9.7752 9.7752 0.0000 0.0000 0.0000 -6.0336
#
#
#
# Elastic Compliance Matrix: (Units=1/GPa)
#
#
# Indices 1 2 3 4 5 6 
#
# 1 0.021844 0.010258 -0.003983 0.000000 0.000000 -0.018771
# 2 0.010258 0.021844 -0.003983 0.000000 0.000000 0.018771
# 3 -0.003983 -0.003983 0.004321 0.000000 0.000000 0.000000
# 4 0.000000 0.000000 0.000000 -0.015300 0.000000 0.000000
# 5 0.000000 0.000000 0.000000 0.000000 -0.015300 0.000000
# 6 -0.018771 0.018771 0.000000 0.000000 0.000000 -0.104915
#
#
# Mechanical properties :
#
#
# Convention : Reuss Voigt Hill
#
# Bulk Modulus (GPa) = 19.01391 58.86714 38.94053
# Shear Modulus (GPa) = -67.06203 -5.49948 -36.28076
#
# Velocity S-wave (km/s) = -5.29336 -1.51584 -3.89342
# Velocity P-wave (km/s) = 5.42357 4.64025 1.98535
#
# Compressibility (1/GPa) = 0.05259309
#
# Stress axis : x y z
#
# Youngs Moduli (GPa) = 45.77823 45.77823 231.43727
#
# Poissons Ratio (x) = -0.46960 0.92187
# Poissons Ratio (y) = -0.46960 0.92187
# Poissons Ratio (z) = 0.18234 0.18234
#
# Static dielectric constant tensor:
#      x y z
#    x 1.934540 0.000000 0.000000 
#    y 0.000000 1.934540 0.000000 
#    z 0.000000 0.000000 1.991680 
# 
# From -- ./inp_files/2780.got.cif
#   From: 2010.05.17/outbox.cif.g08.bks.cpg/sg83_2_cif.got.tgz:2780.got - 2010.06.03 18:55:12.
