data_PCOD9543671
_publ_section_title
;
Structure prediction by ZEFSAII (Michael W. Deem and Ramdas Pophale) SiO2 
 PCOD9543671
Probable space group: P 4/M
;
_chemical_formula_sum "Si O2"
_cell_formula_units_Z 56
_cell_length_a 10.359595
_cell_length_b 10.359595
_cell_length_c 24.345991
_cell_angle_alpha 90.000000
_cell_angle_beta 90.000000
_cell_angle_gamma 90.000000
_cell_volume 2612.841178
_symmetry_space_group_name_H-M "P 4/M"
_symmetry_group_IT_number 83
_symmetry_cell_setting 'tetragonal'
loop_
_space_group_symop_operation_xyz
x,y,z
-y,x,z
-x,-y,z
y,-x,z
-x,-y,-z
y,-x,-z
x,y,-z
-y,x,-z
loop_
_atom_site_type_symbol
_atom_site_label
_atom_site_fract_x
_atom_site_fract_y
_atom_site_fract_z
Si Si1 0.793509 0.424866 0.439618
Si Si2 0.254026 0.756996 0.652011
Si Si3 0.435342 0.134597 0.168056
Si Si4 0.797346 0.919932 0.250888
Si Si5 0.073244 0.296875 0.559709
Si Si6 0.554001 0.289444 0.737837
Si Si7 0.703806 0.423382 0.060531
O O1 0.731704 0.404798 0.500000
O O2 0.720333 0.367358 0.387193
O O3 0.840464 0.571964 0.437394
O O4 0.927113 0.344029 0.438279
O O5 0.132727 0.736328 0.692301
O O6 0.220606 0.875161 0.611541
O O7 0.381579 0.790510 0.688355
O O8 0.307979 0.111316 0.204677
O O9 0.540881 0.210410 0.205855
O O10 0.398738 0.210770 0.113430
O O11 0.500000 0.000000 0.153090
O O12 0.930856 0.838583 0.247514
O O13 0.095786 0.235224 0.500000
O O14 0.648882 0.412329 0.735184
O O15 0.659041 0.572563 0.063258
O O16 0.763114 0.401158 0.000000
#
# Coordination Sequence:
#
# PCOD9543671 Si02
#       7
#     8   8   8   8   8   8   8
#     4   9  19  35  53  78 112 151 194 253 321 386
#     4  12  20  36  58  87 113 162 210 252 321 389
#     4  12  25  40  68  98 130 173 224 259 309 376
#     4  11  26  45  61  87 131 172 212 264 325 380
#     4   9  19  34  54  79 110 150 199 256 317 379
#     4  11  23  39  56  87 130 164 205 265 324 378
#     4   9  20  41  70 104 142 178 213 264 322 361
#
# _framework density 21.432608999999999
#
# number of rings (size 3 to 8) (size 9 to 14) (size 15 to 20)
#    0.000    1.571    1.429    5.143    2.000    1.429 
#    0.000    0.000    0.000    0.000    0.000   13.000 
#    0.000    0.000    0.000    0.000    0.000    0.000 
#
# Total GULP energy -312704.106539 kJ/mol
# GULP energy per Si atom -5584.001902 kJ/mol
# Density = 2.138383 g / cm^3
# Si number density = 21.432609 Si / 1000 Ang^3
#
#
#
# Elastic Constant Matrix: (Units=GPa)
#
#
# Indices 1 2 3 4 5 6 
#
# 1 56.1232 -4.2611 7.8602 0.0000 0.0000 -11.7193
# 2 -4.2611 56.1232 7.8602 0.0000 0.0000 11.7193
# 3 7.8602 7.8602 106.6158 0.0000 0.0000 0.0000
# 4 0.0000 0.0000 0.0000 22.3851 0.0000 0.0000
# 5 0.0000 0.0000 0.0000 0.0000 22.3851 0.0000
# 6 -11.7193 11.7193 0.0000 0.0000 0.0000 28.0579
#
#
#
# Elastic Compliance Matrix: (Units=1/GPa)
#
#
# Indices 1 2 3 4 5 6 
#
# 1 0.019744 -0.000021 -0.001454 0.000000 0.000000 0.008255
# 2 -0.000021 0.019744 -0.001454 0.000000 0.000000 -0.008255
# 3 -0.001454 -0.001454 0.009594 0.000000 0.000000 0.000000
# 4 0.000000 0.000000 0.000000 0.044672 0.000000 0.000000
# 5 0.000000 0.000000 0.000000 0.000000 0.044672 0.000000
# 6 0.008255 -0.008255 0.000000 0.000000 0.000000 0.042537
#
#
# Mechanical properties :
#
#
# Convention : Reuss Voigt Hill
#
# Bulk Modulus (GPa) = 23.13583 26.86452 25.00017
# Shear Modulus (GPa) = 24.84724 28.39250 26.61987
#
# Velocity S-wave (km/s) = 3.40857 3.64364 3.52806
# Velocity P-wave (km/s) = 5.12926 5.50119 5.31848
#
# Compressibility (1/GPa) = 0.04322301
#
# Stress axis : x y z
#
# Youngs Moduli (GPa) = 50.64875 50.64875 104.23324
#
# Poissons Ratio (x) = 0.00107 0.15156
# Poissons Ratio (y) = 0.00107 0.15156
# Poissons Ratio (z) = 0.07365 0.07365
#
# Static dielectric constant tensor:
#      x y z
#    x 1.807350 0.000000 0.000000 
#    y 0.000000 1.807350 0.000000 
#    z 0.000000 0.000000 1.818630 
# 
# From -- ./inp_files/2989.got.cif
#   From: 2010.05.17/outbox.cif.g08.bks.cpg/sg83_2_cif.got.tgz:2989.got - 2010.06.03 18:55:12.
