data_PCOD9543597
_publ_section_title
;
Structure prediction by ZEFSAII (Michael W. Deem and Ramdas Pophale) SiO2 
 PCOD9543597
Probable space group: P 4/M
;
_chemical_formula_sum "Si O2"
_cell_formula_units_Z 44
_cell_length_a 14.925222
_cell_length_b 14.925222
_cell_length_c 13.140209
_cell_angle_alpha 90.000000
_cell_angle_beta 90.000000
_cell_angle_gamma 90.000000
_cell_volume 2927.142545
_symmetry_space_group_name_H-M "P 4/M"
_symmetry_group_IT_number 83
_symmetry_cell_setting 'tetragonal'
loop_
_space_group_symop_operation_xyz
x,y,z
-y,x,z
-x,-y,z
y,-x,z
-x,-y,-z
y,-x,-z
x,y,-z
-y,x,-z
loop_
_atom_site_type_symbol
_atom_site_label
_atom_site_fract_x
_atom_site_fract_y
_atom_site_fract_z
Si Si1 0.849378 0.998056 0.000000
Si Si2 0.418769 0.619627 0.123606
Si Si3 0.385282 0.813426 0.876938
Si Si4 0.013762 0.279269 0.805812
Si Si5 0.849632 0.006665 0.382742
Si Si6 0.089426 0.561438 0.884921
O O1 0.788750 0.999143 0.100585
O O2 0.912568 0.085463 0.000000
O O3 0.379744 0.523574 0.155070
O O4 0.369030 0.710782 0.154126
O O5 0.418332 0.620179 0.000000
O O6 0.325905 0.889627 0.824698
O O7 0.490193 0.835006 0.855870
O O8 0.373885 0.823148 0.000000
O O9 0.010371 0.227408 0.700292
O O10 0.937438 0.355589 0.815483
O O11 0.818484 0.008090 0.500000
O O12 0.917909 0.089730 0.368494
O O13 0.000000 0.500000 0.889956
O O14 0.107638 0.594318 0.000000
#
# Coordination Sequence:
#
# PCOD9543597 Si02
#       6
#     4   8   8   8   8   8
#     4  11  22  32  39  60 100 129 144 179 239 285
#     4   8  14  26  40  56  85 125 159 187 218 252
#     4   9  16  28  43  65  96 127 156 185 219 275
#     4  11  17  30  46  67  91 118 157 191 225 275
#     4   9  19  36  53  65  83 120 164 199 236 277
#     4   8  14  26  42  59  91 129 149 172 217 272
#
# _framework density 15.031724000000001
#
# number of rings (size 3 to 8) (size 9 to 14) (size 15 to 20)
#    0.000    2.818    1.818    3.273    0.000    1.455 
#    6.545    0.000    0.000    4.909    0.000    0.000 
#    0.000    0.000    0.000    2.000    0.000    0.182 
#
# Total GULP energy -244985.610202 kJ/mol
# GULP energy per Si atom -5567.854777 kJ/mol
# Density = 1.499751 g / cm^3
# Si number density = 15.031724 Si / 1000 Ang^3
#
#
#
# Elastic Constant Matrix: (Units=GPa)
#
#
# Indices 1 2 3 4 5 6 
#
# 1 50.3626 -2.1565 35.7620 0.0000 0.0000 0.0703
# 2 -2.1565 50.3626 35.7620 0.0000 0.0000 -0.0703
# 3 35.7620 35.7620 80.0870 0.0000 0.0000 0.0000
# 4 0.0000 0.0000 0.0000 20.3767 0.0000 0.0000
# 5 0.0000 0.0000 0.0000 0.0000 20.3767 0.0000
# 6 0.0703 -0.0703 0.0000 0.0000 0.0000 7.4062
#
#
#
# Elastic Compliance Matrix: (Units=1/GPa)
#
#
# Indices 1 2 3 4 5 6 
#
# 1 0.040256 0.021215 -0.027449 0.000000 0.000000 -0.000181
# 2 0.021215 0.040256 -0.027449 0.000000 0.000000 0.000181
# 3 -0.027449 -0.027449 0.037001 0.000000 0.000000 0.000000
# 4 0.000000 0.000000 0.000000 0.049076 0.000000 0.000000
# 5 0.000000 0.000000 0.000000 0.000000 0.049076 0.000000
# 6 -0.000181 0.000181 0.000000 0.000000 0.000000 0.135025
#
#
# Mechanical properties :
#
#
# Convention : Reuss Voigt Hill
#
# Bulk Modulus (GPa) = 19.94181 35.50526 27.72353
# Shear Modulus (GPa) = 11.50029 17.06156 14.28093
#
# Velocity S-wave (km/s) = 2.76899 3.37269 3.08564
# Velocity P-wave (km/s) = 4.84957 6.23203 5.58375
#
# Compressibility (1/GPa) = 0.05014590
#
# Stress axis : x y z
#
# Youngs Moduli (GPa) = 24.84093 24.84093 27.02648
#
# Poissons Ratio (x) = -0.52700 0.74186
# Poissons Ratio (y) = -0.52700 0.74186
# Poissons Ratio (z) = 0.68187 0.68187
#
# Static dielectric constant tensor:
#      x y z
#    x 1.526180 0.000000 0.000000 
#    y 0.000000 1.526180 0.000000 
#    z 0.000000 0.000000 1.456580 
# 
# From -- ./inp_files/1729.got.cif
#   From: 2010.05.17/outbox.cif.g08.bks.cpg/sg83_1_cif.got.tgz:1729.got - 2010.06.03 18:55:12.
