data_PCOD9543735
_publ_section_title
;
Structure prediction by ZEFSAII (Michael W. Deem and Ramdas Pophale) SiO2 
 PCOD9543735
Probable space group: P 4/M
;
_chemical_formula_sum "Si O2"
_cell_formula_units_Z 44
_cell_length_a 7.505511
_cell_length_b 7.505511
_cell_length_c 31.784669
_cell_angle_alpha 90.000000
_cell_angle_beta 90.000000
_cell_angle_gamma 90.000000
_cell_volume 1790.516076
_symmetry_space_group_name_H-M "P 4/M"
_symmetry_group_IT_number 83
_symmetry_cell_setting 'tetragonal'
loop_
_space_group_symop_operation_xyz
x,y,z
-y,x,z
-x,-y,z
y,-x,z
-x,-y,-z
y,-x,-z
x,y,-z
-y,x,-z
loop_
_atom_site_type_symbol
_atom_site_label
_atom_site_fract_x
_atom_site_fract_y
_atom_site_fract_z
Si Si1 0.000000 0.500000 0.115545
Si Si2 0.730035 0.860554 0.454994
Si Si3 0.728293 0.864335 0.365022
Si Si4 0.772807 0.391853 0.816234
Si Si5 0.877459 0.725191 0.953478
Si Si6 0.124328 0.726585 0.274889
O O1 0.086531 0.643775 0.147182
O O2 0.855159 0.590359 0.084768
O O3 0.642020 0.816786 0.500000
O O4 0.640802 0.818970 0.409998
O O5 0.926733 0.770980 0.455001
O O6 0.638625 0.827430 0.319951
O O7 0.923693 0.772288 0.365040
O O8 0.721362 0.596858 0.821725
O O9 0.833974 0.369812 0.768308
O O10 0.776278 0.912380 0.950900
O O11 0.841660 0.648508 0.000000
O O12 0.915740 0.774481 0.274384
#
# Coordination Sequence:
#
# PCOD9543735 Si02
#       6
#     4   8   8   8   8   8
#     4  12  21  36  58  80 104 140 175 204 244 300
#     4   7   8  10  19  40  74 113 146 179 228 286
#     4   7  10  17  31  53  81 114 154 197 237 283
#     4  11  24  38  51  72 103 135 169 214 261 301
#     4   9  19  36  58  85 113 138 168 206 243 282
#     4   9  17  31  51  72  95 129 173 214 252 299
#
# _framework density 24.573917999999999
#
# number of rings (size 3 to 8) (size 9 to 14) (size 15 to 20)
#    0.000    3.091    0.000    5.727    0.000    0.000 
#    0.000    1.818    0.000    0.000    0.000    7.636 
#    0.000    1.455    0.000   17.909    0.000   19.636 
#
# Total GULP energy -245708.397289 kJ/mol
# GULP energy per Si atom -5584.281757 kJ/mol
# Density = 2.451799 g / cm^3
# Si number density = 24.573918 Si / 1000 Ang^3
#
#
#
# Elastic Constant Matrix: (Units=GPa)
#
#
# Indices 1 2 3 4 5 6 
#
# 1 48.0071 -1.3758 27.3411 0.0000 0.0000 4.3537
# 2 -1.3758 48.0071 27.3411 0.0000 0.0000 -4.3537
# 3 27.3411 27.3411 271.0119 0.0000 0.0000 0.0000
# 4 0.0000 0.0000 0.0000 1.6549 0.0000 0.0000
# 5 0.0000 0.0000 0.0000 0.0000 1.6549 0.0000
# 6 4.3537 -4.3537 0.0000 0.0000 0.0000 7.2433
#
#
#
# Elastic Compliance Matrix: (Units=1/GPa)
#
#
# Indices 1 2 3 4 5 6 
#
# 1 0.023486 0.000836 -0.002454 0.000000 0.000000 -0.013615
# 2 0.000836 0.023486 -0.002454 0.000000 0.000000 0.013615
# 3 -0.002454 -0.002454 0.004185 0.000000 0.000000 0.000000
# 4 0.000000 0.000000 0.000000 0.604251 0.000000 0.000000
# 5 0.000000 0.000000 0.000000 0.000000 0.604251 0.000000
# 6 -0.013615 0.013615 0.000000 0.000000 0.000000 0.154426
#
#
# Mechanical properties :
#
#
# Convention : Reuss Voigt Hill
#
# Bulk Modulus (GPa) = 23.24805 52.62656 37.93730
# Shear Modulus (GPa) = 3.48052 23.02527 13.25290
#
# Velocity S-wave (km/s) = 1.19139 3.06433 2.32482
# Velocity P-wave (km/s) = 3.37247 5.82943 4.76213
#
# Compressibility (1/GPa) = 0.04301437
#
# Stress axis : x y z
#
# Youngs Moduli (GPa) = 42.57786 42.57786 238.95029
#
# Poissons Ratio (x) = -0.03559 0.58633
# Poissons Ratio (y) = -0.03559 0.58633
# Poissons Ratio (z) = 0.10448 0.10448
#
# Static dielectric constant tensor:
#      x y z
#    x 1.987610 0.000000 0.000000 
#    y 0.000000 1.987610 0.000000 
#    z 0.000000 0.000000 2.028950 
# 
# From -- ./inp_files/3354.got.cif
#   From: 2010.05.17/outbox.cif.g08.bks.cpg/sg83_2_cif.got.tgz:3354.got - 2010.06.03 18:55:12.
