data_PCOD9543528
_publ_section_title
;
Structure prediction by ZEFSAII (Michael W. Deem and Ramdas Pophale) SiO2 
 PCOD9543528
Probable space group: P 4/M
;
_chemical_formula_sum "Si O2"
_cell_formula_units_Z 24
_cell_length_a 7.129911
_cell_length_b 7.129911
_cell_length_c 17.718620
_cell_angle_alpha 90.000000
_cell_angle_beta 90.000000
_cell_angle_gamma 90.000000
_cell_volume 900.737226
_symmetry_space_group_name_H-M "P 4/M"
_symmetry_group_IT_number 83
_symmetry_cell_setting 'tetragonal'
loop_
_space_group_symop_operation_xyz
x,y,z
-y,x,z
-x,-y,z
y,-x,z
-x,-y,-z
y,-x,-z
x,y,-z
-y,x,-z
loop_
_atom_site_type_symbol
_atom_site_label
_atom_site_fract_x
_atom_site_fract_y
_atom_site_fract_z
Si Si1 0.778660 0.344621 0.080764
Si Si2 0.000000 0.500000 0.630648
Si Si3 0.645897 0.781440 0.243645
Si Si4 0.867571 0.714594 0.500000
O O1 0.742814 0.569370 0.080759
O O2 0.868119 0.302793 0.161959
O O3 0.869284 0.296364 0.000000
O O4 0.088260 0.661771 0.683811
O O5 0.845649 0.592775 0.575494
O O6 0.421968 0.738955 0.245842
O O7 0.764183 0.910334 0.500000
#
# Coordination Sequence:
#
# PCOD9543528 Si02
#       4
#     8   4   8   4
#     4   7  10  19  37  60  87 120 151 175 206 251
#     4  11  20  32  51  72  90 112 147 188 228 267
#     4   9  17  29  46  69  95 120 148 184 222 258
#     4  10  22  38  52  66  88 118 148 180 224 280
#
# _framework density 26.644843999999999
#
# number of rings (size 3 to 8) (size 9 to 14) (size 15 to 20)
#    0.000    3.167    0.000    5.000    0.000    0.000 
#    0.000    0.833    0.000    8.000    0.000    0.000 
#    0.000    0.000    0.000   40.667    0.000    2.667 
#
# Total GULP energy -134082.516658 kJ/mol
# GULP energy per Si atom -5586.771527 kJ/mol
# Density = 2.658420 g / cm^3
# Si number density = 26.644844 Si / 1000 Ang^3
#
#
#
# Elastic Constant Matrix: (Units=GPa)
#
#
# Indices 1 2 3 4 5 6 
#
# 1 71.8357 -2.5064 10.6873 0.0000 0.0000 11.8453
# 2 -2.5064 71.8357 10.6873 0.0000 0.0000 -11.8453
# 3 10.6873 10.6873 223.8779 0.0000 0.0000 0.0000
# 4 0.0000 0.0000 0.0000 13.5058 0.0000 0.0000
# 5 0.0000 0.0000 0.0000 0.0000 13.5058 0.0000
# 6 11.8453 -11.8453 0.0000 0.0000 0.0000 21.8428
#
#
#
# Elastic Compliance Matrix: (Units=1/GPa)
#
#
# Indices 1 2 3 4 5 6 
#
# 1 0.015450 -0.000811 -0.000699 0.000000 0.000000 -0.008819
# 2 -0.000811 0.015450 -0.000699 0.000000 0.000000 0.008819
# 3 -0.000699 -0.000699 0.004533 0.000000 0.000000 0.000000
# 4 0.000000 0.000000 0.000000 0.074042 0.000000 0.000000
# 5 0.000000 0.000000 0.000000 0.000000 0.074042 0.000000
# 6 -0.008819 0.008819 0.000000 0.000000 0.000000 0.055346
#
#
# Mechanical properties :
#
#
# Convention : Reuss Voigt Hill
#
# Bulk Modulus (GPa) = 32.24057 45.03175 38.63616
# Shear Modulus (GPa) = 19.71445 33.01630 26.36537
#
# Velocity S-wave (km/s) = 2.72306 3.52394 3.14906
# Velocity P-wave (km/s) = 4.69181 5.78748 5.26821
#
# Compressibility (1/GPa) = 0.03101682
#
# Stress axis : x y z
#
# Youngs Moduli (GPa) = 64.72297 64.72297 220.58294
#
# Poissons Ratio (x) = 0.05250 0.15415
# Poissons Ratio (y) = 0.05250 0.15415
# Poissons Ratio (z) = 0.04523 0.04523
#
# Static dielectric constant tensor:
#      x y z
#    x 2.067720 0.000000 0.000000 
#    y 0.000000 2.067720 0.000000 
#    z 0.000000 0.000000 2.200230 
# 
# From -- ./inp_files/2482.got.cif
#   From: 2010.05.17/outbox.cif.g08.bks.cpg/sg83_2_cif.got.tgz:2482.got - 2010.06.03 18:55:12.
