data_PCOD9543558
_publ_section_title
;
Structure prediction by ZEFSAII (Michael W. Deem and Ramdas Pophale) SiO2 
 PCOD9543558
Probable space group: P 4/M
;
_chemical_formula_sum "Si O2"
_cell_formula_units_Z 40
_cell_length_a 7.964395
_cell_length_b 7.964395
_cell_length_c 28.371166
_cell_angle_alpha 90.000000
_cell_angle_beta 90.000000
_cell_angle_gamma 90.000000
_cell_volume 1799.628105
_symmetry_space_group_name_H-M "P 4/M"
_symmetry_group_IT_number 83
_symmetry_cell_setting 'tetragonal'
loop_
_space_group_symop_operation_xyz
x,y,z
-y,x,z
-x,-y,z
y,-x,z
-x,-y,-z
y,-x,-z
x,y,-z
-y,x,-z
loop_
_atom_site_type_symbol
_atom_site_label
_atom_site_fract_x
_atom_site_fract_y
_atom_site_fract_z
Si Si1 0.106617 0.265080 0.550357
Si Si2 0.899113 0.733965 0.652367
Si Si3 0.589539 0.233570 0.252889
Si Si4 0.000000 0.500000 0.080312
Si Si5 0.408187 0.232330 0.000000
Si Si6 0.266800 0.911984 0.840766
O O1 0.142194 0.351619 0.500000
O O2 0.137502 0.347795 0.601095
O O3 0.911156 0.208314 0.550371
O O4 0.852125 0.625323 0.697198
O O5 0.092589 0.792838 0.654596
O O6 0.704787 0.399596 0.250135
O O7 0.643127 0.122426 0.208629
O O8 0.113454 0.389354 0.115220
O O9 0.115844 0.610867 0.045882
O O10 0.602709 0.294535 0.000000
O O11 0.103279 0.796035 0.843199
#
# Coordination Sequence:
#
# PCOD9543558 Si02
#       6
#     8   8   8   4   4   8
#     4   7  10  19  39  69 102 132 166 216 278 340
#     4   9  17  30  51  79 107 137 178 229 286 348
#     4  11  24  39  54  75 107 148 192 238 291 351
#     4  11  22  40  64  92 126 160 197 240 282 322
#     4  10  22  40  64  94 128 166 202 233 272 326
#     4  11  23  39  61  88 117 151 193 240 289 339
#
# _framework density 22.226815999999999
#
# number of rings (size 3 to 8) (size 9 to 14) (size 15 to 20)
#    0.000    2.300    0.000    5.400    0.000    4.000 
#    0.000    2.000    0.000    6.000    0.000    7.000 
#    0.000    0.000    0.000    0.000    0.000    0.000 
#
# Total GULP energy -223661.297469 kJ/mol
# GULP energy per Si atom -5591.532437 kJ/mol
# Density = 2.217623 g / cm^3
# Si number density = 22.226816 Si / 1000 Ang^3
#
#
#
# Elastic Constant Matrix: (Units=GPa)
#
#
# Indices 1 2 3 4 5 6 
#
# 1 56.6842 17.5429 42.2919 0.0000 0.0000 5.5975
# 2 17.5429 56.6842 42.2919 0.0000 0.0000 -5.5975
# 3 42.2919 42.2919 224.8272 0.0000 0.0000 0.0000
# 4 0.0000 0.0000 0.0000 -93.0390 0.0000 0.0000
# 5 0.0000 0.0000 0.0000 0.0000 -93.0390 0.0000
# 6 5.5975 -5.5975 0.0000 0.0000 0.0000 28.1988
#
#
#
# Elastic Compliance Matrix: (Units=1/GPa)
#
#
# Indices 1 2 3 4 5 6 
#
# 1 0.022117 -0.004969 -0.003226 0.000000 0.000000 -0.005377
# 2 -0.004969 0.022117 -0.003226 0.000000 0.000000 0.005377
# 3 -0.003226 -0.003226 0.005661 0.000000 0.000000 0.000000
# 4 0.000000 0.000000 0.000000 -0.010748 0.000000 0.000000
# 5 0.000000 0.000000 0.000000 0.000000 -0.010748 0.000000
# 6 -0.005377 0.005377 0.000000 0.000000 0.000000 0.037597
#
#
# Mechanical properties :
#
#
# Convention : Reuss Voigt Hill
#
# Bulk Modulus (GPa) = 36.96235 60.27211 48.61723
# Shear Modulus (GPa) = 51.09576 -15.83790 17.62893
#
# Velocity S-wave (km/s) = 4.79982 -2.67227 2.81933
# Velocity P-wave (km/s) = 6.88356 4.20170 5.70253
#
# Compressibility (1/GPa) = 0.02705456
#
# Stress axis : x y z
#
# Youngs Moduli (GPa) = 45.21391 45.21391 176.63438
#
# Poissons Ratio (x) = 0.22468 0.56976
# Poissons Ratio (y) = 0.22468 0.56976
# Poissons Ratio (z) = 0.14585 0.14585
#
# Static dielectric constant tensor:
#      x y z
#    x 1.820180 0.000000 0.000000 
#    y 0.000000 1.820180 0.000000 
#    z 0.000000 0.000000 1.821080 
# 
# From -- ./inp_files/3255.got.cif
#   From: 2010.05.17/outbox.cif.g08.bks.cpg/sg83_2_cif.got.tgz:3255.got - 2010.06.03 18:55:12.
