data_PCOD9543793
_publ_section_title
;
Structure prediction by ZEFSAII (Michael W. Deem and Ramdas Pophale) SiO2 
 PCOD9543793
Probable space group: P 4/M
;
_chemical_formula_sum "Si O2"
_cell_formula_units_Z 38
_cell_length_a 8.243554
_cell_length_b 8.243554
_cell_length_c 24.830428
_cell_angle_alpha 90.000000
_cell_angle_beta 90.000000
_cell_angle_gamma 90.000000
_cell_volume 1687.381098
_symmetry_space_group_name_H-M "P 4/M"
_symmetry_group_IT_number 83
_symmetry_cell_setting 'tetragonal'
loop_
_space_group_symop_operation_xyz
x,y,z
-y,x,z
-x,-y,z
y,-x,z
-x,-y,-z
y,-x,-z
x,y,-z
-y,x,-z
loop_
_atom_site_type_symbol
_atom_site_label
_atom_site_fract_x
_atom_site_fract_y
_atom_site_fract_z
Si Si1 0.582779 0.761025 0.000000
Si Si2 0.191299 0.309465 0.500000
Si Si3 0.500000 0.000000 0.410176
Si Si4 0.241850 0.590284 0.325641
Si Si5 0.000000 0.000000 0.500000
Si Si6 0.500000 0.500000 0.500000
Si Si7 0.740110 0.916082 0.102022
Si Si8 0.406290 0.242374 0.203753
O O1 0.399840 0.695973 0.000000
O O2 0.627239 0.862916 0.052761
O O3 0.114090 0.390885 0.447127
O O4 0.383102 0.340455 0.500000
O O5 0.159495 0.118190 0.500000
O O6 0.612612 0.891468 0.371004
O O7 0.302766 0.403736 0.331236
O O8 0.179997 0.614705 0.264728
O O9 0.651155 0.878981 0.158017
O O10 0.900839 0.803368 0.098743
O O11 0.592199 0.300803 0.197930
#
# Coordination Sequence:
#
# PCOD9543793 Si02
#       8
#     4   4   4   8   1   1   8   8
#     4  11  24  41  62  92 118 153 206 269 328 400
#     4  11  28  45  78 102 154 186 252 288 374 424
#     4  11  24  42  66 110 134 197 228 304 348 437
#     4   9  21  39  64  93 133 177 232 286 346 422
#     4  12  28  56  68 124 156 192 236 332 372 426
#     4  12  28  56  76 116 140 224 252 292 340 490
#     4  11  24  39  59  87 127 166 209 264 334 407
#     4   9  19  38  61  90 121 166 220 273 321 392
#
# _framework density 22.520105000000001
#
# number of rings (size 3 to 8) (size 9 to 14) (size 15 to 20)
#    0.000    1.789    0.000    4.421    5.895   10.105 
#    0.000    0.000    0.000    0.000    0.000    0.000 
#    0.000    0.000    0.000    0.000    0.000    0.000 
#
# Total GULP energy -212422.565330 kJ/mol
# GULP energy per Si atom -5590.067509 kJ/mol
# Density = 2.246885 g / cm^3
# Si number density = 22.520105 Si / 1000 Ang^3
#
#
#
# Elastic Constant Matrix: (Units=GPa)
#
#
# Indices 1 2 3 4 5 6 
#
# 1 90.3237 36.7337 51.1675 0.0000 0.0000 0.0974
# 2 36.7337 90.3237 51.1675 0.0000 0.0000 -0.0974
# 3 51.1675 51.1675 166.6555 0.0000 0.0000 0.0000
# 4 0.0000 0.0000 0.0000 55.4787 0.0000 0.0000
# 5 0.0000 0.0000 0.0000 0.0000 55.4787 0.0000
# 6 0.0974 -0.0974 0.0000 0.0000 0.0000 45.9306
#
#
#
# Elastic Compliance Matrix: (Units=1/GPa)
#
#
# Indices 1 2 3 4 5 6 
#
# 1 0.014558 -0.004102 -0.003210 0.000000 0.000000 -0.000040
# 2 -0.004102 0.014558 -0.003210 0.000000 0.000000 0.000040
# 3 -0.003210 -0.003210 0.007972 0.000000 0.000000 0.000000
# 4 0.000000 0.000000 0.000000 0.018025 0.000000 0.000000
# 5 0.000000 0.000000 0.000000 0.000000 0.018025 0.000000
# 6 -0.000040 0.000040 0.000000 0.000000 0.000000 0.021772
#
#
# Mechanical properties :
#
#
# Convention : Reuss Voigt Hill
#
# Bulk Modulus (GPa) = 62.33357 69.49338 65.91347
# Shear Modulus (GPa) = 41.21906 45.25990 43.23948
#
# Velocity S-wave (km/s) = 4.28287 4.48789 4.38658
# Velocity P-wave (km/s) = 7.22471 7.60133 7.41541
#
# Compressibility (1/GPa) = 0.01604272
#
# Stress axis : x y z
#
# Youngs Moduli (GPa) = 68.68970 68.68970 125.44408
#
# Poissons Ratio (x) = 0.28177 0.40271
# Poissons Ratio (y) = 0.28177 0.40271
# Poissons Ratio (z) = 0.22051 0.22051
#
# Static dielectric constant tensor:
#      x y z
#    x 1.818340 0.000000 0.000000 
#    y 0.000000 1.818340 0.000000 
#    z 0.000000 0.000000 1.816980 
# 
# From -- ./inp_files/3156.got.cif
#   From: 2010.05.17/outbox.cif.g08.bks.cpg/sg83_2_cif.got.tgz:3156.got - 2010.06.03 18:55:12.
