data_PCOD9543716
_publ_section_title
;
Structure prediction by ZEFSAII (Michael W. Deem and Ramdas Pophale) SiO2 
 PCOD9543716
Probable space group: P 4/M
;
_chemical_formula_sum "Si O2"
_cell_formula_units_Z 48
_cell_length_a 8.154126
_cell_length_b 8.154126
_cell_length_c 32.242687
_cell_angle_alpha 90.000000
_cell_angle_beta 90.000000
_cell_angle_gamma 90.000000
_cell_volume 2143.808869
_symmetry_space_group_name_H-M "P 4/M"
_symmetry_group_IT_number 83
_symmetry_cell_setting 'tetragonal'
loop_
_space_group_symop_operation_xyz
x,y,z
-y,x,z
-x,-y,z
y,-x,z
-x,-y,-z
y,-x,-z
x,y,-z
-y,x,-z
loop_
_atom_site_type_symbol
_atom_site_label
_atom_site_fract_x
_atom_site_fract_y
_atom_site_fract_z
Si Si1 0.918860 0.263357 0.249552
Si Si2 0.763082 0.417471 0.829601
Si Si3 0.739106 0.903718 0.000000
Si Si4 0.905929 0.262266 0.090177
Si Si5 0.588306 0.762617 0.421430
Si Si6 0.762175 0.409340 0.328854
Si Si7 0.263562 0.077765 0.500000
O O1 0.870616 0.371071 0.210063
O O2 0.879669 0.356439 0.292064
O O3 0.102841 0.197317 0.248034
O O4 0.697926 0.601913 0.828275
O O5 0.856326 0.375743 0.871942
O O6 0.659010 0.874314 0.044710
O O7 0.907448 0.799077 0.000000
O O8 0.094054 0.200867 0.092801
O O9 0.402097 0.698783 0.424651
O O10 0.614934 0.831639 0.375167
O O11 0.637290 0.879387 0.458667
O O12 0.699711 0.596278 0.325380
O O13 0.105209 0.196266 0.500000
#
# Coordination Sequence:
#
# PCOD9543716 Si02
#       7
#     8   8   4   8   8   8   4
#     4  11  24  39  56  81 110 139 174 217 264 315
#     4  11  24  39  54  75 105 141 180 221 265 313
#     4   7  12  26  50  79 108 136 168 211 260 309
#     4   9  17  32  56  83 108 136 174 218 263 313
#     4   9  19  37  60  83 107 139 181 224 264 313
#     4   9  19  37  60  85 111 139 174 217 264 315
#     4  11  24  37  50  76 114 149 182 225 272 314
#
# _framework density 22.390056000000001
#
# number of rings (size 3 to 8) (size 9 to 14) (size 15 to 20)
#    0.000    2.333    0.000    4.500    0.000   10.667 
#    0.000    5.833    0.000    4.000    0.000    0.000 
#    0.000    0.000    0.000    0.000    0.000    0.000 
#
# Total GULP energy -268769.655483 kJ/mol
# GULP energy per Si atom -5599.367823 kJ/mol
# Density = 2.233910 g / cm^3
# Si number density = 22.390056 Si / 1000 Ang^3
#
#
#
# Elastic Constant Matrix: (Units=GPa)
#
#
# Indices 1 2 3 4 5 6 
#
# 1 74.2417 55.2447 69.6370 0.0000 0.0000 -0.2267
# 2 55.2447 74.2417 69.6370 0.0000 0.0000 0.2267
# 3 69.6370 69.6370 225.6698 0.0000 0.0000 0.0000
# 4 0.0000 0.0000 0.0000 116.0006 0.0000 0.0000
# 5 0.0000 0.0000 0.0000 0.0000 116.0006 0.0000
# 6 -0.2267 0.2267 0.0000 0.0000 0.0000 42.4508
#
#
#
# Elastic Compliance Matrix: (Units=1/GPa)
#
#
# Indices 1 2 3 4 5 6 
#
# 1 0.032103 -0.020544 -0.003567 0.000000 0.000000 0.000281
# 2 -0.020544 0.032103 -0.003567 0.000000 0.000000 -0.000281
# 3 -0.003567 -0.003567 0.006633 0.000000 0.000000 0.000000
# 4 0.000000 0.000000 0.000000 0.008621 0.000000 0.000000
# 5 0.000000 0.000000 0.000000 0.000000 0.008621 0.000000
# 6 0.000281 -0.000281 0.000000 0.000000 0.000000 0.023560
#
#
# Mechanical properties :
#
#
# Convention : Reuss Voigt Hill
#
# Bulk Modulus (GPa) = 64.58469 84.79896 74.69182
# Shear Modulus (GPa) = 29.04342 66.86601 47.95471
#
# Velocity S-wave (km/s) = 3.60551 5.47074 4.63296
# Velocity P-wave (km/s) = 6.80006 8.82389 7.87724
#
# Compressibility (1/GPa) = 0.01548355
#
# Stress axis : x y z
#
# Youngs Moduli (GPa) = 31.14971 31.14971 150.76900
#
# Poissons Ratio (x) = 0.63993 0.53779
# Poissons Ratio (y) = 0.63993 0.53779
# Poissons Ratio (z) = 0.11111 0.11111
#
# Static dielectric constant tensor:
#      x y z
#    x 1.809540 0.000000 0.000000 
#    y 0.000000 1.809540 0.000000 
#    z 0.000000 0.000000 1.797940 
# 
# From -- ./inp_files/3446.got.cif
#   From: 2010.05.17/outbox.cif.g08.bks.cpg/sg83_2_cif.got.tgz:3446.got - 2010.06.03 18:55:12.
