data_PCOD9543279
_publ_section_title
;
Structure prediction by ZEFSAII (Michael W. Deem and Ramdas Pophale) SiO2 
 PCOD9543279
Probable space group: P 4/M
;
_chemical_formula_sum "Si O2"
_cell_formula_units_Z 52
_cell_length_a 17.531019
_cell_length_b 17.531019
_cell_length_c 11.088184
_cell_angle_alpha 90.000000
_cell_angle_beta 90.000000
_cell_angle_gamma 90.000000
_cell_volume 3407.805072
_symmetry_space_group_name_H-M "P 4/M"
_symmetry_group_IT_number 83
_symmetry_cell_setting 'tetragonal'
loop_
_space_group_symop_operation_xyz
x,y,z
-y,x,z
-x,-y,z
y,-x,z
-x,-y,-z
y,-x,-z
x,y,-z
-y,x,-z
loop_
_atom_site_type_symbol
_atom_site_label
_atom_site_fract_x
_atom_site_fract_y
_atom_site_fract_z
Si Si1 0.360774 0.910318 0.354455
Si Si2 0.500680 0.623801 0.353236
Si Si3 0.375497 0.082752 0.354239
Si Si4 0.087919 0.799798 0.641411
Si Si5 0.125626 0.967737 0.000000
Si Si6 0.497582 0.798883 0.646606
Si Si7 0.804679 0.073497 0.253131
O O1 0.345456 0.908973 0.500000
O O2 0.419521 0.843304 0.325444
O O3 0.282174 0.904217 0.282237
O O4 0.394965 0.994489 0.326714
O O5 0.426085 0.574697 0.317324
O O6 0.500553 0.625233 0.500000
O O7 0.500806 0.711325 0.311459
O O8 0.376480 0.087027 0.500000
O O9 0.288004 0.096293 0.317002
O O10 0.433618 0.146844 0.309717
O O11 0.106244 0.803588 0.500000
O O12 0.141254 0.856931 0.712553
O O13 0.999824 0.821068 0.662787
O O14 0.175836 0.952916 0.118413
O O15 0.052666 0.910527 0.000000
O O16 0.502127 0.796708 0.500000
#
# Coordination Sequence:
#
# PCOD9543279 Si02
#       7
#     8   8   8   8   4   8   8
#     4   9  17  28  43  66  93 118 149 190 234 283
#     4   8  14  23  33  49  78 116 154 185 212 250
#     4   8  15  26  39  59  89 121 149 180 222 276
#     4  10  19  30  45  68  97 124 151 191 243 288
#     4  11  22  38  52  66  85 121 171 208 225 279
#     4   9  15  24  41  62  87 123 157 184 220 272
#     4  11  20  33  47  66  91 121 158 200 238 273
#
# _framework density 15.259088
#
# number of rings (size 3 to 8) (size 9 to 14) (size 15 to 20)
#    0.000    2.692    1.538    3.231    0.000    3.385 
#    0.000    5.385    0.000    0.000    0.000    9.692 
#    0.000    0.000    0.000    0.000    0.000    5.385 
#
# Total GULP energy -289493.759386 kJ/mol
# GULP energy per Si atom -5567.187681 kJ/mol
# Density = 1.522436 g / cm^3
# Si number density = 15.259088 Si / 1000 Ang^3
#
#
#
# Elastic Constant Matrix: (Units=GPa)
#
#
# Indices 1 2 3 4 5 6 
#
# 1 97.6643 62.1712 7.0748 0.0000 0.0000 2.4855
# 2 62.1712 97.6643 7.0748 0.0000 0.0000 -2.4855
# 3 7.0748 7.0748 23.4325 0.0000 0.0000 0.0000
# 4 0.0000 0.0000 0.0000 4.6679 0.0000 0.0000
# 5 0.0000 0.0000 0.0000 0.0000 4.6679 0.0000
# 6 2.4855 -2.4855 0.0000 0.0000 0.0000 11.7001
#
#
#
# Elastic Compliance Matrix: (Units=1/GPa)
#
#
# Indices 1 2 3 4 5 6 
#
# 1 0.017733 -0.011305 -0.001941 0.000000 0.000000 -0.006169
# 2 -0.011305 0.017733 -0.001941 0.000000 0.000000 0.006169
# 3 -0.001941 -0.001941 0.043848 0.000000 0.000000 0.000000
# 4 0.000000 0.000000 0.000000 0.214231 0.000000 0.000000
# 5 0.000000 0.000000 0.000000 0.000000 0.214231 0.000000
# 6 -0.006169 0.006169 0.000000 0.000000 0.000000 0.088090
#
#
# Mechanical properties :
#
#
# Convention : Reuss Voigt Hill
#
# Bulk Modulus (GPa) = 20.43279 41.26697 30.84988
# Shear Modulus (GPa) = 7.78144 13.70318 10.74231
#
# Velocity S-wave (km/s) = 2.26067 2.99997 2.65617
# Velocity P-wave (km/s) = 4.49820 6.25321 5.44686
#
# Compressibility (1/GPa) = 0.04894094
#
# Stress axis : x y z
#
# Youngs Moduli (GPa) = 56.39096 56.39096 22.80615
#
# Poissons Ratio (x) = 0.63750 0.04426
# Poissons Ratio (y) = 0.63750 0.04426
# Poissons Ratio (z) = 0.10945 0.10945
#
# Static dielectric constant tensor:
#      x y z
#    x 1.517790 0.000000 0.000000 
#    y 0.000000 1.517790 0.000000 
#    z 0.000000 0.000000 1.469210 
# 
# From -- ./inp_files/954.got.cif
#   From: 2010.05.17/outbox.cif.g08.bks.cpg/sg83_1_cif.got.tgz:954.got - 2010.06.03 18:55:12.
