data_PCOD9543987
_publ_section_title
;
Structure prediction by ZEFSAII (Michael W. Deem and Ramdas Pophale) SiO2 
 PCOD9543987
Probable space group: P 42/M
;
_chemical_formula_sum "Si O2"
_cell_formula_units_Z 48
_cell_length_a 9.329611
_cell_length_b 9.329611
_cell_length_c 29.094412
_cell_angle_alpha 90.000000
_cell_angle_beta 90.000000
_cell_angle_gamma 90.000000
_cell_volume 2532.425376
_symmetry_space_group_name_H-M "P 42/M"
_symmetry_group_IT_number 84
_symmetry_cell_setting 'tetragonal'
loop_
_space_group_symop_operation_xyz
x,y,z
-y,x,1/2+z
-x,-y,z
y,-x,1/2+z
-x,-y,-z
y,-x,1/2-z
x,y,-z
-y,x,1/2-z
loop_
_atom_site_type_symbol
_atom_site_label
_atom_site_fract_x
_atom_site_fract_y
_atom_site_fract_z
Si Si1 0.646310 0.295564 0.855318
Si Si2 0.696272 0.759296 0.154005
Si Si3 0.681967 0.657210 0.747317
Si Si4 0.916476 0.346829 0.500000
Si Si5 0.981823 0.670869 0.595361
Si Si6 0.170375 0.467530 0.094431
Si Si7 0.657644 0.573071 0.000000
O O1 0.470025 0.297772 0.854496
O O2 0.686707 0.255552 0.802967
O O3 0.696213 0.180882 0.892694
O O4 0.733292 0.434189 0.871265
O O5 0.735632 0.732785 0.206751
O O6 0.802860 0.684353 0.118487
O O7 0.704505 0.923491 0.139570
O O8 0.692381 0.487122 0.756016
O O9 0.745367 0.366490 0.500000
O O10 0.000000 0.500000 0.500000
O O11 0.963499 0.269394 0.546994
O O12 0.000000 0.500000 0.591191
O O13 0.000000 0.500000 0.091798
O O14 0.250255 0.468439 0.045126
O O15 0.500000 0.500000 0.000000
#
# Coordination Sequence:
#
# PCOD9543987 Si02
#       7
#     8   8   8   4   8   8   4
#     4  10  20  37  59  89 119 159 206 245 298 363
#     4  10  18  37  59  85 118 160 199 250 302 352
#     4   9  16  29  55  87 118 151 198 257 297 344
#     4  10  20  35  59  96 121 139 193 252 295 344
#     4   9  19  33  58  87 119 150 198 253 287 358
#     4  12  25  40  58  90 128 157 197 254 309 358
#     4  12  25  41  71  92 114 160 200 252 309 361
#
# _framework density 18.954163000000001
#
# number of rings (size 3 to 8) (size 9 to 14) (size 15 to 20)
#    0.000    1.833    3.333    1.750    4.667    0.000 
#    3.000    0.833    0.000    1.000    0.000    0.000 
#    0.000    0.000    0.000    0.000    0.000    0.000 
#
# Total GULP energy -267223.716839 kJ/mol
# GULP energy per Si atom -5567.160767 kJ/mol
# Density = 1.891102 g / cm^3
# Si number density = 18.954163 Si / 1000 Ang^3
#
#
#
# Elastic Constant Matrix: (Units=GPa)
#
#
# Indices 1 2 3 4 5 6 
#
# 1 41.2161 16.8445 17.2792 0.0000 0.0000 -6.3531
# 2 16.8445 41.2161 17.2792 0.0000 0.0000 6.3531
# 3 17.2792 17.2792 145.4279 0.0000 0.0000 0.0000
# 4 0.0000 0.0000 0.0000 -0.8604 0.0000 0.0000
# 5 0.0000 0.0000 0.0000 0.0000 -0.8604 0.0000
# 6 -6.3531 6.3531 0.0000 0.0000 0.0000 5.9989
#
#
#
# Elastic Compliance Matrix: (Units=1/GPa)
#
#
# Indices 1 2 3 4 5 6 
#
# 1 0.055075 -0.036541 -0.002202 0.000000 0.000000 0.097025
# 2 -0.036541 0.055075 -0.002202 0.000000 0.000000 -0.097025
# 3 -0.002202 -0.002202 0.007400 0.000000 0.000000 0.000000
# 4 0.000000 0.000000 0.000000 -1.162207 0.000000 0.000000
# 5 0.000000 0.000000 0.000000 0.000000 -1.162207 0.000000
# 6 0.097025 -0.097025 0.000000 0.000000 0.000000 0.372203
#
#
# Mechanical properties :
#
#
# Convention : Reuss Voigt Hill
#
# Bulk Modulus (GPa) = 28.04323 36.74065 32.39194
# Shear Modulus (GPa) = -2.87210 12.61942 4.87366
#
# Velocity S-wave (km/s) = -1.23231 2.58308 1.60526
# Velocity P-wave (km/s) = 3.57808 5.32188 4.53459
#
# Compressibility (1/GPa) = 0.03565922
#
# Stress axis : x y z
#
# Youngs Moduli (GPa) = 18.15712 18.15712 135.14314
#
# Poissons Ratio (x) = 0.66347 0.29761
# Poissons Ratio (y) = 0.66347 0.29761
# Poissons Ratio (z) = 0.03998 0.03998
#
# Static dielectric constant tensor:
#      x y z
#    x 1.644030 0.000000 0.000000 
#    y 0.000000 1.644030 0.000000 
#    z 0.000000 0.000000 1.691660 
# 
# From -- ./inp_files/5857.got.cif
#   From: 2010.05.17/outbox.cif.g08.bks.cpg/sg84_3_cif.got.tgz:5857.got - 2010.06.03 18:57:40.
