data_PCOD9543369
_publ_section_title
;
Structure prediction by ZEFSAII (Michael W. Deem and Ramdas Pophale) SiO2 
 PCOD9543369
Probable space group: P 4/M
;
_chemical_formula_sum "Si O2"
_cell_formula_units_Z 40
_cell_length_a 15.312968
_cell_length_b 15.312968
_cell_length_c 8.904721
_cell_angle_alpha 90.000000
_cell_angle_beta 90.000000
_cell_angle_gamma 90.000000
_cell_volume 2088.041215
_symmetry_space_group_name_H-M "P 4/M"
_symmetry_group_IT_number 83
_symmetry_cell_setting 'tetragonal'
loop_
_space_group_symop_operation_xyz
x,y,z
-y,x,z
-x,-y,z
y,-x,z
-x,-y,-z
y,-x,-z
x,y,-z
-y,x,-z
loop_
_atom_site_type_symbol
_atom_site_label
_atom_site_fract_x
_atom_site_fract_y
_atom_site_fract_z
Si Si1 0.579738 0.251086 0.317361
Si Si2 0.875477 0.924336 0.674689
Si Si3 0.616766 0.730523 0.318341
Si Si4 0.408268 0.951362 0.680620
Si Si5 0.699940 0.900147 0.176610
O O1 0.582129 0.250504 0.500000
O O2 0.483679 0.284555 0.273628
O O3 0.656253 0.315690 0.266598
O O4 0.590522 0.149861 0.271202
O O5 0.851168 0.909312 0.500000
O O6 0.800915 0.887782 0.780134
O O7 0.971524 0.885054 0.697420
O O8 0.619657 0.733862 0.500000
O O9 0.645924 0.823737 0.256113
O O10 0.396972 0.953920 0.500000
O O11 0.500000 0.000000 0.714574
O O12 0.333021 0.007936 0.757086
O O13 0.686613 0.897678 0.000000
#
# Coordination Sequence:
#
# PCOD9543369 Si02
#       5
#     8   8   8   8   8
#     4   9  19  35  62  91 115 148 192 249 300 344
#     4   9  20  40  63  84 109 149 198 241 285 344
#     4  10  20  39  61  87 117 151 200 248 298 356
#     4  10  19  37  61  84 112 150 195 238 285 340
#     4  12  25  37  54  86 122 157 191 237 294 349
#
# _framework density 19.15671
#
# number of rings (size 3 to 8) (size 9 to 14) (size 15 to 20)
#    0.000    2.000    2.000    2.400    2.800    1.600 
#    0.000    4.000    0.000    0.000    0.000    1.400 
#    0.000    0.000    0.000    0.000    0.000    0.000 
#
# Total GULP energy -223376.132477 kJ/mol
# GULP energy per Si atom -5584.403312 kJ/mol
# Density = 1.911311 g / cm^3
# Si number density = 19.156710 Si / 1000 Ang^3
#
#
#
# Elastic Constant Matrix: (Units=GPa)
#
#
# Indices 1 2 3 4 5 6 
#
# 1 87.3158 57.6755 18.0589 0.0000 0.0000 15.1048
# 2 57.6755 87.3158 18.0589 0.0000 0.0000 -15.1048
# 3 18.0589 18.0589 15.4079 0.0000 0.0000 0.0000
# 4 0.0000 0.0000 0.0000 -8.0853 0.0000 0.0000
# 5 0.0000 0.0000 0.0000 0.0000 -8.0853 0.0000
# 6 15.1048 -15.1048 0.0000 0.0000 0.0000 26.9624
#
#
#
# Elastic Compliance Matrix: (Units=1/GPa)
#
#
# Indices 1 2 3 4 5 6 
#
# 1 0.044190 -0.034449 -0.011417 0.000000 0.000000 -0.044055
# 2 -0.034449 0.044190 -0.011417 0.000000 0.000000 0.044055
# 3 -0.011417 -0.011417 0.091664 0.000000 0.000000 0.000000
# 4 0.000000 0.000000 0.000000 -0.123681 0.000000 0.000000
# 5 0.000000 0.000000 0.000000 0.000000 -0.123681 0.000000
# 6 -0.044055 0.044055 0.000000 0.000000 0.000000 0.086449
#
#
# Mechanical properties :
#
#
# Convention : Reuss Voigt Hill
#
# Bulk Modulus (GPa) = 15.27220 41.95843 28.61532
# Shear Modulus (GPa) = 32.14947 8.57476 20.36211
#
# Velocity S-wave (km/s) = 4.10107 2.11798 3.26379
# Velocity P-wave (km/s) = 5.51494 5.28502 5.40120
#
# Compressibility (1/GPa) = 0.06547845
#
# Stress axis : x y z
#
# Youngs Moduli (GPa) = 22.62958 22.62958 10.90938
#
# Poissons Ratio (x) = 0.77957 0.12455
# Poissons Ratio (y) = 0.77957 0.12455
# Poissons Ratio (z) = 0.25836 0.25836
#
# Static dielectric constant tensor:
#      x y z
#    x 1.665830 0.000000 0.000000 
#    y 0.000000 1.665830 0.000000 
#    z 0.000000 0.000000 1.633110 
# 
# From -- ./inp_files/656.got.cif
#   From: 2010.05.17/outbox.cif.g08.bks.cpg/sg83_1_cif.got.tgz:656.got - 2010.06.03 18:55:12.
