data_PCOD9543713
_publ_section_title
;
Structure prediction by ZEFSAII (Michael W. Deem and Ramdas Pophale) SiO2 
 PCOD9543713
Probable space group: P 4/M
;
_chemical_formula_sum "Si O2"
_cell_formula_units_Z 48
_cell_length_a 8.175170
_cell_length_b 8.175170
_cell_length_c 33.491177
_cell_angle_alpha 90.000000
_cell_angle_beta 90.000000
_cell_angle_gamma 90.000000
_cell_volume 2238.329381
_symmetry_space_group_name_H-M "P 4/M"
_symmetry_group_IT_number 83
_symmetry_cell_setting 'tetragonal'
loop_
_space_group_symop_operation_xyz
x,y,z
-y,x,z
-x,-y,z
y,-x,z
-x,-y,-z
y,-x,-z
x,y,-z
-y,x,-z
loop_
_atom_site_type_symbol
_atom_site_label
_atom_site_fract_x
_atom_site_fract_y
_atom_site_fract_z
Si Si1 0.236901 0.421476 0.000000
Si Si2 0.410570 0.761723 0.327680
Si Si3 0.736881 0.086606 0.075625
Si Si4 0.737245 0.083342 0.163844
Si Si5 0.237758 0.415315 0.761070
Si Si6 0.500000 0.000000 0.608305
Si Si7 0.908339 0.260183 0.544997
O O1 0.395613 0.303868 0.000000
O O2 0.136692 0.378309 0.960397
O O3 0.300896 0.598915 0.330810
O O4 0.386950 0.833609 0.283184
O O5 0.387304 0.892396 0.362411
O O6 0.663124 0.111683 0.119846
O O7 0.901085 0.197678 0.072777
O O8 0.628950 0.127499 0.201567
O O9 0.898913 0.196807 0.165722
O O10 0.399925 0.302723 0.763234
O O11 0.393376 0.114231 0.579146
O O12 0.884206 0.325434 0.500000
O O13 0.800008 0.097064 0.548599
#
# Coordination Sequence:
#
# PCOD9543713 Si02
#       7
#     4   8   8   8   8   4   8
#     4  11  24  37  50  76 112 141 170 213 258 304
#     4   9  20  36  50  71 105 138 169 212 264 311
#     4   9  19  37  58  78 102 135 172 211 259 312
#     4   9  19  35  55  80 106 130 166 217 263 303
#     4   9  19  35  52  71 100 138 174 207 252 310
#     4  12  19  30  56  82  98 132 184 221 252 308
#     4   9  19  35  52  74 107 140 171 215 268 316
#
# _framework density 21.444566999999999
#
# number of rings (size 3 to 8) (size 9 to 14) (size 15 to 20)
#    0.000    2.583    0.000    4.250    0.000    6.667 
#    0.000    5.000    0.000    2.000    0.000    7.000 
#    0.000    0.000    0.000    0.000    0.000    0.000 
#
# Total GULP energy -268307.989845 kJ/mol
# GULP energy per Si atom -5589.749788 kJ/mol
# Density = 2.139576 g / cm^3
# Si number density = 21.444567 Si / 1000 Ang^3
#
#
#
# Elastic Constant Matrix: (Units=GPa)
#
#
# Indices 1 2 3 4 5 6 
#
# 1 41.1577 14.7703 47.4829 0.0000 0.0000 -2.0928
# 2 14.7703 41.1577 47.4829 0.0000 0.0000 2.0928
# 3 47.4829 47.4829 204.6294 0.0000 0.0000 0.0000
# 4 0.0000 0.0000 0.0000 44.8679 0.0000 0.0000
# 5 0.0000 0.0000 0.0000 0.0000 44.8679 0.0000
# 6 -2.0928 2.0928 0.0000 0.0000 0.0000 29.6048
#
#
#
# Elastic Compliance Matrix: (Units=1/GPa)
#
#
# Indices 1 2 3 4 5 6 
#
# 1 0.033916 -0.004410 -0.006847 0.000000 0.000000 0.002709
# 2 -0.004410 0.033916 -0.006847 0.000000 0.000000 -0.002709
# 3 -0.006847 -0.006847 0.008064 0.000000 0.000000 0.000000
# 4 0.000000 0.000000 0.000000 0.022288 0.000000 0.000000
# 5 0.000000 0.000000 0.000000 0.000000 0.022288 0.000000
# 6 0.002709 -0.002709 0.000000 0.000000 0.000000 0.034161
#
#
# Mechanical properties :
#
#
# Convention : Reuss Voigt Hill
#
# Bulk Modulus (GPa) = 25.19572 56.26854 40.73213
# Shear Modulus (GPa) = 24.50135 35.68205 30.09170
#
# Velocity S-wave (km/s) = 3.38382 4.08354 3.75004
# Velocity P-wave (km/s) = 5.20017 6.96633 6.14701
#
# Compressibility (1/GPa) = 0.03968928
#
# Stress axis : x y z
#
# Youngs Moduli (GPa) = 29.48445 29.48445 124.00328
#
# Poissons Ratio (x) = 0.13004 0.84900
# Poissons Ratio (y) = 0.13004 0.84900
# Poissons Ratio (z) = 0.20187 0.20187
#
# Static dielectric constant tensor:
#      x y z
#    x 1.794570 0.000000 0.000000 
#    y 0.000000 1.794570 0.000000 
#    z 0.000000 0.000000 1.773530 
# 
# From -- ./inp_files/3433.got.cif
#   From: 2010.05.17/outbox.cif.g08.bks.cpg/sg83_2_cif.got.tgz:3433.got - 2010.06.03 18:55:12.
