data_PCOD9543989
_publ_section_title
;
Structure prediction by ZEFSAII (Michael W. Deem and Ramdas Pophale) SiO2 
 PCOD9543989
Probable space group: P 42/M
;
_chemical_formula_sum "Si O2"
_cell_formula_units_Z 40
_cell_length_a 9.735659
_cell_length_b 9.735659
_cell_length_c 22.701049
_cell_angle_alpha 90.000000
_cell_angle_beta 90.000000
_cell_angle_gamma 90.000000
_cell_volume 2151.674802
_symmetry_space_group_name_H-M "P 42/M"
_symmetry_group_IT_number 84
_symmetry_cell_setting 'tetragonal'
loop_
_space_group_symop_operation_xyz
x,y,z
-y,x,1/2+z
-x,-y,z
y,-x,1/2+z
-x,-y,-z
y,-x,1/2-z
x,y,-z
-y,x,1/2-z
loop_
_atom_site_type_symbol
_atom_site_label
_atom_site_fract_x
_atom_site_fract_y
_atom_site_fract_z
Si Si1 0.359947 0.728651 0.696618
Si Si2 0.495330 0.662657 0.106564
Si Si3 0.855402 0.078858 0.500000
Si Si4 0.243905 0.681691 0.183311
Si Si5 0.023379 0.339020 0.889862
Si Si6 0.857859 0.410567 0.500000
O O1 0.325111 0.584122 0.666320
O O2 0.523960 0.733831 0.703624
O O3 0.285098 0.761698 0.757739
O O4 0.328941 0.836199 0.645649
O O5 0.500000 0.500000 0.088939
O O6 0.343830 0.702576 0.127724
O O7 0.549642 0.763644 0.056388
O O8 0.763644 0.033543 0.444139
O O9 0.878453 0.244873 0.500000
O O10 0.000000 0.000000 0.500000
O O11 0.093789 0.698605 0.157210
O O12 0.000000 0.500000 0.907435
O O13 0.000000 0.500000 0.500000
#
# Coordination Sequence:
#
# PCOD9543989 Si02
#       6
#     8   8   4   8   8   4
#     4  10  18  38  61  96 127 163 206 266 319 363
#     4  10  21  39  70  93 124 165 212 268 318 366
#     4  12  27  48  64  84 134 172 211 264 318 374
#     4  10  20  35  65  97 128 159 210 259 321 376
#     4  10  23  43  67  92 120 173 219 256 307 380
#     4  12  27  46  62  96 128 164 215 272 322 376
#
# _framework density 18.590171000000002
#
# number of rings (size 3 to 8) (size 9 to 14) (size 15 to 20)
#    0.000    1.600    4.000    0.600    2.800    0.000 
#    7.200    0.000    0.000    0.000    0.000    0.000 
#    0.000    0.000    0.000    0.000    0.000    0.000 
#
# Total GULP energy -223063.970215 kJ/mol
# GULP energy per Si atom -5576.599255 kJ/mol
# Density = 1.854786 g / cm^3
# Si number density = 18.590171 Si / 1000 Ang^3
#
#
#
# Elastic Constant Matrix: (Units=GPa)
#
#
# Indices 1 2 3 4 5 6 
#
# 1 49.8221 42.8846 34.4600 0.0000 0.0000 4.1092
# 2 42.8846 49.8221 34.4600 0.0000 0.0000 -4.1092
# 3 34.4600 34.4600 109.3659 0.0000 0.0000 0.0000
# 4 0.0000 0.0000 0.0000 33.0054 0.0000 0.0000
# 5 0.0000 0.0000 0.0000 0.0000 33.0054 0.0000
# 6 4.1092 -4.1092 0.0000 0.0000 0.0000 23.3531
#
#
#
# Elastic Compliance Matrix: (Units=1/GPa)
#
#
# Indices 1 2 3 4 5 6 
#
# 1 0.098095 -0.084009 -0.004438 0.000000 0.000000 -0.032043
# 2 -0.084009 0.098095 -0.004438 0.000000 0.000000 0.032043
# 3 -0.004438 -0.004438 0.011941 0.000000 0.000000 0.000000
# 4 0.000000 0.000000 0.000000 0.030298 0.000000 0.000000
# 5 0.000000 0.000000 0.000000 0.000000 0.030298 0.000000
# 6 -0.032043 0.032043 0.000000 0.000000 0.000000 0.054097
#
#
# Mechanical properties :
#
#
# Convention : Reuss Voigt Hill
#
# Bulk Modulus (GPa) = 44.72368 48.06879 46.39623
# Shear Modulus (GPa) = 9.68901 24.35315 17.02108
#
# Velocity S-wave (km/s) = 2.28543 3.62332 3.02916
# Velocity P-wave (km/s) = 5.57442 6.58922 6.10295
#
# Compressibility (1/GPa) = 0.02235952
#
# Stress axis : x y z
#
# Youngs Moduli (GPa) = 10.19419 10.19419 83.74769
#
# Poissons Ratio (x) = 0.85640 0.37171
# Poissons Ratio (y) = 0.85640 0.37171
# Poissons Ratio (z) = 0.04525 0.04525
#
# Static dielectric constant tensor:
#      x y z
#    x 1.605990 0.000000 0.000000 
#    y 0.000000 1.605990 0.000000 
#    z 0.000000 0.000000 1.626610 
# 
# From -- ./inp_files/4892.got.cif
#   From: 2010.05.17/outbox.cif.g08.bks.cpg/sg84_3_cif.got.tgz:4892.got - 2010.06.03 18:57:40.
