data_PCOD9543300
_publ_section_title
;
Structure prediction by ZEFSAII (Michael W. Deem and Ramdas Pophale) SiO2 
 PCOD9543300
Probable space group: P 4/M
;
_chemical_formula_sum "Si O2"
_cell_formula_units_Z 52
_cell_length_a 18.879764
_cell_length_b 18.879764
_cell_length_c 8.220094
_cell_angle_alpha 90.000000
_cell_angle_beta 90.000000
_cell_angle_gamma 90.000000
_cell_volume 2930.015423
_symmetry_space_group_name_H-M "P 4/M"
_symmetry_group_IT_number 83
_symmetry_cell_setting 'tetragonal'
loop_
_space_group_symop_operation_xyz
x,y,z
-y,x,z
-x,-y,z
y,-x,z
-x,-y,-z
y,-x,-z
x,y,-z
-y,x,-z
loop_
_atom_site_type_symbol
_atom_site_label
_atom_site_fract_x
_atom_site_fract_y
_atom_site_fract_z
Si Si1 0.490177 0.239100 0.303695
Si Si2 0.833073 0.634132 0.197861
Si Si3 0.871230 0.365461 0.308428
Si Si4 0.567752 0.403662 0.500000
Si Si5 0.579223 0.015447 0.806620
Si Si6 0.759299 0.259109 0.184383
Si Si7 0.646650 0.386859 0.821817
O O1 0.487608 0.248298 0.500000
O O2 0.568073 0.215789 0.250294
O O3 0.434102 0.176314 0.260895
O O4 0.457213 0.307210 0.214485
O O5 0.803542 0.710346 0.256111
O O6 0.911950 0.613967 0.255535
O O7 0.831073 0.637261 0.000000
O O8 0.882524 0.370050 0.500000
O O9 0.946676 0.373189 0.223650
O O10 0.826416 0.294651 0.270907
O O11 0.593305 0.484412 0.500000
O O12 0.597570 0.372892 0.666821
O O13 0.500000 0.000000 0.739475
O O14 0.571316 0.025733 0.000000
O O15 0.702944 0.323418 0.175425
O O16 0.780488 0.240342 0.000000
O O17 0.612140 0.391485 0.000000
#
# Coordination Sequence:
#
# PCOD9543300 Si02
#       7
#     8   8   8   4   8   8   8
#     4  10  19  31  49  75 103 134 170 216 263 314
#     4  10  20  33  51  78 104 133 177 220 259 313
#     4  10  20  33  50  71 104 142 176 209 259 319
#     4  11  26  42  52  68  94 121 167 227 275 327
#     4  10  19  32  52  76 108 142 172 213 264 318
#     4   9  20  35  52  74  99 131 174 218 259 311
#     4  10  21  37  57  73  93 129 170 216 273 325
#
# _framework density 17.747347000000001
#
# number of rings (size 3 to 8) (size 9 to 14) (size 15 to 20)
#    0.000    2.077    2.308    0.923    3.231    3.385 
#    0.000    0.769    0.000    0.000    0.000    0.000 
#    0.000    0.615    0.000    7.077    0.000    2.769 
#
# Total GULP energy -290182.013540 kJ/mol
# GULP energy per Si atom -5580.423337 kJ/mol
# Density = 1.770695 g / cm^3
# Si number density = 17.747347 Si / 1000 Ang^3
#
#
#
# Elastic Constant Matrix: (Units=GPa)
#
#
# Indices 1 2 3 4 5 6 
#
# 1 88.0302 28.3999 5.4296 0.0000 0.0000 -3.8680
# 2 28.3999 88.0302 5.4296 0.0000 0.0000 3.8680
# 3 5.4296 5.4296 48.1927 0.0000 0.0000 0.0000
# 4 0.0000 0.0000 0.0000 15.6012 0.0000 0.0000
# 5 0.0000 0.0000 0.0000 0.0000 15.6012 0.0000
# 6 -3.8680 3.8680 0.0000 0.0000 0.0000 20.4835
#
#
#
# Elastic Compliance Matrix: (Units=1/GPa)
#
#
# Indices 1 2 3 4 5 6 
#
# 1 0.012936 -0.004256 -0.000978 0.000000 0.000000 0.003246
# 2 -0.004256 0.012936 -0.000978 0.000000 0.000000 -0.003246
# 3 -0.000978 -0.000978 0.020970 0.000000 0.000000 0.000000
# 4 0.000000 0.000000 0.000000 0.064098 0.000000 0.000000
# 5 0.000000 0.000000 0.000000 0.000000 0.064098 0.000000
# 6 0.003246 -0.003246 0.000000 0.000000 0.000000 0.050046
#
#
# Mechanical properties :
#
#
# Convention : Reuss Voigt Hill
#
# Bulk Modulus (GPa) = 29.05388 33.64122 31.34755
# Shear Modulus (GPa) = 20.08204 22.67010 21.37607
#
# Velocity S-wave (km/s) = 3.36750 3.57792 3.47431
# Velocity P-wave (km/s) = 5.61484 6.00545 5.81343
#
# Compressibility (1/GPa) = 0.03441881
#
# Stress axis : x y z
#
# Youngs Moduli (GPa) = 77.30598 77.30598 47.68625
#
# Poissons Ratio (x) = 0.32898 0.04663
# Poissons Ratio (y) = 0.32898 0.04663
# Poissons Ratio (z) = 0.07560 0.07560
#
# Static dielectric constant tensor:
#      x y z
#    x 1.620750 0.000000 0.000000 
#    y 0.000000 1.620750 0.000000 
#    z 0.000000 0.000000 1.649910 
# 
# From -- ./inp_files/1034.got.cif
#   From: 2010.05.17/outbox.cif.g08.bks.cpg/sg83_1_cif.got.tgz:1034.got - 2010.06.03 18:55:12.
