data_PCOD9543686
_publ_section_title
;
Structure prediction by ZEFSAII (Michael W. Deem and Ramdas Pophale) SiO2 
 PCOD9543686
Probable space group: P 4/M
;
_chemical_formula_sum "Si O2"
_cell_formula_units_Z 44
_cell_length_a 7.978081
_cell_length_b 7.978081
_cell_length_c 30.720565
_cell_angle_alpha 90.000000
_cell_angle_beta 90.000000
_cell_angle_gamma 90.000000
_cell_volume 1955.357094
_symmetry_space_group_name_H-M "P 4/M"
_symmetry_group_IT_number 83
_symmetry_cell_setting 'tetragonal'
loop_
_space_group_symop_operation_xyz
x,y,z
-y,x,z
-x,-y,z
y,-x,z
-x,-y,-z
y,-x,-z
x,y,-z
-y,x,-z
loop_
_atom_site_type_symbol
_atom_site_label
_atom_site_fract_x
_atom_site_fract_y
_atom_site_fract_z
Si Si1 0.232230 0.581734 0.000000
Si Si2 0.267252 0.098725 0.820170
Si Si3 0.731932 0.907321 0.085818
Si Si4 0.732593 0.908049 0.273410
Si Si5 0.592844 0.767122 0.640169
Si Si6 0.602173 0.766495 0.453467
O O1 0.298328 0.394174 0.000000
O O2 0.135128 0.624124 0.044016
O O3 0.350986 0.128756 0.866949
O O4 0.352609 0.129106 0.773505
O O5 0.094530 0.205235 0.820188
O O6 0.901635 0.796147 0.084080
O O7 0.632255 0.868114 0.316654
O O8 0.901167 0.795976 0.274343
O O9 0.401839 0.704336 0.641137
O O10 0.631406 0.851732 0.593251
O O11 0.407944 0.706468 0.453473
O O12 0.636879 0.852918 0.500000
#
# Coordination Sequence:
#
# PCOD9543686 Si02
#       6
#     4   8   8   8   8   8
#     4  11  24  37  46  64 100 137 158 175 212 268
#     4   7  12  26  48  71  91 111 143 189 229 259
#     4   9  17  32  56  79  92 109 148 198 236 263
#     4   9  17  30  48  68  91 121 153 182 218 267
#     4   9  17  28  43  66  93 117 145 185 230 272
#     4   7  10  19  37  59  81 107 142 184 226 264
#
# _framework density 22.502286000000002
#
# number of rings (size 3 to 8) (size 9 to 14) (size 15 to 20)
#    0.000    3.545    0.000    4.364    0.000    2.909 
#    0.000    1.818    0.000    9.818    0.000    6.364 
#    0.000    0.000    0.000    0.000    0.000    0.000 
#
# Total GULP energy -245526.728793 kJ/mol
# GULP energy per Si atom -5580.152927 kJ/mol
# Density = 2.245107 g / cm^3
# Si number density = 22.502286 Si / 1000 Ang^3
#
#
#
# Elastic Constant Matrix: (Units=GPa)
#
#
# Indices 1 2 3 4 5 6 
#
# 1 36.1844 25.2201 53.1182 0.0000 0.0000 -3.0908
# 2 25.2201 36.1844 53.1182 0.0000 0.0000 3.0908
# 3 53.1182 53.1182 308.1710 0.0000 0.0000 0.0000
# 4 0.0000 0.0000 0.0000 50.1302 0.0000 0.0000
# 5 0.0000 0.0000 0.0000 0.0000 50.1302 0.0000
# 6 -3.0908 3.0908 0.0000 0.0000 0.0000 24.1492
#
#
#
# Elastic Compliance Matrix: (Units=1/GPa)
#
#
# Indices 1 2 3 4 5 6 
#
# 1 0.060752 -0.037546 -0.004000 0.000000 0.000000 0.012581
# 2 -0.037546 0.060752 -0.004000 0.000000 0.000000 -0.012581
# 3 -0.004000 -0.004000 0.004624 0.000000 0.000000 0.000000
# 4 0.000000 0.000000 0.000000 0.019948 0.000000 0.000000
# 5 0.000000 0.000000 0.000000 0.000000 0.019948 0.000000
# 6 0.012581 -0.012581 0.000000 0.000000 0.000000 0.044630
#
#
# Mechanical properties :
#
#
# Convention : Reuss Voigt Hill
#
# Bulk Modulus (GPa) = 28.54237 71.49475 50.01856
# Shear Modulus (GPa) = 15.95289 41.48751 28.72020
#
# Velocity S-wave (km/s) = 2.66549 4.29849 3.57644
# Velocity P-wave (km/s) = 4.71008 7.51513 6.27145
#
# Compressibility (1/GPa) = 0.03503564
#
# Stress axis : x y z
#
# Youngs Moduli (GPa) = 16.46045 16.46045 216.27090
#
# Poissons Ratio (x) = 0.61802 0.86505
# Poissons Ratio (y) = 0.61802 0.86505
# Poissons Ratio (z) = 0.06584 0.06584
#
# Static dielectric constant tensor:
#      x y z
#    x 1.833400 0.000000 0.000000 
#    y 0.000000 1.833400 0.000000 
#    z 0.000000 0.000000 1.905320 
# 
# From -- ./inp_files/3363.got.cif
#   From: 2010.05.17/outbox.cif.g08.bks.cpg/sg83_2_cif.got.tgz:3363.got - 2010.06.03 18:55:12.
