data_PCOD9543106
_publ_section_title
;
Structure prediction by ZEFSAII (Michael W. Deem and Ramdas Pophale) SiO2 
 PCOD9543106
Probable space group: I -4 
;
_chemical_formula_sum "Si O2"
_cell_formula_units_Z 18
_cell_length_a 5.113111
_cell_length_b 5.113111
_cell_length_c 23.494190
_cell_angle_alpha 90.000000
_cell_angle_beta 90.000000
_cell_angle_gamma 90.000000
_cell_volume 614.229850
_symmetry_space_group_name_H-M "I -4 "
_symmetry_group_IT_number 82
_symmetry_cell_setting 'tetragonal'
loop_
_space_group_symop_operation_xyz
x,y,z
y,-x,-z
-x,-y,z
-y,x,-z
1/2+x,1/2+y,1/2+z
1/2+y,1/2-x,1/2-z
1/2-x,1/2-y,1/2+z
1/2-y,1/2+x,1/2-z
loop_
_atom_site_type_symbol
_atom_site_label
_atom_site_fract_x
_atom_site_fract_y
_atom_site_fract_z
Si Si1 0.500000 0.500000 0.000000
Si Si2 0.249172 0.186312 0.092756
Si Si3 0.791637 0.143457 0.282302
O O1 0.388491 0.721838 0.958460
O O2 0.258856 0.338810 0.153186
O O3 0.500000 0.000000 0.085963
O O4 0.000000 0.000000 0.092145
O O5 0.671014 0.381941 0.241536
O O6 0.500000 0.000000 0.298056
#
# Coordination Sequence:
#
# PCOD9543106 Si02
#       3
#     2   8   8
#     4  12  32  56  88 128 172 252 304 386 448 564
#     4  12  29  54  84 126 180 238 305 378 460 550
#     4  11  23  46  74 121 173 223 291 365 452 543
#
# _framework density 29.304988999999999
#
# number of rings (size 3 to 8) (size 9 to 14) (size 15 to 20)
#    0.000    0.444    6.667    1.333    6.222    0.889 
#    0.000    0.000    0.000    0.000    0.000    0.000 
#    0.000    0.000    0.000    0.000    0.000    0.000 
#
# Total GULP energy -50311.754685 kJ/mol
# GULP energy per Si atom -5590.194965 kJ/mol
# Density = 2.923829 g / cm^3
# Si number density = 29.304989 Si / 1000 Ang^3
#
#
#
# Elastic Constant Matrix: (Units=GPa)
#
#
# Indices 1 2 3 4 5 6 
#
# 1 279.2247 118.4212 103.0072 0.0002 0.0001 -21.5865
# 2 118.4212 279.2255 103.0073 -0.0008 -0.0006 21.5866
# 3 103.0072 103.0073 329.7159 -0.0002 -0.0001 0.0000
# 4 0.0002 -0.0008 -0.0002 109.3323 0.0003 0.0004
# 5 0.0001 -0.0006 -0.0001 0.0003 109.3323 0.0002
# 6 -21.5865 21.5866 0.0000 0.0004 0.0002 114.6584
#
#
#
# Elastic Compliance Matrix: (Units=1/GPa)
#
#
# Indices 1 2 3 4 5 6 
#
# 1 0.004775 -0.001775 -0.000937 0.000000 0.000000 0.001233
# 2 -0.001775 0.004775 -0.000937 0.000000 0.000000 -0.001233
# 3 -0.000937 -0.000937 0.003619 0.000000 0.000000 0.000000
# 4 0.000000 0.000000 0.000000 0.009146 0.000000 0.000000
# 5 0.000000 0.000000 0.000000 0.000000 0.009146 0.000000
# 6 0.001233 -0.001233 0.000000 0.000000 0.000000 0.009186
#
#
# Mechanical properties :
#
#
# Convention : Reuss Voigt Hill
#
# Bulk Modulus (GPa) = 170.35807 170.78194 170.57000
# Shear Modulus (GPa) = 100.19408 104.24663 102.22035
#
# Velocity S-wave (km/s) = 5.85357 5.97078 5.91247
# Velocity P-wave (km/s) = 10.19533 10.29260 10.24408
#
# Compressibility (1/GPa) = 0.00586999
#
# Stress axis : x y z
#
# Youngs Moduli (GPa) = 209.41800 209.41855 276.34947
#
# Poissons Ratio (x) = 0.37165 0.25904
# Poissons Ratio (y) = 0.37165 0.25904
# Poissons Ratio (z) = 0.19630 0.19630
#
# Static dielectric constant tensor:
#      x y z
#    x 1.892360 0.000000 0.000000 
#    y 0.000000 1.892360 0.000000 
#    z 0.000000 0.000000 2.365900 
# 
# From -- ./inp_files/3192.got.cif
#   From: 2010.05.17/outbox.cif.g08.bks.cpg/sg82_2_cif.got.tgz:3192.got - 2010.06.03 18:52:26.
