data_PCOD9543066
_publ_section_title
;
Structure prediction by ZEFSAII (Michael W. Deem and Ramdas Pophale) SiO2 
 PCOD9543066
Probable space group: I -4 
;
_chemical_formula_sum "Si O2"
_cell_formula_units_Z 32
_cell_length_a 9.349542
_cell_length_b 9.349542
_cell_length_c 15.018186
_cell_angle_alpha 90.000000
_cell_angle_beta 90.000000
_cell_angle_gamma 90.000000
_cell_volume 1312.798744
_symmetry_space_group_name_H-M "I -4 "
_symmetry_group_IT_number 82
_symmetry_cell_setting 'tetragonal'
loop_
_space_group_symop_operation_xyz
x,y,z
y,-x,-z
-x,-y,z
-y,x,-z
1/2+x,1/2+y,1/2+z
1/2+y,1/2-x,1/2-z
1/2-x,1/2-y,1/2+z
1/2-y,1/2+x,1/2-z
loop_
_atom_site_type_symbol
_atom_site_label
_atom_site_fract_x
_atom_site_fract_y
_atom_site_fract_z
Si Si1 0.298285 0.108049 0.105839
Si Si2 0.590812 0.284131 0.801088
Si Si3 0.500000 0.500000 0.649588
Si Si4 0.579211 0.711819 0.968031
Si Si5 0.500000 0.000000 0.750000
Si Si6 0.500000 0.000000 0.250000
O O1 0.370932 0.003129 0.178141
O O2 0.328854 0.262488 0.151706
O O3 0.133679 0.065945 0.097517
O O4 0.364080 0.139500 0.008127
O O5 0.563745 0.376124 0.713816
O O6 0.451931 0.301050 0.863836
O O7 0.602129 0.112738 0.796694
O O8 0.680380 0.577747 0.990744
#
# Coordination Sequence:
#
# PCOD9543066 Si02
#       6
#     8   8   4   8   2   2
#     4  11  23  40  67 108 140 184 237 301 357 426
#     4  11  22  40  67 100 137 182 233 289 359 432
#     4  12  22  40  73 109 140 176 244 310 354 416
#     4   9  20  40  68 100 138 186 233 287 360 443
#     4  12  24  38  68  96 124 186 232 284 336 430
#     4  12  24  38  68 104 144 186 244 296 364 430
#
# _framework density 24.375402000000001
#
# number of rings (size 3 to 8) (size 9 to 14) (size 15 to 20)
#    0.000    1.250    5.000    3.000    0.000    1.000 
#    0.000    0.000    0.000    1.500    0.000    0.000 
#    0.000    0.000    0.000    0.000    0.000    0.000 
#
# Total GULP energy -89289.011735 kJ/mol
# GULP energy per Si atom -5580.563233 kJ/mol
# Density = 2.431992 g / cm^3
# Si number density = 24.375402 Si / 1000 Ang^3
#
#
#
# Elastic Constant Matrix: (Units=GPa)
#
#
# Indices 1 2 3 4 5 6 
#
# 1 72.5628 13.5992 17.4067 0.0000 0.0000 -2.1634
# 2 13.5992 72.5628 17.4067 0.0000 0.0000 2.1634
# 3 17.4067 17.4067 47.7286 0.0000 0.0000 0.0000
# 4 0.0000 0.0000 0.0000 12.7429 0.0000 0.0000
# 5 0.0000 0.0000 0.0000 0.0000 12.7429 0.0000
# 6 -2.1634 2.1634 0.0000 0.0000 0.0000 38.9986
#
#
#
# Elastic Compliance Matrix: (Units=1/GPa)
#
#
# Indices 1 2 3 4 5 6 
#
# 1 0.015320 -0.001709 -0.004964 0.000000 0.000000 0.000945
# 2 -0.001709 0.015320 -0.004964 0.000000 0.000000 -0.000945
# 3 -0.004964 -0.004964 0.024573 0.000000 0.000000 0.000000
# 4 0.000000 0.000000 0.000000 0.078475 0.000000 0.000000
# 5 0.000000 0.000000 0.000000 0.000000 0.078475 0.000000
# 6 0.000945 -0.000945 0.000000 0.000000 0.000000 0.025747
#
#
# Mechanical properties :
#
#
# Convention : Reuss Voigt Hill
#
# Bulk Modulus (GPa) = 31.30932 32.18661 31.74797
# Shear Modulus (GPa) = 18.39375 22.52630 20.46003
#
# Velocity S-wave (km/s) = 2.74998 3.04327 2.90033
# Velocity P-wave (km/s) = 4.79121 5.05785 4.92634
#
# Compressibility (1/GPa) = 0.03193937
#
# Stress axis : x y z
#
# Youngs Moduli (GPa) = 65.27253 65.27253 40.69550
#
# Poissons Ratio (x) = 0.11152 0.20202
# Poissons Ratio (y) = 0.11152 0.20202
# Poissons Ratio (z) = 0.32403 0.32403
#
# Static dielectric constant tensor:
#      x y z
#    x 2.111000 0.000000 0.000000 
#    y 0.000000 2.111000 0.000000 
#    z 0.000000 0.000000 2.080050 
# 
# From -- ./inp_files/2920.got.cif
#   From: 2010.05.17/outbox.cif.g08.bks.cpg/sg82_2_cif.got.tgz:2920.got - 2010.06.03 18:52:26.
