data_PCOD9543518
_publ_section_title
;
Structure prediction by ZEFSAII (Michael W. Deem and Ramdas Pophale) SiO2 
 PCOD9543518
Probable space group: P 4/M
;
_chemical_formula_sum "Si O2"
_cell_formula_units_Z 48
_cell_length_a 12.317068
_cell_length_b 12.317068
_cell_length_c 16.025703
_cell_angle_alpha 90.000000
_cell_angle_beta 90.000000
_cell_angle_gamma 90.000000
_cell_volume 2431.262032
_symmetry_space_group_name_H-M "P 4/M"
_symmetry_group_IT_number 83
_symmetry_cell_setting 'tetragonal'
loop_
_space_group_symop_operation_xyz
x,y,z
-y,x,z
-x,-y,z
y,-x,z
-x,-y,-z
y,-x,-z
x,y,-z
-y,x,-z
loop_
_atom_site_type_symbol
_atom_site_label
_atom_site_fract_x
_atom_site_fract_y
_atom_site_fract_z
Si Si1 0.670349 0.530770 0.900094
Si Si2 0.819942 0.038394 0.906789
Si Si3 0.425161 0.340621 0.600446
Si Si4 0.502769 0.881879 0.807797
Si Si5 0.701980 0.842395 0.695010
Si Si6 0.919700 0.710609 0.730481
O O1 0.584701 0.621055 0.872221
O O2 0.788218 0.543522 0.864781
O O3 0.671299 0.531631 0.000000
O O4 0.745711 0.055520 0.826499
O O5 0.919676 0.124052 0.901827
O O6 0.770648 0.049196 0.000000
O O7 0.550284 0.359970 0.627984
O O8 0.425270 0.340020 0.500000
O O9 0.368972 0.232077 0.633313
O O10 0.622350 0.851339 0.775761
O O11 0.417529 0.893660 0.731720
O O12 0.500000 0.000000 0.849214
O O13 0.815754 0.780833 0.705678
O O14 0.726296 0.969676 0.677967
#
# Coordination Sequence:
#
# PCOD9543518 Si02
#       6
#     8   8   8   8   8   8
#     4   9  18  34  54  72  94 133 185 234 284 347
#     4   9  17  32  54  78 105 144 205 262 298 345
#     4   9  19  39  68  97 123 154 192 234 283 347
#     4  10  22  35  50  75 109 145 181 233 289 350
#     4  11  22  37  56  85 119 153 193 241 291 353
#     4  11  21  35  57  82 117 154 196 248 305 352
#
# _framework density 19.742832
#
# number of rings (size 3 to 8) (size 9 to 14) (size 15 to 20)
#    0.000    2.167    1.667    3.500    0.000    1.333 
#    0.000    5.833    0.000    6.500    0.000    1.167 
#    0.000    0.000    0.000    0.000    0.000    0.000 
#
# Total GULP energy -267669.245679 kJ/mol
# GULP energy per Si atom -5576.442618 kJ/mol
# Density = 1.969790 g / cm^3
# Si number density = 19.742832 Si / 1000 Ang^3
#
#
#
# Elastic Constant Matrix: (Units=GPa)
#
#
# Indices 1 2 3 4 5 6 
#
# 1 131.4432 42.2606 19.5657 0.0000 0.0000 -12.1265
# 2 42.2606 131.4432 19.5657 0.0000 0.0000 12.1265
# 3 19.5657 19.5657 26.3155 0.0000 0.0000 0.0000
# 4 0.0000 0.0000 0.0000 22.7573 0.0000 0.0000
# 5 0.0000 0.0000 0.0000 0.0000 22.7573 0.0000
# 6 -12.1265 12.1265 0.0000 0.0000 0.0000 25.1845
#
#
#
# Elastic Compliance Matrix: (Units=1/GPa)
#
#
# Indices 1 2 3 4 5 6 
#
# 1 0.009909 -0.002994 -0.005141 0.000000 0.000000 0.006213
# 2 -0.002994 0.009909 -0.005141 0.000000 0.000000 -0.006213
# 3 -0.005141 -0.005141 0.045646 0.000000 0.000000 0.000000
# 4 0.000000 0.000000 0.000000 0.043942 0.000000 0.000000
# 5 0.000000 0.000000 0.000000 0.000000 0.043942 0.000000
# 6 0.006213 -0.006213 0.000000 0.000000 0.000000 0.045690
#
#
# Mechanical properties :
#
#
# Convention : Reuss Voigt Hill
#
# Bulk Modulus (GPa) = 25.70016 50.22067 37.96041
# Shear Modulus (GPa) = 20.95904 27.99381 24.47642
#
# Velocity S-wave (km/s) = 3.26176 3.76962 3.52485
# Velocity P-wave (km/s) = 5.21835 6.66628 5.98625
#
# Compressibility (1/GPa) = 0.03891027
#
# Stress axis : x y z
#
# Youngs Moduli (GPa) = 100.92014 100.92014 21.90783
#
# Poissons Ratio (x) = 0.30212 0.11264
# Poissons Ratio (y) = 0.30212 0.11264
# Poissons Ratio (z) = 0.51888 0.51888
#
# Static dielectric constant tensor:
#      x y z
#    x 1.729510 0.000000 0.000000 
#    y 0.000000 1.729510 0.000000 
#    z 0.000000 0.000000 1.679440 
# 
# From -- ./inp_files/2618.got.cif
#   From: 2010.05.17/outbox.cif.g08.bks.cpg/sg83_2_cif.got.tgz:2618.got - 2010.06.03 18:55:12.
