data_PCOD9543477
_publ_section_title
;
Structure prediction by ZEFSAII (Michael W. Deem and Ramdas Pophale) SiO2 
 PCOD9543477
Probable space group: P 4/M
;
_chemical_formula_sum "Si O2"
_cell_formula_units_Z 52
_cell_length_a 18.168145
_cell_length_b 18.168145
_cell_length_c 7.294376
_cell_angle_alpha 90.000000
_cell_angle_beta 90.000000
_cell_angle_gamma 90.000000
_cell_volume 2407.738519
_symmetry_space_group_name_H-M "P 4/M"
_symmetry_group_IT_number 83
_symmetry_cell_setting 'tetragonal'
loop_
_space_group_symop_operation_xyz
x,y,z
-y,x,z
-x,-y,z
y,-x,z
-x,-y,-z
y,-x,-z
x,y,-z
-y,x,-z
loop_
_atom_site_type_symbol
_atom_site_label
_atom_site_fract_x
_atom_site_fract_y
_atom_site_fract_z
Si Si1 0.928721 0.453382 0.276984
Si Si2 0.018970 0.706657 0.722890
Si Si3 0.214717 0.457977 0.723908
Si Si4 0.856970 0.177634 0.281680
Si Si5 0.932619 0.899478 0.000000
Si Si6 0.510864 0.381137 0.276946
Si Si7 0.847929 0.699061 0.277930
O O1 0.928333 0.455533 0.500000
O O2 0.943592 0.369973 0.223017
O O3 0.851216 0.487702 0.218376
O O4 0.000000 0.500000 0.218712
O O5 0.016391 0.709817 0.500000
O O6 0.076456 0.769956 0.779331
O O7 0.933513 0.705825 0.783510
O O8 0.215563 0.458421 0.500000
O O9 0.296928 0.479464 0.783295
O O10 0.190143 0.376146 0.782321
O O11 0.861439 0.170539 0.500000
O O12 0.772808 0.198053 0.233059
O O13 0.864975 0.099698 0.183012
O O14 0.018289 0.902967 0.000000
O O15 0.577863 0.435294 0.221811
O O16 0.510798 0.380248 0.500000
O O17 0.851299 0.695512 0.500000
#
# Coordination Sequence:
#
# PCOD9543477 Si02
#       7
#     8   8   8   8   4   8   8
#     4   9  14  22  37  61  92 126 165 209 257 314
#     4   9  16  27  44  66  96 133 168 208 267 325
#     4   9  15  22  37  60  89 126 169 218 264 315
#     4  10  21  36  55  80 108 139 179 227 275 324
#     4  11  24  40  58  80 105 139 183 224 272 334
#     4   8  14  23  32  45  74 120 167 207 254 309
#     4   9  16  27  43  65  95 128 163 211 267 318
#
# _framework density 21.597031000000001
#
# number of rings (size 3 to 8) (size 9 to 14) (size 15 to 20)
#    0.000    2.846    1.538    1.385    0.000    3.077 
#    0.000    6.923    0.000    0.000    0.000    1.615 
#    0.000    0.000    0.000    0.000    0.000    5.385 
#
# Total GULP energy -290149.737298 kJ/mol
# GULP energy per Si atom -5579.802640 kJ/mol
# Density = 2.154788 g / cm^3
# Si number density = 21.597031 Si / 1000 Ang^3
#
#
#
# Elastic Constant Matrix: (Units=GPa)
#
#
# Indices 1 2 3 4 5 6 
#
# 1 160.9250 75.2164 9.8943 0.0000 0.0000 9.6806
# 2 75.2164 160.9250 9.8943 0.0000 0.0000 -9.6806
# 3 9.8943 9.8943 81.1547 0.0000 0.0000 0.0000
# 4 0.0000 0.0000 0.0000 5.7373 0.0000 0.0000
# 5 0.0000 0.0000 0.0000 0.0000 5.7373 0.0000
# 6 9.6806 -9.6806 0.0000 0.0000 0.0000 26.1805
#
#
#
# Elastic Compliance Matrix: (Units=1/GPa)
#
#
# Indices 1 2 3 4 5 6 
#
# 1 0.008505 -0.004226 -0.000522 0.000000 0.000000 -0.004707
# 2 -0.004226 0.008505 -0.000522 0.000000 0.000000 0.004707
# 3 -0.000522 -0.000522 0.012449 0.000000 0.000000 0.000000
# 4 0.000000 0.000000 0.000000 0.174299 0.000000 0.000000
# 5 0.000000 0.000000 0.000000 0.000000 0.174299 0.000000
# 6 -0.004707 0.004707 0.000000 0.000000 0.000000 0.041678
#
#
# Mechanical properties :
#
#
# Convention : Reuss Voigt Hill
#
# Bulk Modulus (GPa) = 52.85477 65.89050 59.37263
# Shear Modulus (GPa) = 11.45266 28.06432 19.75849
#
# Velocity S-wave (km/s) = 2.30530 3.60870 3.02796
# Velocity P-wave (km/s) = 5.62247 6.92379 6.30679
#
# Compressibility (1/GPa) = 0.01891977
#
# Stress axis : x y z
#
# Youngs Moduli (GPa) = 117.58284 117.58284 80.32554
#
# Poissons Ratio (x) = 0.49693 0.04190
# Poissons Ratio (y) = 0.49693 0.04190
# Poissons Ratio (z) = 0.06133 0.06133
#
# Static dielectric constant tensor:
#      x y z
#    x 1.758160 0.000000 0.000000 
#    y 0.000000 1.758160 0.000000 
#    z 0.000000 0.000000 1.801630 
# 
# From -- ./inp_files/976.got.cif
#   From: 2010.05.17/outbox.cif.g08.bks.cpg/sg83_1_cif.got.tgz:976.got - 2010.06.03 18:55:12.
