data_PCOD9543005
_publ_section_title
;
Structure prediction by ZEFSAII (Michael W. Deem and Ramdas Pophale) SiO2 
 PCOD9543005
Probable space group: I -4 
;
_chemical_formula_sum "Si O2"
_cell_formula_units_Z 16
_cell_length_a 5.066793
_cell_length_b 5.066793
_cell_length_c 25.286286
_cell_angle_alpha 90.000000
_cell_angle_beta 90.000000
_cell_angle_gamma 90.000000
_cell_volume 649.159429
_symmetry_space_group_name_H-M "I -4 "
_symmetry_group_IT_number 82
_symmetry_cell_setting 'tetragonal'
loop_
_space_group_symop_operation_xyz
x,y,z
y,-x,-z
-x,-y,z
-y,x,-z
1/2+x,1/2+y,1/2+z
1/2+y,1/2-x,1/2-z
1/2-x,1/2-y,1/2+z
1/2-y,1/2+x,1/2-z
loop_
_atom_site_type_symbol
_atom_site_label
_atom_site_fract_x
_atom_site_fract_y
_atom_site_fract_z
Si Si1 0.000000 0.000000 0.500000
Si Si2 0.000000 0.500000 0.570665
Si Si3 0.809448 0.747431 0.340407
Si Si4 0.500000 0.000000 0.250000
O O1 0.251597 0.917708 0.464923
O O2 0.776635 0.385316 0.609800
O O3 0.636656 0.786219 0.287855
O O4 0.000000 0.500000 0.340506
O O5 0.000000 0.000000 0.343186
#
# Coordination Sequence:
#
# PCOD9543005 Si02
#       4
#     2   4   8   2
#     4  12  28  48  84 116 160 208 268 332 400 474
#     4  11  28  53  80 120 158 211 268 331 402 476
#     4  11  27  50  81 116 164 210 265 330 397 478
#     4  10  28  44  80 124 164 216 268 326 400 478
#
# _framework density 24.647262999999999
#
# number of rings (size 3 to 8) (size 9 to 14) (size 15 to 20)
#    0.000    1.000    2.500    0.000   10.500   11.000 
#    0.000    0.000    5.500    0.000    0.000    0.000 
#    0.000    0.000    0.000    0.000    0.000    0.000 
#
# Total GULP energy -44896.060885 kJ/mol
# GULP energy per Si atom -5612.007611 kJ/mol
# Density = 2.459116 g / cm^3
# Si number density = 24.647263 Si / 1000 Ang^3
#
#
#
# Elastic Constant Matrix: (Units=GPa)
#
#
# Indices 1 2 3 4 5 6 
#
# 1 200.0659 87.3331 83.1255 0.0000 0.0000 5.3712
# 2 87.3331 200.0659 83.1255 0.0000 0.0000 -5.3712
# 3 83.1255 83.1255 181.2751 0.0000 0.0000 0.0000
# 4 0.0000 0.0000 0.0000 -8.7639 0.0000 0.0000
# 5 0.0000 0.0000 0.0000 0.0000 -8.7639 0.0000
# 6 5.3712 -5.3712 0.0000 0.0000 0.0000 68.1085
#
#
#
# Elastic Compliance Matrix: (Units=1/GPa)
#
#
# Indices 1 2 3 4 5 6 
#
# 1 0.006837 -0.002101 -0.002172 0.000000 0.000000 -0.000705
# 2 -0.002101 0.006837 -0.002172 0.000000 0.000000 0.000705
# 3 -0.002172 -0.002172 0.007508 0.000000 0.000000 0.000000
# 4 0.000000 0.000000 0.000000 -0.114105 0.000000 0.000000
# 5 0.000000 0.000000 0.000000 0.000000 -0.114105 0.000000
# 6 -0.000705 0.000705 0.000000 0.000000 0.000000 0.014794
#
#
# Mechanical properties :
#
#
# Convention : Reuss Voigt Hill
#
# Bulk Modulus (GPa) = 120.58250 120.95276 120.76763
# Shear Modulus (GPa) = -28.31555 31.97100 1.82773
#
# Velocity S-wave (km/s) = -3.39312 3.60549 0.86207
# Velocity P-wave (km/s) = 5.80332 8.15554 7.07783
#
# Compressibility (1/GPa) = 0.00829308
#
# Stress axis : x y z
#
# Youngs Moduli (GPa) = 146.26966 146.26966 133.18968
#
# Poissons Ratio (x) = 0.30731 0.28923
# Poissons Ratio (y) = 0.30731 0.28923
# Poissons Ratio (z) = 0.31764 0.31764
#
# Static dielectric constant tensor:
#      x y z
#    x 1.775950 0.000000 0.000000 
#    y 0.000000 1.775950 0.000000 
#    z 0.000000 0.000000 1.976700 
# 
# From -- ./inp_files/2753.got.cif
#   From: 2010.05.17/outbox.cif.g08.bks.cpg/sg82_2_cif.got.tgz:2753.got - 2010.06.03 18:52:26.
