data_PCOD9543063
_publ_section_title
;
Structure prediction by ZEFSAII (Michael W. Deem and Ramdas Pophale) SiO2 
 PCOD9543063
Probable space group: I -4 
;
_chemical_formula_sum "Si O2"
_cell_formula_units_Z 56
_cell_length_a 15.386236
_cell_length_b 15.386236
_cell_length_c 10.916948
_cell_angle_alpha 90.000000
_cell_angle_beta 90.000000
_cell_angle_gamma 90.000000
_cell_volume 2584.437421
_symmetry_space_group_name_H-M "I -4 "
_symmetry_group_IT_number 82
_symmetry_cell_setting 'tetragonal'
loop_
_space_group_symop_operation_xyz
x,y,z
y,-x,-z
-x,-y,z
-y,x,-z
1/2+x,1/2+y,1/2+z
1/2+y,1/2-x,1/2-z
1/2-x,1/2-y,1/2+z
1/2-y,1/2+x,1/2-z
loop_
_atom_site_type_symbol
_atom_site_label
_atom_site_fract_x
_atom_site_fract_y
_atom_site_fract_z
Si Si1 0.841708 0.121490 0.983474
Si Si2 0.506695 0.103372 0.120014
Si Si3 0.916305 0.267748 0.289343
Si Si4 0.754321 0.211691 0.415177
Si Si5 0.695104 0.103422 0.179225
Si Si6 0.014767 0.899840 0.177873
Si Si7 0.098970 0.324114 0.397172
O O1 0.819085 0.220637 0.957247
O O2 0.850642 0.074287 0.853812
O O3 0.769119 0.086655 0.078778
O O4 0.932478 0.105943 0.050635
O O5 0.607267 0.128326 0.107816
O O6 0.475161 0.160986 0.235485
O O7 0.500000 0.000000 0.132820
O O8 0.441306 0.121494 0.009305
O O9 0.842874 0.263904 0.393503
O O10 0.929885 0.165093 0.260922
O O11 0.875181 0.329546 0.183687
O O12 0.012323 0.301273 0.321573
O O13 0.728726 0.171084 0.282742
O O14 0.755511 0.143315 0.527464
O O15 0.000000 0.000000 0.214881
#
# Coordination Sequence:
#
# PCOD9543063 Si02
#       7
#     8   8   8   8   8   8   8
#     4  12  23  40  68  95 134 176 232 287 344 406
#     4  11  23  39  61 105 139 176 234 269 359 413
#     4  12  26  50  68 105 141 181 237 282 365 415
#     4  11  24  46  67 102 138 183 235 282 351 428
#     4  11  22  39  65  95 140 182 223 295 336 418
#     4  12  25  44  68  99 130 176 238 288 340 412
#     4  11  27  43  74 103 140 190 223 295 353 424
#
# _framework density 21.668157999999998
#
# number of rings (size 3 to 8) (size 9 to 14) (size 15 to 20)
#    0.000    0.571    5.714    1.714    6.000    0.000 
#    2.571    0.000    0.000    0.000    0.000    0.000 
#    0.000    0.000    0.000    0.000    0.000    0.000 
#
# Total GULP energy -156106.091619 kJ/mol
# GULP energy per Si atom -5575.217558 kJ/mol
# Density = 2.161884 g / cm^3
# Si number density = 21.668158 Si / 1000 Ang^3
#
#
#
# Elastic Constant Matrix: (Units=GPa)
#
#
# Indices 1 2 3 4 5 6 
#
# 1 109.0966 26.7047 41.3023 0.0000 0.0000 11.5901
# 2 26.7047 109.0966 41.3023 0.0000 0.0000 -11.5901
# 3 41.3023 41.3023 83.7509 0.0000 0.0000 0.0000
# 4 0.0000 0.0000 0.0000 9.9163 0.0000 0.0000
# 5 0.0000 0.0000 0.0000 0.0000 9.9163 0.0000
# 6 11.5901 -11.5901 0.0000 0.0000 0.0000 33.4847
#
#
#
# Elastic Compliance Matrix: (Units=1/GPa)
#
#
# Indices 1 2 3 4 5 6 
#
# 1 0.011983 -0.001464 -0.005188 0.000000 0.000000 -0.004654
# 2 -0.001464 0.011983 -0.005188 0.000000 0.000000 0.004654
# 3 -0.005188 -0.005188 0.017057 0.000000 0.000000 0.000000
# 4 0.000000 0.000000 0.000000 0.100844 0.000000 0.000000
# 5 0.000000 0.000000 0.000000 0.000000 0.100844 0.000000
# 6 -0.004654 0.004654 0.000000 0.000000 0.000000 0.033086
#
#
# Mechanical properties :
#
#
# Convention : Reuss Voigt Hill
#
# Bulk Modulus (GPa) = 57.65442 57.84031 57.74737
# Shear Modulus (GPa) = 16.37967 23.50577 19.94272
#
# Velocity S-wave (km/s) = 2.75241 3.29721 3.03705
# Velocity P-wave (km/s) = 6.06355 6.42239 6.24555
#
# Compressibility (1/GPa) = 0.01734472
#
# Stress axis : x y z
#
# Youngs Moduli (GPa) = 83.45235 83.45235 58.62767
#
# Poissons Ratio (x) = 0.12215 0.30414
# Poissons Ratio (y) = 0.12215 0.30414
# Poissons Ratio (z) = 0.43292 0.43292
#
# Static dielectric constant tensor:
#      x y z
#    x 1.845980 0.000000 0.000000 
#    y 0.000000 1.845980 0.000000 
#    z 0.000000 0.000000 1.826290 
# 
# From -- ./inp_files/1844.got.cif
#   From: 2010.05.17/outbox.cif.g08.bks.cpg/sg82_1_cif.got.tgz:1844.got - 2010.06.03 18:52:26.
