data_PCOD9543155
_publ_section_title
;
Structure prediction by ZEFSAII (Michael W. Deem and Ramdas Pophale) SiO2 
 PCOD9543155
Probable space group: I -4 
;
_chemical_formula_sum "Si O2"
_cell_formula_units_Z 48
_cell_length_a 18.897079
_cell_length_b 18.897079
_cell_length_c 4.917880
_cell_angle_alpha 90.000000
_cell_angle_beta 90.000000
_cell_angle_gamma 90.000000
_cell_volume 1756.172955
_symmetry_space_group_name_H-M "I -4 "
_symmetry_group_IT_number 82
_symmetry_cell_setting 'tetragonal'
loop_
_space_group_symop_operation_xyz
x,y,z
y,-x,-z
-x,-y,z
-y,x,-z
1/2+x,1/2+y,1/2+z
1/2+y,1/2-x,1/2-z
1/2-x,1/2-y,1/2+z
1/2-y,1/2+x,1/2-z
loop_
_atom_site_type_symbol
_atom_site_label
_atom_site_fract_x
_atom_site_fract_y
_atom_site_fract_z
Si Si1 0.753191 0.021723 0.912355
Si Si2 0.404283 0.680019 0.992151
Si Si3 0.292272 0.253404 0.179019
Si Si4 0.066300 0.678269 0.684580
Si Si5 0.617119 0.862265 0.857654
Si Si6 0.055108 0.088808 0.099591
O O1 0.783141 0.956799 0.725975
O O2 0.689483 0.056834 0.747042
O O3 0.827542 0.062044 0.954739
O O4 0.714506 0.005748 0.198606
O O5 0.327880 0.669104 0.864728
O O6 0.392927 0.745114 0.203450
O O7 0.427780 0.611531 0.163173
O O8 0.220327 0.257890 0.997680
O O9 0.333246 0.192907 0.019640
O O10 0.093981 0.647035 0.400081
O O11 0.080005 0.615310 0.901616
O O12 0.970384 0.074705 0.127604
#
# Coordination Sequence:
#
# PCOD9543155 Si02
#       6
#     8   8   8   8   8   8
#     4  12  28  50  80 115 163 222 273 343 412 500
#     4  12  25  46  74 108 164 209 271 336 397 479
#     4  12  22  41  71 112 148 195 257 332 405 464
#     4  12  25  49  77 116 159 196 275 349 412 488
#     4  12  26  46  80 117 150 208 266 348 423 475
#     4  11  26  46  71 109 164 229 269 313 381 501
#
# _framework density 27.332162
#
# number of rings (size 3 to 8) (size 9 to 14) (size 15 to 20)
#    0.000    0.167    8.333    0.000    2.333    2.667 
#    6.000    0.000    3.667    3.000    0.000    0.000 
#    0.000    0.000    0.000    0.000    0.000    0.000 
#
# Total GULP energy -133814.615951 kJ/mol
# GULP energy per Si atom -5575.608998 kJ/mol
# Density = 2.726995 g / cm^3
# Si number density = 27.332162 Si / 1000 Ang^3
#
#
#
# Elastic Constant Matrix: (Units=GPa)
#
#
# Indices 1 2 3 4 5 6 
#
# 1 84.6380 45.6568 73.3456 0.0000 0.0000 9.7821
# 2 45.6568 84.6380 73.3456 0.0000 0.0000 -9.7821
# 3 73.3456 73.3456 156.7087 0.0000 0.0000 0.0000
# 4 0.0000 0.0000 0.0000 49.5298 0.0000 0.0000
# 5 0.0000 0.0000 0.0000 0.0000 49.5298 0.0000
# 6 9.7821 -9.7821 0.0000 0.0000 0.0000 24.7402
#
#
#
# Elastic Compliance Matrix: (Units=1/GPa)
#
#
# Indices 1 2 3 4 5 6 
#
# 1 0.024114 -0.007890 -0.007593 0.000000 0.000000 -0.012654
# 2 -0.007890 0.024114 -0.007593 0.000000 0.000000 0.012654
# 3 -0.007593 -0.007593 0.013489 0.000000 0.000000 0.000000
# 4 0.000000 0.000000 0.000000 0.020190 0.000000 0.000000
# 5 0.000000 0.000000 0.000000 0.000000 0.020190 0.000000
# 6 -0.012654 0.012654 0.000000 0.000000 0.000000 0.050427
#
#
# Mechanical properties :
#
#
# Convention : Reuss Voigt Hill
#
# Bulk Modulus (GPa) = 64.25321 78.96451 71.60886
# Shear Modulus (GPa) = 24.52592 33.66908 29.09750
#
# Velocity S-wave (km/s) = 2.99879 3.51358 3.26634
# Velocity P-wave (km/s) = 5.96235 6.73897 6.36252
#
# Compressibility (1/GPa) = 0.01556343
#
# Stress axis : x y z
#
# Youngs Moduli (GPa) = 41.46948 41.46948 74.13326
#
# Poissons Ratio (x) = 0.32721 0.56292
# Poissons Ratio (y) = 0.32721 0.56292
# Poissons Ratio (z) = 0.31489 0.31489
#
# Static dielectric constant tensor:
#      x y z
#    x 2.299920 0.000000 0.000000 
#    y 0.000000 2.299920 0.000000 
#    z 0.000000 0.000000 2.253980 
# 
# From -- ./inp_files/374.got.cif
#   From: 2010.05.17/outbox.cif.g08.bks.cpg/sg82_1_cif.got.tgz:374.got - 2010.06.03 18:52:26.
