data_PCOD9543437
_publ_section_title
;
Structure prediction by ZEFSAII (Michael W. Deem and Ramdas Pophale) SiO2 
 PCOD9543437
Probable space group: P 4/M
;
_chemical_formula_sum "Si O2"
_cell_formula_units_Z 40
_cell_length_a 16.270939
_cell_length_b 16.270939
_cell_length_c 8.052896
_cell_angle_alpha 90.000000
_cell_angle_beta 90.000000
_cell_angle_gamma 90.000000
_cell_volume 2131.951517
_symmetry_space_group_name_H-M "P 4/M"
_symmetry_group_IT_number 83
_symmetry_cell_setting 'tetragonal'
loop_
_space_group_symop_operation_xyz
x,y,z
-y,x,z
-x,-y,z
y,-x,z
-x,-y,-z
y,-x,-z
x,y,-z
-y,x,-z
loop_
_atom_site_type_symbol
_atom_site_label
_atom_site_fract_x
_atom_site_fract_y
_atom_site_fract_z
Si Si1 0.675218 0.663868 0.806825
Si Si2 0.881783 0.059737 0.797248
Si Si3 0.284274 0.853794 0.203041
Si Si4 0.086010 0.462365 0.799098
Si Si5 0.506801 0.736725 0.308956
O O1 0.758887 0.707194 0.744504
O O2 0.693560 0.566800 0.791496
O O3 0.593396 0.692616 0.716665
O O4 0.664598 0.685081 0.000000
O O5 0.798379 0.102171 0.739527
O O6 0.964806 0.107123 0.746636
O O7 0.880489 0.060297 0.000000
O O8 0.367717 0.900317 0.253634
O O9 0.283887 0.853206 0.000000
O O10 0.167649 0.510222 0.742819
O O11 0.000000 0.500000 0.740172
O O12 0.085324 0.463687 0.000000
O O13 0.481964 0.732342 0.500000
#
# Coordination Sequence:
#
# PCOD9543437 Si02
#       5
#     8   8   8   8   8
#     4  10  20  36  55  75 100 133 173 213 254 306
#     4   8  13  21  35  60  95 129 158 194 244 296
#     4   8  15  27  44  67  95 127 166 210 251 294
#     4   9  18  33  52  74 101 137 180 220 258 305
#     4  11  22  36  54  78 107 136 168 211 265 317
#
# _framework density 18.762153000000001
#
# number of rings (size 3 to 8) (size 9 to 14) (size 15 to 20)
#    0.000    2.800    0.000    4.200    0.000    2.400 
#    0.000    8.000    0.000    0.000    0.000    0.000 
#    0.000    0.000    0.000   56.800    0.000   52.000 
#
# Total GULP energy -223069.066134 kJ/mol
# GULP energy per Si atom -5576.726653 kJ/mol
# Density = 1.871945 g / cm^3
# Si number density = 18.762153 Si / 1000 Ang^3
#
#
#
# Elastic Constant Matrix: (Units=GPa)
#
#
# Indices 1 2 3 4 5 6 
#
# 1 115.6488 76.8072 -4.6366 0.0000 0.0000 -18.0112
# 2 76.8072 115.6488 -4.6366 0.0000 0.0000 18.0112
# 3 -4.6366 -4.6366 19.4333 0.0000 0.0000 0.0000
# 4 0.0000 0.0000 0.0000 -1.5081 0.0000 0.0000
# 5 0.0000 0.0000 0.0000 0.0000 -1.5081 0.0000
# 6 -18.0112 18.0112 0.0000 0.0000 0.0000 28.8888
#
#
#
# Elastic Compliance Matrix: (Units=1/GPa)
#
#
# Indices 1 2 3 4 5 6 
#
# 1 0.033148 -0.027892 0.001254 0.000000 0.000000 0.038056
# 2 -0.027892 0.033148 0.001254 0.000000 0.000000 -0.038056
# 3 0.001254 0.001254 0.052057 0.000000 0.000000 0.000000
# 4 0.000000 0.000000 0.000000 -0.663080 0.000000 0.000000
# 5 0.000000 0.000000 0.000000 0.000000 -0.663080 0.000000
# 6 0.038056 -0.038056 0.000000 0.000000 0.000000 0.082069
#
#
# Mechanical properties :
#
#
# Convention : Reuss Voigt Hill
#
# Bulk Modulus (GPa) = 14.79597 42.86652 28.83124
# Shear Modulus (GPa) = -4.75085 17.38764 6.31839
#
# Velocity S-wave (km/s) = -1.59300 3.04754 1.83710
# Velocity P-wave (km/s) = 2.12595 5.93972 4.46094
#
# Compressibility (1/GPa) = 0.06758599
#
# Stress axis : x y z
#
# Youngs Moduli (GPa) = 30.16765 30.16765 19.20987
#
# Poissons Ratio (x) = 0.84143 -0.02409
# Poissons Ratio (y) = 0.84143 -0.02409
# Poissons Ratio (z) = -0.03783 -0.03783
#
# Static dielectric constant tensor:
#      x y z
#    x 1.627760 0.000000 0.000000 
#    y 0.000000 1.627760 0.000000 
#    z 0.000000 0.000000 1.651240 
# 
# From -- ./inp_files/685.got.cif
#   From: 2010.05.17/outbox.cif.g08.bks.cpg/sg83_1_cif.got.tgz:685.got - 2010.06.03 18:55:12.
