data_PCOD9543806
_publ_section_title
;
Structure prediction by ZEFSAII (Michael W. Deem and Ramdas Pophale) SiO2 
 PCOD9543806
Probable space group: P 4/M
;
_chemical_formula_sum "Si O2"
_cell_formula_units_Z 25
_cell_length_a 8.315449
_cell_length_b 8.315449
_cell_length_c 16.535340
_cell_angle_alpha 90.000000
_cell_angle_beta 90.000000
_cell_angle_gamma 90.000000
_cell_volume 1143.364063
_symmetry_space_group_name_H-M "P 4/M"
_symmetry_group_IT_number 83
_symmetry_cell_setting 'tetragonal'
loop_
_space_group_symop_operation_xyz
x,y,z
-y,x,z
-x,-y,z
y,-x,z
-x,-y,-z
y,-x,-z
x,y,-z
-y,x,-z
loop_
_atom_site_type_symbol
_atom_site_label
_atom_site_fract_x
_atom_site_fract_y
_atom_site_fract_z
Si Si1 0.612191 0.152563 0.500000
Si Si2 0.909759 0.746454 0.000000
Si Si3 0.500000 0.500000 0.500000
Si Si4 0.260099 0.365121 0.668039
Si Si5 0.749661 0.609132 0.845267
O O1 0.494367 0.306125 0.500000
O O2 0.692849 0.164787 0.588778
O O3 0.500000 0.000000 0.500000
O O4 0.863095 0.652491 0.080901
O O5 0.092778 0.801566 0.000000
O O6 0.440666 0.291763 0.665333
O O7 0.183992 0.343288 0.756481
O O8 0.578786 0.702583 0.850450
#
# Coordination Sequence:
#
# PCOD9543806 Si02
#       5
#     4   4   1   8   8
#     4  12  20  32  64  96 120 178 214 242 326 396
#     4  11  24  41  54  76 116 161 196 243 314 370
#     4  12  20  44  60  80 148 158 212 300 300 352
#     4   9  15  33  58  85 122 158 190 253 309 349
#     4   9  19  35  61  88 112 144 195 251 305 358
#
# _framework density 21.865303000000001
#
# number of rings (size 3 to 8) (size 9 to 14) (size 15 to 20)
#    0.000    2.080    3.200    2.880    0.000    3.840 
#   11.520    0.000    0.000    0.480    0.000    0.000 
#    0.000    0.000    0.000    0.000    0.000    0.000 
#
# Total GULP energy -139220.956688 kJ/mol
# GULP energy per Si atom -5568.838268 kJ/mol
# Density = 2.181554 g / cm^3
# Si number density = 21.865303 Si / 1000 Ang^3
#
#
#
# Elastic Constant Matrix: (Units=GPa)
#
#
# Indices 1 2 3 4 5 6 
#
# 1 39.6794 16.3628 22.7049 0.0000 0.0000 -4.4907
# 2 16.3628 39.6794 22.7049 0.0000 0.0000 4.4907
# 3 22.7049 22.7049 212.9028 0.0000 0.0000 0.0000
# 4 0.0000 0.0000 0.0000 -14.8585 0.0000 0.0000
# 5 0.0000 0.0000 0.0000 0.0000 -14.8585 0.0000
# 6 -4.4907 4.4907 0.0000 0.0000 0.0000 18.0454
#
#
#
# Elastic Compliance Matrix: (Units=1/GPa)
#
#
# Indices 1 2 3 4 5 6 
#
# 1 0.033483 -0.013952 -0.002083 0.000000 0.000000 0.011805
# 2 -0.013952 0.033483 -0.002083 0.000000 0.000000 -0.011805
# 3 -0.002083 -0.002083 0.005141 0.000000 0.000000 0.000000
# 4 0.000000 0.000000 0.000000 -0.067302 0.000000 0.000000
# 5 0.000000 0.000000 0.000000 0.000000 -0.067302 0.000000
# 6 0.011805 -0.011805 0.000000 0.000000 0.000000 0.061291
#
#
# Mechanical properties :
#
#
# Convention : Reuss Voigt Hill
#
# Bulk Modulus (GPa) = 27.87651 46.20073 37.03862
# Shear Modulus (GPa) = 106.40871 13.03160 59.72016
#
# Velocity S-wave (km/s) = 6.98364 2.44395 5.23183
# Velocity P-wave (km/s) = 8.82072 5.39809 7.31247
#
# Compressibility (1/GPa) = 0.03587250
#
# Stress axis : x y z
#
# Youngs Moduli (GPa) = 29.86569 29.86569 194.50550
#
# Poissons Ratio (x) = 0.41668 0.40514
# Poissons Ratio (y) = 0.41668 0.40514
# Poissons Ratio (z) = 0.06221 0.06221
#
# Static dielectric constant tensor:
#      x y z
#    x 1.777250 0.000000 0.000000 
#    y 0.000000 1.777250 0.000000 
#    z 0.000000 0.000000 1.952350 
# 
# From -- ./inp_files/2496.got.cif
#   From: 2010.05.17/outbox.cif.g08.bks.cpg/sg83_2_cif.got.tgz:2496.got - 2010.06.03 18:55:12.
