data_PCOD9543986
_publ_section_title
;
Structure prediction by ZEFSAII (Michael W. Deem and Ramdas Pophale) SiO2 
 PCOD9543986
Probable space group: P 42/M
;
_chemical_formula_sum "Si O2"
_cell_formula_units_Z 48
_cell_length_a 10.115601
_cell_length_b 10.115601
_cell_length_c 27.288451
_cell_angle_alpha 90.000000
_cell_angle_beta 90.000000
_cell_angle_gamma 90.000000
_cell_volume 2792.301216
_symmetry_space_group_name_H-M "P 42/M"
_symmetry_group_IT_number 84
_symmetry_cell_setting 'tetragonal'
loop_
_space_group_symop_operation_xyz
x,y,z
-y,x,1/2+z
-x,-y,z
y,-x,1/2+z
-x,-y,-z
y,-x,1/2-z
x,y,-z
-y,x,1/2-z
loop_
_atom_site_type_symbol
_atom_site_label
_atom_site_fract_x
_atom_site_fract_y
_atom_site_fract_z
Si Si1 0.259051 0.361399 0.794375
Si Si2 0.326406 0.249862 0.306043
Si Si3 0.014415 0.343696 0.134724
Si Si4 0.402829 0.122128 0.058563
Si Si5 0.092085 0.125382 0.941591
Si Si6 0.496093 0.344946 0.131603
O O1 0.256157 0.520156 0.788666
O O2 0.247576 0.287004 0.742885
O O3 0.393996 0.331035 0.823270
O O4 0.140987 0.327745 0.830706
O O5 0.303423 0.111524 0.332618
O O6 0.307487 0.361828 0.346995
O O7 0.000000 0.500000 0.122163
O O8 0.038732 0.251329 0.088135
O O9 0.247272 0.098447 0.069768
O O10 0.449884 0.250516 0.088191
O O11 0.500000 0.000000 0.071375
O O12 0.413494 0.142413 0.000000
O O13 0.083137 0.148209 0.000000
O O14 0.000000 0.000000 0.929518
O O15 0.500000 0.500000 0.117399
#
# Coordination Sequence:
#
# PCOD9543986 Si02
#       6
#     8   8   8   8   8   8
#     4  10  18  37  56  81 117 153 193 238 288 345
#     4  10  20  34  58  84 115 155 193 235 288 347
#     4  10  22  39  59  86 117 148 198 246 281 336
#     4  10  22  41  61  87 118 149 193 245 294 349
#     4  10  22  42  63  82 115 158 191 234 297 353
#     4  10  20  35  63  86 112 155 196 237 291 343
#
# _framework density 17.190123
#
# number of rings (size 3 to 8) (size 9 to 14) (size 15 to 20)
#    0.000    2.000    3.333    0.000    2.333    0.667 
#    6.000    0.000    0.000    0.000    0.000    0.000 
#    0.000    0.000    0.000    0.000    0.000    0.000 
#
# Total GULP energy -267697.547439 kJ/mol
# GULP energy per Si atom -5577.032238 kJ/mol
# Density = 1.715100 g / cm^3
# Si number density = 17.190123 Si / 1000 Ang^3
#
#
#
# Elastic Constant Matrix: (Units=GPa)
#
#
# Indices 1 2 3 4 5 6 
#
# 1 73.0308 52.1870 45.7405 0.0000 0.0000 10.2227
# 2 52.1870 73.0308 45.7405 0.0000 0.0000 -10.2227
# 3 45.7405 45.7405 66.4044 0.0000 0.0000 0.0000
# 4 0.0000 0.0000 0.0000 5.5081 0.0000 0.0000
# 5 0.0000 0.0000 0.0000 0.0000 5.5081 0.0000
# 6 10.2227 -10.2227 0.0000 0.0000 0.0000 20.6841
#
#
#
# Elastic Compliance Matrix: (Units=1/GPa)
#
#
# Indices 1 2 3 4 5 6 
#
# 1 0.054597 -0.038521 -0.011073 0.000000 0.000000 -0.046022
# 2 -0.038521 0.054597 -0.011073 0.000000 0.000000 0.046022
# 3 -0.011073 -0.011073 0.030314 0.000000 0.000000 0.000000
# 4 0.000000 0.000000 0.000000 0.181552 0.000000 0.000000
# 5 0.000000 0.000000 0.000000 0.000000 0.181552 0.000000
# 6 -0.046022 0.046022 0.000000 0.000000 0.000000 0.093837
#
#
# Mechanical properties :
#
#
# Convention : Reuss Voigt Hill
#
# Bulk Modulus (GPa) = 55.02763 55.53357 55.28060
# Shear Modulus (GPa) = 6.90758 10.92658 8.91708
#
# Velocity S-wave (km/s) = 2.00676 2.52391 2.28004
# Velocity P-wave (km/s) = 6.11965 6.39290 6.25776
#
# Compressibility (1/GPa) = 0.01817269
#
# Stress axis : x y z
#
# Youngs Moduli (GPa) = 18.31603 18.31603 32.98765
#
# Poissons Ratio (x) = 0.70555 0.36529
# Poissons Ratio (y) = 0.70555 0.36529
# Poissons Ratio (z) = 0.20282 0.20282
#
# Static dielectric constant tensor:
#      x y z
#    x 1.659110 0.000000 0.000000 
#    y 0.000000 1.659110 0.000000 
#    z 0.000000 0.000000 1.555610 
# 
# From -- ./inp_files/5758.got.cif
#   From: 2010.05.17/outbox.cif.g08.bks.cpg/sg84_3_cif.got.tgz:5758.got - 2010.06.03 18:57:40.
