data_PCOD9543451
_publ_section_title
;
Structure prediction by ZEFSAII (Michael W. Deem and Ramdas Pophale) SiO2 
 PCOD9543451
Probable space group: P 4/M
;
_chemical_formula_sum "Si O2"
_cell_formula_units_Z 56
_cell_length_a 15.039628
_cell_length_b 15.039628
_cell_length_c 14.123525
_cell_angle_alpha 90.000000
_cell_angle_beta 90.000000
_cell_angle_gamma 90.000000
_cell_volume 3194.605916
_symmetry_space_group_name_H-M "P 4/M"
_symmetry_group_IT_number 83
_symmetry_cell_setting 'tetragonal'
loop_
_space_group_symop_operation_xyz
x,y,z
-y,x,z
-x,-y,z
y,-x,z
-x,-y,-z
y,-x,-z
x,y,-z
-y,x,-z
loop_
_atom_site_type_symbol
_atom_site_label
_atom_site_fract_x
_atom_site_fract_y
_atom_site_fract_z
Si Si1 0.460658 0.644966 0.109452
Si Si2 0.568905 0.258978 0.299785
Si Si3 0.094087 0.693641 0.609417
Si Si4 0.871587 0.923296 0.308401
Si Si5 0.618533 0.720515 0.614208
Si Si6 0.934081 0.584896 0.388077
Si Si7 0.077670 0.870595 0.100655
O O1 0.394942 0.560188 0.122283
O O2 0.440283 0.718050 0.188782
O O3 0.452581 0.674692 0.000000
O O4 0.480755 0.297366 0.350580
O O5 0.652629 0.311581 0.341815
O O6 0.575933 0.155443 0.328076
O O7 0.089162 0.667106 0.500000
O O8 0.108517 0.798373 0.618827
O O9 0.179652 0.643086 0.648082
O O10 0.997613 0.665078 0.647210
O O11 0.833511 0.900301 0.203635
O O12 0.970171 0.884027 0.317485
O O13 0.623005 0.717358 0.500000
O O14 0.909000 0.594749 0.500000
O O15 0.000000 0.500000 0.381683
O O16 0.970958 0.883790 0.100511
O O17 0.103374 0.827850 0.000000
#
# Coordination Sequence:
#
# PCOD9543451 Si02
#       7
#     8   8   8   8   8   8   8
#     4   9  18  35  58  86 119 153 189 225 277 354
#     4  12  21  36  60  88 115 149 184 235 292 331
#     4  10  22  37  51  72 105 149 195 227 261 333
#     4   9  18  31  48  72 100 130 176 236 288 324
#     4  11  23  36  54  85 120 147 183 232 290 351
#     4  10  20  37  57  76 107 154 196 220 257 337
#     4   7  10  20  41  66  90 118 154 201 264 331
#
# _framework density 17.529548999999999
#
# number of rings (size 3 to 8) (size 9 to 14) (size 15 to 20)
#    0.000    2.286    2.857    3.000    2.000    0.857 
#    0.000    1.429    0.000    3.000    0.000    0.000 
#    0.000    0.000    0.000    0.000    0.000    0.000 
#
# Total GULP energy -311849.605213 kJ/mol
# GULP energy per Si atom -5568.742950 kJ/mol
# Density = 1.748965 g / cm^3
# Si number density = 17.529549 Si / 1000 Ang^3
#
#
#
# Elastic Constant Matrix: (Units=GPa)
#
#
# Indices 1 2 3 4 5 6 
#
# 1 75.3146 17.8875 37.7750 0.0000 0.0000 7.1001
# 2 17.8875 75.3146 37.7750 0.0000 0.0000 -7.1001
# 3 37.7750 37.7750 83.1898 0.0000 0.0000 0.0000
# 4 0.0000 0.0000 0.0000 10.3697 0.0000 0.0000
# 5 0.0000 0.0000 0.0000 0.0000 10.3697 0.0000
# 6 7.1001 -7.1001 0.0000 0.0000 0.0000 12.5478
#
#
#
# Elastic Compliance Matrix: (Units=1/GPa)
#
#
# Indices 1 2 3 4 5 6 
#
# 1 0.018613 -0.001634 -0.007710 0.000000 0.000000 -0.011456
# 2 -0.001634 0.018613 -0.007710 0.000000 0.000000 0.011456
# 3 -0.007710 -0.007710 0.019023 0.000000 0.000000 0.000000
# 4 0.000000 0.000000 0.000000 0.096435 0.000000 0.000000
# 5 0.000000 0.000000 0.000000 0.000000 0.096435 0.000000
# 6 -0.011456 0.011456 0.000000 0.000000 0.000000 0.092660
#
#
# Mechanical properties :
#
#
# Convention : Reuss Voigt Hill
#
# Bulk Modulus (GPa) = 45.16486 46.74376 45.95431
# Shear Modulus (GPa) = 13.04579 16.01620 14.53100
#
# Velocity S-wave (km/s) = 2.73099 3.02597 2.88226
# Velocity P-wave (km/s) = 5.98041 6.23957 6.11137
#
# Compressibility (1/GPa) = 0.02214111
#
# Stress axis : x y z
#
# Youngs Moduli (GPa) = 53.72706 53.72706 52.56928
#
# Poissons Ratio (x) = 0.08777 0.40530
# Poissons Ratio (y) = 0.08777 0.40530
# Poissons Ratio (z) = 0.41423 0.41423
#
# Static dielectric constant tensor:
#      x y z
#    x 1.607070 0.000000 0.000000 
#    y 0.000000 1.607070 0.000000 
#    z 0.000000 0.000000 1.634950 
# 
# From -- ./inp_files/2427.got.cif
#   From: 2010.05.17/outbox.cif.g08.bks.cpg/sg83_2_cif.got.tgz:2427.got - 2010.06.03 18:55:12.
