data_PCOD9543684
_publ_section_title
;
Structure prediction by ZEFSAII (Michael W. Deem and Ramdas Pophale) SiO2 
 PCOD9543684
Probable space group: P 4/M
;
_chemical_formula_sum "Si O2"
_cell_formula_units_Z 44
_cell_length_a 7.981952
_cell_length_b 7.981952
_cell_length_c 30.707076
_cell_angle_alpha 90.000000
_cell_angle_beta 90.000000
_cell_angle_gamma 90.000000
_cell_volume 1956.395645
_symmetry_space_group_name_H-M "P 4/M"
_symmetry_group_IT_number 83
_symmetry_cell_setting 'tetragonal'
loop_
_space_group_symop_operation_xyz
x,y,z
-y,x,z
-x,-y,z
y,-x,z
-x,-y,-z
y,-x,-z
x,y,-z
-y,x,-z
loop_
_atom_site_type_symbol
_atom_site_label
_atom_site_fract_x
_atom_site_fract_y
_atom_site_fract_z
Si Si1 0.082011 0.732495 0.500000
Si Si2 0.766186 0.397951 0.679955
Si Si3 0.731993 0.911226 0.047218
Si Si4 0.767394 0.408173 0.133246
Si Si5 0.233497 0.601726 0.773042
Si Si6 0.406330 0.232425 0.585880
O O1 0.124504 0.635658 0.544058
O O2 0.894464 0.798270 0.500000
O O3 0.706374 0.592019 0.679944
O O4 0.852837 0.363442 0.726489
O O5 0.849963 0.368898 0.633127
O O6 0.630767 0.869575 0.090221
O O7 0.898961 0.797237 0.048314
O O8 0.649144 0.878957 0.000000
O O9 0.703820 0.598841 0.132212
O O10 0.851696 0.369496 0.180213
O O11 0.293776 0.407688 0.773032
O O12 0.597534 0.295866 0.584143
#
# Coordination Sequence:
#
# PCOD9543684 Si02
#       6
#     4   8   8   8   8   8
#     4  11  24  37  46  60  88 127 162 187 220 270
#     4   7  10  19  39  67  94 116 139 172 215 260
#     4   9  19  35  50  62  81 115 158 197 230 267
#     4   9  17  28  45  72 100 121 144 178 220 267
#     4   7  10  19  37  63  95 123 141 164 208 263
#     4   9  17  30  51  77  96 111 143 191 232 265
#
# _framework density 22.490338000000001
#
# number of rings (size 3 to 8) (size 9 to 14) (size 15 to 20)
#    0.000    3.545    0.000    4.364    0.000    3.636 
#    0.000    2.727    0.000    2.182    0.000   12.727 
#    0.000    0.000    0.000    0.000    0.000    0.000 
#
# Total GULP energy -245531.251072 kJ/mol
# GULP energy per Si atom -5580.255706 kJ/mol
# Density = 2.243915 g / cm^3
# Si number density = 22.490338 Si / 1000 Ang^3
#
#
#
# Elastic Constant Matrix: (Units=GPa)
#
#
# Indices 1 2 3 4 5 6 
#
# 1 36.2317 24.1882 53.3720 0.0000 0.0000 5.4863
# 2 24.1882 36.2317 53.3720 0.0000 0.0000 -5.4863
# 3 53.3720 53.3720 306.7342 0.0000 0.0000 0.0000
# 4 0.0000 0.0000 0.0000 -567.3193 0.0000 0.0000
# 5 0.0000 0.0000 0.0000 0.0000 -567.3193 0.0000
# 6 5.4863 -5.4863 0.0000 0.0000 0.0000 24.5161
#
#
#
# Elastic Compliance Matrix: (Units=1/GPa)
#
#
# Indices 1 2 3 4 5 6 
#
# 1 0.064097 -0.040200 -0.004158 0.000000 0.000000 -0.023340
# 2 -0.040200 0.064097 -0.004158 0.000000 0.000000 0.023340
# 3 -0.004158 -0.004158 0.004707 0.000000 0.000000 0.000000
# 4 0.000000 0.000000 0.000000 -0.001763 0.000000 0.000000
# 5 0.000000 0.000000 0.000000 0.000000 -0.001763 0.000000
# 6 -0.023340 0.023340 0.000000 0.000000 0.000000 0.051236
#
#
# Mechanical properties :
#
#
# Convention : Reuss Voigt Hill
#
# Bulk Modulus (GPa) = 27.87945 71.22908 49.55427
# Shear Modulus (GPa) = 17.26521 -205.47346 -94.10413
#
# Velocity S-wave (km/s) = 2.77370 -9.56865 -6.47556
# Velocity P-wave (km/s) = 4.76245 9.50469 5.81628
#
# Compressibility (1/GPa) = 0.03586871
#
# Stress axis : x y z
#
# Youngs Moduli (GPa) = 15.60138 15.60138 212.44183
#
# Poissons Ratio (x) = 0.62717 0.88335
# Poissons Ratio (y) = 0.62717 0.88335
# Poissons Ratio (z) = 0.06487 0.06487
#
# Static dielectric constant tensor:
#      x y z
#    x 1.811530 0.000000 0.000000 
#    y 0.000000 1.811530 0.000000 
#    z 0.000000 0.000000 1.903860 
# 
# From -- ./inp_files/3365.got.cif
#   From: 2010.05.17/outbox.cif.g08.bks.cpg/sg83_2_cif.got.tgz:3365.got - 2010.06.03 18:55:12.
