data_PCOD9543692
_publ_section_title
;
Structure prediction by ZEFSAII (Michael W. Deem and Ramdas Pophale) SiO2 
 PCOD9543692
Probable space group: P 4/M
;
_chemical_formula_sum "Si O2"
_cell_formula_units_Z 44
_cell_length_a 7.672952
_cell_length_b 7.672952
_cell_length_c 31.636426
_cell_angle_alpha 90.000000
_cell_angle_beta 90.000000
_cell_angle_gamma 90.000000
_cell_volume 1862.569031
_symmetry_space_group_name_H-M "P 4/M"
_symmetry_group_IT_number 83
_symmetry_cell_setting 'tetragonal'
loop_
_space_group_symop_operation_xyz
x,y,z
-y,x,z
-x,-y,z
y,-x,z
-x,-y,-z
y,-x,-z
x,y,-z
-y,x,-z
loop_
_atom_site_type_symbol
_atom_site_label
_atom_site_fract_x
_atom_site_fract_y
_atom_site_fract_z
Si Si1 0.727198 0.115444 0.322229
Si Si2 0.771483 0.383439 0.091679
Si Si3 0.000000 0.500000 0.839052
Si Si4 0.230269 0.621398 0.000000
Si Si5 0.724528 0.100788 0.587447
Si Si6 0.885424 0.727828 0.769511
Si Si7 0.224724 0.412949 0.500000
O O1 0.636368 0.146996 0.367382
O O2 0.644303 0.151820 0.276649
O O3 0.911686 0.217409 0.322199
O O4 0.718287 0.588879 0.093908
O O5 0.902803 0.363280 0.130292
O O6 0.853789 0.343380 0.045521
O O7 0.864001 0.597257 0.808233
O O8 0.280478 0.416534 0.000000
O O9 0.626932 0.133767 0.544143
O O10 0.901466 0.213399 0.587171
O O11 0.090426 0.782298 0.771753
O O12 0.391696 0.288950 0.500000
#
# Coordination Sequence:
#
# PCOD9543692 Si02
#       7
#     8   8   4   4   8   8   4
#     4   7  12  27  50  71  91 117 151 193 235 272
#     4   9  18  32  48  67  94 126 161 202 242 283
#     4  12  20  27  46  76 100 123 158 196 242 292
#     4   7  12  27  48  64  84 122 164 198 238 282
#     4   9  17  32  56  80  95 115 158 209 243 272
#     4   9  18  33  49  67  97 131 159 192 237 288
#     4  11  24  37  46  66 106 143 160 181 232 296
#
# _framework density 23.623287999999999
#
# number of rings (size 3 to 8) (size 9 to 14) (size 15 to 20)
#    0.000    3.091    0.000    4.909    0.000    2.545 
#    0.000    5.455    0.000    0.000    0.000    2.545 
#    0.000   11.636    0.000    0.000    0.000    0.000 
#
# Total GULP energy -245618.620682 kJ/mol
# GULP energy per Si atom -5582.241379 kJ/mol
# Density = 2.356952 g / cm^3
# Si number density = 23.623288 Si / 1000 Ang^3
#
#
#
# Elastic Constant Matrix: (Units=GPa)
#
#
# Indices 1 2 3 4 5 6 
#
# 1 47.7338 -11.1208 25.8193 0.0000 0.0000 -4.2724
# 2 -11.1208 47.7338 25.8193 0.0000 0.0000 4.2724
# 3 25.8193 25.8193 252.1409 0.0000 0.0000 0.0000
# 4 0.0000 0.0000 0.0000 -117.0246 0.0000 0.0000
# 5 0.0000 0.0000 0.0000 0.0000 -117.0246 0.0000
# 6 -4.2724 4.2724 0.0000 0.0000 0.0000 33.4642
#
#
#
# Elastic Compliance Matrix: (Units=1/GPa)
#
#
# Indices 1 2 3 4 5 6 
#
# 1 0.024618 0.007306 -0.003269 0.000000 0.000000 0.002210
# 2 0.007306 0.024618 -0.003269 0.000000 0.000000 -0.002210
# 3 -0.003269 -0.003269 0.004636 0.000000 0.000000 0.000000
# 4 0.000000 0.000000 0.000000 -0.008545 0.000000 0.000000
# 5 0.000000 0.000000 0.000000 0.000000 -0.008545 0.000000
# 6 0.002210 -0.002210 0.000000 0.000000 0.000000 0.030447
#
#
# Mechanical properties :
#
#
# Convention : Reuss Voigt Hill
#
# Bulk Modulus (GPa) = 18.04851 47.62709 32.83780
# Shear Modulus (GPa) = 59.41027 -19.64428 19.88299
#
# Velocity S-wave (km/s) = 5.02032 -2.88681 2.90430
# Velocity P-wave (km/s) = 6.42352 3.01550 5.01771
#
# Compressibility (1/GPa) = 0.05540624
#
# Stress axis : x y z
#
# Youngs Moduli (GPa) = 40.62137 40.62137 215.72564
#
# Poissons Ratio (x) = -0.29677 0.70520
# Poissons Ratio (y) = -0.29677 0.70520
# Poissons Ratio (z) = 0.13279 0.13279
#
# Static dielectric constant tensor:
#      x y z
#    x 1.887910 0.000000 0.000000 
#    y 0.000000 1.887910 0.000000 
#    z 0.000000 0.000000 1.977730 
# 
# From -- ./inp_files/3399.got.cif
#   From: 2010.05.17/outbox.cif.g08.bks.cpg/sg83_2_cif.got.tgz:3399.got - 2010.06.03 18:55:12.
