data_PCOD9543804
_publ_section_title
;
Structure prediction by ZEFSAII (Michael W. Deem and Ramdas Pophale) SiO2 
 PCOD9543804
Probable space group: P 4/M
;
_chemical_formula_sum "Si O2"
_cell_formula_units_Z 28
_cell_length_a 11.069221
_cell_length_b 11.069221
_cell_length_c 11.698175
_cell_angle_alpha 90.000000
_cell_angle_beta 90.000000
_cell_angle_gamma 90.000000
_cell_volume 1433.349934
_symmetry_space_group_name_H-M "P 4/M"
_symmetry_group_IT_number 83
_symmetry_cell_setting 'tetragonal'
loop_
_space_group_symop_operation_xyz
x,y,z
-y,x,z
-x,-y,z
y,-x,z
-x,-y,-z
y,-x,-z
x,y,-z
-y,x,-z
loop_
_atom_site_type_symbol
_atom_site_label
_atom_site_fract_x
_atom_site_fract_y
_atom_site_fract_z
Si Si1 0.199717 0.243944 0.247711
Si Si2 0.869350 0.844931 0.000000
Si Si3 0.354966 0.030245 0.362934
Si Si4 0.315756 0.421318 0.620886
O O1 0.177590 0.211505 0.117352
O O2 0.075035 0.263800 0.317804
O O3 0.252533 0.377722 0.266097
O O4 0.293838 0.148868 0.304273
O O5 0.014059 0.836079 0.000000
O O6 0.349164 0.044602 0.500000
O O7 0.500000 0.000000 0.336972
O O8 0.440771 0.349989 0.618287
O O9 0.249088 0.394081 0.500000
#
# Coordination Sequence:
#
# PCOD9543804 Si02
#       4
#     8   4   8   8
#     4  12  22  40  63  89 123 168 212 254 314 370
#     4  11  24  46  62  81 118 170 214 255 302 366
#     4  11  24  40  63  98 132 160 202 263 322 379
#     4   9  18  35  61  91 125 165 203 250 317 379
#
# _framework density 19.534655999999998
#
# number of rings (size 3 to 8) (size 9 to 14) (size 15 to 20)
#    0.000    1.286    2.857    5.143    0.000    5.143 
#    0.000    8.571    0.000    1.714    0.000    0.000 
#    0.000    0.000    0.000    0.000    0.000    0.000 
#
# Total GULP energy -155897.454925 kJ/mol
# GULP energy per Si atom -5567.766247 kJ/mol
# Density = 1.949019 g / cm^3
# Si number density = 19.534656 Si / 1000 Ang^3
#
#
#
# Elastic Constant Matrix: (Units=GPa)
#
#
# Indices 1 2 3 4 5 6 
#
# 1 57.6546 39.1632 49.3918 0.0000 0.0000 -1.7475
# 2 39.1632 57.6546 49.3918 0.0000 0.0000 1.7475
# 3 49.3918 49.3918 167.0807 0.0000 0.0000 0.0000
# 4 0.0000 0.0000 0.0000 19.9514 0.0000 0.0000
# 5 0.0000 0.0000 0.0000 0.0000 19.9514 0.0000
# 6 -1.7475 1.7475 0.0000 0.0000 0.0000 39.3498
#
#
#
# Elastic Compliance Matrix: (Units=1/GPa)
#
#
# Indices 1 2 3 4 5 6 
#
# 1 0.034663 -0.019874 -0.004372 0.000000 0.000000 0.002422
# 2 -0.019874 0.034663 -0.004372 0.000000 0.000000 -0.002422
# 3 -0.004372 -0.004372 0.008570 0.000000 0.000000 0.000000
# 4 0.000000 0.000000 0.000000 0.050122 0.000000 0.000000
# 5 0.000000 0.000000 0.000000 0.000000 0.050122 0.000000
# 6 0.002422 -0.002422 0.000000 0.000000 0.000000 0.025628
#
#
# Mechanical properties :
#
#
# Convention : Reuss Voigt Hill
#
# Bulk Modulus (GPa) = 48.40060 62.03149 55.21604
# Shear Modulus (GPa) = 18.66431 25.48005 22.07218
#
# Velocity S-wave (km/s) = 3.09438 3.61550 3.36504
# Velocity P-wave (km/s) = 6.13168 7.01802 6.58977
#
# Compressibility (1/GPa) = 0.02066090
#
# Stress axis : x y z
#
# Youngs Moduli (GPa) = 28.84903 28.84903 116.68610
#
# Poissons Ratio (x) = 0.57334 0.51015
# Poissons Ratio (y) = 0.57334 0.51015
# Poissons Ratio (z) = 0.12613 0.12613
#
# Static dielectric constant tensor:
#      x y z
#    x 1.763610 0.000000 0.000000 
#    y 0.000000 1.763610 0.000000 
#    z 0.000000 0.000000 1.301190 
# 
# From -- ./inp_files/1493.got.cif
#   From: 2010.05.17/outbox.cif.g08.bks.cpg/sg83_1_cif.got.tgz:1493.got - 2010.06.03 18:55:12.
