data_PCOD9543589
_publ_section_title
;
Structure prediction by ZEFSAII (Michael W. Deem and Ramdas Pophale) SiO2 
 PCOD9543589
Probable space group: P 4/M
;
_chemical_formula_sum "Si O2"
_cell_formula_units_Z 64
_cell_length_a 12.442985
_cell_length_b 12.442985
_cell_length_c 22.876770
_cell_angle_alpha 90.000000
_cell_angle_beta 90.000000
_cell_angle_gamma 90.000000
_cell_volume 3541.961702
_symmetry_space_group_name_H-M "P 4/M"
_symmetry_group_IT_number 83
_symmetry_cell_setting 'tetragonal'
loop_
_space_group_symop_operation_xyz
x,y,z
-y,x,z
-x,-y,z
y,-x,z
-x,-y,-z
y,-x,-z
x,y,-z
-y,x,-z
loop_
_atom_site_type_symbol
_atom_site_label
_atom_site_fract_x
_atom_site_fract_y
_atom_site_fract_z
Si Si1 0.102649 0.265328 0.569462
Si Si2 0.776185 0.624990 0.241647
Si Si3 0.605635 0.782716 0.816590
Si Si4 0.500441 0.165587 0.566526
Si Si5 0.446309 0.667800 0.354521
Si Si6 0.275786 0.114852 0.625851
Si Si7 0.983873 0.372891 0.741950
Si Si8 0.575231 0.665105 0.932896
O O1 0.124550 0.248032 0.500000
O O2 0.093878 0.394858 0.578398
O O3 0.193655 0.211583 0.610476
O O4 0.985213 0.227814 0.589143
O O5 0.761300 0.516286 0.204431
O O6 0.688467 0.709073 0.219659
O O7 0.755537 0.588373 0.308056
O O8 0.897891 0.666149 0.240342
O O9 0.626886 0.904540 0.797308
O O10 0.611866 0.748920 0.884029
O O11 0.469048 0.152882 0.500000
O O12 0.550009 0.282729 0.581170
O O13 0.394124 0.148723 0.603660
O O14 0.371801 0.566662 0.344060
O O15 0.301441 0.071228 0.691082
O O16 0.000000 0.500000 0.723989
O O17 0.448813 0.636546 0.925191
O O18 0.591001 0.700021 0.000000
#
# Coordination Sequence:
#
# PCOD9543589 Si02
#       8
#     8   8   8   8   8   8   8   8
#     4  11  24  40  63  84 105 142 188 236 297 363
#     4  11  21  36  57  85 117 149 193 236 295 345
#     4  11  20  34  60  86 121 158 194 240 283 340
#     4  11  23  38  57  79 106 143 182 224 285 357
#     4  11  22  33  52  82 111 142 182 230 287 348
#     4  12  24  42  62  83 113 143 185 242 299 352
#     4  10  24  37  55  85 115 157 196 233 293 354
#     4   9  17  30  53  91 132 166 199 237 286 338
#
# _framework density 18.069081000000001
#
# number of rings (size 3 to 8) (size 9 to 14) (size 15 to 20)
#    0.000    1.250    2.500    5.625    3.500    3.000 
#    0.000    1.250    0.000    4.500    0.000    0.000 
#    0.000    0.000    0.000    1.125    0.000    0.000 
#
# Total GULP energy -357179.608128 kJ/mol
# GULP energy per Si atom -5580.931377 kJ/mol
# Density = 1.802796 g / cm^3
# Si number density = 18.069081 Si / 1000 Ang^3
#
#
#
# Elastic Constant Matrix: (Units=GPa)
#
#
# Indices 1 2 3 4 5 6 
#
# 1 79.5141 27.4299 21.8742 0.0000 0.0000 1.9277
# 2 27.4299 79.5141 21.8742 0.0000 0.0000 -1.9277
# 3 21.8742 21.8742 45.2731 0.0000 0.0000 0.0000
# 4 0.0000 0.0000 0.0000 22.2885 0.0000 0.0000
# 5 0.0000 0.0000 0.0000 0.0000 22.2885 0.0000
# 6 1.9277 -1.9277 0.0000 0.0000 0.0000 15.5198
#
#
#
# Elastic Compliance Matrix: (Units=1/GPa)
#
#
# Indices 1 2 3 4 5 6 
#
# 1 0.015516 -0.003862 -0.005631 0.000000 0.000000 -0.002407
# 2 -0.003862 0.015516 -0.005631 0.000000 0.000000 0.002407
# 3 -0.005631 -0.005631 0.027529 0.000000 0.000000 0.000000
# 4 0.000000 0.000000 0.000000 0.044866 0.000000 0.000000
# 5 0.000000 0.000000 0.000000 0.000000 0.044866 0.000000
# 6 -0.002407 0.002407 0.000000 0.000000 0.000000 0.065032
#
#
# Mechanical properties :
#
#
# Convention : Reuss Voigt Hill
#
# Bulk Modulus (GPa) = 35.31783 38.51756 36.91770
# Shear Modulus (GPa) = 19.76203 20.89424 20.32814
#
# Velocity S-wave (km/s) = 3.31069 3.40421 3.35778
# Velocity P-wave (km/s) = 5.84831 6.06751 5.95891
#
# Compressibility (1/GPa) = 0.02831431
#
# Stress axis : x y z
#
# Youngs Moduli (GPa) = 64.44963 64.44963 36.32485
#
# Poissons Ratio (x) = 0.24889 0.20454
# Poissons Ratio (y) = 0.24889 0.20454
# Poissons Ratio (z) = 0.36291 0.36291
#
# Static dielectric constant tensor:
#      x y z
#    x 1.669860 0.000000 0.000000 
#    y 0.000000 1.669860 0.000000 
#    z 0.000000 0.000000 1.613780 
# 
# From -- ./inp_files/3237.got.cif
#   From: 2010.05.17/outbox.cif.g08.bks.cpg/sg83_2_cif.got.tgz:3237.got - 2010.06.03 18:55:12.
