data_PCOD9543687
_publ_section_title
;
Structure prediction by ZEFSAII (Michael W. Deem and Ramdas Pophale) SiO2 
 PCOD9543687
Probable space group: P 4/M
;
_chemical_formula_sum "Si O2"
_cell_formula_units_Z 40
_cell_length_a 8.042104
_cell_length_b 8.042104
_cell_length_c 27.770373
_cell_angle_alpha 90.000000
_cell_angle_beta 90.000000
_cell_angle_gamma 90.000000
_cell_volume 1796.061002
_symmetry_space_group_name_H-M "P 4/M"
_symmetry_group_IT_number 83
_symmetry_cell_setting 'tetragonal'
loop_
_space_group_symop_operation_xyz
x,y,z
-y,x,z
-x,-y,z
y,-x,z
-x,-y,-z
y,-x,-z
x,y,-z
-y,x,-z
loop_
_atom_site_type_symbol
_atom_site_label
_atom_site_fract_x
_atom_site_fract_y
_atom_site_fract_z
Si Si1 0.096436 0.265526 0.301794
Si Si2 0.581309 0.233940 0.500000
Si Si3 0.590004 0.234003 0.103746
Si Si4 0.734027 0.090135 0.198076
Si Si5 0.733658 0.091681 0.593996
Si Si6 0.765879 0.596035 0.000000
O O1 0.125973 0.349875 0.250132
O O2 0.126033 0.348061 0.353595
O O3 0.905109 0.203140 0.301804
O O4 0.700119 0.395101 0.500000
O O5 0.624189 0.135908 0.548394
O O6 0.701952 0.400980 0.105091
O O7 0.631211 0.131246 0.150913
O O8 0.625626 0.150031 0.051689
O O9 0.901079 0.201988 0.196732
O O10 0.902139 0.202183 0.591764
O O11 0.595246 0.702967 0.000000
#
# Coordination Sequence:
#
# PCOD9543687 Si02
#       6
#     8   4   8   8   8   4
#     4   7  12  26  48  71  93 117 148 187 227 267
#     4  11  24  37  46  64 100 137 158 179 224 280
#     4   9  17  30  48  68  89 117 156 198 235 272
#     4   9  17  30  48  70  97 126 151 180 226 280
#     4   9  17  32  56  79  92 111 154 203 234 263
#     4   7  12  26  46  63  82 114 156 197 232 267
#
# _framework density 22.270959999999999
#
# number of rings (size 3 to 8) (size 9 to 14) (size 15 to 20)
#    0.000    3.400    0.000    4.200    0.000    3.200 
#    0.000    3.000    0.000   14.400    0.000    0.000 
#    0.000    0.000    0.000    0.000    0.000    0.000 
#
# Total GULP energy -223291.303813 kJ/mol
# GULP energy per Si atom -5582.282595 kJ/mol
# Density = 2.222027 g / cm^3
# Si number density = 22.270960 Si / 1000 Ang^3
#
#
#
# Elastic Constant Matrix: (Units=GPa)
#
#
# Indices 1 2 3 4 5 6 
#
# 1 41.7331 29.1692 56.9943 0.0000 0.0000 2.7800
# 2 29.1692 41.7331 56.9943 0.0000 0.0000 -2.7800
# 3 56.9943 56.9943 296.3442 0.0000 0.0000 0.0000
# 4 0.0000 0.0000 0.0000 91.5561 0.0000 0.0000
# 5 0.0000 0.0000 0.0000 0.0000 91.5561 0.0000
# 6 2.7800 -2.7800 0.0000 0.0000 0.0000 28.1909
#
#
#
# Elastic Compliance Matrix: (Units=1/GPa)
#
#
# Indices 1 2 3 4 5 6 
#
# 1 0.051821 -0.031404 -0.003927 0.000000 0.000000 -0.008207
# 2 -0.031404 0.051821 -0.003927 0.000000 0.000000 0.008207
# 3 -0.003927 -0.003927 0.004885 0.000000 0.000000 0.000000
# 4 0.000000 0.000000 0.000000 0.010922 0.000000 0.000000
# 5 0.000000 0.000000 0.000000 0.000000 0.010922 0.000000
# 6 -0.008207 0.008207 0.000000 0.000000 0.000000 0.037091
#
#
# Mechanical properties :
#
#
# Convention : Reuss Voigt Hill
#
# Bulk Modulus (GPa) = 33.32034 74.01399 53.66716
# Shear Modulus (GPa) = 19.53278 58.03746 38.78512
#
# Velocity S-wave (km/s) = 2.96472 5.11041 4.17767
# Velocity P-wave (km/s) = 5.16848 8.25392 6.88624
#
# Compressibility (1/GPa) = 0.03001170
#
# Stress axis : x y z
#
# Youngs Moduli (GPa) = 19.29733 19.29733 204.71546
#
# Poissons Ratio (x) = 0.60601 0.80384
# Poissons Ratio (y) = 0.60601 0.80384
# Poissons Ratio (z) = 0.07577 0.07577
#
# Static dielectric constant tensor:
#      x y z
#    x 1.811820 0.000000 0.000000 
#    y 0.000000 1.811820 0.000000 
#    z 0.000000 0.000000 1.876510 
# 
# From -- ./inp_files/3251.got.cif
#   From: 2010.05.17/outbox.cif.g08.bks.cpg/sg83_2_cif.got.tgz:3251.got - 2010.06.03 18:55:12.
