data_PCOD9543522
_publ_section_title
;
Structure prediction by ZEFSAII (Michael W. Deem and Ramdas Pophale) SiO2 
 PCOD9543522
Probable space group: P 4/M
;
_chemical_formula_sum "Si O2"
_cell_formula_units_Z 44
_cell_length_a 7.820662
_cell_length_b 7.820662
_cell_length_c 32.001657
_cell_angle_alpha 90.000000
_cell_angle_beta 90.000000
_cell_angle_gamma 90.000000
_cell_volume 1957.309478
_symmetry_space_group_name_H-M "P 4/M"
_symmetry_group_IT_number 83
_symmetry_cell_setting 'tetragonal'
loop_
_space_group_symop_operation_xyz
x,y,z
-y,x,z
-x,-y,z
y,-x,z
-x,-y,-z
y,-x,-z
x,y,-z
-y,x,-z
loop_
_atom_site_type_symbol
_atom_site_label
_atom_site_fract_x
_atom_site_fract_y
_atom_site_fract_z
Si Si1 0.267981 0.106406 0.860331
Si Si2 0.596065 0.232337 0.368164
Si Si3 0.770811 0.599673 0.000000
Si Si4 0.000000 0.500000 0.699727
Si Si5 0.000000 0.500000 0.071271
Si Si6 0.731879 0.107514 0.545681
Si Si7 0.268191 0.107273 0.767419
O O1 0.397429 0.127362 0.898215
O O2 0.341058 0.137472 0.813919
O O3 0.212092 0.906919 0.863020
O O4 0.710330 0.400014 0.363860
O O5 0.624642 0.157460 0.414147
O O6 0.628128 0.097268 0.331535
O O7 0.599999 0.711296 0.000000
O O8 0.889714 0.620366 0.959362
O O9 0.869816 0.401649 0.730355
O O10 0.652050 0.141475 0.500000
O O11 0.909590 0.212705 0.547536
O O12 0.212361 0.907401 0.764377
#
# Coordination Sequence:
#
# PCOD9543522 Si02
#       7
#     8   8   4   4   4   8   8
#     4   9  18  33  53  79 106 129 165 220 270 313
#     4  11  24  38  53  79 112 144 178 218 265 312
#     4  10  22  36  48  70 106 142 178 218 256 304
#     4  12  21  36  56  76 104 144 182 215 252 310
#     4  11  19  32  55  76  98 139 180 211 261 318
#     4   9  19  38  63  87 109 136 174 218 262 313
#     4   9  19  35  55  79 105 134 171 216 266 315
#
# _framework density 22.479838000000001
#
# number of rings (size 3 to 8) (size 9 to 14) (size 15 to 20)
#    0.000    2.091    0.000    5.455    0.000    0.727 
#    0.000    5.000    0.000    4.364    0.000   15.273 
#    0.000    0.000    0.000    0.000    0.000    0.000 
#
# Total GULP energy -245987.763193 kJ/mol
# GULP energy per Si atom -5590.630982 kJ/mol
# Density = 2.242867 g / cm^3
# Si number density = 22.479838 Si / 1000 Ang^3
#
#
#
# Elastic Constant Matrix: (Units=GPa)
#
#
# Indices 1 2 3 4 5 6 
#
# 1 47.1694 -10.3216 23.8638 0.0000 0.0000 -7.0495
# 2 -10.3216 47.1694 23.8638 0.0000 0.0000 7.0495
# 3 23.8638 23.8638 186.2199 0.0000 0.0000 0.0000
# 4 0.0000 0.0000 0.0000 24.5556 0.0000 0.0000
# 5 0.0000 0.0000 0.0000 0.0000 24.5556 0.0000
# 6 -7.0495 7.0495 0.0000 0.0000 0.0000 24.5462
#
#
#
# Elastic Compliance Matrix: (Units=1/GPa)
#
#
# Indices 1 2 3 4 5 6 
#
# 1 0.025626 0.006914 -0.004170 0.000000 0.000000 0.005374
# 2 0.006914 0.025626 -0.004170 0.000000 0.000000 -0.005374
# 3 -0.004170 -0.004170 0.006439 0.000000 0.000000 0.000000
# 4 0.000000 0.000000 0.000000 0.040724 0.000000 0.000000
# 5 0.000000 0.000000 0.000000 0.000000 0.040724 0.000000
# 6 0.005374 -0.005374 0.000000 0.000000 0.000000 0.043826
#
#
# Mechanical properties :
#
#
# Convention : Reuss Voigt Hill
#
# Bulk Modulus (GPa) = 18.23532 39.48563 28.86048
# Shear Modulus (GPa) = 24.49828 30.94166 27.71997
#
# Velocity S-wave (km/s) = 3.30478 3.71404 3.51537
# Velocity P-wave (km/s) = 4.76356 5.99959 5.41695
#
# Compressibility (1/GPa) = 0.05483862
#
# Stress axis : x y z
#
# Youngs Moduli (GPa) = 39.02306 39.02306 155.31003
#
# Poissons Ratio (x) = -0.26980 0.64763
# Poissons Ratio (y) = -0.26980 0.64763
# Poissons Ratio (z) = 0.16272 0.16272
#
# Static dielectric constant tensor:
#      x y z
#    x 1.836760 0.000000 0.000000 
#    y 0.000000 1.836760 0.000000 
#    z 0.000000 0.000000 1.837470 
# 
# From -- ./inp_files/3397.got.cif
#   From: 2010.05.17/outbox.cif.g08.bks.cpg/sg83_2_cif.got.tgz:3397.got - 2010.06.03 18:55:12.
