data_PCOD9543974
_publ_section_title
;
Structure prediction by ZEFSAII (Michael W. Deem and Ramdas Pophale) SiO2 
 PCOD9543974
Probable space group: P 42/M
;
_chemical_formula_sum "Si O2"
_cell_formula_units_Z 40
_cell_length_a 10.916169
_cell_length_b 10.916169
_cell_length_c 17.277866
_cell_angle_alpha 90.000000
_cell_angle_beta 90.000000
_cell_angle_gamma 90.000000
_cell_volume 2058.877951
_symmetry_space_group_name_H-M "P 42/M"
_symmetry_group_IT_number 84
_symmetry_cell_setting 'tetragonal'
loop_
_space_group_symop_operation_xyz
x,y,z
-y,x,1/2+z
-x,-y,z
y,-x,1/2+z
-x,-y,-z
y,-x,1/2-z
x,y,-z
-y,x,1/2-z
loop_
_atom_site_type_symbol
_atom_site_label
_atom_site_fract_x
_atom_site_fract_y
_atom_site_fract_z
Si Si1 0.913371 0.310261 0.780258
Si Si2 0.856263 0.988841 0.586993
Si Si3 0.852273 0.510923 0.413855
Si Si4 0.818883 0.572578 0.242800
Si Si5 0.248989 0.224515 0.135283
O O1 0.829257 0.431260 0.782519
O O2 0.876868 0.239851 0.703023
O O3 0.908989 0.219866 0.852307
O O4 0.049313 0.363530 0.770480
O O5 0.849980 0.939195 0.500000
O O6 0.792522 0.123306 0.589205
O O7 0.000000 0.000000 0.607173
O O8 0.829802 0.563630 0.500000
O O9 0.799421 0.574304 0.335857
O O10 0.802640 0.371918 0.411063
O O11 0.000000 0.500000 0.403014
O O12 0.737039 0.649449 0.183568
#
# Coordination Sequence:
#
# PCOD9543974 Si02
#       5
#     8   8   8   8   8
#     4   9  18  33  52  72 104 144 183 220 271 328
#     4  10  22  33  46  76 112 142 179 225 278 339
#     4  10  18  32  54  81 108 135 179 241 290 322
#     4   9  17  34  51  79 103 143 188 220 266 345
#     4  10  19  32  54  75 105 142 184 222 278 339
#
# _framework density 19.428059999999999
#
# number of rings (size 3 to 8) (size 9 to 14) (size 15 to 20)
#    0.000    2.400    4.000    0.600    5.600    0.000 
#    0.000   10.000    0.000    9.600    0.000    5.600 
#    0.000    0.000    0.000    0.000    0.000    0.000 
#
# Total GULP energy -222822.606815 kJ/mol
# GULP energy per Si atom -5570.565170 kJ/mol
# Density = 1.938384 g / cm^3
# Si number density = 19.428060 Si / 1000 Ang^3
#
#
#
# Elastic Constant Matrix: (Units=GPa)
#
#
# Indices 1 2 3 4 5 6 
#
# 1 44.8210 0.3831 36.7298 0.0000 0.0000 1.6870
# 2 0.3831 44.8210 36.7298 0.0000 0.0000 -1.6870
# 3 36.7298 36.7298 133.7636 0.0000 0.0000 0.0000
# 4 0.0000 0.0000 0.0000 -5.4151 0.0000 0.0000
# 5 0.0000 0.0000 0.0000 0.0000 -5.4151 0.0000
# 6 1.6870 -1.6870 0.0000 0.0000 0.0000 23.6082
#
#
#
# Elastic Compliance Matrix: (Units=1/GPa)
#
#
# Indices 1 2 3 4 5 6 
#
# 1 0.031287 0.008661 -0.010969 0.000000 0.000000 -0.001617
# 2 0.008661 0.031287 -0.010969 0.000000 0.000000 0.001617
# 3 -0.010969 -0.010969 0.013500 0.000000 0.000000 0.000000
# 4 0.000000 0.000000 0.000000 -0.184670 0.000000 0.000000
# 5 0.000000 0.000000 0.000000 0.000000 -0.184670 0.000000
# 6 -0.001617 0.001617 0.000000 0.000000 0.000000 0.042589
#
#
# Mechanical properties :
#
#
# Convention : Reuss Voigt Hill
#
# Bulk Modulus (GPa) = 20.19455 41.23232 30.71344
# Shear Modulus (GPa) = -24.08285 12.52648 -5.77819
#
# Velocity S-wave (km/s) = -3.52460 2.54197 -1.72644
# Velocity P-wave (km/s) = 2.47925 5.46668 3.44514
#
# Compressibility (1/GPa) = 0.04951832
#
# Stress axis : x y z
#
# Youngs Moduli (GPa) = 31.96245 31.96245 74.07523
#
# Poissons Ratio (x) = -0.27681 0.81253
# Poissons Ratio (y) = -0.27681 0.81253
# Poissons Ratio (z) = 0.35060 0.35060
#
# Static dielectric constant tensor:
#      x y z
#    x 1.714860 0.000000 0.000000 
#    y 0.000000 1.714860 0.000000 
#    z 0.000000 0.000000 1.693330 
# 
# From -- ./inp_files/2915.got.cif
#   From: 2010.05.17/outbox.cif.g08.bks.cpg/sg84_2_cif.got.tgz:2915.got - 2010.06.03 18:57:40.
