data_PCOD9543881
_publ_section_title
;
Structure prediction by ZEFSAII (Michael W. Deem and Ramdas Pophale) SiO2 
 PCOD9543881
Probable space group: P 4/M
;
_chemical_formula_sum "Si O2"
_cell_formula_units_Z 37
_cell_length_a 8.414330
_cell_length_b 8.414330
_cell_length_c 25.535275
_cell_angle_alpha 90.000000
_cell_angle_beta 90.000000
_cell_angle_gamma 90.000000
_cell_volume 1807.921712
_symmetry_space_group_name_H-M "P 4/M"
_symmetry_group_IT_number 83
_symmetry_cell_setting 'tetragonal'
loop_
_space_group_symop_operation_xyz
x,y,z
-y,x,z
-x,-y,z
y,-x,z
-x,-y,-z
y,-x,-z
x,y,-z
-y,x,-z
loop_
_atom_site_type_symbol
_atom_site_label
_atom_site_fract_x
_atom_site_fract_y
_atom_site_fract_z
Si Si1 0.758572 0.884780 0.605425
Si Si2 0.081870 0.257363 0.885346
Si Si3 0.500000 0.000000 0.801809
Si Si4 0.747627 0.904568 0.277699
Si Si5 0.084075 0.255579 0.000000
Si Si6 0.500000 0.500000 0.500000
Si Si7 0.426130 0.174519 0.500000
O O1 0.687780 0.865616 0.663648
O O2 0.659583 0.827982 0.556478
O O3 0.928115 0.797264 0.602269
O O4 0.099721 0.384602 0.839834
O O5 0.900209 0.190656 0.881119
O O6 0.108844 0.331945 0.943223
O O7 0.610357 0.890506 0.764938
O O8 0.910598 0.804685 0.272293
O O9 0.903389 0.191397 0.000000
O O10 0.555115 0.315313 0.500000
O O11 0.500000 0.000000 0.500000
#
# Coordination Sequence:
#
# PCOD9543881 Si02
#       7
#     8   8   4   8   4   1   4
#     4   9  18  36  62  87 110 150 205 248 297 369
#     4   9  18  33  53  76 104 139 178 226 279 339
#     4  12  20  27  52  81 108 140 186 230 286 334
#     4   9  20  38  57  77 108 146 193 240 280 342
#     4   7  12  27  50  74 100 132 174 222 276 332
#     4  12  28  44  60 112 140 156 220 268 308 402
#     4  12  24  39  64  89 132 170 196 254 326 374
#
# _framework density 20.465488000000001
#
# number of rings (size 3 to 8) (size 9 to 14) (size 15 to 20)
#    0.000    2.486    0.000    5.838    1.514    3.027 
#    0.000    0.000    0.000   10.378    0.000    0.000 
#    0.000   20.757    0.000    0.000    0.000    0.000 
#
# Total GULP energy -206035.384000 kJ/mol
# GULP energy per Si atom -5568.523892 kJ/mol
# Density = 2.041891 g / cm^3
# Si number density = 20.465488 Si / 1000 Ang^3
#
#
#
# Elastic Constant Matrix: (Units=GPa)
#
#
# Indices 1 2 3 4 5 6 
#
# 1 51.0074 3.0781 51.0244 0.0000 0.0000 1.3129
# 2 3.0781 51.0074 51.0244 0.0000 0.0000 -1.3129
# 3 51.0244 51.0244 206.8110 0.0000 0.0000 0.0000
# 4 0.0000 0.0000 0.0000 33.3684 0.0000 0.0000
# 5 0.0000 0.0000 0.0000 0.0000 33.3684 0.0000
# 6 1.3129 -1.3129 0.0000 0.0000 0.0000 10.0928
#
#
#
# Elastic Compliance Matrix: (Units=1/GPa)
#
#
# Indices 1 2 3 4 5 6 
#
# 1 0.027803 0.006789 -0.008535 0.000000 0.000000 -0.002734
# 2 0.006789 0.027803 -0.008535 0.000000 0.000000 0.002734
# 3 -0.008535 -0.008535 0.009047 0.000000 0.000000 0.000000
# 4 0.000000 0.000000 0.000000 0.029969 0.000000 0.000000
# 5 0.000000 0.000000 0.000000 0.000000 0.029969 0.000000
# 6 -0.002734 0.002734 0.000000 0.000000 0.000000 0.099792
#
#
# Mechanical properties :
#
#
# Convention : Reuss Voigt Hill
#
# Bulk Modulus (GPa) = 22.67935 57.67553 40.17744
# Shear Modulus (GPa) = 19.25748 28.94583 24.10165
#
# Velocity S-wave (km/s) = 3.07086 3.76489 3.43545
# Velocity P-wave (km/s) = 4.86614 6.86602 5.95070
#
# Compressibility (1/GPa) = 0.04409298
#
# Stress axis : x y z
#
# Youngs Moduli (GPa) = 35.96716 35.96716 110.53787
#
# Poissons Ratio (x) = -0.24419 0.94340
# Poissons Ratio (y) = -0.24419 0.94340
# Poissons Ratio (z) = 0.30697 0.30697
#
# Static dielectric constant tensor:
#      x y z
#    x 1.313490 0.000000 0.000000 
#    y 0.000000 1.313490 0.000000 
#    z 0.000000 0.000000 1.789050 
# 
# From -- ./inp_files/3151.got.cif
#   From: 2010.05.17/outbox.cif.g08.bks.cpg/sg83_2_cif.got.tgz:3151.got - 2010.06.03 18:55:12.
