data_PCOD9543216
_publ_section_title
;
Structure prediction by ZEFSAII (Michael W. Deem and Ramdas Pophale) SiO2 
 PCOD9543216
Probable space group: I -4 
;
_chemical_formula_sum "Si O2"
_cell_formula_units_Z 28
_cell_length_a 15.000000
_cell_length_b 15.000000
_cell_length_c 12.000000
_cell_angle_alpha 90.000000
_cell_angle_beta 90.000000
_cell_angle_gamma 90.000000
_cell_volume 2700.000000
_symmetry_space_group_name_H-M "I -4 "
_symmetry_group_IT_number 82
_symmetry_cell_setting 'tetragonal'
loop_
_space_group_symop_operation_xyz
x,y,z
y,-x,-z
-x,-y,z
-y,x,-z
1/2+x,1/2+y,1/2+z
1/2+y,1/2-x,1/2-z
1/2-x,1/2-y,1/2+z
1/2-y,1/2+x,1/2-z
loop_
_atom_site_type_symbol
_atom_site_label
_atom_site_fract_x
_atom_site_fract_y
_atom_site_fract_z
Si Si1 0.209160 0.887750 0.079307
Si Si2 0.184041 0.726609 0.425318
Si Si3 0.442532 0.628778 0.022835
Si Si4 0.332132 0.146098 0.134867
Si Si5 0.235821 0.499571 0.794268
Si Si6 0.549895 0.260822 0.571287
Si Si7 0.624655 0.940539 0.734359
O O1 0.234440 0.939104 0.190618
O O2 0.113354 0.844357 0.088555
O O3 0.278418 0.811573 0.041665
O O4 0.210608 0.955350 0.975968
O O5 0.118666 0.807819 0.449418
O O6 0.268488 0.766172 0.358658
O O7 0.127940 0.651715 0.361387
O O8 0.464575 0.680464 0.136239
O O9 0.535204 0.606927 0.961576
O O10 0.433764 0.178574 0.129264
O O11 0.318314 0.081362 0.239788
O O12 0.300928 0.093767 0.024901
O O13 0.548169 0.207009 0.684350
O O14 0.539554 0.903143 0.802132
#
# Coordination Sequence:
#
# PCOD9543216 Si02
#       7
#     8   8   8   8   8   8   8
#     4  10  22  42  67  96 133 178 224 281 327 410
#     4  11  22  43  68  95 134 175 227 273 344 410
#     4  11  25  43  65 101 136 171 223 285 344 410
#     4  10  23  40  66  96 130 179 222 283 335 405
#     4  11  22  44  65 100 135 177 230 274 351 402
#     4  10  22  42  64  97 137 168 231 271 337 403
#     4  11  24  40  65  97 130 173 217 277 342 399
#
# _framework density 10.370369999999999
#
# number of rings (size 3 to 8) (size 9 to 14) (size 15 to 20)
#    0.000    1.429    2.857    1.714    2.000    2.857 
#    2.571    0.000    0.000    0.000    0.000    0.000 
#    0.000    0.000    0.000    0.000    0.000    0.000 
#
# Total GULP energy -156396.614934 kJ/mol
# GULP energy per Si atom -5585.593390 kJ/mol
# Density = 1.034677 g / cm^3
# Si number density = 10.370370 Si / 1000 Ang^3
#
#
#
# Elastic Constant Matrix: (Units=GPa)
#
#
# Indices 1 2 3 4 5 6 
#
# 1 79.0011 37.7263 4.1712 0.0000 0.0000 1.1746
# 2 37.7263 79.0011 4.1712 0.0000 0.0000 -1.1746
# 3 4.1712 4.1712 17.2903 0.0000 0.0000 0.0000
# 4 0.0000 0.0000 0.0000 18.2600 0.0000 0.0000
# 5 0.0000 0.0000 0.0000 0.0000 18.2600 0.0000
# 6 1.1746 -1.1746 0.0000 0.0000 0.0000 34.1791
#
#
#
# Elastic Compliance Matrix: (Units=1/GPa)
#
#
# Indices 1 2 3 4 5 6 
#
# 1 0.016496 -0.007779 -0.002103 0.000000 0.000000 -0.000834
# 2 -0.007779 0.016496 -0.002103 0.000000 0.000000 0.000834
# 3 -0.002103 -0.002103 0.058851 0.000000 0.000000 0.000000
# 4 0.000000 0.000000 0.000000 0.054764 0.000000 0.000000
# 5 0.000000 0.000000 0.000000 0.000000 0.054764 0.000000
# 6 -0.000834 0.000834 0.000000 0.000000 0.000000 0.029315
#
#
# Mechanical properties :
#
#
# Convention : Reuss Voigt Hill
#
# Bulk Modulus (GPa) = 14.73337 29.71445 22.22391
# Shear Modulus (GPa) = 18.03220 22.75474 20.39347
#
# Velocity S-wave (km/s) = 2.95177 3.31585 3.13909
# Velocity P-wave (km/s) = 4.32855 5.38679 4.88640
#
# Compressibility (1/GPa) = 0.06787315
#
# Stress axis : x y z
#
# Youngs Moduli (GPa) = 60.61969 60.61969 16.99216
#
# Poissons Ratio (x) = 0.47156 0.03573
# Poissons Ratio (y) = 0.47156 0.03573
# Poissons Ratio (z) = 0.12748 0.12748
#
# Static dielectric constant tensor:
#      x y z
#    x 1.742900 0.000000 0.000000 
#    y 0.000000 1.742900 0.000000 
#    z 0.000000 0.000000 1.721890 
# 
# From -- ./inp_files/1830.got.cif
#   From: 2010.05.17/outbox.ucp.g08.bks.cvg/sg82_1_cif.got.tgz:1830.got - 2010.06.11 10:34:38.
