data_PCOD9543454
_publ_section_title
;
Structure prediction by ZEFSAII (Michael W. Deem and Ramdas Pophale) SiO2 
 PCOD9543454
Probable space group: P 4/M
;
_chemical_formula_sum "Si O2"
_cell_formula_units_Z 56
_cell_length_a 14.366000
_cell_length_b 14.366000
_cell_length_c 12.699058
_cell_angle_alpha 90.000000
_cell_angle_beta 90.000000
_cell_angle_gamma 90.000000
_cell_volume 2620.856429
_symmetry_space_group_name_H-M "P 4/M"
_symmetry_group_IT_number 83
_symmetry_cell_setting 'tetragonal'
loop_
_space_group_symop_operation_xyz
x,y,z
-y,x,z
-x,-y,z
y,-x,z
-x,-y,-z
y,-x,-z
x,y,-z
-y,x,-z
loop_
_atom_site_type_symbol
_atom_site_label
_atom_site_fract_x
_atom_site_fract_y
_atom_site_fract_z
Si Si1 0.127087 0.080450 0.827179
Si Si2 0.847463 0.811846 0.377094
Si Si3 0.358362 0.971346 0.304369
Si Si4 0.405964 0.625704 0.883745
Si Si5 0.523441 0.858291 0.381043
Si Si6 0.262786 0.656499 0.721207
Si Si7 0.327317 0.104224 0.117255
O O1 0.138343 0.101750 0.702413
O O2 0.216488 0.122504 0.882215
O O3 0.027869 0.122922 0.854782
O O4 0.847243 0.835556 0.500000
O O5 0.925503 0.733985 0.351565
O O6 0.749012 0.767250 0.340908
O O7 0.439999 0.894985 0.308551
O O8 0.396816 0.061293 0.368680
O O9 0.342083 0.012486 0.188101
O O10 0.375037 0.517379 0.879705
O O11 0.359232 0.670251 0.781429
O O12 0.377716 0.662940 0.000000
O O13 0.487947 0.859706 0.500000
O O14 0.569543 0.759509 0.354149
O O15 0.190334 0.634551 0.816359
O O16 0.363798 0.096692 0.000000
#
# Coordination Sequence:
#
# PCOD9543454 Si02
#       7
#     8   8   8   8   8   8   8
#     4  10  21  39  56  81 114 149 201 237 276 337
#     4  11  22  37  59  83 116 153 192 246 291 334
#     4  10  20  38  58  85 112 149 199 239 284 353
#     4   9  19  38  62  85 113 153 195 238 293 348
#     4  10  20  37  61  84 115 156 191 235 295 351
#     4  10  22  36  58  89 120 143 195 239 290 349
#     4  10  21  39  59  84 120 152 187 241 291 338
#
# _framework density 21.367061
#
# number of rings (size 3 to 8) (size 9 to 14) (size 15 to 20)
#    0.000    2.000    1.429    3.000    2.000    1.143 
#    0.000    8.571    0.000    0.000    0.000    4.000 
#    0.000    0.000    0.000    0.000    0.000    0.000 
#
# Total GULP energy -312547.541630 kJ/mol
# GULP energy per Si atom -5581.206101 kJ/mol
# Density = 2.131843 g / cm^3
# Si number density = 21.367061 Si / 1000 Ang^3
#
#
#
# Elastic Constant Matrix: (Units=GPa)
#
#
# Indices 1 2 3 4 5 6 
#
# 1 44.0220 -0.9467 -1.4147 0.0000 0.0000 -5.0071
# 2 -0.9467 44.0220 -1.4147 0.0000 0.0000 5.0071
# 3 -1.4147 -1.4147 91.3102 0.0000 0.0000 0.0000
# 4 0.0000 0.0000 0.0000 15.6524 0.0000 0.0000
# 5 0.0000 0.0000 0.0000 0.0000 15.6524 0.0000
# 6 -5.0071 5.0071 0.0000 0.0000 0.0000 18.2603
#
#
#
# Elastic Compliance Matrix: (Units=1/GPa)
#
#
# Indices 1 2 3 4 5 6 
#
# 1 0.023461 -0.000223 0.000360 0.000000 0.000000 0.006494
# 2 -0.000223 0.023461 0.000360 0.000000 0.000000 -0.006494
# 3 0.000360 0.000360 0.010963 0.000000 0.000000 0.000000
# 4 0.000000 0.000000 0.000000 0.063888 0.000000 0.000000
# 5 0.000000 0.000000 0.000000 0.000000 0.063888 0.000000
# 6 0.006494 -0.006494 0.000000 0.000000 0.000000 0.058325
#
#
# Mechanical properties :
#
#
# Convention : Reuss Voigt Hill
#
# Bulk Modulus (GPa) = 16.98350 19.08909 18.03630
# Shear Modulus (GPa) = 19.03900 22.12169 20.58034
#
# Velocity S-wave (km/s) = 2.98828 3.22113 3.10688
# Velocity P-wave (km/s) = 4.45781 4.77362 4.61842
#
# Compressibility (1/GPa) = 0.05888068
#
# Stress axis : x y z
#
# Youngs Moduli (GPa) = 42.62328 42.62328 91.21727
#
# Poissons Ratio (x) = 0.00949 -0.03284
# Poissons Ratio (y) = 0.00949 -0.03284
# Poissons Ratio (z) = -0.01535 -0.01535
#
# Static dielectric constant tensor:
#      x y z
#    x 1.802040 0.000000 0.000000 
#    y 0.000000 1.802040 0.000000 
#    z 0.000000 0.000000 1.806900 
# 
# From -- ./inp_files/1943.got.cif
#   From: 2010.05.17/outbox.cif.g08.bks.cpg/sg83_1_cif.got.tgz:1943.got - 2010.06.03 18:55:12.
