data_PCOD9543920
_publ_section_title
;
Structure prediction by ZEFSAII (Michael W. Deem and Ramdas Pophale) SiO2 
 PCOD9543920
Probable space group: P 4/M
;
_chemical_formula_sum "Si O2"
_cell_formula_units_Z 56
_cell_length_a 18.492797
_cell_length_b 18.492797
_cell_length_c 7.350024
_cell_angle_alpha 90.000000
_cell_angle_beta 90.000000
_cell_angle_gamma 90.000000
_cell_volume 2513.587233
_symmetry_space_group_name_H-M "P 4/M"
_symmetry_group_IT_number 83
_symmetry_cell_setting 'tetragonal'
loop_
_space_group_symop_operation_xyz
x,y,z
-y,x,z
-x,-y,z
y,-x,z
-x,-y,-z
y,-x,-z
x,y,-z
-y,x,-z
loop_
_atom_site_type_symbol
_atom_site_label
_atom_site_fract_x
_atom_site_fract_y
_atom_site_fract_z
Si Si1 0.251914 0.278472 0.786614
Si Si2 0.340836 0.146870 0.211549
Si Si3 0.917106 0.489874 0.777642
Si Si4 0.560574 0.231290 0.777712
Si Si5 0.886960 0.817643 0.719573
Si Si6 0.499262 0.617817 0.778829
Si Si7 0.951052 0.204518 0.719932
O O1 0.308639 0.220712 0.708435
O O2 0.250393 0.358908 0.713524
O O3 0.173464 0.240550 0.773951
O O4 0.269048 0.285791 0.000000
O O5 0.412533 0.112007 0.287020
O O6 0.277607 0.088022 0.221252
O O7 0.356927 0.161992 0.000000
O O8 0.850948 0.542208 0.722871
O O9 0.000000 0.500000 0.717103
O O10 0.919946 0.491926 0.000000
O O11 0.508842 0.298365 0.722257
O O12 0.559225 0.230643 0.000000
O O13 0.888174 0.817324 0.500000
O O14 0.859058 0.896637 0.777794
O O15 0.967288 0.801634 0.785230
O O16 0.428796 0.569827 0.724062
O O17 0.500266 0.618187 0.000000
O O18 0.952493 0.204178 0.500000
#
# Coordination Sequence:
#
# PCOD9543920 Si02
#       7
#     8   8   8   8   8   8   8
#     4   9  18  30  46  70  93 120 156 193 232 273
#     4   9  18  31  48  68  93 123 156 192 229 272
#     4   9  18  29  41  62  89 122 158 189 227 273
#     4   9  17  26  41  62  89 121 154 193 231 275
#     4   9  18  32  49  69  92 119 152 189 231 278
#     4   8  14  23  36  57  87 121 150 182 233 286
#     4   9  18  32  50  70  92 120 151 187 232 277
#
# _framework density 22.278915000000001
#
# number of rings (size 3 to 8) (size 9 to 14) (size 15 to 20)
#    0.000    3.143    0.000    0.429    4.000    0.857 
#    0.000    1.429    0.000    1.286    0.000    4.000 
#    0.000    0.000    0.000    1.571    0.000    1.429 
#
# Total GULP energy -312432.958749 kJ/mol
# GULP energy per Si atom -5579.159978 kJ/mol
# Density = 2.222821 g / cm^3
# Si number density = 22.278915 Si / 1000 Ang^3
#
#
#
# Elastic Constant Matrix: (Units=GPa)
#
#
# Indices 1 2 3 4 5 6 
#
# 1 172.8128 22.7589 1.1044 0.0000 0.0000 -7.2783
# 2 22.7589 172.8128 1.1044 0.0000 0.0000 7.2783
# 3 1.1044 1.1044 83.6095 0.0000 0.0000 0.0000
# 4 0.0000 0.0000 0.0000 -6.2120 0.0000 0.0000
# 5 0.0000 0.0000 0.0000 0.0000 -6.2120 0.0000
# 6 -7.2783 7.2783 0.0000 0.0000 0.0000 7.2433
#
#
#
# Elastic Compliance Matrix: (Units=1/GPa)
#
#
# Indices 1 2 3 4 5 6 
#
# 1 0.006249 -0.001135 -0.000068 0.000000 0.000000 0.007420
# 2 -0.001135 0.006249 -0.000068 0.000000 0.000000 -0.007420
# 3 -0.000068 -0.000068 0.011962 0.000000 0.000000 0.000000
# 4 0.000000 0.000000 0.000000 -0.160979 0.000000 0.000000
# 5 0.000000 0.000000 0.000000 0.000000 -0.160979 0.000000
# 6 0.007420 -0.007420 0.000000 0.000000 0.000000 0.152970
#
#
# Mechanical properties :
#
#
# Convention : Reuss Voigt Hill
#
# Bulk Modulus (GPa) = 45.62064 53.24115 49.43090
# Shear Modulus (GPa) = -37.12493 25.91502 -5.60495
#
# Velocity S-wave (km/s) = -4.08655 3.41428 -1.58785
# Velocity P-wave (km/s) = 1.32099 6.28431 4.34440
#
# Compressibility (1/GPa) = 0.02191990
#
# Stress axis : x y z
#
# Youngs Moduli (GPa) = 160.02517 160.02517 83.59708
#
# Poissons Ratio (x) = 0.18163 0.00565
# Poissons Ratio (y) = 0.18163 0.00565
# Poissons Ratio (z) = 0.01081 0.01081
#
# Static dielectric constant tensor:
#      x y z
#    x 1.803130 0.000000 0.000000 
#    y 0.000000 1.803130 0.000000 
#    z 0.000000 0.000000 1.868030 
# 
# From -- ./inp_files/2007.got.cif
#   From: 2010.05.17/outbox.cif.g08.bks.cpg/sg83_2_cif.got.tgz:2007.got - 2010.06.03 18:55:12.
