data_PCOD9543945
_publ_section_title
;
Structure prediction by ZEFSAII (Michael W. Deem and Ramdas Pophale) SiO2 
 PCOD9543945
Probable space group: P 42/M
;
_chemical_formula_sum "Si O2"
_cell_formula_units_Z 48
_cell_length_a 8.846578
_cell_length_b 8.846578
_cell_length_c 30.049241
_cell_angle_alpha 90.000000
_cell_angle_beta 90.000000
_cell_angle_gamma 90.000000
_cell_volume 2351.711966
_symmetry_space_group_name_H-M "P 42/M"
_symmetry_group_IT_number 84
_symmetry_cell_setting 'tetragonal'
loop_
_space_group_symop_operation_xyz
x,y,z
-y,x,1/2+z
-x,-y,z
y,-x,1/2+z
-x,-y,-z
y,-x,1/2-z
x,y,-z
-y,x,1/2-z
loop_
_atom_site_type_symbol
_atom_site_label
_atom_site_fract_x
_atom_site_fract_y
_atom_site_fract_z
Si Si1 0.671933 0.064170 0.450401
Si Si2 0.415049 0.344108 0.806362
Si Si3 0.066032 0.330719 0.219894
Si Si4 0.642709 0.090180 0.185812
Si Si5 0.131970 0.731221 0.867957
Si Si6 0.660188 0.555610 0.900513
O O1 0.736106 0.051827 0.500000
O O2 0.646661 0.234977 0.434125
O O3 0.500000 0.000000 0.451829
O O4 0.753409 0.968165 0.411890
O O5 0.500000 0.500000 0.796883
O O6 0.246051 0.321985 0.788508
O O7 0.545486 0.228347 0.794031
O O8 0.389871 0.341829 0.859323
O O9 0.029678 0.270247 0.270031
O O10 0.000000 0.500000 0.223476
O O11 0.978108 0.279028 0.175219
O O12 0.752630 0.140065 0.147027
O O13 0.500000 0.000000 0.167583
O O14 0.234933 0.579792 0.878402
O O15 0.500000 0.500000 0.920080
#
# Coordination Sequence:
#
# PCOD9543945 Si02
#       6
#     8   8   8   8   8   8
#     4   9  18  32  57  89 121 156 194 245 316 376
#     4  11  20  34  57  83 110 151 198 244 293 350
#     4  11  21  34  54  81 112 157 197 243 291 358
#     4  11  26  36  55  86 117 153 205 248 296 352
#     4  11  19  39  56  77 124 160 195 242 301 370
#     4  10  17  31  59  87 115 150 194 248 310 349
#
# _framework density 20.410663
#
# number of rings (size 3 to 8) (size 9 to 14) (size 15 to 20)
#    0.000    1.500    6.667    0.500    7.000    0.333 
#    0.000    0.833    0.000    0.500    0.000    1.167 
#    0.000    0.000    0.000    0.000    0.000    0.000 
#
# Total GULP energy -267263.939977 kJ/mol
# GULP energy per Si atom -5567.998750 kJ/mol
# Density = 2.036421 g / cm^3
# Si number density = 20.410663 Si / 1000 Ang^3
#
#
#
# Elastic Constant Matrix: (Units=GPa)
#
#
# Indices 1 2 3 4 5 6 
#
# 1 74.8563 33.8385 45.1307 0.0000 0.0000 22.2351
# 2 33.8385 74.8563 45.1307 0.0000 0.0000 -22.2351
# 3 45.1307 45.1307 166.2715 0.0000 0.0000 0.0000
# 4 0.0000 0.0000 0.0000 14.2152 0.0000 0.0000
# 5 0.0000 0.0000 0.0000 0.0000 14.2152 0.0000
# 6 22.2351 -22.2351 0.0000 0.0000 0.0000 -93.0893
#
#
#
# Elastic Compliance Matrix: (Units=1/GPa)
#
#
# Indices 1 2 3 4 5 6 
#
# 1 0.015621 -0.003744 -0.003224 0.000000 0.000000 0.004625
# 2 -0.003744 0.015621 -0.003224 0.000000 0.000000 -0.004625
# 3 -0.003224 -0.003224 0.007764 0.000000 0.000000 0.000000
# 4 0.000000 0.000000 0.000000 0.070347 0.000000 0.000000
# 5 0.000000 0.000000 0.000000 0.000000 0.070347 0.000000
# 6 0.004625 -0.004625 0.000000 0.000000 0.000000 -0.008533
#
#
# Mechanical properties :
#
#
# Convention : Reuss Voigt Hill
#
# Bulk Modulus (GPa) = 53.69573 62.68708 58.19141
# Shear Modulus (GPa) = 25.28337 -0.13948 12.57194
#
# Velocity S-wave (km/s) = 3.52338 -0.26170 2.48453
# Velocity P-wave (km/s) = 6.55111 5.53970 6.06652
#
# Compressibility (1/GPa) = 0.01862345
#
# Stress axis : x y z
#
# Youngs Moduli (GPa) = 64.01633 64.01633 128.79451
#
# Poissons Ratio (x) = 0.23967 0.41521
# Poissons Ratio (y) = 0.23967 0.41521
# Poissons Ratio (z) = 0.20637 0.20637
#
# Static dielectric constant tensor:
#      x y z
#    x 1.751480 0.000000 0.000000 
#    y 0.000000 1.751480 0.000000 
#    z 0.000000 0.000000 1.749770 
# 
# From -- ./inp_files/5814.got.cif
#   From: 2010.05.17/outbox.cif.g08.bks.cpg/sg84_3_cif.got.tgz:5814.got - 2010.06.03 18:57:40.
