data_PCOD9543379
_publ_section_title
;
Structure prediction by ZEFSAII (Michael W. Deem and Ramdas Pophale) SiO2 
 PCOD9543379
Probable space group: P 4/M
;
_chemical_formula_sum "Si O2"
_cell_formula_units_Z 40
_cell_length_a 19.732018
_cell_length_b 19.732018
_cell_length_c 8.128722
_cell_angle_alpha 90.000000
_cell_angle_beta 90.000000
_cell_angle_gamma 90.000000
_cell_volume 3164.938512
_symmetry_space_group_name_H-M "P 4/M"
_symmetry_group_IT_number 83
_symmetry_cell_setting 'tetragonal'
loop_
_space_group_symop_operation_xyz
x,y,z
-y,x,z
-x,-y,z
y,-x,z
-x,-y,-z
y,-x,-z
x,y,-z
-y,x,-z
loop_
_atom_site_type_symbol
_atom_site_label
_atom_site_fract_x
_atom_site_fract_y
_atom_site_fract_z
Si Si1 0.578402 0.678529 0.195760
Si Si2 0.419081 0.836316 0.818333
Si Si3 0.416398 0.164851 0.187073
Si Si4 0.922413 0.416462 0.500000
Si Si5 0.690170 0.574874 0.691187
Si Si6 0.418140 0.920565 0.500000
O O1 0.599083 0.756695 0.227337
O O2 0.628849 0.626083 0.279692
O O3 0.500937 0.670678 0.253504
O O4 0.580688 0.668108 0.000000
O O5 0.501383 0.839096 0.817243
O O6 0.402774 0.757356 0.789060
O O7 0.395759 0.881621 0.665198
O O8 0.396199 0.858301 0.000000
O O9 0.393569 0.116006 0.334055
O O10 0.393103 0.149209 0.000000
O O11 0.919570 0.499153 0.500000
O O12 0.001126 0.397143 0.500000
O O13 0.709154 0.571978 0.500000
#
# Coordination Sequence:
#
# PCOD9543379 Si02
#       6
#     8   8   8   4   8   4
#     4  10  20  32  43  56  74  98 126 158 198 236
#     4   9  16  28  41  54  75  97 117 145 183 224
#     4   8  16  27  40  55  72  95 118 143 181 227
#     4   9  16  24  41  54  77  89 112 143 179 218
#     4  11  20  30  44  59  73  95 128 160 196 236
#     4   9  16  26  37  60  71  93 114 141 175 226
#
# _framework density 12.638476000000001
#
# number of rings (size 3 to 8) (size 9 to 14) (size 15 to 20)
#    0.000    2.600    1.000    3.600    5.600    1.200 
#    0.000    6.000    0.000    0.000    0.000    0.000 
#    0.000    0.000    0.000    0.000    0.000    0.000 
#
# Total GULP energy -222772.316043 kJ/mol
# GULP energy per Si atom -5569.307901 kJ/mol
# Density = 1.260971 g / cm^3
# Si number density = 12.638476 Si / 1000 Ang^3
#
#
#
# Elastic Constant Matrix: (Units=GPa)
#
#
# Indices 1 2 3 4 5 6 
#
# 1 40.8743 19.1231 26.8311 0.0000 0.0000 0.0289
# 2 19.1231 40.8743 26.8311 0.0000 0.0000 -0.0289
# 3 26.8311 26.8311 82.6543 0.0000 0.0000 0.0000
# 4 0.0000 0.0000 0.0000 9.8285 0.0000 0.0000
# 5 0.0000 0.0000 0.0000 0.0000 9.8285 0.0000
# 6 0.0289 -0.0289 0.0000 0.0000 0.0000 -0.4444
#
#
#
# Elastic Compliance Matrix: (Units=1/GPa)
#
#
# Indices 1 2 3 4 5 6 
#
# 1 0.034727 -0.011240 -0.007624 0.000000 0.000000 0.002985
# 2 -0.011240 0.034727 -0.007624 0.000000 0.000000 -0.002985
# 3 -0.007624 -0.007624 0.017048 0.000000 0.000000 0.000000
# 4 0.000000 0.000000 0.000000 0.101745 0.000000 0.000000
# 5 0.000000 0.000000 0.000000 0.000000 0.101745 0.000000
# 6 0.002985 -0.002985 0.000000 0.000000 0.000000 -2.249683
#
#
# Mechanical properties :
#
#
# Convention : Reuss Voigt Hill
#
# Bulk Modulus (GPa) = 29.82860 34.44147 32.13504
# Shear Modulus (GPa) = -2.63777 9.95037 3.65630
#
# Velocity S-wave (km/s) = -1.44625 2.80894 1.70272
# Velocity P-wave (km/s) = 4.56769 6.15066 5.41731
#
# Compressibility (1/GPa) = 0.03352487
#
# Stress axis : x y z
#
# Youngs Moduli (GPa) = 28.79641 28.79641 58.65636
#
# Poissons Ratio (x) = 0.32367 0.44720
# Poissons Ratio (y) = 0.32367 0.44720
# Poissons Ratio (z) = 0.21955 0.21955
#
# Static dielectric constant tensor:
#      x y z
#    x 1.392090 0.000000 0.000000 
#    y 0.000000 1.392090 0.000000 
#    z 0.000000 0.000000 1.445290 
# 
# From -- ./inp_files/837.got.cif
#   From: 2010.05.17/outbox.cif.g08.bks.cpg/sg83_1_cif.got.tgz:837.got - 2010.06.03 18:55:12.
