data_PCOD9543319
_publ_section_title
;
Structure prediction by ZEFSAII (Michael W. Deem and Ramdas Pophale) SiO2 
 PCOD9543319
Probable space group: P 4/M
;
_chemical_formula_sum "Si O2"
_cell_formula_units_Z 48
_cell_length_a 11.745005
_cell_length_b 11.745005
_cell_length_c 20.731135
_cell_angle_alpha 90.000000
_cell_angle_beta 90.000000
_cell_angle_gamma 90.000000
_cell_volume 2859.759371
_symmetry_space_group_name_H-M "P 4/M"
_symmetry_group_IT_number 83
_symmetry_cell_setting 'tetragonal'
loop_
_space_group_symop_operation_xyz
x,y,z
-y,x,z
-x,-y,z
y,-x,z
-x,-y,-z
y,-x,-z
x,y,-z
-y,x,-z
loop_
_atom_site_type_symbol
_atom_site_label
_atom_site_fract_x
_atom_site_fract_y
_atom_site_fract_z
Si Si1 0.873226 0.497441 0.323283
Si Si2 0.673890 0.098752 0.205893
Si Si3 0.694882 0.834379 0.233310
Si Si4 0.316260 0.557318 0.132730
Si Si5 0.553882 0.125302 0.070050
Si Si6 0.537270 0.312234 0.426650
O O1 0.881348 0.572747 0.257800
O O2 0.841810 0.368811 0.302079
O O3 0.782071 0.547510 0.372144
O O4 0.000000 0.500000 0.351669
O O5 0.774840 0.182691 0.227808
O O6 0.632582 0.129827 0.133689
O O7 0.700413 0.964239 0.208169
O O8 0.609094 0.755535 0.191635
O O9 0.366250 0.429102 0.131800
O O10 0.220251 0.545233 0.077776
O O11 0.500000 0.000000 0.071424
O O12 0.610322 0.142359 0.000000
O O13 0.627889 0.413903 0.419697
O O14 0.545964 0.267763 0.500000
#
# Coordination Sequence:
#
# PCOD9543319 Si02
#       6
#     8   8   8   8   8   8
#     4  10  19  32  54  77 103 138 173 214 262 308
#     4  11  21  37  56  77 103 138 178 222 269 320
#     4  11  20  36  57  75 106 135 179 223 263 318
#     4  11  21  34  53  79 105 130 165 213 263 317
#     4  11  21  36  55  75 103 139 174 212 266 324
#     4   9  18  32  50  76 109 140 170 206 250 303
#
# _framework density 16.78463
#
# number of rings (size 3 to 8) (size 9 to 14) (size 15 to 20)
#    0.000    1.500    5.000    2.000    0.000    1.333 
#    0.000    3.333    0.000    0.000    0.000    1.167 
#    0.000    0.000    0.000   31.000    0.000    0.000 
#
# Total GULP energy -267206.482303 kJ/mol
# GULP energy per Si atom -5566.801715 kJ/mol
# Density = 1.674643 g / cm^3
# Si number density = 16.784630 Si / 1000 Ang^3
#
#
#
# Elastic Constant Matrix: (Units=GPa)
#
#
# Indices 1 2 3 4 5 6 
#
# 1 93.6517 31.4987 20.5459 0.0000 0.0000 -2.0784
# 2 31.4987 93.6517 20.5459 0.0000 0.0000 2.0784
# 3 20.5459 20.5459 59.5456 0.0000 0.0000 0.0000
# 4 0.0000 0.0000 0.0000 6.7997 0.0000 0.0000
# 5 0.0000 0.0000 0.0000 0.0000 6.7997 0.0000
# 6 -2.0784 2.0784 0.0000 0.0000 0.0000 24.4033
#
#
#
# Elastic Compliance Matrix: (Units=1/GPa)
#
#
# Indices 1 2 3 4 5 6 
#
# 1 0.012596 -0.003585 -0.003109 0.000000 0.000000 0.001378
# 2 -0.003585 0.012596 -0.003109 0.000000 0.000000 -0.001378
# 3 -0.003109 -0.003109 0.018940 0.000000 0.000000 0.000000
# 4 0.000000 0.000000 0.000000 0.147065 0.000000 0.000000
# 5 0.000000 0.000000 0.000000 0.000000 0.147065 0.000000
# 6 0.001378 -0.001378 0.000000 0.000000 0.000000 0.041213
#
#
# Mechanical properties :
#
#
# Convention : Reuss Voigt Hill
#
# Bulk Modulus (GPa) = 40.77486 43.55891 42.16689
# Shear Modulus (GPa) = 12.27725 19.21778 15.74752
#
# Velocity S-wave (km/s) = 2.70748 3.38740 3.06635
# Velocity P-wave (km/s) = 5.84120 6.42708 6.14113
#
# Compressibility (1/GPa) = 0.02452491
#
# Stress axis : x y z
#
# Youngs Moduli (GPa) = 79.38778 79.38778 52.79959
#
# Poissons Ratio (x) = 0.28461 0.16417
# Poissons Ratio (y) = 0.28461 0.16417
# Poissons Ratio (z) = 0.24684 0.24684
#
# Static dielectric constant tensor:
#      x y z
#    x 1.588300 0.000000 0.000000 
#    y 0.000000 1.588300 0.000000 
#    z 0.000000 0.000000 1.586130 
# 
# From -- ./inp_files/2650.got.cif
#   From: 2010.05.17/outbox.cif.g08.bks.cpg/sg83_2_cif.got.tgz:2650.got - 2010.06.03 18:55:12.
