data_PCOD9543499
_publ_section_title
;
Structure prediction by ZEFSAII (Michael W. Deem and Ramdas Pophale) SiO2 
 PCOD9543499
Probable space group: P 4/M
;
_chemical_formula_sum "Si O2"
_cell_formula_units_Z 48
_cell_length_a 13.345882
_cell_length_b 13.345882
_cell_length_c 12.649550
_cell_angle_alpha 90.000000
_cell_angle_beta 90.000000
_cell_angle_gamma 90.000000
_cell_volume 2253.043814
_symmetry_space_group_name_H-M "P 4/M"
_symmetry_group_IT_number 83
_symmetry_cell_setting 'tetragonal'
loop_
_space_group_symop_operation_xyz
x,y,z
-y,x,z
-x,-y,z
y,-x,z
-x,-y,-z
y,-x,-z
x,y,-z
-y,x,-z
loop_
_atom_site_type_symbol
_atom_site_label
_atom_site_fract_x
_atom_site_fract_y
_atom_site_fract_z
Si Si1 0.630640 0.396632 0.124580
Si Si2 0.542460 0.105873 0.315886
Si Si3 0.987178 0.635644 0.880208
Si Si4 0.139988 0.229445 0.379081
Si Si5 0.187155 0.656596 0.736632
Si Si6 0.046869 0.155366 0.174714
O O1 0.635932 0.516329 0.145932
O O2 0.713539 0.341237 0.192606
O O3 0.648915 0.382189 0.000000
O O4 0.649468 0.134018 0.364149
O O5 0.450261 0.181751 0.323384
O O6 0.500000 0.000000 0.359202
O O7 0.564742 0.083229 0.190894
O O8 0.087923 0.655469 0.811111
O O9 0.930487 0.741740 0.882253
O O10 0.008776 0.605700 0.000000
O O11 0.121608 0.204264 0.500000
O O12 0.248297 0.191007 0.339695
O O13 0.060531 0.180527 0.298693
O O14 0.935766 0.119173 0.148305
#
# Coordination Sequence:
#
# PCOD9543499 Si02
#       6
#     8   8   8   8   8   8
#     4   9  18  32  53  83 116 152 192 235 293 360
#     4   9  22  41  61  88 127 164 203 260 315 377
#     4  10  21  38  62  91 123 162 202 242 300 375
#     4  11  24  41  63  91 118 157 214 265 314 374
#     4  11  20  38  59  86 122 157 201 255 306 362
#     4  10  21  42  61  85 124 156 202 253 307 370
#
# _framework density 21.304513
#
# number of rings (size 3 to 8) (size 9 to 14) (size 15 to 20)
#    0.000    2.000    1.667    2.000    0.000    6.000 
#    0.000    4.167    0.000    0.000    0.000    3.500 
#    0.000    0.000    0.000    0.000    0.000    0.000 
#
# Total GULP energy -268125.812931 kJ/mol
# GULP energy per Si atom -5585.954436 kJ/mol
# Density = 2.125602 g / cm^3
# Si number density = 21.304513 Si / 1000 Ang^3
#
#
#
# Elastic Constant Matrix: (Units=GPa)
#
#
# Indices 1 2 3 4 5 6 
#
# 1 63.8577 0.5818 -9.0695 0.0000 0.0000 -1.6255
# 2 0.5818 63.8577 -9.0695 0.0000 0.0000 1.6255
# 3 -9.0695 -9.0695 61.5178 0.0000 0.0000 0.0000
# 4 0.0000 0.0000 0.0000 9.2292 0.0000 0.0000
# 5 0.0000 0.0000 0.0000 0.0000 9.2292 0.0000
# 6 -1.6255 1.6255 0.0000 0.0000 0.0000 27.9509
#
#
#
# Elastic Compliance Matrix: (Units=1/GPa)
#
#
# Indices 1 2 3 4 5 6 
#
# 1 0.016021 0.000170 0.002387 0.000000 0.000000 0.000922
# 2 0.000170 0.016021 0.002387 0.000000 0.000000 -0.000922
# 3 0.002387 0.002387 0.016959 0.000000 0.000000 0.000000
# 4 0.000000 0.000000 0.000000 0.108351 0.000000 0.000000
# 5 0.000000 0.000000 0.000000 0.000000 0.108351 0.000000
# 6 0.000922 -0.000922 0.000000 0.000000 0.000000 0.035884
#
#
# Mechanical properties :
#
#
# Convention : Reuss Voigt Hill
#
# Bulk Modulus (GPa) = 16.98152 17.12433 17.05293
# Shear Modulus (GPa) = 16.06011 23.06789 19.56400
#
# Velocity S-wave (km/s) = 2.74859 3.29412 3.03364
# Velocity P-wave (km/s) = 4.24984 4.74591 4.50471
#
# Compressibility (1/GPa) = 0.05888753
#
# Stress axis : x y z
#
# Youngs Moduli (GPa) = 62.41911 62.41911 58.96488
#
# Poissons Ratio (x) = -0.01059 -0.14074
# Poissons Ratio (y) = -0.01059 -0.14074
# Poissons Ratio (z) = -0.14899 -0.14899
#
# Static dielectric constant tensor:
#      x y z
#    x 1.792820 0.000000 0.000000 
#    y 0.000000 1.792820 0.000000 
#    z 0.000000 0.000000 1.746950 
# 
# From -- ./inp_files/1824.got.cif
#   From: 2010.05.17/outbox.cif.g08.bks.cpg/sg83_1_cif.got.tgz:1824.got - 2010.06.03 18:55:12.
