data_PCOD9543924
_publ_section_title
;
Structure prediction by ZEFSAII (Michael W. Deem and Ramdas Pophale) SiO2 
 PCOD9543924
Probable space group: P 4/M
;
_chemical_formula_sum "Si O2"
_cell_formula_units_Z 64
_cell_length_a 21.000000
_cell_length_b 21.000000
_cell_length_c 9.000000
_cell_angle_alpha 90.000000
_cell_angle_beta 90.000000
_cell_angle_gamma 90.000000
_cell_volume 3969.000000
_symmetry_space_group_name_H-M "P 4/M"
_symmetry_group_IT_number 83
_symmetry_cell_setting 'tetragonal'
loop_
_space_group_symop_operation_xyz
x,y,z
-y,x,z
-x,-y,z
y,-x,z
-x,-y,-z
y,-x,-z
x,y,-z
-y,x,-z
loop_
_atom_site_type_symbol
_atom_site_label
_atom_site_fract_x
_atom_site_fract_y
_atom_site_fract_z
Si Si1 0.813270 0.735522 0.829510
Si Si2 0.374099 0.706048 0.164779
Si Si3 0.488990 0.231334 0.168377
Si Si4 0.060852 0.631104 0.319555
Si Si5 0.504657 0.102671 0.676266
Si Si6 0.614801 0.702438 0.665844
Si Si7 0.179817 0.714081 0.672272
Si Si8 0.081628 0.349859 0.321137
O O1 0.760719 0.679179 0.826920
O O2 0.776962 0.795273 0.755576
O O3 0.873017 0.703682 0.747078
O O4 0.829197 0.749583 0.000000
O O5 0.441544 0.739013 0.178898
O O6 0.358917 0.655350 0.290597
O O7 0.368979 0.676771 0.000000
O O8 0.484094 0.174248 0.285135
O O9 0.438213 0.283842 0.213151
O O10 0.478733 0.207798 0.000000
O O11 0.067301 0.627815 0.500000
O O12 0.062871 0.556844 0.268678
O O13 0.118904 0.675365 0.266196
O O14 0.992469 0.660568 0.286339
O O15 0.509016 0.090994 0.500000
O O16 0.577175 0.095312 0.733099
O O17 0.588534 0.699201 0.500000
O O18 0.663631 0.762011 0.673566
O O19 0.167326 0.730459 0.500000
O O20 0.090341 0.349496 0.500000
#
# Coordination Sequence:
#
# PCOD9543924 Si02
#       8
#     8   8   8   8   8   8   8   8
#     4  10  19  32  47  66  95 124 159 200 236 275
#     4   9  19  33  47  65  90 122 154 190 238 286
#     4  11  20  31  48  68  94 123 154 191 236 287
#     4   9  17  31  48  70  98 128 162 200 235 277
#     4  10  18  30  46  68  96 129 166 198 227 268
#     4  10  19  31  49  71  90 114 152 199 243 281
#     4   9  17  31  49  68  92 121 159 200 237 275
#     4  10  19  30  49  71  96 131 165 195 236 279
#
# _framework density 16.124969
#
# number of rings (size 3 to 8) (size 9 to 14) (size 15 to 20)
#    0.000    2.250    2.500    1.500    0.000    3.500 
#    0.000    1.250    0.000    1.875    0.000    2.625 
#    0.000    0.500    0.000    5.750    0.000    2.250 
#
# Total GULP energy -356333.418868 kJ/mol
# GULP energy per Si atom -5567.709670 kJ/mol
# Density = 1.608827 g / cm^3
# Si number density = 16.124969 Si / 1000 Ang^3
#
#
#
# Elastic Constant Matrix: (Units=GPa)
#
#
# Indices 1 2 3 4 5 6 
#
# 1 48.9149 24.8387 19.0025 0.0000 0.0000 1.1713
# 2 24.8387 48.9149 19.0025 0.0000 0.0000 -1.1713
# 3 19.0025 19.0025 23.5851 0.0000 0.0000 0.0000
# 4 0.0000 0.0000 0.0000 11.3585 0.0000 0.0000
# 5 0.0000 0.0000 0.0000 0.0000 11.3585 0.0000
# 6 1.1713 -1.1713 0.0000 0.0000 0.0000 12.9973
#
#
#
# Elastic Compliance Matrix: (Units=1/GPa)
#
#
# Indices 1 2 3 4 5 6 
#
# 1 0.032543 -0.009359 -0.018679 0.000000 0.000000 -0.003776
# 2 -0.009359 0.032543 -0.018679 0.000000 0.000000 0.003776
# 3 -0.018679 -0.018679 0.072500 0.000000 0.000000 0.000000
# 4 0.000000 0.000000 0.000000 0.088040 0.000000 0.000000
# 5 0.000000 0.000000 0.000000 0.000000 0.088040 0.000000
# 6 -0.003776 0.003776 0.000000 0.000000 0.000000 0.077620
#
#
# Mechanical properties :
#
#
# Convention : Reuss Voigt Hill
#
# Bulk Modulus (GPa) = 22.64998 27.45582 25.05290
# Shear Modulus (GPa) = 10.01125 11.04760 10.52943
#
# Velocity S-wave (km/s) = 2.49440 2.62033 2.55814
# Velocity P-wave (km/s) = 4.73002 5.12042 4.92908
#
# Compressibility (1/GPa) = 0.04415015
#
# Stress axis : x y z
#
# Youngs Moduli (GPa) = 30.72837 30.72837 13.79315
#
# Poissons Ratio (x) = 0.28759 0.25765
# Poissons Ratio (y) = 0.28759 0.25765
# Poissons Ratio (z) = 0.57399 0.57399
#
# Static dielectric constant tensor:
#      x y z
#    x 1.542110 0.000000 0.000000 
#    y 0.000000 1.542110 0.000000 
#    z 0.000000 0.000000 1.562760 
# 
# From -- ./inp_files/1290.got.cif
#   From: 2010.05.17/outbox.ucp.g08.bks.cvg/sg83_1_cif.got.tgz:1290.got - 2010.06.11 10:34:49.
