data_PCOD9543843
_publ_section_title
;
Structure prediction by ZEFSAII (Michael W. Deem and Ramdas Pophale) SiO2 
 PCOD9543843
Probable space group: P 4/M
;
_chemical_formula_sum "Si O2"
_cell_formula_units_Z 34
_cell_length_a 8.586507
_cell_length_b 8.586507
_cell_length_c 20.940731
_cell_angle_alpha 90.000000
_cell_angle_beta 90.000000
_cell_angle_gamma 90.000000
_cell_volume 1543.920361
_symmetry_space_group_name_H-M "P 4/M"
_symmetry_group_IT_number 83
_symmetry_cell_setting 'tetragonal'
loop_
_space_group_symop_operation_xyz
x,y,z
-y,x,z
-x,-y,z
y,-x,z
-x,-y,-z
y,-x,-z
x,y,-z
-y,x,-z
loop_
_atom_site_type_symbol
_atom_site_label
_atom_site_fract_x
_atom_site_fract_y
_atom_site_fract_z
Si Si1 0.251667 0.075587 0.429037
Si Si2 0.661810 0.910459 0.805791
Si Si3 0.000000 0.000000 0.219237
Si Si4 0.354114 0.281021 0.928269
Si Si5 0.741464 0.411802 0.323091
O O1 0.320513 0.097622 0.500000
O O2 0.361309 0.124634 0.371742
O O3 0.098516 0.185223 0.424460
O O4 0.706849 0.825975 0.871855
O O5 0.617016 0.792915 0.749201
O O6 0.500000 0.000000 0.818151
O O7 0.807472 0.013267 0.782328
O O8 0.541997 0.293014 0.922555
O O9 0.317133 0.224903 0.000000
O O10 0.692040 0.588693 0.334460
#
# Coordination Sequence:
#
# PCOD9543843 Si02
#       5
#     8   8   2   8   8
#     4   9  21  41  66  95 127 167 215 270 331 401
#     4  12  26  44  66  97 138 179 228 286 348 403
#     4  12  28  44  69 104 129 184 236 282 340 420
#     4   9  18  37  67  98 134 184 232 280 343 410
#     4  11  25  41  62  94 131 173 218 274 341 405
#
# _framework density 22.021861000000001
#
# number of rings (size 3 to 8) (size 9 to 14) (size 15 to 20)
#    0.000    1.647    0.000    5.647    6.588    3.294 
#    0.000    5.294    0.000    0.000    0.000    0.000 
#    0.000    0.000    0.000    0.000    0.000    0.000 
#
# Total GULP energy -189736.697717 kJ/mol
# GULP energy per Si atom -5580.491109 kJ/mol
# Density = 2.197174 g / cm^3
# Si number density = 22.021861 Si / 1000 Ang^3
#
#
#
# Elastic Constant Matrix: (Units=GPa)
#
#
# Indices 1 2 3 4 5 6 
#
# 1 12.3206 54.8656 12.5952 0.0000 0.0000 67.5298
# 2 54.8656 12.3206 12.5952 0.0000 0.0000 -67.5298
# 3 12.5952 12.5952 89.3744 0.0000 0.0000 0.0000
# 4 0.0000 0.0000 0.0000 40.6571 0.0000 0.0000
# 5 0.0000 0.0000 0.0000 0.0000 40.6571 0.0000
# 6 67.5298 -67.5298 0.0000 0.0000 0.0000 -142.6668
#
#
#
# Elastic Compliance Matrix: (Units=1/GPa)
#
#
# Indices 1 2 3 4 5 6 
#
# 1 0.031239 -0.015525 -0.002215 0.000000 0.000000 0.022135
# 2 -0.015525 0.031239 -0.002215 0.000000 0.000000 -0.022135
# 3 -0.002215 -0.002215 0.011813 0.000000 0.000000 0.000000
# 4 0.000000 0.000000 0.000000 0.024596 0.000000 0.000000
# 5 0.000000 0.000000 0.000000 0.000000 0.024596 0.000000
# 6 0.022135 -0.022135 0.000000 0.000000 0.000000 0.013946
#
#
# Mechanical properties :
#
#
# Convention : Reuss Voigt Hill
#
# Bulk Modulus (GPa) = 29.08371 30.45859 29.77115
# Shear Modulus (GPa) = 26.48339 -10.00655 8.23842
#
# Velocity S-wave (km/s) = 3.47161 -2.13396 1.93627
# Velocity P-wave (km/s) = 5.41339 2.79095 4.30664
#
# Compressibility (1/GPa) = 0.03438351
#
# Stress axis : x y z
#
# Youngs Moduli (GPa) = 32.01119 32.01119 84.65199
#
# Poissons Ratio (x) = 0.49697 0.18747
# Poissons Ratio (y) = 0.49697 0.18747
# Poissons Ratio (z) = 0.07089 0.07089
#
# Static dielectric constant tensor:
#      x y z
#    x 1.811670 0.000000 0.000000 
#    y 0.000000 1.811670 0.000000 
#    z 0.000000 0.000000 1.789880 
# 
# From -- ./inp_files/2831.got.cif
#   From: 2010.05.17/outbox.cif.g08.bks.cpg/sg83_2_cif.got.tgz:2831.got - 2010.06.03 18:55:12.
