data_PCOD9543905
_publ_section_title
;
Structure prediction by ZEFSAII (Michael W. Deem and Ramdas Pophale) SiO2 
 PCOD9543905
Probable space group: P 4/M
;
_chemical_formula_sum "Si O2"
_cell_formula_units_Z 40
_cell_length_a 7.290895
_cell_length_b 7.290895
_cell_length_c 28.745122
_cell_angle_alpha 90.000000
_cell_angle_beta 90.000000
_cell_angle_gamma 90.000000
_cell_volume 1528.008759
_symmetry_space_group_name_H-M "P 4/M"
_symmetry_group_IT_number 83
_symmetry_cell_setting 'tetragonal'
loop_
_space_group_symop_operation_xyz
x,y,z
-y,x,z
-x,-y,z
y,-x,z
-x,-y,-z
y,-x,-z
x,y,-z
-y,x,-z
loop_
_atom_site_type_symbol
_atom_site_label
_atom_site_fract_x
_atom_site_fract_y
_atom_site_fract_z
Si Si1 0.225658 0.649947 0.549782
Si Si2 0.876704 0.280041 0.148449
Si Si3 0.279218 0.140909 0.049749
Si Si4 0.355670 0.222365 0.350712
Si Si5 0.220235 0.624151 0.252065
O O1 0.262712 0.430089 0.549741
O O2 0.136385 0.696562 0.500000
O O3 0.134235 0.693409 0.599536
O O4 0.821424 0.374883 0.099514
O O5 0.852200 0.351809 0.200281
O O6 0.089873 0.231928 0.146486
O O7 0.077474 0.234137 0.049499
O O8 0.369681 0.186386 0.000000
O O9 0.574655 0.264821 0.351016
O O10 0.319119 0.126056 0.300972
O O11 0.267849 0.410824 0.254023
#
# Coordination Sequence:
#
# PCOD9543905 Si02
#       5
#     8   8   8   8   8
#     4   7   8  10  19  37  61  88 116 147 185 225
#     4   9  17  28  43  64  85 102 126 164 204 237
#     4   7  10  19  37  59  79  97 119 152 196 240
#     4   7  10  17  28  43  66  96 127 155 183 221
#     4   9  17  28  41  57  80 112 143 164 187 228
#
# _framework density 26.177864
#
# number of rings (size 3 to 8) (size 9 to 14) (size 15 to 20)
#    0.000    4.200    0.000    4.800    0.000    0.800 
#    0.000    0.000    0.000    1.200    0.000    7.000 
#    0.000    1.600    0.000   17.800    0.000   16.000 
#
# Total GULP energy -223019.772959 kJ/mol
# GULP energy per Si atom -5575.494324 kJ/mol
# Density = 2.611828 g / cm^3
# Si number density = 26.177864 Si / 1000 Ang^3
#
#
#
# Elastic Constant Matrix: (Units=GPa)
#
#
# Indices 1 2 3 4 5 6 
#
# 1 58.2011 -11.9407 40.0468 0.0000 0.0000 0.7348
# 2 -11.9407 58.2011 40.0468 0.0000 0.0000 -0.7348
# 3 40.0468 40.0468 411.8715 0.0000 0.0000 0.0000
# 4 0.0000 0.0000 0.0000 62.7389 0.0000 0.0000
# 5 0.0000 0.0000 0.0000 0.0000 62.7389 0.0000
# 6 0.7348 -0.7348 0.0000 0.0000 0.0000 17.9560
#
#
#
# Elastic Compliance Matrix: (Units=1/GPa)
#
#
# Indices 1 2 3 4 5 6 
#
# 1 0.020131 0.005862 -0.002527 0.000000 0.000000 -0.000584
# 2 0.005862 0.020131 -0.002527 0.000000 0.000000 0.000584
# 3 -0.002527 -0.002527 0.002919 0.000000 0.000000 0.000000
# 4 0.000000 0.000000 0.000000 0.015939 0.000000 0.000000
# 5 0.000000 0.000000 0.000000 0.000000 0.015939 0.000000
# 6 -0.000584 0.000584 0.000000 0.000000 0.000000 0.055739
#
#
# Mechanical properties :
#
#
# Convention : Reuss Voigt Hill
#
# Bulk Modulus (GPa) = 22.32389 73.84215 48.08302
# Shear Modulus (GPa) = 34.69431 59.36148 47.02790
#
# Velocity S-wave (km/s) = 3.64446 4.76712 4.24308
# Velocity P-wave (km/s) = 5.12403 7.65308 6.51250
#
# Compressibility (1/GPa) = 0.04479506
#
# Stress axis : x y z
#
# Youngs Moduli (GPa) = 49.67531 49.67531 342.53609
#
# Poissons Ratio (x) = -0.29118 0.86568
# Poissons Ratio (y) = -0.29118 0.86568
# Poissons Ratio (z) = 0.12554 0.12554
#
# Static dielectric constant tensor:
#      x y z
#    x 2.054900 0.000000 0.000000 
#    y 0.000000 2.054900 0.000000 
#    z 0.000000 0.000000 2.182310 
# 
# From -- ./inp_files/3244.got.cif
#   From: 2010.05.17/outbox.cif.g08.bks.cpg/sg83_2_cif.got.tgz:3244.got - 2010.06.03 18:55:12.
