data_PCOD9543331
_publ_section_title
;
Structure prediction by ZEFSAII (Michael W. Deem and Ramdas Pophale) SiO2 
 PCOD9543331
Probable space group: P 4/M
;
_chemical_formula_sum "Si O2"
_cell_formula_units_Z 64
_cell_length_a 21.374532
_cell_length_b 21.374532
_cell_length_c 8.520910
_cell_angle_alpha 90.000000
_cell_angle_beta 90.000000
_cell_angle_gamma 90.000000
_cell_volume 3892.953419
_symmetry_space_group_name_H-M "P 4/M"
_symmetry_group_IT_number 83
_symmetry_cell_setting 'tetragonal'
loop_
_space_group_symop_operation_xyz
x,y,z
-y,x,z
-x,-y,z
y,-x,z
-x,-y,-z
y,-x,-z
x,y,-z
-y,x,-z
loop_
_atom_site_type_symbol
_atom_site_label
_atom_site_fract_x
_atom_site_fract_y
_atom_site_fract_z
Si Si1 0.184540 0.294433 0.810278
Si Si2 0.508934 0.752088 0.175189
Si Si3 0.815230 0.269736 0.181737
Si Si4 0.358467 0.074437 0.809807
Si Si5 0.365666 0.274173 0.324164
Si Si6 0.611039 0.289424 0.318454
Si Si7 0.364351 0.937361 0.686821
Si Si8 0.101234 0.497939 0.817577
O O1 0.209238 0.224762 0.759232
O O2 0.233667 0.343144 0.735748
O O3 0.117147 0.320328 0.758017
O O4 0.188586 0.296898 0.000000
O O5 0.562847 0.740476 0.298767
O O6 0.449205 0.710755 0.211400
O O7 0.488545 0.824226 0.185877
O O8 0.533682 0.741560 0.000000
O O9 0.877192 0.304597 0.248274
O O10 0.764624 0.325249 0.200503
O O11 0.828929 0.256438 0.000000
O O12 0.430690 0.089622 0.759339
O O13 0.345094 0.004472 0.755156
O O14 0.359403 0.078996 0.000000
O O15 0.344385 0.256262 0.500000
O O16 0.350909 0.346927 0.305770
O O17 0.593454 0.279054 0.500000
O O18 0.358842 0.936042 0.500000
O O19 0.437934 0.927595 0.731402
O O20 0.080377 0.495321 0.000000
#
# Coordination Sequence:
#
# PCOD9543331 Si02
#       8
#     8   8   8   8   8   8   8   8
#     4  10  19  33  53  73  96 128 166 206 247 288
#     4  11  20  32  52  73  95 125 164 205 246 293
#     4   9  18  34  54  74  95 125 167 209 246 289
#     4  10  20  36  53  70  98 133 170 208 246 289
#     4  10  20  32  49  72  99 125 154 199 253 302
#     4  10  20  33  49  72  97 124 157 200 253 299
#     4  12  24  34  47  71 104 138 172 205 241 291
#     4  10  20  34  50  69  96 134 172 207 244 283
#
# _framework density 16.439959999999999
#
# number of rings (size 3 to 8) (size 9 to 14) (size 15 to 20)
#    0.000    1.750    2.500    3.000    0.000    5.000 
#    0.000    0.000    0.000    0.375    0.000    2.625 
#    0.000    0.500    0.000    5.750    0.000    2.250 
#
# Total GULP energy -356567.449530 kJ/mol
# GULP energy per Si atom -5571.366399 kJ/mol
# Density = 1.640254 g / cm^3
# Si number density = 16.439960 Si / 1000 Ang^3
#
#
#
# Elastic Constant Matrix: (Units=GPa)
#
#
# Indices 1 2 3 4 5 6 
#
# 1 54.7206 28.2042 2.3346 0.0000 0.0000 -3.0748
# 2 28.2042 54.7206 2.3346 0.0000 0.0000 3.0748
# 3 2.3346 2.3346 22.7778 0.0000 0.0000 0.0000
# 4 0.0000 0.0000 0.0000 13.9357 0.0000 0.0000
# 5 0.0000 0.0000 0.0000 0.0000 13.9357 0.0000
# 6 -3.0748 3.0748 0.0000 0.0000 0.0000 12.2120
#
#
#
# Elastic Compliance Matrix: (Units=1/GPa)
#
#
# Indices 1 2 3 4 5 6 
#
# 1 0.026090 -0.013961 -0.001243 0.000000 0.000000 0.010084
# 2 -0.013961 0.026090 -0.001243 0.000000 0.000000 -0.010084
# 3 -0.001243 -0.001243 0.044157 0.000000 0.000000 0.000000
# 4 0.000000 0.000000 0.000000 0.071758 0.000000 0.000000
# 5 0.000000 0.000000 0.000000 0.000000 0.071758 0.000000
# 6 0.010084 -0.010084 0.000000 0.000000 0.000000 0.086965
#
#
# Mechanical properties :
#
#
# Convention : Reuss Voigt Hill
#
# Bulk Modulus (GPa) = 15.76224 21.99621 18.87922
# Shear Modulus (GPa) = 13.12815 14.63972 13.88394
#
# Velocity S-wave (km/s) = 2.82893 2.98736 2.90922
# Velocity P-wave (km/s) = 4.50323 5.03069 4.77425
#
# Compressibility (1/GPa) = 0.06344275
#
# Stress axis : x y z
#
# Youngs Moduli (GPa) = 38.32861 38.32861 22.64636
#
# Poissons Ratio (x) = 0.53511 0.02815
# Poissons Ratio (y) = 0.53511 0.02815
# Poissons Ratio (z) = 0.04765 0.04765
#
# Static dielectric constant tensor:
#      x y z
#    x 1.558520 0.000000 0.000000 
#    y 0.000000 1.558520 0.000000 
#    z 0.000000 0.000000 1.567010 
# 
# From -- ./inp_files/1291.got.cif
#   From: 2010.05.17/outbox.cif.g08.bks.cpg/sg83_1_cif.got.tgz:1291.got - 2010.06.03 18:55:12.
