data_PCOD9543372
_publ_section_title
;
Structure prediction by ZEFSAII (Michael W. Deem and Ramdas Pophale) SiO2 
 PCOD9543372
Probable space group: P 4/M
;
_chemical_formula_sum "Si O2"
_cell_formula_units_Z 48
_cell_length_a 13.828800
_cell_length_b 13.828800
_cell_length_c 11.045699
_cell_angle_alpha 90.000000
_cell_angle_beta 90.000000
_cell_angle_gamma 90.000000
_cell_volume 2112.332085
_symmetry_space_group_name_H-M "P 4/M"
_symmetry_group_IT_number 83
_symmetry_cell_setting 'tetragonal'
loop_
_space_group_symop_operation_xyz
x,y,z
-y,x,z
-x,-y,z
y,-x,z
-x,-y,-z
y,-x,-z
x,y,-z
-y,x,-z
loop_
_atom_site_type_symbol
_atom_site_label
_atom_site_fract_x
_atom_site_fract_y
_atom_site_fract_z
Si Si1 0.006979 0.353834 0.000000
Si Si2 0.107525 0.118982 0.748560
Si Si3 0.468183 0.660842 0.500000
Si Si4 0.238818 0.380543 0.268971
Si Si5 0.159568 0.795623 0.000000
Si Si6 0.364812 0.761383 0.000000
Si Si7 0.180922 0.715508 0.634647
Si Si8 0.605615 0.007625 0.270839
O O1 0.982075 0.400731 0.871937
O O2 0.122531 0.347552 0.000000
O O3 0.943283 0.257438 0.000000
O O4 0.169054 0.164711 0.641955
O O5 0.994273 0.130391 0.743914
O O6 0.144056 0.160304 0.876379
O O7 0.391109 0.572073 0.500000
O O8 0.448141 0.724072 0.378420
O O9 0.259641 0.412938 0.130051
O O10 0.294227 0.277971 0.286908
O O11 0.121387 0.366011 0.280314
O O12 0.252800 0.725750 0.000000
O O13 0.200703 0.682396 0.500000
O O14 0.079955 0.669730 0.677757
O O15 0.500000 0.000000 0.327686
#
# Coordination Sequence:
#
# PCOD9543372 Si02
#       8
#     4   8   4   8   4   4   8   8
#     4  10  19  38  60  91 134 175 215 285 361 426
#     4  11  22  34  53  83 122 176 234 281 329 402
#     4  11  28  54  83 105 135 184 239 297 367 435
#     4  11  24  45  74 104 148 186 236 295 358 428
#     4  12  18  32  59  84 129 173 232 275 339 410
#     4  10  20  37  65 104 135 184 229 286 354 424
#     4  12  25  40  61  91 131 184 230 286 349 420
#     4  11  25  41  68 103 137 177 231 293 360 430
#
# _framework density 22.723700000000001
#
# number of rings (size 3 to 8) (size 9 to 14) (size 15 to 20)
#    0.000    0.917    4.167    2.750    3.500    3.000 
#    0.000    1.667    0.000    1.000    0.000    0.000 
#    0.000    0.000    0.000    0.000    0.000    0.000 
#
# Total GULP energy -267907.380638 kJ/mol
# GULP energy per Si atom -5581.403763 kJ/mol
# Density = 2.267198 g / cm^3
# Si number density = 22.723700 Si / 1000 Ang^3
#
#
#
# Elastic Constant Matrix: (Units=GPa)
#
#
# Indices 1 2 3 4 5 6 
#
# 1 60.0729 11.8375 24.7654 0.0000 0.0000 6.5913
# 2 11.8375 60.0729 24.7654 0.0000 0.0000 -6.5913
# 3 24.7654 24.7654 135.9110 0.0000 0.0000 0.0000
# 4 0.0000 0.0000 0.0000 6.1763 0.0000 0.0000
# 5 0.0000 0.0000 0.0000 0.0000 6.1763 0.0000
# 6 6.5913 -6.5913 0.0000 0.0000 0.0000 27.1330
#
#
#
# Elastic Compliance Matrix: (Units=1/GPa)
#
#
# Indices 1 2 3 4 5 6 
#
# 1 0.019054 -0.003152 -0.002898 0.000000 0.000000 -0.005394
# 2 -0.003152 0.019054 -0.002898 0.000000 0.000000 0.005394
# 3 -0.002898 -0.002898 0.008414 0.000000 0.000000 0.000000
# 4 0.000000 0.000000 0.000000 0.161909 0.000000 0.000000
# 5 0.000000 0.000000 0.000000 0.000000 0.161909 0.000000
# 6 -0.005394 0.005394 0.000000 0.000000 0.000000 0.039476
#
#
# Mechanical properties :
#
#
# Convention : Reuss Voigt Hill
#
# Bulk Modulus (GPa) = 34.93167 42.08815 38.50991
# Shear Modulus (GPa) = 11.43503 20.87635 16.15569
#
# Velocity S-wave (km/s) = 2.24569 3.03430 2.66928
# Velocity P-wave (km/s) = 4.70424 5.55319 5.14625
#
# Compressibility (1/GPa) = 0.02862732
#
# Stress axis : x y z
#
# Youngs Moduli (GPa) = 52.48241 52.48241 118.85295
#
# Poissons Ratio (x) = 0.16542 0.34439
# Poissons Ratio (y) = 0.16542 0.34439
# Poissons Ratio (z) = 0.15208 0.15208
#
# Static dielectric constant tensor:
#      x y z
#    x 1.884970 0.000000 0.000000 
#    y 0.000000 1.884970 0.000000 
#    z 0.000000 0.000000 1.838210 
# 
# From -- ./inp_files/1902.got.cif
#   From: 2010.05.17/outbox.cif.g08.bks.cpg/sg83_1_cif.got.tgz:1902.got - 2010.06.03 18:55:12.
