data_PCOD9543629
_publ_section_title
;
Structure prediction by ZEFSAII (Michael W. Deem and Ramdas Pophale) SiO2 
 PCOD9543629
Probable space group: P 4/M
;
_chemical_formula_sum "Si O2"
_cell_formula_units_Z 36
_cell_length_a 10.042823
_cell_length_b 10.042823
_cell_length_c 21.945727
_cell_angle_alpha 90.000000
_cell_angle_beta 90.000000
_cell_angle_gamma 90.000000
_cell_volume 2213.408582
_symmetry_space_group_name_H-M "P 4/M"
_symmetry_group_IT_number 83
_symmetry_cell_setting 'tetragonal'
loop_
_space_group_symop_operation_xyz
x,y,z
-y,x,z
-x,-y,z
y,-x,z
-x,-y,-z
y,-x,-z
x,y,-z
-y,x,-z
loop_
_atom_site_type_symbol
_atom_site_label
_atom_site_fract_x
_atom_site_fract_y
_atom_site_fract_z
Si Si1 0.636785 0.846193 0.741031
Si Si2 0.572049 0.714883 0.866377
Si Si3 0.571062 0.713949 0.000000
Si Si4 0.069747 0.213846 0.569378
Si Si5 0.348493 0.863240 0.307760
O O1 0.606830 0.811165 0.811101
O O2 0.751736 0.751152 0.716389
O O3 0.500145 0.821479 0.704067
O O4 0.672511 0.999679 0.729442
O O5 0.419552 0.661895 0.861577
O O6 0.592436 0.777492 0.933740
O O7 0.419518 0.660612 0.000000
O O8 0.085539 0.262676 0.500000
O O9 0.105581 0.316641 0.621957
O O10 0.918219 0.161260 0.576527
#
# Coordination Sequence:
#
# PCOD9543629 Si02
#       5
#     8   8   4   8   8
#     4  11  22  34  54  78 113 142 177 221 265 319
#     4   9  15  28  50  77 106 142 177 221 271 312
#     4   7  12  22  44  75 103 132 180 221 258 315
#     4   9  17  33  58  81 104 138 180 222 267 317
#     4  11  22  36  53  82 108 141 179 221 264 320
#
# _framework density 16.264506000000001
#
# number of rings (size 3 to 8) (size 9 to 14) (size 15 to 20)
#    0.000    2.333    4.444    2.000    0.000    0.889 
#    0.000    3.333    0.000    4.000    0.000    1.556 
#    0.000    1.778    0.000    0.000    0.000    0.000 
#
# Total GULP energy -200585.904809 kJ/mol
# GULP energy per Si atom -5571.830689 kJ/mol
# Density = 1.622749 g / cm^3
# Si number density = 16.264506 Si / 1000 Ang^3
#
#
#
# Elastic Constant Matrix: (Units=GPa)
#
#
# Indices 1 2 3 4 5 6 
#
# 1 74.7633 50.0464 51.4211 0.0000 0.0000 -9.9518
# 2 50.0464 74.7633 51.4211 0.0000 0.0000 9.9518
# 3 51.4211 51.4211 192.9945 0.0000 0.0000 0.0000
# 4 0.0000 0.0000 0.0000 26.0228 0.0000 0.0000
# 5 0.0000 0.0000 0.0000 0.0000 26.0228 0.0000
# 6 -9.9518 9.9518 0.0000 0.0000 0.0000 24.9999
#
#
#
# Elastic Compliance Matrix: (Units=1/GPa)
#
#
# Indices 1 2 3 4 5 6 
#
# 1 0.034906 -0.024640 -0.002735 0.000000 0.000000 0.023704
# 2 -0.024640 0.034906 -0.002735 0.000000 0.000000 -0.023704
# 3 -0.002735 -0.002735 0.006639 0.000000 0.000000 0.000000
# 4 0.000000 0.000000 0.000000 0.038428 0.000000 0.000000
# 5 0.000000 0.000000 0.000000 0.000000 0.038428 0.000000
# 6 0.023704 -0.023704 0.000000 0.000000 0.000000 0.058872
#
#
# Mechanical properties :
#
#
# Convention : Reuss Voigt Hill
#
# Bulk Modulus (GPa) = 61.61403 72.03313 66.82358
# Shear Modulus (GPa) = 17.99798 28.05124 23.02461
#
# Velocity S-wave (km/s) = 3.33014 4.15745 3.76657
# Velocity P-wave (km/s) = 7.26300 8.21161 7.75183
#
# Compressibility (1/GPa) = 0.01623007
#
# Stress axis : x y z
#
# Youngs Moduli (GPa) = 28.64848 28.64848 150.62398
#
# Poissons Ratio (x) = 0.70589 0.41200
# Poissons Ratio (y) = 0.70589 0.41200
# Poissons Ratio (z) = 0.07836 0.07836
#
# Static dielectric constant tensor:
#      x y z
#    x 1.533680 0.000000 0.000000 
#    y 0.000000 1.533680 0.000000 
#    z 0.000000 0.000000 1.569090 
# 
# From -- ./inp_files/2559.got.cif
#   From: 2010.05.17/outbox.cif.g08.bks.cpg/sg83_2_cif.got.tgz:2559.got - 2010.06.03 18:55:12.
