data_PCOD9543758
_publ_section_title
;
Structure prediction by ZEFSAII (Michael W. Deem and Ramdas Pophale) SiO2 
 PCOD9543758
Probable space group: P 4/M
;
_chemical_formula_sum "Si O2"
_cell_formula_units_Z 48
_cell_length_a 8.089928
_cell_length_b 8.089928
_cell_length_c 32.423677
_cell_angle_alpha 90.000000
_cell_angle_beta 90.000000
_cell_angle_gamma 90.000000
_cell_volume 2122.030283
_symmetry_space_group_name_H-M "P 4/M"
_symmetry_group_IT_number 83
_symmetry_cell_setting 'tetragonal'
loop_
_space_group_symop_operation_xyz
x,y,z
-y,x,z
-x,-y,z
y,-x,z
-x,-y,-z
y,-x,-z
x,y,-z
-y,x,-z
loop_
_atom_site_type_symbol
_atom_site_label
_atom_site_fract_x
_atom_site_fract_y
_atom_site_fract_z
Si Si1 0.263190 0.094041 0.454019
Si Si2 0.734299 0.918510 0.705564
Si Si3 0.235242 0.582793 0.626014
Si Si4 0.101482 0.737821 0.044057
Si Si5 0.263215 0.097331 0.133704
Si Si6 0.235663 0.584740 0.785352
O O1 0.333107 0.120623 0.500000
O O2 0.379912 0.146254 0.417015
O O3 0.094998 0.202224 0.450732
O O4 0.633175 0.875703 0.664679
O O5 0.634013 0.874961 0.746535
O O6 0.896144 0.801469 0.705530
O O7 0.300724 0.397168 0.628182
O O8 0.130995 0.657565 0.088571
O O9 0.909869 0.796001 0.044045
O O10 0.135507 0.652028 0.000000
O O11 0.375835 0.146517 0.171754
O O12 0.092844 0.203336 0.136181
O O13 0.299893 0.398499 0.783342
#
# Coordination Sequence:
#
# PCOD9543758 Si02
#       6
#     8   8   8   8   8   8
#     4   9  19  37  60  85 113 147 190 236 276 316
#     4  11  24  41  62  86 108 133 172 220 267 318
#     4  11  24  39  56  83 118 151 183 220 264 317
#     4   7  10  19  39  69 102 131 161 205 259 307
#     4   9  17  30  51  79 106 133 171 216 261 313
#     4  11  24  39  54  75 105 140 177 215 258 312
#
# _framework density 22.619845000000002
#
# number of rings (size 3 to 8) (size 9 to 14) (size 15 to 20)
#    0.000    2.333    0.000    5.000    0.000   11.333 
#    0.000    2.500    0.000    1.000    0.000    5.833 
#    0.000    0.000    0.000    0.000    0.000    0.000 
#
# Total GULP energy -268726.255006 kJ/mol
# GULP energy per Si atom -5598.463646 kJ/mol
# Density = 2.256836 g / cm^3
# Si number density = 22.619845 Si / 1000 Ang^3
#
#
#
# Elastic Constant Matrix: (Units=GPa)
#
#
# Indices 1 2 3 4 5 6 
#
# 1 76.5362 53.4150 62.7273 0.0000 0.0000 -1.7155
# 2 53.4150 76.5362 62.7273 0.0000 0.0000 1.7155
# 3 62.7273 62.7273 231.4698 0.0000 0.0000 0.0000
# 4 0.0000 0.0000 0.0000-1118.7534 0.0000 0.0000
# 5 0.0000 0.0000 0.0000 0.0000-1118.7534 0.0000
# 6 -1.7155 1.7155 0.0000 0.0000 0.0000 39.6606
#
#
#
# Elastic Compliance Matrix: (Units=1/GPa)
#
#
# Indices 1 2 3 4 5 6 
#
# 1 0.026976 -0.016554 -0.002824 0.000000 0.000000 0.001883
# 2 -0.016554 0.026976 -0.002824 0.000000 0.000000 -0.001883
# 3 -0.002824 -0.002824 0.005851 0.000000 0.000000 0.000000
# 4 0.000000 0.000000 0.000000 -0.000894 0.000000 0.000000
# 5 0.000000 0.000000 0.000000 0.000000 -0.000894 0.000000
# 6 0.001883 -0.001883 0.000000 0.000000 0.000000 0.025377
#
#
# Mechanical properties :
#
#
# Convention : Reuss Voigt Hill
#
# Bulk Modulus (GPa) = 64.94603 82.47572 73.71087
# Shear Modulus (GPa) = 37.61405 -425.85774 -194.12184
#
# Velocity S-wave (km/s) = 4.08226 -13.73594 -9.27392
# Velocity P-wave (km/s) = 7.14102 14.66381 9.05630
#
# Compressibility (1/GPa) = 0.01539740
#
# Stress axis : x y z
#
# Youngs Moduli (GPa) = 37.07033 37.07033 170.91296
#
# Poissons Ratio (x) = 0.61366 0.48270
# Poissons Ratio (y) = 0.61366 0.48270
# Poissons Ratio (z) = 0.10470 0.10470
#
# Static dielectric constant tensor:
#      x y z
#    x 1.811610 0.000000 0.000000 
#    y 0.000000 1.811610 0.000000 
#    z 0.000000 0.000000 1.820520 
# 
# From -- ./inp_files/3414.got.cif
#   From: 2010.05.17/outbox.cif.g08.bks.cpg/sg83_2_cif.got.tgz:3414.got - 2010.06.03 18:55:12.
