data_PCOD9543870
_publ_section_title
;
Structure prediction by ZEFSAII (Michael W. Deem and Ramdas Pophale) SiO2 
 PCOD9543870
Probable space group: P 4/M
;
_chemical_formula_sum "Si O2"
_cell_formula_units_Z 24
_cell_length_a 7.923395
_cell_length_b 7.923395
_cell_length_c 17.692238
_cell_angle_alpha 90.000000
_cell_angle_beta 90.000000
_cell_angle_gamma 90.000000
_cell_volume 1110.722034
_symmetry_space_group_name_H-M "P 4/M"
_symmetry_group_IT_number 83
_symmetry_cell_setting 'tetragonal'
loop_
_space_group_symop_operation_xyz
x,y,z
-y,x,z
-x,-y,z
y,-x,z
-x,-y,-z
y,-x,-z
x,y,-z
-y,x,-z
loop_
_atom_site_type_symbol
_atom_site_label
_atom_site_fract_x
_atom_site_fract_y
_atom_site_fract_z
Si Si1 0.733138 0.895507 0.000000
Si Si2 0.732638 0.098083 0.416508
Si Si3 0.267756 0.099619 0.836317
Si Si4 0.000000 0.500000 0.290401
O O1 0.650125 0.864570 0.081393
O O2 0.908806 0.791648 0.000000
O O3 0.657351 0.127520 0.500000
O O4 0.609898 0.115858 0.346358
O O5 0.902924 0.206382 0.411918
O O6 0.096144 0.206817 0.832527
O O7 0.388565 0.114982 0.765343
#
# Coordination Sequence:
#
# PCOD9543870 Si02
#       4
#     4   8   8   4
#     4   7  12  27  48  66  90 126 162 194 228 268
#     4   9  19  36  54  70  92 124 159 193 232 282
#     4   9  18  32  49  70  97 128 161 196 233 275
#     4  12  19  25  48  80 102 118 148 197 243 282
#
# _framework density 21.607567
#
# number of rings (size 3 to 8) (size 9 to 14) (size 15 to 20)
#    0.000    2.833    0.000    5.500    0.000    3.333 
#    0.000    0.000    0.000   16.000    0.000   18.667 
#    0.000   32.000    0.000    0.000    0.000    0.000 
#
# Total GULP energy -133877.461302 kJ/mol
# GULP energy per Si atom -5578.227554 kJ/mol
# Density = 2.155839 g / cm^3
# Si number density = 21.607567 Si / 1000 Ang^3
#
#
#
# Elastic Constant Matrix: (Units=GPa)
#
#
# Indices 1 2 3 4 5 6 
#
# 1 47.0803 -14.6203 38.3337 0.0000 0.0000 -1.5861
# 2 -14.6203 47.0803 38.3337 0.0000 0.0000 1.5861
# 3 38.3337 38.3337 235.9235 0.0000 0.0000 0.0000
# 4 0.0000 0.0000 0.0000 19.1353 0.0000 0.0000
# 5 0.0000 0.0000 0.0000 0.0000 19.1353 0.0000
# 6 -1.5861 1.5861 0.0000 0.0000 0.0000 4.7802
#
#
#
# Elastic Compliance Matrix: (Units=1/GPa)
#
#
# Indices 1 2 3 4 5 6 
#
# 1 0.033241 0.016752 -0.008123 0.000000 0.000000 0.005471
# 2 0.016752 0.033241 -0.008123 0.000000 0.000000 -0.005471
# 3 -0.008123 -0.008123 0.006878 0.000000 0.000000 0.000000
# 4 0.000000 0.000000 0.000000 0.052259 0.000000 0.000000
# 5 0.000000 0.000000 0.000000 0.000000 0.052259 0.000000
# 6 0.005471 -0.005471 0.000000 0.000000 0.000000 0.212826
#
#
# Mechanical properties :
#
#
# Convention : Reuss Voigt Hill
#
# Bulk Modulus (GPa) = 13.44590 50.46424 31.95507
# Shear Modulus (GPa) = 12.06320 26.47932 19.27126
#
# Velocity S-wave (km/s) = 2.36537 3.50446 2.98967
# Velocity P-wave (km/s) = 3.70085 6.30719 5.17092
#
# Compressibility (1/GPa) = 0.07437214
#
# Stress axis : x y z
#
# Youngs Moduli (GPa) = 30.08356 30.08356 145.38317
#
# Poissons Ratio (x) = -0.50397 1.18095
# Poissons Ratio (y) = -0.50397 1.18095
# Poissons Ratio (z) = 0.24437 0.24437
#
# Static dielectric constant tensor:
#      x y z
#    x 1.802530 0.000000 0.000000 
#    y 0.000000 1.802530 0.000000 
#    z 0.000000 0.000000 1.853040 
# 
# From -- ./inp_files/2483.got.cif
#   From: 2010.05.17/outbox.cif.g08.bks.cpg/sg83_2_cif.got.tgz:2483.got - 2010.06.03 18:55:12.
