data_PCOD9543952
_publ_section_title
;
Structure prediction by ZEFSAII (Michael W. Deem and Ramdas Pophale) SiO2 
 PCOD9543952
Probable space group: P 42/M
;
_chemical_formula_sum "Si O2"
_cell_formula_units_Z 64
_cell_length_a 20.663130
_cell_length_b 20.663130
_cell_length_c 8.284151
_cell_angle_alpha 90.000000
_cell_angle_beta 90.000000
_cell_angle_gamma 90.000000
_cell_volume 3537.042046
_symmetry_space_group_name_H-M "P 42/M"
_symmetry_group_IT_number 84
_symmetry_cell_setting 'tetragonal'
loop_
_space_group_symop_operation_xyz
x,y,z
-y,x,1/2+z
-x,-y,z
y,-x,1/2+z
-x,-y,-z
y,-x,1/2-z
x,y,-z
-y,x,1/2-z
loop_
_atom_site_type_symbol
_atom_site_label
_atom_site_fract_x
_atom_site_fract_y
_atom_site_fract_z
Si Si1 0.408614 0.127158 0.694398
Si Si2 0.555706 0.127810 0.695579
Si Si3 0.086605 0.040950 0.680546
Si Si4 0.905681 0.760376 0.686250
Si Si5 0.328254 0.790223 0.695681
Si Si6 0.129160 0.819417 0.687665
Si Si7 0.009407 0.350394 0.195284
Si Si8 0.300280 0.217203 0.194179
O O1 0.410786 0.123509 0.500000
O O2 0.482377 0.128457 0.755665
O O3 0.367224 0.189886 0.740983
O O4 0.372602 0.061513 0.750565
O O5 0.552793 0.124357 0.500000
O O6 0.597515 0.192357 0.733647
O O7 0.596312 0.063833 0.745144
O O8 0.070144 0.060794 0.500000
O O9 0.157895 0.065005 0.722042
O O10 0.034570 0.073842 0.798201
O O11 0.911730 0.779145 0.500000
O O12 0.846634 0.710318 0.713616
O O13 0.879070 0.820846 0.786750
O O14 0.967451 0.719210 0.741511
O O15 0.320304 0.799351 0.500000
O O16 0.289536 0.724640 0.737074
O O17 0.115499 0.810541 0.500000
O O18 0.166902 0.756090 0.749332
O O19 0.010313 0.348034 0.000000
O O20 0.301857 0.214360 0.000000
#
# Coordination Sequence:
#
# PCOD9543952 Si02
#       8
#     8   8   8   8   8   8   8   8
#     4  10  19  29  46  71  96 122 153 192 232 269
#     4   8  14  28  50  70  87 117 164 202 222 258
#     4  11  22  37  54  71  89 111 143 188 241 292
#     4  10  18  28  45  69  91 115 154 198 236 273
#     4   8  15  31  51  65  84 120 160 191 222 266
#     4  10  20  36  53  67  87 120 159 195 235 282
#     4   9  17  30  45  63  93 130 162 189 224 274
#     4   9  19  33  48  67  94 124 148 180 229 278
#
# _framework density 18.094214999999998
#
# number of rings (size 3 to 8) (size 9 to 14) (size 15 to 20)
#    0.000    2.625    0.000    4.875    0.000    5.500 
#    0.000    5.000    0.000    3.750    0.000    0.000 
#    0.000    0.500    0.000    6.250    0.000    0.000 
#
# Total GULP energy -356684.607208 kJ/mol
# GULP energy per Si atom -5573.196988 kJ/mol
# Density = 1.805303 g / cm^3
# Si number density = 18.094215 Si / 1000 Ang^3
#
#
#
# Elastic Constant Matrix: (Units=GPa)
#
#
# Indices 1 2 3 4 5 6 
#
# 1 51.4704 48.8119 -0.1730 0.0000 0.0000 -4.1555
# 2 48.8119 51.4704 -0.1730 0.0000 0.0000 4.1555
# 3 -0.1730 -0.1730 17.5956 0.0000 0.0000 0.0000
# 4 0.0000 0.0000 0.0000 31.4444 0.0000 0.0000
# 5 0.0000 0.0000 0.0000 0.0000 31.4444 0.0000
# 6 -4.1555 4.1555 0.0000 0.0000 0.0000 21.6577
#
#
#
# Elastic Compliance Matrix: (Units=1/GPa)
#
#
# Indices 1 2 3 4 5 6 
#
# 1 0.474985 -0.465013 0.000098 0.000000 0.000000 0.180358
# 2 -0.465013 0.474985 0.000098 0.000000 0.000000 -0.180358
# 3 0.000098 0.000098 0.056834 0.000000 0.000000 0.000000
# 4 0.000000 0.000000 0.000000 0.031802 0.000000 0.000000
# 5 0.000000 0.000000 0.000000 0.000000 0.031802 0.000000
# 6 0.180358 -0.180358 0.000000 0.000000 0.000000 0.115384
#
#
# Mechanical properties :
#
#
# Convention : Reuss Voigt Hill
#
# Bulk Modulus (GPa) = 12.95826 24.16311 18.56069
# Shear Modulus (GPa) = 2.33519 21.71397 12.02458
#
# Velocity S-wave (km/s) = 1.13727 3.46793 2.58069
# Velocity P-wave (km/s) = 2.98355 5.42388 4.37722
#
# Compressibility (1/GPa) = 0.07717086
#
# Stress axis : x y z
#
# Youngs Moduli (GPa) = 2.10533 2.10533 17.59502
#
# Poissons Ratio (x) = 0.97901 -0.00173
# Poissons Ratio (y) = 0.97901 -0.00173
# Poissons Ratio (z) = -0.00021 -0.00021
#
# Static dielectric constant tensor:
#      x y z
#    x 1.648630 0.000000 0.000000 
#    y 0.000000 1.648630 0.000000 
#    z 0.000000 0.000000 1.630340 
# 
# From -- ./inp_files/1404.got.cif
#   From: 2010.05.17/outbox.cif.g08.bks.cpg/sg84_1_cif.got.tgz:1404.got - 2010.06.03 18:57:40.
