data_PCOD9543519
_publ_section_title
;
Structure prediction by ZEFSAII (Michael W. Deem and Ramdas Pophale) SiO2 
 PCOD9543519
Probable space group: P 4/M
;
_chemical_formula_sum "Si O2"
_cell_formula_units_Z 64
_cell_length_a 11.138941
_cell_length_b 11.138941
_cell_length_c 24.518177
_cell_angle_alpha 90.000000
_cell_angle_beta 90.000000
_cell_angle_gamma 90.000000
_cell_volume 3042.117491
_symmetry_space_group_name_H-M "P 4/M"
_symmetry_group_IT_number 83
_symmetry_cell_setting 'tetragonal'
loop_
_space_group_symop_operation_xyz
x,y,z
-y,x,z
-x,-y,z
y,-x,z
-x,-y,-z
y,-x,-z
x,y,-z
-y,x,-z
loop_
_atom_site_type_symbol
_atom_site_label
_atom_site_fract_x
_atom_site_fract_y
_atom_site_fract_z
Si Si1 0.604957 0.333871 0.790447
Si Si2 0.643981 0.993905 0.739569
Si Si3 0.835415 0.360891 0.357071
Si Si4 0.969076 0.801642 0.844177
Si Si5 0.373221 0.780366 0.672763
Si Si6 0.803724 0.964122 0.435533
Si Si7 0.456090 0.134876 0.935696
Si Si8 0.228441 0.298385 0.897075
O O1 0.660001 0.463768 0.802108
O O2 0.607919 0.300022 0.726990
O O3 0.669995 0.248108 0.833032
O O4 0.704631 0.012158 0.796921
O O5 0.682499 0.100192 0.698881
O O6 0.500000 0.000000 0.745601
O O7 0.672642 0.875375 0.705015
O O8 0.711564 0.292914 0.366882
O O9 0.816985 0.502506 0.355167
O O10 0.931712 0.310640 0.399373
O O11 0.910796 0.746704 0.899317
O O12 0.093596 0.870996 0.838852
O O13 0.777686 0.959854 0.500000
O O14 0.907961 0.865665 0.423860
O O15 0.334516 0.203725 0.913191
O O16 0.571311 0.223459 0.926011
O O17 0.500000 0.000000 0.915070
O O18 0.435330 0.121367 0.000000
#
# Coordination Sequence:
#
# PCOD9543519 Si02
#       8
#     8   8   8   8   8   8   8   8
#     4  11  21  36  57  89 127 161 213 248 306 384
#     4  10  22  35  55  82 120 165 209 258 306 369
#     4  11  22  36  57  84 124 164 207 256 309 369
#     4  11  24  38  56  86 127 170 212 251 312 391
#     4  11  21  36  55  84 121 167 207 242 301 374
#     4   9  19  39  67  92 114 151 207 269 324 372
#     4  11  26  47  70  99 129 167 221 278 339 399
#     4  12  23  42  68  96 128 169 210 273 331 388
#
# _framework density 21.037977999999999
#
# number of rings (size 3 to 8) (size 9 to 14) (size 15 to 20)
#    0.000    1.250    3.750    3.000    0.000    2.000 
#    0.000    2.500    0.000    4.875    0.000    6.125 
#    0.000    0.000    0.000    0.000    0.000    0.000 
#
# Total GULP energy -356681.397176 kJ/mol
# GULP energy per Si atom -5573.146831 kJ/mol
# Density = 2.099009 g / cm^3
# Si number density = 21.037978 Si / 1000 Ang^3
#
#
#
# Elastic Constant Matrix: (Units=GPa)
#
#
# Indices 1 2 3 4 5 6 
#
# 1 86.8446 23.0143 20.2954 0.0000 0.0000 9.9406
# 2 23.0143 86.8446 20.2954 0.0000 0.0000 -9.9406
# 3 20.2954 20.2954 49.0990 0.0000 0.0000 0.0000
# 4 0.0000 0.0000 0.0000 28.0145 0.0000 0.0000
# 5 0.0000 0.0000 0.0000 0.0000 28.0145 0.0000
# 6 9.9406 -9.9406 0.0000 0.0000 0.0000 37.2903
#
#
#
# Elastic Compliance Matrix: (Units=1/GPa)
#
#
# Indices 1 2 3 4 5 6 
#
# 1 0.013914 -0.003171 -0.004441 0.000000 0.000000 -0.004554
# 2 -0.003171 0.013914 -0.004441 0.000000 0.000000 0.004554
# 3 -0.004441 -0.004441 0.024038 0.000000 0.000000 0.000000
# 4 0.000000 0.000000 0.000000 0.035696 0.000000 0.000000
# 5 0.000000 0.000000 0.000000 0.000000 0.035696 0.000000
# 6 -0.004554 0.004554 0.000000 0.000000 0.000000 0.029245
#
#
# Mechanical properties :
#
#
# Convention : Reuss Voigt Hill
#
# Bulk Modulus (GPa) = 36.02080 38.88867 37.45474
# Shear Modulus (GPa) = 26.90163 29.27607 28.08885
#
# Velocity S-wave (km/s) = 3.57980 3.73444 3.65793
# Velocity P-wave (km/s) = 5.85197 6.09260 5.97350
#
# Compressibility (1/GPa) = 0.02776174
#
# Stress axis : x y z
#
# Youngs Moduli (GPa) = 71.86873 71.86873 41.60022
#
# Poissons Ratio (x) = 0.22789 0.18474
# Poissons Ratio (y) = 0.22789 0.18474
# Poissons Ratio (z) = 0.31916 0.31916
#
# Static dielectric constant tensor:
#      x y z
#    x 1.844240 0.000000 0.000000 
#    y 0.000000 1.844240 0.000000 
#    z 0.000000 0.000000 1.737820 
# 
# From -- ./inp_files/3222.got.cif
#   From: 2010.05.17/outbox.cif.g08.bks.cpg/sg83_2_cif.got.tgz:3222.got - 2010.06.03 18:55:12.
