data_PCOD9543432
_publ_section_title
;
Structure prediction by ZEFSAII (Michael W. Deem and Ramdas Pophale) SiO2 
 PCOD9543432
Probable space group: P 4/M
;
_chemical_formula_sum "Si O2"
_cell_formula_units_Z 52
_cell_length_a 16.565058
_cell_length_b 16.565058
_cell_length_c 7.944775
_cell_angle_alpha 90.000000
_cell_angle_beta 90.000000
_cell_angle_gamma 90.000000
_cell_volume 2180.055369
_symmetry_space_group_name_H-M "P 4/M"
_symmetry_group_IT_number 83
_symmetry_cell_setting 'tetragonal'
loop_
_space_group_symop_operation_xyz
x,y,z
-y,x,z
-x,-y,z
y,-x,z
-x,-y,-z
y,-x,-z
x,y,-z
-y,x,-z
loop_
_atom_site_type_symbol
_atom_site_label
_atom_site_fract_x
_atom_site_fract_y
_atom_site_fract_z
Si Si1 0.126151 0.024656 0.793946
Si Si2 0.250456 0.137696 0.802446
Si Si3 0.461006 0.627968 0.000000
Si Si4 0.415452 0.214384 0.204271
Si Si5 0.155748 0.290496 0.690565
Si Si6 0.918215 0.546606 0.296787
Si Si7 0.669297 0.626185 0.319088
O O1 0.211703 0.056056 0.731934
O O2 0.059903 0.090517 0.740348
O O3 0.127528 0.023178 0.000000
O O4 0.336414 0.164023 0.733697
O O5 0.183651 0.209300 0.785290
O O6 0.263807 0.125875 0.000000
O O7 0.404795 0.549632 0.000000
O O8 0.436775 0.672305 0.168417
O O9 0.491846 0.159654 0.251522
O O10 0.394448 0.301864 0.282474
O O11 0.413621 0.223272 0.000000
O O12 0.130260 0.269281 0.500000
O O13 0.096966 0.360537 0.763180
O O14 0.242570 0.334714 0.677539
O O15 0.921611 0.551906 0.500000
O O16 0.000000 0.500000 0.238941
O O17 0.651076 0.588835 0.500000
#
# Coordination Sequence:
#
# PCOD9543432 Si02
#       7
#     8   8   4   8   8   8   8
#     4   8  14  26  46  73 104 138 176 217 267 329
#     4   9  18  32  52  80 108 140 180 230 283 333
#     4  11  26  42  58  90 124 150 190 245 302 350
#     4  10  20  35  56  83 116 148 193 244 290 352
#     4   9  20  36  55  79 106 144 193 234 281 351
#     4  10  22  39  57  81 114 152 196 244 297 355
#     4  10  21  39  64  88 114 158 203 238 291 357
#
# _framework density 23.852603999999999
#
# number of rings (size 3 to 8) (size 9 to 14) (size 15 to 20)
#    0.000    2.538    0.769    0.923    3.231    3.385 
#    0.000    2.308    0.000    0.923    0.000    1.077 
#    0.000    0.000    0.000    0.000    0.000    0.000 
#
# Total GULP energy -290230.599959 kJ/mol
# GULP energy per Si atom -5581.357692 kJ/mol
# Density = 2.379831 g / cm^3
# Si number density = 23.852604 Si / 1000 Ang^3
#
#
#
# Elastic Constant Matrix: (Units=GPa)
#
#
# Indices 1 2 3 4 5 6 
#
# 1 51.7680 29.7607 -2.0578 0.0000 0.0000 -10.7842
# 2 29.7607 51.7680 -2.0578 0.0000 0.0000 10.7842
# 3 -2.0578 -2.0578 64.4086 0.0000 0.0000 0.0000
# 4 0.0000 0.0000 0.0000 9.0932 0.0000 0.0000
# 5 0.0000 0.0000 0.0000 0.0000 9.0932 0.0000
# 6 -10.7842 10.7842 0.0000 0.0000 0.0000 47.2561
#
#
#
# Elastic Compliance Matrix: (Units=1/GPa)
#
#
# Indices 1 2 3 4 5 6 
#
# 1 0.035408 -0.023122 0.000393 0.000000 0.000000 0.013357
# 2 -0.023122 0.035408 0.000393 0.000000 0.000000 -0.013357
# 3 0.000393 0.000393 0.015551 0.000000 0.000000 0.000000
# 4 0.000000 0.000000 0.000000 0.109973 0.000000 0.000000
# 5 0.000000 0.000000 0.000000 0.000000 0.109973 0.000000
# 6 0.013357 -0.013357 0.000000 0.000000 0.000000 0.027258
#
#
# Mechanical properties :
#
#
# Convention : Reuss Voigt Hill
#
# Bulk Modulus (GPa) = 23.98550 24.35942 24.17246
# Shear Modulus (GPa) = 12.75049 22.57512 17.66280
#
# Velocity S-wave (km/s) = 2.31455 3.07977 2.72416
# Velocity P-wave (km/s) = 4.14975 4.78344 4.47782
#
# Compressibility (1/GPa) = 0.04169185
#
# Stress axis : x y z
#
# Youngs Moduli (GPa) = 28.24233 28.24233 64.30473
#
# Poissons Ratio (x) = 0.65303 -0.02524
# Poissons Ratio (y) = 0.65303 -0.02524
# Poissons Ratio (z) = -0.01109 -0.01109
#
# Static dielectric constant tensor:
#      x y z
#    x 1.932810 0.000000 0.000000 
#    y 0.000000 1.932810 0.000000 
#    z 0.000000 0.000000 1.938540 
# 
# From -- ./inp_files/1038.got.cif
#   From: 2010.05.17/outbox.cif.g08.bks.cpg/sg83_1_cif.got.tgz:1038.got - 2010.06.03 18:55:12.
