data_PCOD9543938
_publ_section_title
;
Structure prediction by ZEFSAII (Michael W. Deem and Ramdas Pophale) SiO2 
 PCOD9543938
Probable space group: P 42/M
;
_chemical_formula_sum "Si O2"
_cell_formula_units_Z 32
_cell_length_a 7.352041
_cell_length_b 7.352041
_cell_length_c 22.283397
_cell_angle_alpha 90.000000
_cell_angle_beta 90.000000
_cell_angle_gamma 90.000000
_cell_volume 1204.473469
_symmetry_space_group_name_H-M "P 42/M"
_symmetry_group_IT_number 84
_symmetry_cell_setting 'tetragonal'
loop_
_space_group_symop_operation_xyz
x,y,z
-y,x,1/2+z
-x,-y,z
y,-x,1/2+z
-x,-y,-z
y,-x,1/2-z
x,y,-z
-y,x,1/2-z
loop_
_atom_site_type_symbol
_atom_site_label
_atom_site_fract_x
_atom_site_fract_y
_atom_site_fract_z
Si Si1 0.221789 0.786418 0.161965
Si Si2 0.520475 0.718256 0.067672
Si Si3 0.240104 0.432874 0.235355
Si Si4 0.052990 0.283646 0.932488
O O1 0.382079 0.804917 0.114065
O O2 0.317992 0.582706 0.283303
O O3 0.294093 0.877618 0.224454
O O4 0.043916 0.813494 0.123099
O O5 0.500000 0.500000 0.071957
O O6 0.733675 0.749700 0.075156
O O7 0.468220 0.771658 0.000000
O O8 0.191959 0.574426 0.184224
O O9 0.000000 0.500000 0.931724
O O10 0.999861 0.223025 0.000000
#
# Coordination Sequence:
#
# PCOD9543938 Si02
#       4
#     8   8   8   8
#     4  10  15  26  36  50  70 102 172 218 250 327
#     4  10  17  24  34  50  82 120 158 208 264 321
#     4   7  14  22  36  48  56  96 148 208 252 300
#     4  10  19  22  30  52  78 114 154 208 271 310
#
# _framework density 26.567626000000001
#
# number of rings (size 3 to 8) (size 9 to 14) (size 15 to 20)
#    1.500    1.250    2.500    2.250    0.000    0.000 
#    0.000    0.000    0.000    0.000    0.000    0.000 
#    0.000    0.000    0.000    0.000    0.000  281.250 
#
# Total GULP energy -178409.590813 kJ/mol
# GULP energy per Si atom -5575.299713 kJ/mol
# Density = 2.650716 g / cm^3
# Si number density = 26.567626 Si / 1000 Ang^3
#
#
#
# Elastic Constant Matrix: (Units=GPa)
#
#
# Indices 1 2 3 4 5 6 
#
# 1 100.7779 12.4709 39.2912 0.0000 0.0000 11.6985
# 2 12.4709 100.7779 39.2912 0.0000 0.0000 -11.6985
# 3 39.2912 39.2912 142.8371 0.0000 0.0000 0.0000
# 4 0.0000 0.0000 0.0000 -64.9622 0.0000 0.0000
# 5 0.0000 0.0000 0.0000 0.0000 -64.9622 0.0000
# 6 11.6985 -11.6985 0.0000 0.0000 0.0000 1.8591
#
#
#
# Elastic Compliance Matrix: (Units=1/GPa)
#
#
# Indices 1 2 3 4 5 6 
#
# 1 -0.003030 0.013943 -0.003002 0.000000 0.000000 0.106801
# 2 0.013943 -0.003030 -0.003002 0.000000 0.000000 -0.106801
# 3 -0.003002 -0.003002 0.008653 0.000000 0.000000 0.000000
# 4 0.000000 0.000000 0.000000 -0.015394 0.000000 0.000000
# 5 0.000000 0.000000 0.000000 0.000000 -0.015394 0.000000
# 6 0.106801 -0.106801 0.000000 0.000000 0.000000 -0.806195
#
#
# Mechanical properties :
#
#
# Convention : Reuss Voigt Hill
#
# Bulk Modulus (GPa) = 54.13892 58.49993 56.31942
# Shear Modulus (GPa) = -5.92340 -8.72373 -7.32357
#
# Velocity S-wave (km/s) = -1.49479 -1.81404 -1.66210
# Velocity P-wave (km/s) = 4.17646 4.20469 4.19060
#
# Compressibility (1/GPa) = 0.01847100
#
# Stress axis : x y z
#
# Youngs Moduli (GPa) = -330.06069 -330.06069 115.57325
#
# Poissons Ratio (x) = 4.60200 0.34695
# Poissons Ratio (y) = 4.60200 0.34695
# Poissons Ratio (z) = -0.99083 -0.99083
#
# Static dielectric constant tensor:
#      x y z
#    x 2.199530 0.000000 0.000000 
#    y 0.000000 2.199530 0.000000 
#    z 0.000000 0.000000 2.093540 
# 
# From -- ./inp_files/3534.got.cif
#   From: 2010.05.17/outbox.cif.g08.bks.cpg/sg84_2_cif.got.tgz:3534.got - 2010.06.03 18:57:40.
