data_PCOD9543662
_publ_section_title
;
Structure prediction by ZEFSAII (Michael W. Deem and Ramdas Pophale) SiO2 
 PCOD9543662
Probable space group: P 4/M
;
_chemical_formula_sum "Si O2"
_cell_formula_units_Z 18
_cell_length_a 8.175058
_cell_length_b 8.175058
_cell_length_c 10.845599
_cell_angle_alpha 90.000000
_cell_angle_beta 90.000000
_cell_angle_gamma 90.000000
_cell_volume 724.828445
_symmetry_space_group_name_H-M "P 4/M"
_symmetry_group_IT_number 83
_symmetry_cell_setting 'tetragonal'
loop_
_space_group_symop_operation_xyz
x,y,z
-y,x,z
-x,-y,z
y,-x,z
-x,-y,-z
y,-x,-z
x,y,-z
-y,x,-z
loop_
_atom_site_type_symbol
_atom_site_label
_atom_site_fract_x
_atom_site_fract_y
_atom_site_fract_z
Si Si1 0.000000 0.000000 0.000000
Si Si2 0.235709 0.588248 0.260688
Si Si3 0.806942 0.297967 0.000000
Si Si4 0.737638 0.914457 0.500000
Si Si5 0.500000 0.500000 0.000000
O O1 0.830152 0.102736 0.000000
O O2 0.301899 0.402723 0.264617
O O3 0.130538 0.636401 0.378651
O O4 0.143420 0.633885 0.134607
O O5 0.611791 0.336488 0.000000
O O6 0.900482 0.801438 0.500000
#
# Coordination Sequence:
#
# PCOD9543662 Si02
#       5
#     1   8   4   4   1
#     4  12  36  40  68 126 172 200 220 334 412 456
#     4  11  22  45  75 104 133 185 254 311 358 444
#     4  12  24  50  76 114 152 194 252 310 392 446
#     4  11  28  45  62  94 150 191 232 305 396 456
#     4  12  20  56  84 110 140 216 260 326 332 488
#
# _framework density 24.833465
#
# number of rings (size 3 to 8) (size 9 to 14) (size 15 to 20)
#    0.000    0.667    4.444    1.333    6.222    6.222 
#    0.000    0.000    0.000    0.000    0.000    0.000 
#    0.000    0.000    0.000    0.000    0.000    0.000 
#
# Total GULP energy -100291.758149 kJ/mol
# GULP energy per Si atom -5571.764342 kJ/mol
# Density = 2.477694 g / cm^3
# Si number density = 24.833465 Si / 1000 Ang^3
#
#
#
# Elastic Constant Matrix: (Units=GPa)
#
#
# Indices 1 2 3 4 5 6 
#
# 1 100.2950 67.8543 56.2574 0.0000 0.0000 11.3662
# 2 67.8543 100.2950 56.2574 0.0000 0.0000 -11.3662
# 3 56.2574 56.2574 244.0506 0.0000 0.0000 0.0000
# 4 0.0000 0.0000 0.0000 -16.8932 0.0000 0.0000
# 5 0.0000 0.0000 0.0000 0.0000 -16.8932 0.0000
# 6 11.3662 -11.3662 0.0000 0.0000 0.0000 75.2091
#
#
#
# Elastic Compliance Matrix: (Units=1/GPa)
#
#
# Indices 1 2 3 4 5 6 
#
# 1 0.020754 -0.013722 -0.001621 0.000000 0.000000 -0.005210
# 2 -0.013722 0.020754 -0.001621 0.000000 0.000000 0.005210
# 3 -0.001621 -0.001621 0.004845 0.000000 0.000000 0.000000
# 4 0.000000 0.000000 0.000000 -0.059196 0.000000 0.000000
# 5 0.000000 0.000000 0.000000 0.000000 -0.059196 0.000000
# 6 -0.005210 0.005210 0.000000 0.000000 0.000000 0.014871
#
#
# Mechanical properties :
#
#
# Convention : Reuss Voigt Hill
#
# Bulk Modulus (GPa) = 80.48578 89.48655 84.98617
# Shear Modulus (GPa) = -261.82366 25.90265 -117.96050
#
# Velocity S-wave (km/s) = -10.27914 3.23314 -6.89955
# Velocity P-wave (km/s) = 10.41155 7.07464 5.40138
#
# Compressibility (1/GPa) = 0.01242455
#
# Stress axis : x y z
#
# Youngs Moduli (GPa) = 48.18314 48.18314 206.40676
#
# Poissons Ratio (x) = 0.66119 0.33457
# Poissons Ratio (y) = 0.66119 0.33457
# Poissons Ratio (z) = 0.07810 0.07810
#
# Static dielectric constant tensor:
#      x y z
#    x 1.943880 0.000000 0.000000 
#    y 0.000000 1.943880 0.000000 
#    z 0.000000 0.000000 2.035430 
# 
# From -- ./inp_files/1384.got.cif
#   From: 2010.05.17/outbox.cif.g08.bks.cpg/sg83_1_cif.got.tgz:1384.got - 2010.06.03 18:55:12.
