data_PCOD9543308
_publ_section_title
;
Structure prediction by ZEFSAII (Michael W. Deem and Ramdas Pophale) SiO2 
 PCOD9543308
Probable space group: P 4/M
;
_chemical_formula_sum "Si O2"
_cell_formula_units_Z 64
_cell_length_a 21.022033
_cell_length_b 21.022033
_cell_length_c 9.040004
_cell_angle_alpha 90.000000
_cell_angle_beta 90.000000
_cell_angle_gamma 90.000000
_cell_volume 3995.011646
_symmetry_space_group_name_H-M "P 4/M"
_symmetry_group_IT_number 83
_symmetry_cell_setting 'tetragonal'
loop_
_space_group_symop_operation_xyz
x,y,z
-y,x,z
-x,-y,z
y,-x,z
-x,-y,-z
y,-x,-z
x,y,-z
-y,x,-z
loop_
_atom_site_type_symbol
_atom_site_label
_atom_site_fract_x
_atom_site_fract_y
_atom_site_fract_z
Si Si1 0.317029 0.209875 0.326641
Si Si2 0.998260 0.732552 0.669759
Si Si3 0.763451 0.687476 0.168464
Si Si4 0.572581 0.147230 0.179631
Si Si5 0.440529 0.128401 0.678382
Si Si6 0.117748 0.215942 0.164621
Si Si7 0.396988 0.000645 0.175122
Si Si8 0.192354 0.121269 0.331368
O O1 0.326123 0.223095 0.500000
O O2 0.293301 0.275170 0.250552
O O3 0.379985 0.171991 0.274742
O O4 0.258256 0.160457 0.313642
O O5 0.001851 0.709298 0.500000
O O6 0.929826 0.757726 0.713955
O O7 0.014237 0.675597 0.780136
O O8 0.048502 0.788952 0.685478
O O9 0.799462 0.624263 0.227315
O O10 0.821320 0.738043 0.163370
O O11 0.743218 0.674339 0.000000
O O12 0.504872 0.157455 0.255470
O O13 0.591798 0.073665 0.216284
O O14 0.569039 0.149752 0.000000
O O15 0.441410 0.125634 0.500000
O O16 0.435161 0.056307 0.741638
O O17 0.142961 0.147645 0.213984
O O18 0.089435 0.217126 0.000000
O O19 0.408408 0.006490 0.000000
O O20 0.170290 0.133179 0.500000
#
# Coordination Sequence:
#
# PCOD9543308 Si02
#       8
#     8   8   8   8   8   8   8   8
#     4   9  18  33  49  69  97 124 160 205 242 281
#     4  11  20  32  51  72  97 125 160 202 246 296
#     4   9  18  33  50  70  96 125 163 204 241 286
#     4  10  21  36  49  69 101 135 169 205 242 287
#     4  11  22  35  49  72 102 134 172 207 241 291
#     4  10  19  32  49  72  95 120 157 200 248 296
#     4  11  21  34  49  68  99 137 171 206 244 283
#     4   9  18  33  49  68  93 122 156 199 247 292
#
# _framework density 16.019978999999999
#
# number of rings (size 3 to 8) (size 9 to 14) (size 15 to 20)
#    0.000    2.000    2.500    1.875    0.000    5.500 
#    0.000    0.000    0.000    0.375    0.000    2.625 
#    0.000    0.500    0.000    5.500    0.000    4.000 
#
# Total GULP energy -356562.437493 kJ/mol
# GULP energy per Si atom -5571.288086 kJ/mol
# Density = 1.598352 g / cm^3
# Si number density = 16.019979 Si / 1000 Ang^3
#
#
#
# Elastic Constant Matrix: (Units=GPa)
#
#
# Indices 1 2 3 4 5 6 
#
# 1 43.2715 25.0963 18.6366 0.0000 0.0000 -1.3906
# 2 25.0963 43.2715 18.6366 0.0000 0.0000 1.3906
# 3 18.6366 18.6366 24.5605 0.0000 0.0000 0.0000
# 4 0.0000 0.0000 0.0000 22.3887 0.0000 0.0000
# 5 0.0000 0.0000 0.0000 0.0000 22.3887 0.0000
# 6 -1.3906 1.3906 0.0000 0.0000 0.0000 18.4911
#
#
#
# Elastic Compliance Matrix: (Units=1/GPa)
#
#
# Indices 1 2 3 4 5 6 
#
# 1 0.040304 -0.015357 -0.018930 0.000000 0.000000 0.004186
# 2 -0.015357 0.040304 -0.018930 0.000000 0.000000 -0.004186
# 3 -0.018930 -0.018930 0.069444 0.000000 0.000000 0.000000
# 4 0.000000 0.000000 0.000000 0.044665 0.000000 0.000000
# 5 0.000000 0.000000 0.000000 0.000000 0.044665 0.000000
# 6 0.004186 -0.004186 0.000000 0.000000 0.000000 0.054710
#
#
# Mechanical properties :
#
#
# Convention : Reuss Voigt Hill
#
# Bulk Modulus (GPa) = 22.92614 26.20474 24.56544
# Shear Modulus (GPa) = 12.04628 15.90261 13.97445
#
# Velocity S-wave (km/s) = 2.74515 3.15409 2.95670
# Velocity P-wave (km/s) = 4.93861 5.44586 5.19843
#
# Compressibility (1/GPa) = 0.04361834
#
# Stress axis : x y z
#
# Youngs Moduli (GPa) = 24.81145 24.81145 14.40006
#
# Poissons Ratio (x) = 0.38102 0.27259
# Poissons Ratio (y) = 0.38102 0.27259
# Poissons Ratio (z) = 0.46968 0.46968
#
# Static dielectric constant tensor:
#      x y z
#    x 1.545820 0.000000 0.000000 
#    y 0.000000 1.545820 0.000000 
#    z 0.000000 0.000000 1.550130 
# 
# From -- ./inp_files/1293.got.cif
#   From: 2010.05.17/outbox.cif.g08.bks.cpg/sg83_1_cif.got.tgz:1293.got - 2010.06.03 18:55:12.
