data_PCOD9543752
_publ_section_title
;
Structure prediction by ZEFSAII (Michael W. Deem and Ramdas Pophale) SiO2 
 PCOD9543752
Probable space group: P 4/M
;
_chemical_formula_sum "Si O2"
_cell_formula_units_Z 40
_cell_length_a 8.095329
_cell_length_b 8.095329
_cell_length_c 27.162587
_cell_angle_alpha 90.000000
_cell_angle_beta 90.000000
_cell_angle_gamma 90.000000
_cell_volume 1780.082527
_symmetry_space_group_name_H-M "P 4/M"
_symmetry_group_IT_number 83
_symmetry_cell_setting 'tetragonal'
loop_
_space_group_symop_operation_xyz
x,y,z
-y,x,z
-x,-y,z
y,-x,z
-x,-y,-z
y,-x,-z
x,y,-z
-y,x,-z
loop_
_atom_site_type_symbol
_atom_site_label
_atom_site_fract_x
_atom_site_fract_y
_atom_site_fract_z
Si Si1 0.236249 0.404925 0.340437
Si Si2 0.091750 0.263766 0.945193
Si Si3 0.237469 0.399971 0.552593
Si Si4 0.234935 0.419174 0.850141
Si Si5 0.735188 0.082113 0.755573
O O1 0.405598 0.297611 0.337558
O O2 0.156924 0.371071 0.394285
O O3 0.123545 0.357215 0.294933
O O4 0.142640 0.380054 0.900823
O O5 0.903409 0.201251 0.941427
O O6 0.118314 0.334414 0.000000
O O7 0.408857 0.296619 0.552579
O O8 0.151659 0.366242 0.500000
O O9 0.395859 0.301602 0.848386
O O10 0.127754 0.371868 0.802944
O O11 0.896724 0.198957 0.757127
#
# Coordination Sequence:
#
# PCOD9543752 Si02
#       5
#     8   8   8   8   8
#     4   9  17  30  51  79 106 131 165 210 257 306
#     4   9  19  37  60  85 113 145 180 214 248 293
#     4   7  10  19  39  69 102 131 159 197 247 299
#     4  11  24  39  56  81 110 137 170 215 263 309
#     4  11  24  39  54  73  99 134 176 217 258 310
#
# _framework density 22.470866000000001
#
# number of rings (size 3 to 8) (size 9 to 14) (size 15 to 20)
#    0.000    2.600    0.000    4.800    0.000    9.600 
#    0.000    3.000    0.000    1.200    0.000    7.000 
#    0.000    0.000    0.000    0.000    0.000    0.000 
#
# Total GULP energy -223789.840866 kJ/mol
# GULP energy per Si atom -5594.746022 kJ/mol
# Density = 2.241972 g / cm^3
# Si number density = 22.470866 Si / 1000 Ang^3
#
#
#
# Elastic Constant Matrix: (Units=GPa)
#
#
# Indices 1 2 3 4 5 6 
#
# 1 67.8149 49.9122 64.9795 0.0000 0.0000 -1.4151
# 2 49.9122 67.8149 64.9795 0.0000 0.0000 1.4151
# 3 64.9795 64.9795 245.0368 0.0000 0.0000 0.0000
# 4 0.0000 0.0000 0.0000 142.7438 0.0000 0.0000
# 5 0.0000 0.0000 0.0000 0.0000 142.7438 0.0000
# 6 -1.4151 1.4151 0.0000 0.0000 0.0000 37.1067
#
#
#
# Elastic Compliance Matrix: (Units=1/GPa)
#
#
# Indices 1 2 3 4 5 6 
#
# 1 0.034103 -0.022093 -0.003185 0.000000 0.000000 0.002143
# 2 -0.022093 0.034103 -0.003185 0.000000 0.000000 -0.002143
# 3 -0.003185 -0.003185 0.005770 0.000000 0.000000 0.000000
# 4 0.000000 0.000000 0.000000 0.007006 0.000000 0.000000
# 5 0.000000 0.000000 0.000000 0.000000 0.007006 0.000000
# 6 0.002143 -0.002143 0.000000 0.000000 0.000000 0.027113
#
#
# Mechanical properties :
#
#
# Convention : Reuss Voigt Hill
#
# Bulk Modulus (GPa) = 58.64851 82.26768 70.45809
# Shear Modulus (GPa) = 28.13574 77.90523 53.02049
#
# Velocity S-wave (km/s) = 3.54234 5.89446 4.86276
# Velocity P-wave (km/s) = 6.54884 9.11134 7.93423
#
# Compressibility (1/GPa) = 0.01705073
#
# Stress axis : x y z
#
# Youngs Moduli (GPa) = 29.32274 29.32274 173.30585
#
# Poissons Ratio (x) = 0.64784 0.55195
# Poissons Ratio (y) = 0.64784 0.55195
# Poissons Ratio (z) = 0.09339 0.09339
#
# Static dielectric constant tensor:
#      x y z
#    x 1.813700 0.000000 0.000000 
#    y 0.000000 1.813700 0.000000 
#    z 0.000000 0.000000 1.828760 
# 
# From -- ./inp_files/3089.got.cif
#   From: 2010.05.17/outbox.cif.g08.bks.cpg/sg83_2_cif.got.tgz:3089.got - 2010.06.03 18:55:12.
