data_PCOD9543981
_publ_section_title
;
Structure prediction by ZEFSAII (Michael W. Deem and Ramdas Pophale) SiO2 
 PCOD9543981
Probable space group: P 42/M
;
_chemical_formula_sum "Si O2"
_cell_formula_units_Z 40
_cell_length_a 9.757669
_cell_length_b 9.757669
_cell_length_c 24.327383
_cell_angle_alpha 90.000000
_cell_angle_beta 90.000000
_cell_angle_gamma 90.000000
_cell_volume 2316.261328
_symmetry_space_group_name_H-M "P 42/M"
_symmetry_group_IT_number 84
_symmetry_cell_setting 'tetragonal'
loop_
_space_group_symop_operation_xyz
x,y,z
-y,x,1/2+z
-x,-y,z
y,-x,1/2+z
-x,-y,-z
y,-x,1/2-z
x,y,-z
-y,x,1/2-z
loop_
_atom_site_type_symbol
_atom_site_label
_atom_site_fract_x
_atom_site_fract_y
_atom_site_fract_z
Si Si1 0.339010 0.998009 0.866033
Si Si2 0.944028 0.775577 0.249981
Si Si3 0.833965 0.493443 0.060571
Si Si4 0.743905 0.148374 0.368262
Si Si5 0.185551 0.129004 0.434234
O O1 0.316271 0.938849 0.804335
O O2 0.237890 0.916846 0.907396
O O3 0.500000 0.000000 0.880249
O O4 0.269892 0.147374 0.864514
O O5 0.906775 0.708008 0.192194
O O6 0.094859 0.842083 0.243735
O O7 0.795540 0.608587 0.103040
O O8 0.805526 0.336463 0.073247
O O9 0.000000 0.500000 0.058459
O O10 0.781322 0.527966 0.000000
O O11 0.808224 0.018738 0.402852
O O12 0.163602 0.107758 0.500000
#
# Coordination Sequence:
#
# PCOD9543981 Si02
#       5
#     8   8   8   8   8
#     4  11  23  35  50  81 116 143 175 219 272 328
#     4   9  17  33  54  77 104 135 176 219 266 316
#     4   8  16  31  54  83 104 128 180 230 261 304
#     4  10  18  34  59  81 103 140 181 226 268 317
#     4  10  20  36  57  81 109 142 180 225 269 314
#
# _framework density 17.269207999999999
#
# number of rings (size 3 to 8) (size 9 to 14) (size 15 to 20)
#    0.000    2.400    2.000    2.400    0.000    5.200 
#    0.000    1.000    0.000    2.400    0.000    0.000 
#    0.000    0.000    0.000    0.000    0.000    0.000 
#
# Total GULP energy -222804.438354 kJ/mol
# GULP energy per Si atom -5570.110959 kJ/mol
# Density = 1.722990 g / cm^3
# Si number density = 17.269208 Si / 1000 Ang^3
#
#
#
# Elastic Constant Matrix: (Units=GPa)
#
#
# Indices 1 2 3 4 5 6 
#
# 1 56.6950 3.8652 26.9484 0.0000 0.0000 -1.6881
# 2 3.8652 56.6950 26.9484 0.0000 0.0000 1.6881
# 3 26.9484 26.9484 90.5025 0.0000 0.0000 0.0000
# 4 0.0000 0.0000 0.0000 3.8238 0.0000 0.0000
# 5 0.0000 0.0000 0.0000 0.0000 3.8238 0.0000
# 6 -1.6881 1.6881 0.0000 0.0000 0.0000 5.2446
#
#
#
# Elastic Compliance Matrix: (Units=1/GPa)
#
#
# Indices 1 2 3 4 5 6 
#
# 1 0.020896 0.001570 -0.006690 0.000000 0.000000 0.006221
# 2 0.001570 0.020896 -0.006690 0.000000 0.000000 -0.006221
# 3 -0.006690 -0.006690 0.015033 0.000000 0.000000 0.000000
# 4 0.000000 0.000000 0.000000 0.261521 0.000000 0.000000
# 5 0.000000 0.000000 0.000000 0.000000 0.261521 0.000000
# 6 0.006221 -0.006221 0.000000 0.000000 0.000000 0.194678
#
#
# Mechanical properties :
#
#
# Convention : Reuss Voigt Hill
#
# Bulk Modulus (GPa) = 30.11414 35.49073 32.80244
# Shear Modulus (GPa) = 6.17869 12.32045 9.24957
#
# Velocity S-wave (km/s) = 1.89358 2.67392 2.31684
# Velocity P-wave (km/s) = 4.71771 5.48901 5.11791
#
# Compressibility (1/GPa) = 0.03320699
#
# Stress axis : x y z
#
# Youngs Moduli (GPa) = 47.85571 47.85571 66.51913
#
# Poissons Ratio (x) = -0.07513 0.44499
# Poissons Ratio (y) = -0.07513 0.44499
# Poissons Ratio (z) = 0.32014 0.32014
#
# Static dielectric constant tensor:
#      x y z
#    x 1.588050 0.000000 0.000000 
#    y 0.000000 1.588050 0.000000 
#    z 0.000000 0.000000 1.622810 
# 
# From -- ./inp_files/5328.got.cif
#   From: 2010.05.17/outbox.cif.g08.bks.cpg/sg84_3_cif.got.tgz:5328.got - 2010.06.03 18:57:40.
