data_PCOD9543108
_publ_section_title
;
Structure prediction by ZEFSAII (Michael W. Deem and Ramdas Pophale) SiO2 
 PCOD9543108
Probable space group: I -4 
;
_chemical_formula_sum "Si O2"
_cell_formula_units_Z 18
_cell_length_a 8.239960
_cell_length_b 8.239960
_cell_length_c 10.169175
_cell_angle_alpha 90.000000
_cell_angle_beta 90.000000
_cell_angle_gamma 90.000000
_cell_volume 690.455873
_symmetry_space_group_name_H-M "I -4 "
_symmetry_group_IT_number 82
_symmetry_cell_setting 'tetragonal'
loop_
_space_group_symop_operation_xyz
x,y,z
y,-x,-z
-x,-y,z
-y,x,-z
1/2+x,1/2+y,1/2+z
1/2+y,1/2-x,1/2-z
1/2-x,1/2-y,1/2+z
1/2-y,1/2+x,1/2-z
loop_
_atom_site_type_symbol
_atom_site_label
_atom_site_fract_x
_atom_site_fract_y
_atom_site_fract_z
Si Si1 0.500000 0.500000 0.000000
Si Si2 0.661424 0.892538 0.585265
Si Si3 0.317390 0.817159 0.205244
O O1 0.328764 0.493735 0.074291
O O2 0.686410 0.782830 0.712623
O O3 0.657426 0.788283 0.449594
O O4 0.500000 0.000000 0.585781
O O5 0.509530 0.786200 0.223593
#
# Coordination Sequence:
#
# PCOD9543108 Si02
#       3
#     2   8   8
#     4  12  24  52  76 118 176 220 288 386 412 552
#     4  12  25  52  86 125 177 240 296 374 465 532
#     4  11  23  53  83 124 182 232 301 381 442 553
#
# _framework density 26.069735999999999
#
# number of rings (size 3 to 8) (size 9 to 14) (size 15 to 20)
#    0.000    0.444    8.889    0.000    0.000    0.000 
#   24.000    0.000    0.000   12.000    0.000    0.000 
#    0.000    0.000    0.000    0.000    0.000    0.000 
#
# Total GULP energy -50479.629407 kJ/mol
# GULP energy per Si atom -5608.847712 kJ/mol
# Density = 2.601040 g / cm^3
# Si number density = 26.069736 Si / 1000 Ang^3
#
#
#
# Elastic Constant Matrix: (Units=GPa)
#
#
# Indices 1 2 3 4 5 6 
#
# 1 143.0733 54.7048 82.4914 0.0000 0.0000 -4.2999
# 2 54.7048 143.0733 82.4914 0.0000 0.0000 4.2999
# 3 82.4914 82.4914 239.5471 0.0000 0.0000 0.0000
# 4 0.0000 0.0000 0.0000 52.7693 0.0000 0.0000
# 5 0.0000 0.0000 0.0000 0.0000 52.7693 0.0000
# 6 -4.2999 4.2999 0.0000 0.0000 0.0000 67.2437
#
#
#
# Elastic Compliance Matrix: (Units=1/GPa)
#
#
# Indices 1 2 3 4 5 6 
#
# 1 0.009241 -0.002147 -0.002443 0.000000 0.000000 0.000728
# 2 -0.002147 0.009241 -0.002443 0.000000 0.000000 -0.000728
# 3 -0.002443 -0.002443 0.005857 0.000000 0.000000 0.000000
# 4 0.000000 0.000000 0.000000 0.018950 0.000000 0.000000
# 5 0.000000 0.000000 0.000000 0.000000 0.018950 0.000000
# 6 0.000728 -0.000728 0.000000 0.000000 0.000000 0.014964
#
#
# Mechanical properties :
#
#
# Convention : Reuss Voigt Hill
#
# Bulk Modulus (GPa) = 97.33890 107.22990 102.28440
# Shear Modulus (GPa) = 52.80240 54.95687 53.87964
#
# Velocity S-wave (km/s) = 4.50536 4.59636 4.55108
# Velocity P-wave (km/s) = 8.03015 8.33006 8.18148
#
# Compressibility (1/GPa) = 0.01027338
#
# Stress axis : x y z
#
# Youngs Moduli (GPa) = 108.21854 108.21854 170.73426
#
# Poissons Ratio (x) = 0.23230 0.41709
# Poissons Ratio (y) = 0.23230 0.41709
# Poissons Ratio (z) = 0.26437 0.26437
#
# Static dielectric constant tensor:
#      x y z
#    x 2.063910 0.000000 0.000000 
#    y 0.000000 2.063910 0.000000 
#    z 0.000000 0.000000 2.060910 
# 
# From -- ./inp_files/1286.got.cif
#   From: 2010.05.17/outbox.cif.g08.bks.cpg/sg82_1_cif.got.tgz:1286.got - 2010.06.03 18:52:26.
