data_PCOD9543297
_publ_section_title
;
Structure prediction by ZEFSAII (Michael W. Deem and Ramdas Pophale) SiO2 
 PCOD9543297
Probable space group: P 4/M
;
_chemical_formula_sum "Si O2"
_cell_formula_units_Z 64
_cell_length_a 20.198913
_cell_length_b 20.198913
_cell_length_c 7.374108
_cell_angle_alpha 90.000000
_cell_angle_beta 90.000000
_cell_angle_gamma 90.000000
_cell_volume 3008.607205
_symmetry_space_group_name_H-M "P 4/M"
_symmetry_group_IT_number 83
_symmetry_cell_setting 'tetragonal'
loop_
_space_group_symop_operation_xyz
x,y,z
-y,x,z
-x,-y,z
y,-x,z
-x,-y,-z
y,-x,-z
x,y,-z
-y,x,-z
loop_
_atom_site_type_symbol
_atom_site_label
_atom_site_fract_x
_atom_site_fract_y
_atom_site_fract_z
Si Si1 0.247636 0.504733 0.297360
Si Si2 0.995268 0.747636 0.797359
Si Si3 0.739361 0.146115 0.220594
Si Si4 0.760639 0.353884 0.279406
Si Si5 0.980921 0.894644 0.281367
Si Si6 0.233174 0.141247 0.211747
Si Si7 0.266825 0.358753 0.288253
Si Si8 0.605356 0.480921 0.781367
O O1 0.218968 0.496882 0.500000
O O2 0.219316 0.572637 0.214741
O O3 0.251786 0.431732 0.210315
O O4 0.324354 0.525845 0.306756
O O5 0.927364 0.719315 0.714741
O O6 0.974155 0.824354 0.806754
O O7 0.068269 0.751787 0.710314
O O8 0.003119 0.718968 0.000000
O O9 0.811001 0.174686 0.285019
O O10 0.685848 0.201179 0.273832
O O11 0.741400 0.144537 0.000000
O O12 0.758600 0.355462 0.500000
O O13 0.814151 0.298820 0.226167
O O14 0.688998 0.325313 0.214981
O O15 0.979655 0.887704 0.500000
O O16 0.926115 0.948346 0.231702
O O17 0.217304 0.129821 0.000000
O O18 0.282694 0.370179 0.500000
O O19 0.573885 0.551654 0.731703
O O20 0.612297 0.479654 0.000000
#
# Coordination Sequence:
#
# PCOD9543297 Si02
#       8
#     8   8   8   8   8   8   8   8
#     4  10  19  31  49  71  93 120 158 200 239 280
#     4  10  19  31  49  71  93 120 158 200 239 280
#     4   9  18  32  49  70  96 124 155 193 236 282
#     4   9  18  32  49  70  96 124 155 193 236 282
#     4   9  18  30  42  62  95 129 157 186 224 275
#     4   9  18  32  49  70  96 124 155 193 236 282
#     4   9  18  32  49  70  96 124 155 193 236 282
#     4   9  18  30  42  62  95 129 157 186 224 275
#
# _framework density 21.272302
#
# number of rings (size 3 to 8) (size 9 to 14) (size 15 to 20)
#    0.000    2.750    0.000    2.250    0.000    5.000 
#    0.000    6.250    0.000    0.750    0.000    5.250 
#    0.000    0.000    0.000    0.000    0.000    0.000 
#
# Total GULP energy -356879.546178 kJ/mol
# GULP energy per Si atom -5576.242909 kJ/mol
# Density = 2.122389 g / cm^3
# Si number density = 21.272302 Si / 1000 Ang^3
#
#
#
# Elastic Constant Matrix: (Units=GPa)
#
#
# Indices 1 2 3 4 5 6 
#
# 1 110.2761 14.6053 -3.3712 0.0000 0.0000 0.8803
# 2 14.6053 110.2761 -3.3712 0.0000 0.0000 -0.8803
# 3 -3.3712 -3.3712 78.6503 0.0000 0.0000 0.0000
# 4 0.0000 0.0000 0.0000 8.7774 0.0000 0.0000
# 5 0.0000 0.0000 0.0000 0.0000 8.7774 0.0000
# 6 0.8803 -0.8803 0.0000 0.0000 0.0000 8.6264
#
#
#
# Elastic Compliance Matrix: (Units=1/GPa)
#
#
# Indices 1 2 3 4 5 6 
#
# 1 0.009249 -0.001223 0.000344 0.000000 0.000000 -0.001069
# 2 -0.001223 0.009249 0.000344 0.000000 0.000000 0.001069
# 3 0.000344 0.000344 0.012744 0.000000 0.000000 0.000000
# 4 0.000000 0.000000 0.000000 0.113929 0.000000 0.000000
# 5 0.000000 0.000000 0.000000 0.000000 0.113929 0.000000
# 6 -0.001069 0.001069 0.000000 0.000000 0.000000 0.116141
#
#
# Mechanical properties :
#
#
# Convention : Reuss Voigt Hill
#
# Bulk Modulus (GPa) = 33.14281 34.99203 34.06742
# Shear Modulus (GPa) = 12.94098 24.65887 18.79993
#
# Velocity S-wave (km/s) = 2.46915 3.40840 2.97606
# Velocity P-wave (km/s) = 4.87268 5.65463 5.27816
#
# Compressibility (1/GPa) = 0.03017246
#
# Stress axis : x y z
#
# Youngs Moduli (GPa) = 108.11777 108.11777 78.46826
#
# Poissons Ratio (x) = 0.13223 -0.02700
# Poissons Ratio (y) = 0.13223 -0.02700
# Poissons Ratio (z) = -0.03720 -0.03720
#
# Static dielectric constant tensor:
#      x y z
#    x 1.788750 0.000000 0.000000 
#    y 0.000000 1.788750 0.000000 
#    z 0.000000 0.000000 1.829950 
# 
# From -- ./inp_files/1317.got.cif
#   From: 2010.05.17/outbox.cif.g08.bks.cpg/sg83_1_cif.got.tgz:1317.got - 2010.06.03 18:55:12.
