data_PCOD9543668
_publ_section_title
;
Structure prediction by ZEFSAII (Michael W. Deem and Ramdas Pophale) SiO2 
 PCOD9543668
Probable space group: P 4/M
;
_chemical_formula_sum "Si O2"
_cell_formula_units_Z 49
_cell_length_a 8.165948
_cell_length_b 8.165948
_cell_length_c 33.157556
_cell_angle_alpha 90.000000
_cell_angle_beta 90.000000
_cell_angle_gamma 90.000000
_cell_volume 2211.035583
_symmetry_space_group_name_H-M "P 4/M"
_symmetry_group_IT_number 83
_symmetry_cell_setting 'tetragonal'
loop_
_space_group_symop_operation_xyz
x,y,z
-y,x,z
-x,-y,z
y,-x,z
-x,-y,-z
y,-x,-z
x,y,-z
-y,x,-z
loop_
_atom_site_type_symbol
_atom_site_label
_atom_site_fract_x
_atom_site_fract_y
_atom_site_fract_z
Si Si1 0.000000 0.500000 0.067951
Si Si2 0.236680 0.577810 0.621199
Si Si3 0.306022 0.928461 0.000000
Si Si4 0.421265 0.237463 0.863791
Si Si5 0.000000 0.000000 0.000000
Si Si6 0.087314 0.737330 0.455048
Si Si7 0.087662 0.737393 0.697495
Si Si8 0.088144 0.737624 0.212669
O O1 0.126776 0.594777 0.096595
O O2 0.894231 0.653455 0.047001
O O3 0.303972 0.395013 0.621196
O O4 0.137033 0.620672 0.581094
O O5 0.137170 0.620820 0.661316
O O6 0.500000 0.000000 0.000000
O O7 0.171695 0.097317 0.000000
O O8 0.605603 0.304267 0.863870
O O9 0.378686 0.138031 0.823586
O O10 0.112711 0.667461 0.500000
O O11 0.901555 0.801827 0.451917
O O12 0.113591 0.667246 0.742413
O O13 0.901801 0.801700 0.694392
O O14 0.902040 0.801281 0.209697
#
# Coordination Sequence:
#
# PCOD9543668 Si02
#       8
#     4   8   4   8   1   8   8   8
#     4   9  22  42  60  88 130 160 206 268 313 376
#     4  11  24  37  50  77 115 151 187 231 285 348
#     4   8  24  40  68 100 132 162 224 282 322 392
#     4  11  23  37  58  86 121 164 202 250 313 373
#     4  12  20  44  76 104 132 188 236 276 356 400
#     4   9  19  37  60  83 106 135 178 232 288 349
#     4   9  19  37  61  84 109 144 193 246 296 352
#     4   9  19  38  61  87 117 155 201 254 311 370
#
# _framework density 22.161559
#
# number of rings (size 3 to 8) (size 9 to 14) (size 15 to 20)
#    0.490    1.796    0.000    3.429    2.286    5.878 
#    0.000    7.347    0.000    2.204    0.000    0.000 
#    0.000    0.000    0.000    0.000    0.000    0.000 
#
# Total GULP energy -273032.097535 kJ/mol
# GULP energy per Si atom -5572.083623 kJ/mol
# Density = 2.211112 g / cm^3
# Si number density = 22.161559 Si / 1000 Ang^3
#
#
#
# Elastic Constant Matrix: (Units=GPa)
#
#
# Indices 1 2 3 4 5 6 
#
# 1 72.6815 37.5525 55.3194 0.0000 0.0000 -0.5902
# 2 37.5525 72.6815 55.3194 0.0000 0.0000 0.5902
# 3 55.3194 55.3194 152.2167 0.0000 0.0000 0.0000
# 4 0.0000 0.0000 0.0000 51.0611 0.0000 0.0000
# 5 0.0000 0.0000 0.0000 0.0000 51.0611 0.0000
# 6 -0.5902 0.5902 0.0000 0.0000 0.0000 39.7914
#
#
#
# Elastic Compliance Matrix: (Units=1/GPa)
#
#
# Indices 1 2 3 4 5 6 
#
# 1 0.021381 -0.007100 -0.005190 0.000000 0.000000 0.000422
# 2 -0.007100 0.021381 -0.005190 0.000000 0.000000 -0.000422
# 3 -0.005190 -0.005190 0.010342 0.000000 0.000000 0.000000
# 4 0.000000 0.000000 0.000000 0.019584 0.000000 0.000000
# 5 0.000000 0.000000 0.000000 0.000000 0.019584 0.000000
# 6 0.000422 -0.000422 0.000000 0.000000 0.000000 0.025144
#
#
# Mechanical properties :
#
#
# Convention : Reuss Voigt Hill
#
# Bulk Modulus (GPa) = 55.11660 65.99585 60.55622
# Shear Modulus (GPa) = 31.56104 38.34196 34.95150
#
# Velocity S-wave (km/s) = 3.77786 4.16397 3.97561
# Velocity P-wave (km/s) = 6.62978 7.27752 6.96119
#
# Compressibility (1/GPa) = 0.01814335
#
# Stress axis : x y z
#
# Youngs Moduli (GPa) = 46.77125 46.77125 96.69412
#
# Poissons Ratio (x) = 0.33208 0.50184
# Poissons Ratio (y) = 0.33208 0.50184
# Poissons Ratio (z) = 0.24274 0.24274
#
# Static dielectric constant tensor:
#      x y z
#    x 1.852150 0.000000 0.000000 
#    y 0.000000 1.852150 0.000000 
#    z 0.000000 0.000000 1.644930 
# 
# From -- ./inp_files/3510.got.cif
#   From: 2010.05.17/outbox.cif.g08.bks.cpg/sg83_2_cif.got.tgz:3510.got - 2010.06.03 18:55:12.
