data_PCOD9543757
_publ_section_title
;
Structure prediction by ZEFSAII (Michael W. Deem and Ramdas Pophale) SiO2 
 PCOD9543757
Probable space group: P 4/M
;
_chemical_formula_sum "Si O2"
_cell_formula_units_Z 28
_cell_length_a 8.030668
_cell_length_b 8.030668
_cell_length_c 19.155700
_cell_angle_alpha 90.000000
_cell_angle_beta 90.000000
_cell_angle_gamma 90.000000
_cell_volume 1235.382289
_symmetry_space_group_name_H-M "P 4/M"
_symmetry_group_IT_number 83
_symmetry_cell_setting 'tetragonal'
loop_
_space_group_symop_operation_xyz
x,y,z
-y,x,z
-x,-y,z
y,-x,z
-x,-y,-z
y,-x,-z
x,y,-z
-y,x,-z
loop_
_atom_site_type_symbol
_atom_site_label
_atom_site_fract_x
_atom_site_fract_y
_atom_site_fract_z
Si Si1 0.733837 0.084263 0.364055
Si Si2 0.232631 0.418625 0.500000
Si Si3 0.236141 0.396974 0.074575
Si Si4 0.402400 0.765062 0.226025
O O1 0.624085 0.132653 0.430332
O O2 0.645031 0.123392 0.291241
O O3 0.897051 0.201141 0.367303
O O4 0.394966 0.300276 0.500000
O O5 0.409805 0.294272 0.074573
O O6 0.154634 0.367256 0.149829
O O7 0.149930 0.362363 0.000000
O O8 0.295397 0.593781 0.229835
#
# Coordination Sequence:
#
# PCOD9543757 Si02
#       4
#     8   4   8   8
#     4  11  24  39  54  75 105 140 175 207 244 296
#     4  11  24  41  62  86 106 125 158 205 254 304
#     4   7  10  19  39  69 102 131 161 205 259 305
#     4   9  17  30  51  79 106 133 171 216 259 305
#
# _framework density 22.665050999999998
#
# number of rings (size 3 to 8) (size 9 to 14) (size 15 to 20)
#    0.000    2.714    0.000    5.143    0.000    9.143 
#    0.000    0.000    0.000    1.714    0.000   10.000 
#    0.000    0.000    0.000    0.000    0.000    0.000 
#
# Total GULP energy -156588.507043 kJ/mol
# GULP energy per Si atom -5592.446680 kJ/mol
# Density = 2.261346 g / cm^3
# Si number density = 22.665051 Si / 1000 Ang^3
#
#
#
# Elastic Constant Matrix: (Units=GPa)
#
#
# Indices 1 2 3 4 5 6 
#
# 1 65.8985 47.4853 57.7197 0.0000 0.0000 -3.2516
# 2 47.4853 65.8985 57.7197 0.0000 0.0000 3.2516
# 3 57.7197 57.7197 263.0162 0.0000 0.0000 0.0000
# 4 0.0000 0.0000 0.0000 -243.0166 0.0000 0.0000
# 5 0.0000 0.0000 0.0000 0.0000 -243.0166 0.0000
# 6 -3.2516 3.2516 0.0000 0.0000 0.0000 33.4638
#
#
#
# Elastic Compliance Matrix: (Units=1/GPa)
#
#
# Indices 1 2 3 4 5 6 
#
# 1 0.033798 -0.022441 -0.002492 0.000000 0.000000 0.005465
# 2 -0.022441 0.033798 -0.002492 0.000000 0.000000 -0.005465
# 3 -0.002492 -0.002492 0.004896 0.000000 0.000000 0.000000
# 4 0.000000 0.000000 0.000000 -0.004115 0.000000 0.000000
# 5 0.000000 0.000000 0.000000 0.000000 -0.004115 0.000000
# 6 0.005465 -0.005465 0.000000 0.000000 0.000000 0.030945
#
#
# Mechanical properties :
#
#
# Convention : Reuss Voigt Hill
#
# Bulk Modulus (GPa) = 56.68673 80.07362 68.38017
# Shear Modulus (GPa) = 32.06382 -75.05464 -21.49541
#
# Velocity S-wave (km/s) = 3.76530 -5.76078 -3.08294
# Velocity P-wave (km/s) = 6.63086 2.97371 4.19078
#
# Compressibility (1/GPa) = 0.01764081
#
# Stress axis : x y z
#
# Youngs Moduli (GPa) = 29.58743 29.58743 204.25003
#
# Poissons Ratio (x) = 0.66397 0.50906
# Poissons Ratio (y) = 0.66397 0.50906
# Poissons Ratio (z) = 0.07374 0.07374
#
# Static dielectric constant tensor:
#      x y z
#    x 1.810950 0.000000 0.000000 
#    y 0.000000 1.810950 0.000000 
#    z 0.000000 0.000000 1.855350 
# 
# From -- ./inp_files/2508.got.cif
#   From: 2010.05.17/outbox.cif.g08.bks.cpg/sg83_2_cif.got.tgz:2508.got - 2010.06.03 18:55:12.
