data_PCOD9543020
_publ_section_title
;
Structure prediction by ZEFSAII (Michael W. Deem and Ramdas Pophale) SiO2 
 PCOD9543020
Probable space group: I -4 
;
_chemical_formula_sum "Si O2"
_cell_formula_units_Z 64
_cell_length_a 22.936659
_cell_length_b 22.936659
_cell_length_c 5.782852
_cell_angle_alpha 90.000000
_cell_angle_beta 90.000000
_cell_angle_gamma 90.000000
_cell_volume 3042.302494
_symmetry_space_group_name_H-M "I -4 "
_symmetry_group_IT_number 82
_symmetry_cell_setting 'tetragonal'
loop_
_space_group_symop_operation_xyz
x,y,z
y,-x,-z
-x,-y,z
-y,x,-z
1/2+x,1/2+y,1/2+z
1/2+y,1/2-x,1/2-z
1/2-x,1/2-y,1/2+z
1/2-y,1/2+x,1/2-z
loop_
_atom_site_type_symbol
_atom_site_label
_atom_site_fract_x
_atom_site_fract_y
_atom_site_fract_z
Si Si1 0.296026 0.312449 0.655674
Si Si2 0.298681 0.128576 0.390286
Si Si3 0.742321 0.983249 0.216242
Si Si4 0.352461 0.622541 0.697171
Si Si5 0.908277 0.026851 0.490724
Si Si6 0.687734 0.817932 0.808719
Si Si7 0.612099 0.780491 0.178901
Si Si8 0.307816 0.469391 0.220493
O O1 0.266545 0.344783 0.870101
O O2 0.356284 0.339057 0.564767
O O3 0.300227 0.243958 0.686854
O O4 0.243689 0.323147 0.474150
O O5 0.301455 0.071150 0.238618
O O6 0.311799 0.123728 0.659493
O O7 0.344214 0.178463 0.319400
O O8 0.775528 0.976789 0.469202
O O9 0.715480 0.047180 0.230598
O O10 0.776110 0.978671 0.969433
O O11 0.376197 0.559566 0.778094
O O12 0.288046 0.629471 0.810755
O O13 0.405109 0.664414 0.770506
O O14 0.963326 0.065523 0.571616
O O15 0.861311 0.014823 0.690395
O O16 0.625673 0.805128 0.925831
#
# Coordination Sequence:
#
# PCOD9543020 Si02
#       8
#     8   8   8   8   8   8   8   8
#     4  11  19  34  60  98 134 167 223 277 357 424
#     4  11  24  40  66  96 139 180 227 289 361 441
#     4  12  27  47  66 103 137 182 234 290 355 435
#     4  11  20  40  63  99 136 186 237 296 353 418
#     4   9  20  42  66  92 134 196 258 306 347 404
#     4  11  21  36  61  97 135 176 216 281 362 441
#     4  11  26  41  63 100 137 182 228 292 363 437
#     4  11  25  44  69  97 141 186 239 297 350 411
#
# _framework density 21.0367
#
# number of rings (size 3 to 8) (size 9 to 14) (size 15 to 20)
#    0.000    1.125    5.000    1.500    5.250    0.000 
#    4.500    0.000    0.000    4.875    0.000    0.000 
#    0.000    0.000    0.000    0.000    0.000    0.000 
#
# Total GULP energy -178306.252935 kJ/mol
# GULP energy per Si atom -5572.070404 kJ/mol
# Density = 2.098882 g / cm^3
# Si number density = 21.036700 Si / 1000 Ang^3
#
#
#
# Elastic Constant Matrix: (Units=GPa)
#
#
# Indices 1 2 3 4 5 6 
#
# 1 101.7707 58.1537 43.6349 0.0000 0.0000 -0.7890
# 2 58.1537 101.7707 43.6349 0.0000 0.0000 0.7890
# 3 43.6349 43.6349 86.5895 0.0000 0.0000 0.0000
# 4 0.0000 0.0000 0.0000 24.1600 0.0000 0.0000
# 5 0.0000 0.0000 0.0000 0.0000 24.1600 0.0000
# 6 -0.7890 0.7890 0.0000 0.0000 0.0000 24.4799
#
#
#
# Elastic Compliance Matrix: (Units=1/GPa)
#
#
# Indices 1 2 3 4 5 6 
#
# 1 0.015789 -0.007164 -0.004346 0.000000 0.000000 0.000740
# 2 -0.007164 0.015789 -0.004346 0.000000 0.000000 -0.000740
# 3 -0.004346 -0.004346 0.015929 0.000000 0.000000 0.000000
# 4 0.000000 0.000000 0.000000 0.041391 0.000000 0.000000
# 5 0.000000 0.000000 0.000000 0.000000 0.041391 0.000000
# 6 0.000740 -0.000740 0.000000 0.000000 0.000000 0.040898
#
#
# Mechanical properties :
#
#
# Convention : Reuss Voigt Hill
#
# Bulk Modulus (GPa) = 63.31690 64.55312 63.93501
# Shear Modulus (GPa) = 24.01945 24.20714 24.11329
#
# Velocity S-wave (km/s) = 3.38270 3.39589 3.38930
# Velocity P-wave (km/s) = 6.73948 6.79181 6.76569
#
# Compressibility (1/GPa) = 0.01579357
#
# Stress axis : x y z
#
# Youngs Moduli (GPa) = 63.33466 63.33466 62.77819
#
# Poissons Ratio (x) = 0.45376 0.27285
# Poissons Ratio (y) = 0.45376 0.27285
# Poissons Ratio (z) = 0.27527 0.27527
#
# Static dielectric constant tensor:
#      x y z
#    x 1.784420 0.000000 0.000000 
#    y 0.000000 1.784420 0.000000 
#    z 0.000000 0.000000 2.014780 
# 
# From -- ./inp_files/473.got.cif
#   From: 2010.05.17/outbox.cif.g08.bks.cpg/sg82_1_cif.got.tgz:473.got - 2010.06.03 18:52:26.
