data_PCOD9543600
_publ_section_title
;
Structure prediction by ZEFSAII (Michael W. Deem and Ramdas Pophale) SiO2 
 PCOD9543600
Probable space group: P 4/M
;
_chemical_formula_sum "Si O2"
_cell_formula_units_Z 46
_cell_length_a 12.516329
_cell_length_b 12.516329
_cell_length_c 16.897392
_cell_angle_alpha 90.000000
_cell_angle_beta 90.000000
_cell_angle_gamma 90.000000
_cell_volume 2647.119943
_symmetry_space_group_name_H-M "P 4/M"
_symmetry_group_IT_number 83
_symmetry_cell_setting 'tetragonal'
loop_
_space_group_symop_operation_xyz
x,y,z
-y,x,z
-x,-y,z
y,-x,z
-x,-y,-z
y,-x,-z
x,y,-z
-y,x,-z
loop_
_atom_site_type_symbol
_atom_site_label
_atom_site_fract_x
_atom_site_fract_y
_atom_site_fract_z
Si Si1 0.000000 0.000000 0.286640
Si Si2 0.202758 0.622607 0.252725
Si Si3 0.818909 0.000000 0.500000
Si Si4 0.700076 0.126419 0.089700
Si Si5 0.000000 0.745783 0.324019
Si Si6 0.377393 0.797242 0.747275
Si Si7 0.299924 0.126419 0.089700
O O1 1.000000 0.132612 0.292273
O O2 0.104453 0.683703 0.294022
O O3 0.309710 0.690290 0.267288
O O4 0.209669 0.500000 0.277448
O O5 0.176249 0.629539 0.158866
O O6 0.754120 0.000000 0.419040
O O7 0.897950 0.897950 0.500000
O O8 0.629539 0.176249 0.158866
O O9 0.814463 0.185537 0.095788
O O10 0.710362 0.000000 0.101866
O O11 0.660227 0.144320 0.000000
O O12 0.895547 0.683703 0.294022
O O13 0.339773 0.144320 0.000000
#
# Coordination Sequence:
#
# PCOD9543600 Si02
#       7
#     2   8   4   8   8   8   8
#     4  12  20  37  64  92 125 148 178 216 281 352
#     4  11  23  39  57  81 114 152 198 245 288 336
#     4  11  18  34  59  90 124 152 179 211 274 352
#     4   9  18  32  50  76 110 150 192 234 283 338
#     4  12  21  37  60  93 120 149 182 224 279 348
#     4  11  23  39  57  81 114 152 198 245 288 336
#     4   9  18  32  50  76 110 150 192 234 283 338
#
# _framework density 17.377378
#
# number of rings (size 3 to 8) (size 9 to 14) (size 15 to 20)
#    0.000    1.478    5.217    0.522    0.000    1.391 
#    0.000    5.217    0.000    0.000    0.000    4.870 
#    0.000    4.174    0.000    0.000    0.000    0.000 
#
# Total GULP energy -256220.624719 kJ/mol
# GULP energy per Si atom -5570.013581 kJ/mol
# Density = 1.733783 g / cm^3
# Si number density = 17.377378 Si / 1000 Ang^3
#
#
#
# Elastic Constant Matrix: (Units=GPa)
#
#
# Indices 1 2 3 4 5 6 
#
# 1 147.3051 67.4331 36.5346 0.0000 0.0000 0.0000
# 2 67.4331 147.3051 36.5346 0.0000 0.0000 0.0000
# 3 36.5346 36.5346 80.6612 0.0000 0.0000 0.0000
# 4 0.0000 0.0000 0.0000 8.1603 0.0000 0.0000
# 5 0.0000 0.0000 0.0000 0.0000 8.1603 0.0000
# 6 0.0000 0.0000 0.0000 0.0000 0.0000 8.4765
#
#
#
# Elastic Compliance Matrix: (Units=1/GPa)
#
#
# Indices 1 2 3 4 5 6 
#
# 1 0.009013 -0.003507 -0.002494 0.000000 0.000000 0.000000
# 2 -0.003507 0.009013 -0.002494 0.000000 0.000000 0.000000
# 3 -0.002494 -0.002494 0.014656 0.000000 0.000000 0.000000
# 4 0.000000 0.000000 0.000000 0.122545 0.000000 0.000000
# 5 0.000000 0.000000 0.000000 0.000000 0.122545 0.000000
# 6 0.000000 0.000000 0.000000 0.000000 0.000000 0.117973
#
#
# Mechanical properties :
#
#
# Convention : Reuss Voigt Hill
#
# Bulk Modulus (GPa) = 63.72369 72.91956 68.32162
# Shear Modulus (GPa) = 11.96273 20.61068 16.28671
#
# Velocity S-wave (km/s) = 2.62660 3.44766 3.06475
# Velocity P-wave (km/s) = 6.77855 7.60933 7.20593
#
# Compressibility (1/GPa) = 0.01569275
#
# Stress axis : x y z
#
# Youngs Moduli (GPa) = 110.95477 110.95477 68.22956
#
# Poissons Ratio (x) = 0.38916 0.17014
# Poissons Ratio (y) = 0.38916 0.17014
# Poissons Ratio (z) = 0.27667 0.27667
#
# Static dielectric constant tensor:
#      x y z
#    x 1.571050 0.000000 0.000000 
#    y 0.000000 1.571050 0.000000 
#    z 0.000000 0.000000 1.630980 
# 
# From -- ./inp_files/2676.got.cif
#   From: 2010.05.17/outbox.cif.g08.bks.cpg/sg83_2_cif.got.tgz:2676.got - 2010.06.03 18:55:12.
