data_PCOD9543754
_publ_section_title
;
Structure prediction by ZEFSAII (Michael W. Deem and Ramdas Pophale) SiO2 
 PCOD9543754
Probable space group: P 4/M
;
_chemical_formula_sum "Si O2"
_cell_formula_units_Z 32
_cell_length_a 7.978996
_cell_length_b 7.978996
_cell_length_c 22.073707
_cell_angle_alpha 90.000000
_cell_angle_beta 90.000000
_cell_angle_gamma 90.000000
_cell_volume 1405.308808
_symmetry_space_group_name_H-M "P 4/M"
_symmetry_group_IT_number 83
_symmetry_cell_setting 'tetragonal'
loop_
_space_group_symop_operation_xyz
x,y,z
-y,x,z
-x,-y,z
y,-x,z
-x,-y,-z
y,-x,-z
x,y,-z
-y,x,-z
loop_
_atom_site_type_symbol
_atom_site_label
_atom_site_fract_x
_atom_site_fract_y
_atom_site_fract_z
Si Si1 0.768921 0.419172 0.000000
Si Si2 0.606032 0.764672 0.629549
Si Si3 0.598655 0.766406 0.239249
Si Si4 0.084085 0.732329 0.881404
Si Si5 0.235484 0.608130 0.500000
O O1 0.700592 0.606389 0.000000
O O2 0.868252 0.377067 0.939234
O O3 0.411026 0.707833 0.629564
O O4 0.635744 0.847414 0.694781
O O5 0.642482 0.850674 0.564826
O O6 0.406008 0.706010 0.236227
O O7 0.644438 0.877040 0.182056
O O8 0.895951 0.797843 0.884215
O O9 0.291455 0.412448 0.500000
#
# Coordination Sequence:
#
# PCOD9543754 Si02
#       5
#     4   8   8   8   4
#     4  11  24  41  62  86 106 125 154 193 238 290
#     4   7  10  17  32  58  92 125 156 194 241 292
#     4   9  17  30  49  74 102 131 166 207 249 295
#     4  11  24  39  54  75 103 134 168 203 238 281
#     4   7   8  12  26  52  88 125 154 186 238 295
#
# _framework density 22.770797000000002
#
# number of rings (size 3 to 8) (size 9 to 14) (size 15 to 20)
#    0.000    3.000    0.000    5.250    0.000    8.000 
#    0.000    0.000    0.000    0.000    0.000    1.750 
#    0.000   12.000    0.000    0.000    0.000    0.000 
#
# Total GULP energy -178825.506182 kJ/mol
# GULP energy per Si atom -5588.297068 kJ/mol
# Density = 2.271897 g / cm^3
# Si number density = 22.770797 Si / 1000 Ang^3
#
#
#
# Elastic Constant Matrix: (Units=GPa)
#
#
# Indices 1 2 3 4 5 6 
#
# 1 56.3623 42.6401 54.7567 0.0000 0.0000 4.2254
# 2 42.6401 56.3623 54.7567 0.0000 0.0000 -4.2254
# 3 54.7567 54.7567 278.7357 0.0000 0.0000 0.0000
# 4 0.0000 0.0000 0.0000 -251.5211 0.0000 0.0000
# 5 0.0000 0.0000 0.0000 0.0000 -251.5211 0.0000
# 6 4.2254 -4.2254 0.0000 0.0000 0.0000 28.5000
#
#
#
# Elastic Compliance Matrix: (Units=1/GPa)
#
#
# Indices 1 2 3 4 5 6 
#
# 1 0.046551 -0.033646 -0.002535 0.000000 0.000000 -0.011890
# 2 -0.033646 0.046551 -0.002535 0.000000 0.000000 0.011890
# 3 -0.002535 -0.002535 0.004584 0.000000 0.000000 0.000000
# 4 0.000000 0.000000 0.000000 -0.003976 0.000000 0.000000
# 5 0.000000 0.000000 0.000000 0.000000 -0.003976 0.000000
# 6 -0.011890 0.011890 0.000000 0.000000 0.000000 0.038613
#
#
# Mechanical properties :
#
#
# Convention : Reuss Voigt Hill
#
# Bulk Modulus (GPa) = 49.37494 77.30750 63.34122
# Shear Modulus (GPa) = 23.52591 -78.95466 -27.71438
#
# Velocity S-wave (km/s) = 3.21777 -5.89482 -3.49248
# Velocity P-wave (km/s) = 5.96120 3.50826 3.40793
#
# Compressibility (1/GPa) = 0.02025319
#
# Stress axis : x y z
#
# Youngs Moduli (GPa) = 21.48173 21.48173 218.16546
#
# Poissons Ratio (x) = 0.72278 0.55308
# Poissons Ratio (y) = 0.72278 0.55308
# Poissons Ratio (z) = 0.05446 0.05446
#
# Static dielectric constant tensor:
#      x y z
#    x 1.814990 0.000000 0.000000 
#    y 0.000000 1.814990 0.000000 
#    z 0.000000 0.000000 1.884490 
# 
# From -- ./inp_files/3072.got.cif
#   From: 2010.05.17/outbox.cif.g08.bks.cpg/sg83_2_cif.got.tgz:3072.got - 2010.06.03 18:55:12.
