data_PCOD9543520
_publ_section_title
;
Structure prediction by ZEFSAII (Michael W. Deem and Ramdas Pophale) SiO2 
 PCOD9543520
Probable space group: P 4/M
;
_chemical_formula_sum "Si O2"
_cell_formula_units_Z 40
_cell_length_a 7.276001
_cell_length_b 7.276001
_cell_length_c 29.578297
_cell_angle_alpha 90.000000
_cell_angle_beta 90.000000
_cell_angle_gamma 90.000000
_cell_volume 1565.880679
_symmetry_space_group_name_H-M "P 4/M"
_symmetry_group_IT_number 83
_symmetry_cell_setting 'tetragonal'
loop_
_space_group_symop_operation_xyz
x,y,z
-y,x,z
-x,-y,z
y,-x,z
-x,-y,-z
y,-x,-z
x,y,-z
-y,x,-z
loop_
_atom_site_type_symbol
_atom_site_label
_atom_site_fract_x
_atom_site_fract_y
_atom_site_fract_z
Si Si1 0.276854 0.855796 0.000000
Si Si2 0.500000 0.000000 0.578057
Si Si3 0.220502 0.634222 0.346503
Si Si4 0.365312 0.220438 0.752390
Si Si5 0.282275 0.874857 0.500000
Si Si6 0.137673 0.278959 0.097688
Si Si7 0.000000 0.500000 0.827471
O O1 0.364756 0.814854 0.048610
O O2 0.074718 0.764093 0.000000
O O3 0.653403 0.909000 0.610486
O O4 0.403624 0.852891 0.544914
O O5 0.267579 0.416290 0.348234
O O6 0.137522 0.675668 0.297081
O O7 0.583367 0.267604 0.754249
O O8 0.344888 0.088445 0.794987
O O9 0.092125 0.769316 0.500000
O O10 0.918806 0.233162 0.099399
O O11 0.155912 0.411316 0.140290
#
# Coordination Sequence:
#
# PCOD9543520 Si02
#       7
#     4   4   8   8   4   8   4
#     4   7  12  27  46  60  82 116 148 182 228 272
#     4  11  19  32  55  76  93 122 165 199 224 262
#     4   9  18  33  52  72  93 120 158 199 231 263
#     4   9  19  34  48  66  96 127 151 183 232 281
#     4  10  22  36  48  70 106 136 152 180 234 288
#     4   9  18  31  46  65  89 117 150 189 229 270
#     4  12  19  27  47  72  93 117 153 188 224 274
#
# _framework density 25.544733000000001
#
# number of rings (size 3 to 8) (size 9 to 14) (size 15 to 20)
#    0.000    2.600    0.000    5.400    0.000    0.400 
#    0.000    0.000    0.000    4.800    0.000   16.800 
#    0.000   12.800    0.000    0.000    0.000    0.000 
#
# Total GULP energy -223512.163360 kJ/mol
# GULP energy per Si atom -5587.804084 kJ/mol
# Density = 2.548659 g / cm^3
# Si number density = 25.544733 Si / 1000 Ang^3
#
#
#
# Elastic Constant Matrix: (Units=GPa)
#
#
# Indices 1 2 3 4 5 6 
#
# 1 54.3025 -11.4867 7.2867 0.0000 0.0000 12.8046
# 2 -11.4867 54.3025 7.2867 0.0000 0.0000 -12.8046
# 3 7.2867 7.2867 193.2398 0.0000 0.0000 0.0000
# 4 0.0000 0.0000 0.0000 20.1439 0.0000 0.0000
# 5 0.0000 0.0000 0.0000 0.0000 20.1439 0.0000
# 6 12.8046 -12.8046 0.0000 0.0000 0.0000 25.8740
#
#
#
# Elastic Compliance Matrix: (Units=1/GPa)
#
#
# Indices 1 2 3 4 5 6 
#
# 1 0.021243 0.002416 -0.000892 0.000000 0.000000 -0.009317
# 2 0.002416 0.021243 -0.000892 0.000000 0.000000 0.009317
# 3 -0.000892 -0.000892 0.005242 0.000000 0.000000 0.000000
# 4 0.000000 0.000000 0.000000 0.049643 0.000000 0.000000
# 5 0.000000 0.000000 0.000000 0.000000 0.049643 0.000000
# 6 -0.009317 0.009317 0.000000 0.000000 0.000000 0.047871
#
#
# Mechanical properties :
#
#
# Convention : Reuss Voigt Hill
#
# Bulk Modulus (GPa) = 20.41124 34.22426 27.31775
# Shear Modulus (GPa) = 23.81499 33.14955 28.48227
#
# Velocity S-wave (km/s) = 3.05665 3.60628 3.34278
# Velocity P-wave (km/s) = 4.52385 5.54682 5.06124
#
# Compressibility (1/GPa) = 0.04899260
#
# Stress axis : x y z
#
# Youngs Moduli (GPa) = 47.07389 47.07389 190.75956
#
# Poissons Ratio (x) = -0.11375 0.17019
# Poissons Ratio (y) = -0.11375 0.17019
# Poissons Ratio (z) = 0.04200 0.04200
#
# Static dielectric constant tensor:
#      x y z
#    x 2.005790 0.000000 0.000000 
#    y 0.000000 2.005790 0.000000 
#    z 0.000000 0.000000 2.118300 
# 
# From -- ./inp_files/3297.got.cif
#   From: 2010.05.17/outbox.cif.g08.bks.cpg/sg83_2_cif.got.tgz:3297.got - 2010.06.03 18:55:12.
