data_PCOD9543386
_publ_section_title
;
Structure prediction by ZEFSAII (Michael W. Deem and Ramdas Pophale) SiO2 
 PCOD9543386
Probable space group: P 4/M
;
_chemical_formula_sum "Si O2"
_cell_formula_units_Z 56
_cell_length_a 21.974086
_cell_length_b 21.974086
_cell_length_c 9.057822
_cell_angle_alpha 90.000000
_cell_angle_beta 90.000000
_cell_angle_gamma 90.000000
_cell_volume 4373.664057
_symmetry_space_group_name_H-M "P 4/M"
_symmetry_group_IT_number 83
_symmetry_cell_setting 'tetragonal'
loop_
_space_group_symop_operation_xyz
x,y,z
-y,x,z
-x,-y,z
y,-x,z
-x,-y,-z
y,-x,-z
x,y,-z
-y,x,-z
loop_
_atom_site_type_symbol
_atom_site_label
_atom_site_fract_x
_atom_site_fract_y
_atom_site_fract_z
Si Si1 0.370864 0.062179 0.331205
Si Si2 0.854017 0.151630 0.671342
Si Si3 0.948910 0.243940 0.176452
Si Si4 0.907289 0.743686 0.176456
Si Si5 0.926013 0.493440 0.829174
Si Si6 0.915481 0.616313 0.331268
Si Si7 0.915984 0.057130 0.161063
O O1 0.361948 0.082998 0.500000
O O2 0.310796 0.070347 0.233187
O O3 0.431614 0.088866 0.257793
O O4 0.380953 0.989216 0.336469
O O5 0.846296 0.165683 0.500000
O O6 0.902788 0.196827 0.746660
O O7 0.790212 0.141599 0.754902
O O8 0.883425 0.085392 0.700047
O O9 0.021628 0.237480 0.212117
O O10 0.943734 0.238525 0.000000
O O11 0.897133 0.676907 0.244304
O O12 0.903104 0.741452 0.000000
O O13 0.900178 0.553626 0.751187
O O14 0.000000 0.500000 0.827125
O O15 0.907851 0.489739 0.000000
O O16 0.893509 0.616841 0.500000
O O17 0.984920 0.080830 0.162408
O O18 0.888758 0.075476 0.000000
#
# Coordination Sequence:
#
# PCOD9543386 Si02
#       7
#     8   8   8   8   8   8   8
#     4   9  16  26  40  58  78  96 115 142 175 209
#     4  12  23  31  41  56  72  90 114 146 184 223
#     4  10  20  33  46  57  71  93 120 149 183 225
#     4  10  20  33  46  57  71  93 120 149 183 225
#     4   9  15  23  37  57  79 101 121 137 161 204
#     4   9  16  26  40  58  78  96 115 142 175 209
#     4   9  18  32  46  56  66  82 106 138 178 224
#
# _framework density 12.80391
#
# number of rings (size 3 to 8) (size 9 to 14) (size 15 to 20)
#    0.000    2.286    0.000    4.714    0.000   10.857 
#    0.000    0.714    0.000    0.000    0.000    0.000 
#    0.000    0.000    0.000    0.000    0.000    0.000 
#
# Total GULP energy -312016.609595 kJ/mol
# GULP energy per Si atom -5571.725171 kJ/mol
# Density = 1.277477 g / cm^3
# Si number density = 12.803910 Si / 1000 Ang^3
#
#
#
# Elastic Constant Matrix: (Units=GPa)
#
#
# Indices 1 2 3 4 5 6 
#
# 1 42.5544 20.4033 27.5026 0.0000 0.0000 2.3409
# 2 20.4033 42.5544 27.5026 0.0000 0.0000 -2.3409
# 3 27.5026 27.5026 83.9124 0.0000 0.0000 0.0000
# 4 0.0000 0.0000 0.0000 15.3441 0.0000 0.0000
# 5 0.0000 0.0000 0.0000 0.0000 15.3441 0.0000
# 6 2.3409 -2.3409 0.0000 0.0000 0.0000 5.1779
#
#
#
# Elastic Compliance Matrix: (Units=1/GPa)
#
#
# Indices 1 2 3 4 5 6 
#
# 1 0.036086 -0.013829 -0.007295 0.000000 0.000000 -0.022566
# 2 -0.013829 0.036086 -0.007295 0.000000 0.000000 0.022566
# 3 -0.007295 -0.007295 0.016699 0.000000 0.000000 0.000000
# 4 0.000000 0.000000 0.000000 0.065172 0.000000 0.000000
# 5 0.000000 0.000000 0.000000 0.000000 0.065172 0.000000
# 6 -0.022566 0.022566 0.000000 0.000000 0.000000 0.213534
#
#
# Mechanical properties :
#
#
# Convention : Reuss Voigt Hill
#
# Bulk Modulus (GPa) = 31.21701 35.53757 33.37729
# Shear Modulus (GPa) = 9.99476 13.41405 11.70441
#
# Velocity S-wave (km/s) = 2.79696 3.24026 3.02673
# Velocity P-wave (km/s) = 5.90461 6.46642 6.19189
#
# Compressibility (1/GPa) = 0.03203381
#
# Stress axis : x y z
#
# Youngs Moduli (GPa) = 27.71187 27.71187 59.88385
#
# Poissons Ratio (x) = 0.38322 0.43684
# Poissons Ratio (y) = 0.38322 0.43684
# Poissons Ratio (z) = 0.20215 0.20215
#
# Static dielectric constant tensor:
#      x y z
#    x 1.415850 0.000000 0.000000 
#    y 0.000000 1.415850 0.000000 
#    z 0.000000 0.000000 1.439580 
# 
# From -- ./inp_files/1207.got.cif
#   From: 2010.05.17/outbox.cif.g08.bks.cpg/sg83_1_cif.got.tgz:1207.got - 2010.06.03 18:55:12.
