data_PCOD9543654
_publ_section_title
;
Structure prediction by ZEFSAII (Michael W. Deem and Ramdas Pophale) SiO2 
 PCOD9543654
Probable space group: P 4/M
;
_chemical_formula_sum "Si O2"
_cell_formula_units_Z 54
_cell_length_a 14.256847
_cell_length_b 14.256847
_cell_length_c 12.851443
_cell_angle_alpha 90.000000
_cell_angle_beta 90.000000
_cell_angle_gamma 90.000000
_cell_volume 2612.154571
_symmetry_space_group_name_H-M "P 4/M"
_symmetry_group_IT_number 83
_symmetry_cell_setting 'tetragonal'
loop_
_space_group_symop_operation_xyz
x,y,z
-y,x,z
-x,-y,z
y,-x,z
-x,-y,-z
y,-x,-z
x,y,-z
-y,x,-z
loop_
_atom_site_type_symbol
_atom_site_label
_atom_site_fract_x
_atom_site_fract_y
_atom_site_fract_z
Si Si1 0.630489 0.578997 0.124952
Si Si2 0.180440 0.374439 0.232593
Si Si3 0.135142 0.081841 0.227246
Si Si4 0.787901 0.237684 0.378234
Si Si5 0.613314 0.992827 0.116618
Si Si6 0.000000 0.500000 0.500000
Si Si7 0.872232 0.419900 0.686009
Si Si8 0.083310 0.863903 0.000000
O O1 0.531105 0.624790 0.154963
O O2 0.721408 0.625846 0.172504
O O3 0.635960 0.582374 0.000000
O O4 0.188474 0.300680 0.325078
O O5 0.094128 0.351821 0.155814
O O6 0.163980 0.478205 0.278562
O O7 0.193339 0.122068 0.322036
O O8 0.029981 0.123640 0.232109
O O9 0.176046 0.108843 0.113154
O O10 0.788320 0.222070 0.500000
O O11 0.793291 0.348385 0.353213
O O12 0.500000 0.000000 0.108819
O O13 0.625264 0.921468 0.212007
O O14 0.647925 0.969714 0.000000
O O15 0.945319 0.439060 0.592702
O O16 0.970508 0.876849 0.000000
#
# Coordination Sequence:
#
# PCOD9543654 Si02
#       8
#     8   8   8   8   8   2   8   4
#     4   9  18  35  61  91 126 165 198 243 315 397
#     4  11  22  40  62  92 123 169 206 267 333 378
#     4   9  20  41  64  91 127 168 206 257 330 386
#     4  12  28  41  61  95 126 161 227 281 311 389
#     4   9  19  39  65  94 126 163 210 267 328 390
#     4  12  20  44  70  88 120 188 222 264 332 388
#     4  11  24  44  68  93 125 175 225 272 328 396
#     4   7  12  32  64  86 114 160 206 245 302 396
#
# _framework density 20.672592000000002
#
# number of rings (size 3 to 8) (size 9 to 14) (size 15 to 20)
#    0.000    2.000    2.963    2.667    3.111    1.185 
#    4.000    0.741    0.000    0.000    0.000    3.111 
#    0.000    0.000    0.000    0.000    0.000    0.000 
#
# Total GULP energy -301135.030033 kJ/mol
# GULP energy per Si atom -5576.574630 kJ/mol
# Density = 2.062554 g / cm^3
# Si number density = 20.672592 Si / 1000 Ang^3
#
#
#
# Elastic Constant Matrix: (Units=GPa)
#
#
# Indices 1 2 3 4 5 6 
#
# 1 44.9044 14.7655 35.8327 0.0000 0.0000 -0.2894
# 2 14.7655 44.9044 35.8327 0.0000 0.0000 0.2894
# 3 35.8327 35.8327 162.5628 0.0000 0.0000 0.0000
# 4 0.0000 0.0000 0.0000 21.6838 0.0000 0.0000
# 5 0.0000 0.0000 0.0000 0.0000 21.6838 0.0000
# 6 -0.2894 0.2894 0.0000 0.0000 0.0000 19.3911
#
#
#
# Elastic Compliance Matrix: (Units=1/GPa)
#
#
# Indices 1 2 3 4 5 6 
#
# 1 0.027991 -0.005198 -0.005024 0.000000 0.000000 0.000495
# 2 -0.005198 0.027991 -0.005024 0.000000 0.000000 -0.000495
# 3 -0.005024 -0.005024 0.008366 0.000000 0.000000 0.000000
# 4 0.000000 0.000000 0.000000 0.046117 0.000000 0.000000
# 5 0.000000 0.000000 0.000000 0.000000 0.046117 0.000000
# 6 0.000495 -0.000495 0.000000 0.000000 0.000000 0.051585
#
#
# Mechanical properties :
#
#
# Convention : Reuss Voigt Hill
#
# Bulk Modulus (GPa) = 29.53696 47.24814 38.39255
# Shear Modulus (GPa) = 20.00433 23.61447 21.80940
#
# Velocity S-wave (km/s) = 3.11412 3.38347 3.25159
# Velocity P-wave (km/s) = 5.22009 6.17810 5.71919
#
# Compressibility (1/GPa) = 0.03385589
#
# Stress axis : x y z
#
# Youngs Moduli (GPa) = 35.72563 35.72563 119.52653
#
# Poissons Ratio (x) = 0.18570 0.60052
# Poissons Ratio (y) = 0.18570 0.60052
# Poissons Ratio (z) = 0.17949 0.17949
#
# Static dielectric constant tensor:
#      x y z
#    x 1.763790 0.000000 0.000000 
#    y 0.000000 1.763790 0.000000 
#    z 0.000000 0.000000 1.711010 
# 
# From -- ./inp_files/1970.got.cif
#   From: 2010.05.17/outbox.cif.g08.bks.cpg/sg83_1_cif.got.tgz:1970.got - 2010.06.03 18:55:12.
