data_PCOD9543674
_publ_section_title
;
Structure prediction by ZEFSAII (Michael W. Deem and Ramdas Pophale) SiO2 
 PCOD9543674
Probable space group: P 4/M
;
_chemical_formula_sum "Si O2"
_cell_formula_units_Z 48
_cell_length_a 9.698329
_cell_length_b 9.698329
_cell_length_c 27.154561
_cell_angle_alpha 90.000000
_cell_angle_beta 90.000000
_cell_angle_gamma 90.000000
_cell_volume 2554.092440
_symmetry_space_group_name_H-M "P 4/M"
_symmetry_group_IT_number 83
_symmetry_cell_setting 'tetragonal'
loop_
_space_group_symop_operation_xyz
x,y,z
-y,x,z
-x,-y,z
y,-x,z
-x,-y,-z
y,-x,-z
x,y,-z
-y,x,-z
loop_
_atom_site_type_symbol
_atom_site_label
_atom_site_fract_x
_atom_site_fract_y
_atom_site_fract_z
Si Si1 0.141687 0.331267 0.594377
Si Si2 0.622370 0.850229 0.555881
Si Si3 0.601525 0.297284 0.884468
Si Si4 0.700682 0.607206 0.766443
Si Si5 0.107761 0.205280 0.702620
Si Si6 0.099982 0.204496 0.058806
O O1 0.161703 0.495777 0.593690
O O2 0.266951 0.266175 0.564920
O O3 0.133574 0.263012 0.647790
O O4 0.997293 0.308049 0.566702
O O5 0.569197 0.847106 0.500000
O O6 0.678966 0.441015 0.897028
O O7 0.612641 0.281502 0.825468
O O8 0.672484 0.171599 0.912211
O O9 0.554446 0.680741 0.753690
O O10 0.824073 0.685216 0.739519
O O11 0.944235 0.179952 0.708935
O O12 0.939409 0.178216 0.070584
O O13 0.110031 0.225587 0.000000
#
# Coordination Sequence:
#
# PCOD9543674 Si02
#       6
#     8   8   8   8   8   8
#     4  11  23  40  60  88 118 151 189 231 280 337
#     4  11  23  41  63  88 119 153 190 232 280 335
#     4   9  19  37  57  83 116 151 194 242 291 347
#     4   9  21  40  63  86 115 153 193 237 290 349
#     4  11  24  41  59  86 117 151 190 234 286 339
#     4   9  19  35  54  79 116 158 199 245 296 349
#
# _framework density 18.793368000000001
#
# number of rings (size 3 to 8) (size 9 to 14) (size 15 to 20)
#    0.000    2.000    1.667    3.500    2.333    4.000 
#    0.000    9.167    0.000    0.000    0.000    0.000 
#    0.000    0.000    0.000    0.000    0.000    0.000 
#
# Total GULP energy -267954.802834 kJ/mol
# GULP energy per Si atom -5582.391726 kJ/mol
# Density = 1.875059 g / cm^3
# Si number density = 18.793368 Si / 1000 Ang^3
#
#
#
# Elastic Constant Matrix: (Units=GPa)
#
#
# Indices 1 2 3 4 5 6 
#
# 1 -45.2703 108.9373 5.9759 0.0000 0.0000 -4.4356
# 2 108.9373 -45.2703 5.9759 0.0000 0.0000 4.4356
# 3 5.9759 5.9759 15.4307 0.0000 0.0000 0.0000
# 4 0.0000 0.0000 0.0000 18.9091 0.0000 0.0000
# 5 0.0000 0.0000 0.0000 0.0000 18.9091 0.0000
# 6 -4.4356 4.4356 0.0000 0.0000 0.0000 42.4475
#
#
#
# Elastic Compliance Matrix: (Units=1/GPa)
#
#
# Indices 1 2 3 4 5 6 
#
# 1 0.005246 0.011692 -0.006560 0.000000 0.000000 -0.000674
# 2 0.011692 0.005246 -0.006560 0.000000 0.000000 0.000674
# 3 -0.006560 -0.006560 0.069887 0.000000 0.000000 0.000000
# 4 0.000000 0.000000 0.000000 0.052885 0.000000 0.000000
# 5 0.000000 0.000000 0.000000 0.000000 0.052885 0.000000
# 6 -0.000674 0.000674 0.000000 0.000000 0.000000 0.023418
#
#
# Mechanical properties :
#
#
# Convention : Reuss Voigt Hill
#
# Bulk Modulus (GPa) = 12.89919 18.51869 15.70894
# Shear Modulus (GPa) = 20.98533 2.98653 11.98593
#
# Velocity S-wave (km/s) = 3.34523 1.26198 2.52816
# Velocity P-wave (km/s) = 4.66898 3.46391 4.11084
#
# Compressibility (1/GPa) = 0.07752425
#
# Stress axis : x y z
#
# Youngs Moduli (GPa) = 190.61932 190.61932 14.30888
#
# Poissons Ratio (x) = -2.22873 0.09386
# Poissons Ratio (y) = -2.22873 0.09386
# Poissons Ratio (z) = 1.25040 1.25040
#
# Static dielectric constant tensor:
#      x y z
#    x 1.641780 0.000000 0.000000 
#    y 0.000000 1.641780 0.000000 
#    z 0.000000 0.000000 1.625100 
# 
# From -- ./inp_files/3421.got.cif
#   From: 2010.05.17/outbox.cif.g08.bks.cpg/sg83_2_cif.got.tgz:3421.got - 2010.06.03 18:55:12.
