data_PCOD9543096
_publ_section_title
;
Structure prediction by ZEFSAII (Michael W. Deem and Ramdas Pophale) SiO2 
 PCOD9543096
Probable space group: I -4 
;
_chemical_formula_sum "Si O2"
_cell_formula_units_Z 36
_cell_length_a 13.647266
_cell_length_b 13.647266
_cell_length_c 9.276092
_cell_angle_alpha 90.000000
_cell_angle_beta 90.000000
_cell_angle_gamma 90.000000
_cell_volume 1727.652370
_symmetry_space_group_name_H-M "I -4 "
_symmetry_group_IT_number 82
_symmetry_cell_setting 'tetragonal'
loop_
_space_group_symop_operation_xyz
x,y,z
y,-x,-z
-x,-y,z
-y,x,-z
1/2+x,1/2+y,1/2+z
1/2+y,1/2-x,1/2-z
1/2-x,1/2-y,1/2+z
1/2-y,1/2+x,1/2-z
loop_
_atom_site_type_symbol
_atom_site_label
_atom_site_fract_x
_atom_site_fract_y
_atom_site_fract_z
Si Si1 0.148600 0.059553 0.981254
Si Si2 0.866677 0.184495 0.579873
Si Si3 0.286775 0.293175 0.244707
Si Si4 0.000000 0.000000 0.500000
Si Si5 0.998681 0.292102 0.779138
Si Si6 0.000000 0.500000 0.750000
O O1 0.194125 0.110921 0.842580
O O2 0.224357 0.056514 0.109257
O O3 0.052443 0.115867 0.036972
O O4 0.774244 0.200176 0.688959
O O5 0.825104 0.212441 0.421914
O O6 0.948163 0.264315 0.628313
O O7 0.925903 0.079410 0.577675
O O8 0.387354 0.232580 0.269100
O O9 0.984133 0.401227 0.834535
#
# Coordination Sequence:
#
# PCOD9543096 Si02
#       6
#     8   8   8   2   8   2
#     4   9  21  38  68 107 143 179 234 305 371 437
#     4  12  25  44  70 110 141 198 244 313 374 445
#     4  11  24  42  69 104 147 183 238 307 375 442
#     4  12  28  44  80 106 156 192 268 310 368 460
#     4  11  23  42  71  94 136 192 240 297 366 452
#     4  12  24  44  64  90 132 204 236 286 376 456
#
# _framework density 20.837524999999999
#
# number of rings (size 3 to 8) (size 9 to 14) (size 15 to 20)
#    0.000    1.111    4.444    1.333    3.111    0.000 
#    0.000    0.000    0.000    2.667    0.000    0.000 
#    0.000    0.000    0.000    0.000    0.000    0.000 
#
# Total GULP energy -100366.074820 kJ/mol
# GULP energy per Si atom -5575.893046 kJ/mol
# Density = 2.079010 g / cm^3
# Si number density = 20.837525 Si / 1000 Ang^3
#
#
#
# Elastic Constant Matrix: (Units=GPa)
#
#
# Indices 1 2 3 4 5 6 
#
# 1 86.1246 61.9674 56.7189 0.0000 0.0000 23.5897
# 2 61.9674 86.1246 56.7189 0.0000 0.0000 -23.5897
# 3 56.7189 56.7189 109.6090 0.0000 0.0000 0.0000
# 4 0.0000 0.0000 0.0000 17.1689 0.0000 0.0000
# 5 0.0000 0.0000 0.0000 0.0000 17.1689 0.0000
# 6 23.5897 -23.5897 0.0000 0.0000 0.0000 25.9895
#
#
#
# Elastic Compliance Matrix: (Units=1/GPa)
#
#
# Indices 1 2 3 4 5 6 
#
# 1 -0.021194 0.032380 -0.005789 0.000000 0.000000 0.048627
# 2 0.032380 -0.021194 -0.005789 0.000000 0.000000 -0.048627
# 3 -0.005789 -0.005789 0.015114 0.000000 0.000000 0.000000
# 4 0.000000 0.000000 0.000000 0.058245 0.000000 0.000000
# 5 0.000000 0.000000 0.000000 0.000000 0.058245 0.000000
# 6 0.048627 -0.048627 0.000000 0.000000 0.000000 -0.049797
#
#
# Mechanical properties :
#
#
# Convention : Reuss Voigt Hill
#
# Bulk Modulus (GPa) = 69.77028 70.29650 70.03339
# Shear Modulus (GPa) = 1929.19581 19.16232 974.17907
#
# Velocity S-wave (km/s) = 30.46043 3.03579 21.64548
# Velocity P-wave (km/s) = 35.64649 6.78946 25.65901
#
# Compressibility (1/GPa) = 0.01433275
#
# Stress axis : x y z
#
# Youngs Moduli (GPa) = -47.18399 -47.18399 66.16261
#
# Poissons Ratio (x) = 1.52783 0.38300
# Poissons Ratio (y) = 1.52783 0.38300
# Poissons Ratio (z) = -0.27314 -0.27314
#
# Static dielectric constant tensor:
#      x y z
#    x 1.797590 0.000000 0.000000 
#    y 0.000000 1.797590 0.000000 
#    z 0.000000 0.000000 1.762870 
# 
# From -- ./inp_files/898.got.cif
#   From: 2010.05.17/outbox.cif.g08.bks.cpg/sg82_1_cif.got.tgz:898.got - 2010.06.03 18:52:26.
