data_PCOD9543312
_publ_section_title
;
Structure prediction by ZEFSAII (Michael W. Deem and Ramdas Pophale) SiO2 
 PCOD9543312
Probable space group: P 4/M
;
_chemical_formula_sum "Si O2"
_cell_formula_units_Z 40
_cell_length_a 14.861690
_cell_length_b 14.861690
_cell_length_c 9.602247
_cell_angle_alpha 90.000000
_cell_angle_beta 90.000000
_cell_angle_gamma 90.000000
_cell_volume 2120.846659
_symmetry_space_group_name_H-M "P 4/M"
_symmetry_group_IT_number 83
_symmetry_cell_setting 'tetragonal'
loop_
_space_group_symop_operation_xyz
x,y,z
-y,x,z
-x,-y,z
y,-x,z
-x,-y,-z
y,-x,-z
x,y,-z
-y,x,-z
loop_
_atom_site_type_symbol
_atom_site_label
_atom_site_fract_x
_atom_site_fract_y
_atom_site_fract_z
Si Si1 0.218969 0.654699 0.842678
Si Si2 0.509542 0.893412 0.333037
Si Si3 0.811827 0.079760 0.656770
Si Si4 0.808094 0.929439 0.843698
Si Si5 0.337432 0.767696 0.344350
O O1 0.160484 0.585161 0.752095
O O2 0.154055 0.741228 0.856098
O O3 0.307885 0.690212 0.762784
O O4 0.237426 0.621890 0.000000
O O5 0.528197 0.891492 0.500000
O O6 0.419381 0.834393 0.308069
O O7 0.500000 0.000000 0.295320
O O8 0.832777 0.049140 0.500000
O O9 0.896348 0.108333 0.750801
O O10 0.748133 0.165911 0.645655
O O11 0.762296 0.004988 0.748557
O O12 0.830058 0.960585 0.000000
O O13 0.354170 0.730567 0.500000
#
# Coordination Sequence:
#
# PCOD9543312 Si02
#       5
#     8   8   8   8   8
#     4  10  21  35  53  78 109 144 177 216 270 329
#     4  10  20  35  58  87 115 144 184 232 277 325
#     4  10  19  32  50  70  93 127 173 217 257 306
#     4  10  20  33  47  67  98 133 168 209 261 315
#     4   9  19  35  55  78 106 141 177 219 271 324
#
# _framework density 18.860392999999998
#
# number of rings (size 3 to 8) (size 9 to 14) (size 15 to 20)
#    0.000    2.200    0.000    3.000    0.000    6.400 
#    0.000    2.000    0.000    0.600    0.000    4.200 
#    0.000    0.000    0.000    0.000    0.000    0.000 
#
# Total GULP energy -222721.096812 kJ/mol
# GULP energy per Si atom -5568.027420 kJ/mol
# Density = 1.881747 g / cm^3
# Si number density = 18.860393 Si / 1000 Ang^3
#
#
#
# Elastic Constant Matrix: (Units=GPa)
#
#
# Indices 1 2 3 4 5 6 
#
# 1 72.2689 20.7065 57.5193 0.0000 0.0000 -0.5127
# 2 20.7065 72.2689 57.5193 0.0000 0.0000 0.5127
# 3 57.5193 57.5193 155.1974 0.0000 0.0000 0.0000
# 4 0.0000 0.0000 0.0000 14.3700 0.0000 0.0000
# 5 0.0000 0.0000 0.0000 0.0000 14.3700 0.0000
# 6 -0.5127 0.5127 0.0000 0.0000 0.0000 25.1227
#
#
#
# Elastic Compliance Matrix: (Units=1/GPa)
#
#
# Indices 1 2 3 4 5 6 
#
# 1 0.019633 0.000232 -0.007362 0.000000 0.000000 0.000396
# 2 0.000232 0.019633 -0.007362 0.000000 0.000000 -0.000396
# 3 -0.007362 -0.007362 0.011901 0.000000 0.000000 0.000000
# 4 0.000000 0.000000 0.000000 0.069589 0.000000 0.000000
# 5 0.000000 0.000000 0.000000 0.000000 0.069589 0.000000
# 6 0.000396 -0.000396 0.000000 0.000000 0.000000 0.039821
#
#
# Mechanical properties :
#
#
# Convention : Reuss Voigt Hill
#
# Bulk Modulus (GPa) = 45.08315 63.46946 54.27630
# Shear Modulus (GPa) = 18.75840 21.70522 20.23181
#
# Velocity S-wave (km/s) = 3.15714 3.39608 3.27879
# Velocity P-wave (km/s) = 6.10291 7.00736 6.57072
#
# Compressibility (1/GPa) = 0.02218124
#
# Stress axis : x y z
#
# Youngs Moduli (GPa) = 50.93353 50.93353 84.02876
#
# Poissons Ratio (x) = -0.01180 0.61865
# Poissons Ratio (y) = -0.01180 0.61865
# Poissons Ratio (z) = 0.37499 0.37499
#
# Static dielectric constant tensor:
#      x y z
#    x 1.697150 0.000000 0.000000 
#    y 0.000000 1.697150 0.000000 
#    z 0.000000 0.000000 1.711120 
# 
# From -- ./inp_files/682.got.cif
#   From: 2010.05.17/outbox.cif.g08.bks.cpg/sg83_1_cif.got.tgz:682.got - 2010.06.03 18:55:12.
