data_PCOD9543461
_publ_section_title
;
Structure prediction by ZEFSAII (Michael W. Deem and Ramdas Pophale) SiO2 
 PCOD9543461
Probable space group: P 4/M
;
_chemical_formula_sum "Si O2"
_cell_formula_units_Z 36
_cell_length_a 14.721501
_cell_length_b 14.721501
_cell_length_c 8.206414
_cell_angle_alpha 90.000000
_cell_angle_beta 90.000000
_cell_angle_gamma 90.000000
_cell_volume 1778.515311
_symmetry_space_group_name_H-M "P 4/M"
_symmetry_group_IT_number 83
_symmetry_cell_setting 'tetragonal'
loop_
_space_group_symop_operation_xyz
x,y,z
-y,x,z
-x,-y,z
y,-x,z
-x,-y,-z
y,-x,-z
x,y,-z
-y,x,-z
loop_
_atom_site_type_symbol
_atom_site_label
_atom_site_fract_x
_atom_site_fract_y
_atom_site_fract_z
Si Si1 0.939777 0.749665 0.316785
Si Si2 0.132623 0.785877 0.183392
Si Si3 0.448484 0.908272 0.194747
Si Si4 0.242856 0.599359 0.190932
Si Si5 0.422102 0.369000 0.500000
O O1 0.975037 0.747459 0.500000
O O2 0.860404 0.822773 0.298402
O O3 0.901979 0.650319 0.272598
O O4 0.025749 0.773576 0.206278
O O5 0.179796 0.688304 0.205123
O O6 0.153321 0.816666 0.000000
O O7 0.512355 0.821573 0.222444
O O8 0.500000 0.000000 0.251193
O O9 0.436082 0.917085 0.000000
O O10 0.317179 0.604154 0.333116
O O11 0.274903 0.595207 0.000000
O O12 0.530990 0.379736 0.500000
#
# Coordination Sequence:
#
# PCOD9543461 Si02
#       5
#     8   8   8   8   4
#     4  12  26  40  65 100 134 173 219 279 335 400
#     4  11  24  45  66  93 133 178 224 271 332 402
#     4  10  20  39  64  95 130 166 214 271 333 394
#     4  10  24  42  70 101 132 173 228 283 333 402
#     4  11  28  48  67  94 138 181 222 275 341 412
#
# _framework density 20.241603000000001
#
# number of rings (size 3 to 8) (size 9 to 14) (size 15 to 20)
#    0.000    1.222    2.222    2.667    7.778    1.778 
#    0.000    3.333    0.000    0.000    0.000    0.000 
#    0.000    0.000    0.000    0.000    0.000    0.000 
#
# Total GULP energy -201254.754536 kJ/mol
# GULP energy per Si atom -5590.409848 kJ/mol
# Density = 2.019553 g / cm^3
# Si number density = 20.241603 Si / 1000 Ang^3
#
#
#
# Elastic Constant Matrix: (Units=GPa)
#
#
# Indices 1 2 3 4 5 6 
#
# 1 59.3098 31.7872 23.2465 0.0000 0.0000 -12.9673
# 2 31.7872 59.3098 23.2465 0.0000 0.0000 12.9673
# 3 23.2465 23.2465 58.6035 0.0000 0.0000 0.0000
# 4 0.0000 0.0000 0.0000 43.3553 0.0000 0.0000
# 5 0.0000 0.0000 0.0000 0.0000 43.3553 0.0000
# 6 -12.9673 12.9673 0.0000 0.0000 0.0000 22.8689
#
#
#
# Elastic Compliance Matrix: (Units=1/GPa)
#
#
# Indices 1 2 3 4 5 6 
#
# 1 0.045893 -0.032129 -0.005460 0.000000 0.000000 0.044240
# 2 -0.032129 0.045893 -0.005460 0.000000 0.000000 -0.044240
# 3 -0.005460 -0.005460 0.021395 0.000000 0.000000 0.000000
# 4 0.000000 0.000000 0.000000 0.023065 0.000000 0.000000
# 5 0.000000 0.000000 0.000000 0.000000 0.023065 0.000000
# 6 0.044240 -0.044240 0.000000 0.000000 0.000000 0.093898
#
#
# Mechanical properties :
#
#
# Convention : Reuss Voigt Hill
#
# Bulk Modulus (GPa) = 36.92230 37.08707 37.00469
# Shear Modulus (GPa) = 14.35404 28.51210 21.43307
#
# Velocity S-wave (km/s) = 2.66585 3.75719 3.25755
# Velocity P-wave (km/s) = 5.26840 6.09786 5.69825
#
# Compressibility (1/GPa) = 0.02708390
#
# Stress axis : x y z
#
# Youngs Moduli (GPa) = 21.78998 21.78998 46.73925
#
# Poissons Ratio (x) = 0.70009 0.25518
# Poissons Ratio (y) = 0.70009 0.25518
# Poissons Ratio (z) = 0.11897 0.11897
#
# Static dielectric constant tensor:
#      x y z
#    x 1.679130 0.000000 0.000000 
#    y 0.000000 1.679130 0.000000 
#    z 0.000000 0.000000 1.698790 
# 
# From -- ./inp_files/514.got.cif
#   From: 2010.05.17/outbox.cif.g08.bks.cpg/sg83_1_cif.got.tgz:514.got - 2010.06.03 18:55:12.
