data_PCOD9543660
_publ_section_title
;
Structure prediction by ZEFSAII (Michael W. Deem and Ramdas Pophale) SiO2 
 PCOD9543660
Probable space group: P 4/M
;
_chemical_formula_sum "Si O2"
_cell_formula_units_Z 37
_cell_length_a 8.299153
_cell_length_b 8.299153
_cell_length_c 24.068887
_cell_angle_alpha 90.000000
_cell_angle_beta 90.000000
_cell_angle_gamma 90.000000
_cell_volume 1657.767229
_symmetry_space_group_name_H-M "P 4/M"
_symmetry_group_IT_number 83
_symmetry_cell_setting 'tetragonal'
loop_
_space_group_symop_operation_xyz
x,y,z
-y,x,z
-x,-y,z
y,-x,z
-x,-y,-z
y,-x,-z
x,y,-z
-y,x,-z
loop_
_atom_site_type_symbol
_atom_site_label
_atom_site_fract_x
_atom_site_fract_y
_atom_site_fract_z
Si Si1 0.581567 0.758195 0.165234
Si Si2 0.257465 0.630356 0.618914
Si Si3 0.160922 0.601273 0.500000
Si Si4 0.500000 0.500000 0.500000
Si Si5 0.098711 0.748124 0.730152
Si Si6 0.087215 0.742042 0.062366
O O1 0.400362 0.694702 0.164880
O O2 0.628200 0.853025 0.220722
O O3 0.624134 0.860432 0.110898
O O4 0.291735 0.436949 0.620976
O O5 0.174921 0.680961 0.560843
O O6 0.148074 0.675829 0.670872
O O7 0.308066 0.472930 0.500000
O O8 0.000000 0.500000 0.500000
O O9 0.913303 0.798889 0.735171
O O10 0.904085 0.804335 0.067405
O O11 0.110623 0.676220 0.000000
#
# Coordination Sequence:
#
# PCOD9543660 Si02
#       6
#     8   8   4   1   8   8
#     4  11  24  41  60  88 124 165 214 267 324 391
#     4  11  22  42  67  96 131 169 216 269 324 396
#     4  12  24  40  74 102 134 186 224 274 348 406
#     4  12  20  52  60 104 148 172 236 284 326 432
#     4  11  26  43  62  92 128 166 215 275 333 399
#     4   9  19  37  62  91 124 163 208 260 319 384
#
# _framework density 22.319178000000001
#
# number of rings (size 3 to 8) (size 9 to 14) (size 15 to 20)
#    0.000    1.297    2.162    3.243    3.027    9.514 
#    0.000    3.243    0.000    1.622    0.000    0.000 
#    0.000    0.000    0.000    0.000    0.000    0.000 
#
# Total GULP energy -206842.810451 kJ/mol
# GULP energy per Si atom -5590.346228 kJ/mol
# Density = 2.226838 g / cm^3
# Si number density = 22.319178 Si / 1000 Ang^3
#
#
#
# Elastic Constant Matrix: (Units=GPa)
#
#
# Indices 1 2 3 4 5 6 
#
# 1 73.9555 37.3473 44.5991 0.0000 0.0000 1.9140
# 2 37.3473 73.9555 44.5991 0.0000 0.0000 -1.9140
# 3 44.5991 44.5991 187.6817 0.0000 0.0000 0.0000
# 4 0.0000 0.0000 0.0000 322.3820 0.0000 0.0000
# 5 0.0000 0.0000 0.0000 0.0000 322.3820 0.0000
# 6 1.9140 -1.9140 0.0000 0.0000 0.0000 35.8454
#
#
#
# Elastic Compliance Matrix: (Units=1/GPa)
#
#
# Indices 1 2 3 4 5 6 
#
# 1 0.019284 -0.008186 -0.002637 0.000000 0.000000 -0.001467
# 2 -0.008186 0.019284 -0.002637 0.000000 0.000000 0.001467
# 3 -0.002637 -0.002637 0.006582 0.000000 0.000000 0.000000
# 4 0.000000 0.000000 0.000000 0.003102 0.000000 0.000000
# 5 0.000000 0.000000 0.000000 0.000000 0.003102 0.000000
# 6 -0.001467 0.001467 0.000000 0.000000 0.000000 0.028054
#
#
# Mechanical properties :
#
#
# Convention : Reuss Voigt Hill
#
# Bulk Modulus (GPa) = 54.85886 65.40929 60.13407
# Shear Modulus (GPa) = 44.48239 150.05837 97.27038
#
# Velocity S-wave (km/s) = 4.46916 8.20846 6.60879
# Velocity P-wave (km/s) = 7.15987 10.91826 9.23234
#
# Compressibility (1/GPa) = 0.01822860
#
# Stress axis : x y z
#
# Youngs Moduli (GPa) = 51.85693 51.85693 151.93984
#
# Poissons Ratio (x) = 0.42449 0.40070
# Poissons Ratio (y) = 0.42449 0.40070
# Poissons Ratio (z) = 0.13676 0.13676
#
# Static dielectric constant tensor:
#      x y z
#    x 1.846120 0.000000 0.000000 
#    y 0.000000 1.846120 0.000000 
#    z 0.000000 0.000000 1.832390 
# 
# From -- ./inp_files/3131.got.cif
#   From: 2010.05.17/outbox.cif.g08.bks.cpg/sg83_2_cif.got.tgz:3131.got - 2010.06.03 18:55:12.
