data_PCOD9543336
_publ_section_title
;
Structure prediction by ZEFSAII (Michael W. Deem and Ramdas Pophale) SiO2 
 PCOD9543336
Probable space group: P 4/M
;
_chemical_formula_sum "Si O2"
_cell_formula_units_Z 40
_cell_length_a 12.386868
_cell_length_b 12.386868
_cell_length_c 13.164364
_cell_angle_alpha 90.000000
_cell_angle_beta 90.000000
_cell_angle_gamma 90.000000
_cell_volume 2019.867593
_symmetry_space_group_name_H-M "P 4/M"
_symmetry_group_IT_number 83
_symmetry_cell_setting 'tetragonal'
loop_
_space_group_symop_operation_xyz
x,y,z
-y,x,z
-x,-y,z
y,-x,z
-x,-y,-z
y,-x,-z
x,y,-z
-y,x,-z
loop_
_atom_site_type_symbol
_atom_site_label
_atom_site_fract_x
_atom_site_fract_y
_atom_site_fract_z
Si Si1 0.255246 0.006608 0.387424
Si Si2 0.360384 0.793296 0.693770
Si Si3 0.973992 0.170604 0.169134
Si Si4 0.941112 0.610475 0.116644
Si Si5 0.396091 0.216563 0.381980
O O1 0.207811 0.019483 0.500000
O O2 0.178984 0.029119 0.291731
O O3 0.351808 0.093842 0.377634
O O4 0.302695 0.886908 0.372793
O O5 0.364886 0.844366 0.806104
O O6 0.481802 0.776631 0.655465
O O7 0.290321 0.685753 0.682115
O O8 0.088048 0.118030 0.137117
O O9 0.974212 0.291200 0.128004
O O10 0.000000 0.500000 0.147084
O O11 0.906563 0.601666 0.000000
O O12 0.389429 0.250678 0.500000
#
# Coordination Sequence:
#
# PCOD9543336 Si02
#       5
#     8   8   8   8   8
#     4  10  19  33  54  80 113 152 192 231 276 336
#     4  11  22  38  57  83 116 149 187 236 284 333
#     4  10  21  36  55  83 118 150 182 228 286 344
#     4  10  22  40  61  83 108 146 197 244 284 329
#     4  11  22  36  58  86 116 152 190 229 278 338
#
# _framework density 19.803277999999999
#
# number of rings (size 3 to 8) (size 9 to 14) (size 15 to 20)
#    0.000    1.600    0.000    7.200    0.000    5.200 
#    0.000    6.000    0.000    0.000    0.000    1.400 
#    0.000    0.000    0.000    0.000    0.000    0.000 
#
# Total GULP energy -223585.861936 kJ/mol
# GULP energy per Si atom -5589.646548 kJ/mol
# Density = 1.975820 g / cm^3
# Si number density = 19.803278 Si / 1000 Ang^3
#
#
#
# Elastic Constant Matrix: (Units=GPa)
#
#
# Indices 1 2 3 4 5 6 
#
# 1 64.3164 9.0848 -6.2956 0.0000 0.0000 -4.6457
# 2 9.0848 64.3164 -6.2956 0.0000 0.0000 4.6457
# 3 -6.2956 -6.2956 79.0272 0.0000 0.0000 0.0000
# 4 0.0000 0.0000 0.0000 -2.4557 0.0000 0.0000
# 5 0.0000 0.0000 0.0000 0.0000 -2.4557 0.0000
# 6 -4.6457 4.6457 0.0000 0.0000 0.0000 19.8555
#
#
#
# Elastic Compliance Matrix: (Units=1/GPa)
#
#
# Indices 1 2 3 4 5 6 
#
# 1 0.016330 -0.002517 0.001100 0.000000 0.000000 0.004410
# 2 -0.002517 0.016330 0.001100 0.000000 0.000000 -0.004410
# 3 0.001100 0.001100 0.012829 0.000000 0.000000 0.000000
# 4 0.000000 0.000000 0.000000 -0.407216 0.000000 0.000000
# 5 0.000000 0.000000 0.000000 0.000000 -0.407216 0.000000
# 6 0.004410 -0.004410 0.000000 0.000000 0.000000 0.052427
#
#
# Mechanical properties :
#
#
# Convention : Reuss Voigt Hill
#
# Bulk Modulus (GPa) = 22.29377 22.29416 22.29397
# Shear Modulus (GPa) = -7.13338 17.06658 4.96660
#
# Velocity S-wave (km/s) = -1.89998 2.93884 1.58538
# Velocity P-wave (km/s) = 2.54338 4.77472 3.82536
#
# Compressibility (1/GPa) = 0.04485558
#
# Stress axis : x y z
#
# Youngs Moduli (GPa) = 61.23713 61.23713 77.94727
#
# Poissons Ratio (x) = 0.15416 -0.08577
# Poissons Ratio (y) = 0.15416 -0.08577
# Poissons Ratio (z) = -0.06738 -0.06738
#
# Static dielectric constant tensor:
#      x y z
#    x 1.683830 0.000000 0.000000 
#    y 0.000000 1.683830 0.000000 
#    z 0.000000 0.000000 1.728930 
# 
# From -- ./inp_files/2269.got.cif
#   From: 2010.05.17/outbox.cif.g08.bks.cpg/sg83_2_cif.got.tgz:2269.got - 2010.06.03 18:55:12.
