data_PCOD9543219
_publ_section_title
;
Structure prediction by ZEFSAII (Michael W. Deem and Ramdas Pophale) SiO2 
 PCOD9543219
Probable space group: I -4 
;
_chemical_formula_sum "Si O2"
_cell_formula_units_Z 20
_cell_length_a 9.000000
_cell_length_b 9.000000
_cell_length_c 24.000000
_cell_angle_alpha 90.000000
_cell_angle_beta 90.000000
_cell_angle_gamma 90.000000
_cell_volume 1944.000000
_symmetry_space_group_name_H-M "I -4 "
_symmetry_group_IT_number 82
_symmetry_cell_setting 'tetragonal'
loop_
_space_group_symop_operation_xyz
x,y,z
y,-x,-z
-x,-y,z
-y,x,-z
1/2+x,1/2+y,1/2+z
1/2+y,1/2-x,1/2-z
1/2-x,1/2-y,1/2+z
1/2-y,1/2+x,1/2-z
loop_
_atom_site_type_symbol
_atom_site_label
_atom_site_fract_x
_atom_site_fract_y
_atom_site_fract_z
Si Si1 0.451934 0.671302 0.196941
Si Si2 0.730761 0.601550 0.998801
Si Si3 0.749055 0.171335 0.111016
Si Si4 0.666062 0.054348 0.897471
Si Si5 0.745652 0.862765 0.177660
O O1 0.500000 0.500000 0.188693
O O2 0.314811 0.715682 0.157574
O O3 0.584906 0.785061 0.181665
O O4 0.411369 0.701369 0.261101
O O5 0.834159 0.649887 0.050162
O O6 0.689101 0.426906 0.001141
O O7 0.815165 0.641953 0.942049
O O8 0.911580 0.228545 0.092617
O O9 0.748458 0.008034 0.138196
O O10 0.741016 0.144015 0.847491
O O11 0.500000 0.000000 0.884492
#
# Coordination Sequence:
#
# PCOD9543219 Si02
#       5
#     8   8   8   8   8
#     4  12  26  48  76 112 150 202 252 310 385 468
#     4  11  26  48  76 110 150 201 253 307 383 460
#     4  12  26  46  77 110 153 199 251 321 379 454
#     4  12  26  49  72 114 151 198 254 316 384 453
#     4  12  27  49  76 111 154 199 255 312 388 463
#
# _framework density 10.288066000000001
#
# number of rings (size 3 to 8) (size 9 to 14) (size 15 to 20)
#    0.000    0.200    4.000    4.800    5.600    1.600 
#    0.000    0.000    0.000    0.000    0.000    0.000 
#    0.000    0.000    0.000    0.000    0.000    0.000 
#
# Total GULP energy -112047.675904 kJ/mol
# GULP energy per Si atom -5602.383795 kJ/mol
# Density = 1.026465 g / cm^3
# Si number density = 10.288066 Si / 1000 Ang^3
#
#
#
# Elastic Constant Matrix: (Units=GPa)
#
#
# Indices 1 2 3 4 5 6 
#
# 1 131.5241 43.3696 54.2346 0.0000 0.0000 7.5807
# 2 43.3696 131.5241 54.2346 0.0000 0.0000 -7.5807
# 3 54.2346 54.2346 83.2933 0.0000 0.0000 0.0000
# 4 0.0000 0.0000 0.0000 40.7461 0.0000 0.0000
# 5 0.0000 0.0000 0.0000 0.0000 40.7461 0.0000
# 6 7.5807 -7.5807 0.0000 0.0000 0.0000 43.3334
#
#
#
# Elastic Compliance Matrix: (Units=1/GPa)
#
#
# Indices 1 2 3 4 5 6 
#
# 1 0.010643 -0.001052 -0.006245 0.000000 0.000000 -0.002046
# 2 -0.001052 0.010643 -0.006245 0.000000 0.000000 0.002046
# 3 -0.006245 -0.006245 0.020138 0.000000 0.000000 0.000000
# 4 0.000000 0.000000 0.000000 0.024542 0.000000 0.000000
# 5 0.000000 0.000000 0.000000 0.000000 0.024542 0.000000
# 6 -0.002046 0.002046 0.000000 0.000000 0.000000 0.023793
#
#
# Mechanical properties :
#
#
# Convention : Reuss Voigt Hill
#
# Bulk Modulus (GPa) = 69.73309 72.22434 70.97871
# Shear Modulus (GPa) = 34.20765 37.93195 36.06980
#
# Velocity S-wave (km/s) = 4.08179 4.29825 4.19142
# Velocity P-wave (km/s) = 7.49523 7.73372 7.61541
#
# Compressibility (1/GPa) = 0.01434040
#
# Stress axis : x y z
#
# Youngs Moduli (GPa) = 93.95655 93.95655 49.65700
#
# Poissons Ratio (x) = 0.09888 0.31010
# Poissons Ratio (y) = 0.09888 0.31010
# Poissons Ratio (z) = 0.58674 0.58674
#
# Static dielectric constant tensor:
#      x y z
#    x 1.730000 0.000000 0.000000 
#    y 0.000000 1.730000 0.000000 
#    z 0.000000 0.000000 1.706390 
# 
# From -- ./inp_files/3333.got.cif
#   From: 2010.05.17/outbox.ucp.g08.bks.cvg/sg82_2_cif.got.tgz:3333.got - 2010.06.11 10:34:38.
