data_PCOD9543562
_publ_section_title
;
Structure prediction by ZEFSAII (Michael W. Deem and Ramdas Pophale) SiO2 
 PCOD9543562
Probable space group: P 4/M
;
_chemical_formula_sum "Si O2"
_cell_formula_units_Z 40
_cell_length_a 13.983277
_cell_length_b 13.983277
_cell_length_c 10.247388
_cell_angle_alpha 90.000000
_cell_angle_beta 90.000000
_cell_angle_gamma 90.000000
_cell_volume 2003.692636
_symmetry_space_group_name_H-M "P 4/M"
_symmetry_group_IT_number 83
_symmetry_cell_setting 'tetragonal'
loop_
_space_group_symop_operation_xyz
x,y,z
-y,x,z
-x,-y,z
y,-x,z
-x,-y,-z
y,-x,-z
x,y,-z
-y,x,-z
loop_
_atom_site_type_symbol
_atom_site_label
_atom_site_fract_x
_atom_site_fract_y
_atom_site_fract_z
Si Si1 0.406758 0.628121 0.500000
Si Si2 0.158596 0.030372 0.147672
Si Si3 0.858736 0.275884 0.656332
Si Si4 0.345230 0.747478 0.747890
Si Si5 0.598725 0.371256 0.000000
Si Si6 0.886742 0.499230 0.346185
O O1 0.371740 0.520371 0.500000
O O2 0.370834 0.679937 0.627057
O O3 0.233508 0.052929 0.261689
O O4 0.072003 0.106992 0.158331
O O5 0.199298 0.038456 0.000000
O O6 0.865341 0.258670 0.500000
O O7 0.764679 0.227873 0.719654
O O8 0.851532 0.390622 0.675304
O O9 0.420950 0.833601 0.738752
O O10 0.361373 0.685243 0.875999
O O11 0.629015 0.482694 0.000000
O O12 0.870390 0.522390 0.500000
O O13 0.000000 0.500000 0.324041
#
# Coordination Sequence:
#
# PCOD9543562 Si02
#       6
#     4   8   8   8   4   8
#     4  11  20  34  61  86 112 151 209 262 302 360
#     4   9  21  43  68  92 124 163 209 261 321 384
#     4  11  23  38  65  95 124 165 213 261 316 376
#     4  12  23  40  61  86 125 165 212 255 313 380
#     4  11  24  40  61  90 126 161 205 264 320 368
#     4  10  22  41  62  89 128 165 203 260 323 380
#
# _framework density 19.963142000000001
#
# number of rings (size 3 to 8) (size 9 to 14) (size 15 to 20)
#    0.000    1.400    2.000    4.200    4.200    2.400 
#    1.800    1.500    0.000    0.000    0.000    0.000 
#    0.000    0.000    0.000    0.000    0.000    0.000 
#
# Total GULP energy -223530.334980 kJ/mol
# GULP energy per Si atom -5588.258374 kJ/mol
# Density = 1.991771 g / cm^3
# Si number density = 19.963142 Si / 1000 Ang^3
#
#
#
# Elastic Constant Matrix: (Units=GPa)
#
#
# Indices 1 2 3 4 5 6 
#
# 1 67.1636 3.9363 28.0723 0.0000 0.0000 0.0723
# 2 3.9363 67.1636 28.0723 0.0000 0.0000 -0.0723
# 3 28.0723 28.0723 122.0699 0.0000 0.0000 0.0000
# 4 0.0000 0.0000 0.0000 28.0621 0.0000 0.0000
# 5 0.0000 0.0000 0.0000 0.0000 28.0621 0.0000
# 6 0.0723 -0.0723 0.0000 0.0000 0.0000 39.3304
#
#
#
# Elastic Compliance Matrix: (Units=1/GPa)
#
#
# Indices 1 2 3 4 5 6 
#
# 1 0.016501 0.000685 -0.003952 0.000000 0.000000 -0.000029
# 2 0.000685 0.016501 -0.003952 0.000000 0.000000 0.000029
# 3 -0.003952 -0.003952 0.010010 0.000000 0.000000 0.000000
# 4 0.000000 0.000000 0.000000 0.035635 0.000000 0.000000
# 5 0.000000 0.000000 0.000000 0.000000 0.035635 0.000000
# 6 -0.000029 0.000029 0.000000 0.000000 0.000000 0.025426
#
#
# Mechanical properties :
#
#
# Convention : Reuss Voigt Hill
#
# Bulk Modulus (GPa) = 34.99892 41.83989 38.41940
# Shear Modulus (GPa) = 30.54913 32.17867 31.36390
#
# Velocity S-wave (km/s) = 3.91612 4.01921 3.96800
# Velocity P-wave (km/s) = 6.16586 6.52248 6.34668
#
# Compressibility (1/GPa) = 0.02857231
#
# Stress axis : x y z
#
# Youngs Moduli (GPa) = 60.60311 60.60311 99.90238
#
# Poissons Ratio (x) = -0.04150 0.39483
# Poissons Ratio (y) = -0.04150 0.39483
# Poissons Ratio (z) = 0.23951 0.23951
#
# Static dielectric constant tensor:
#      x y z
#    x 1.731750 0.000000 0.000000 
#    y 0.000000 1.731750 0.000000 
#    z 0.000000 0.000000 1.670280 
# 
# From -- ./inp_files/715.got.cif
#   From: 2010.05.17/outbox.cif.g08.bks.cpg/sg83_1_cif.got.tgz:715.got - 2010.06.03 18:55:12.
