data_PCOD9543827
_publ_section_title
;
Structure prediction by ZEFSAII (Michael W. Deem and Ramdas Pophale) SiO2 
 PCOD9543827
Probable space group: P 4/M
;
_chemical_formula_sum "Si O2"
_cell_formula_units_Z 41
_cell_length_a 8.433950
_cell_length_b 8.433950
_cell_length_c 27.467646
_cell_angle_alpha 90.000000
_cell_angle_beta 90.000000
_cell_angle_gamma 90.000000
_cell_volume 1953.815208
_symmetry_space_group_name_H-M "P 4/M"
_symmetry_group_IT_number 83
_symmetry_cell_setting 'tetragonal'
loop_
_space_group_symop_operation_xyz
x,y,z
-y,x,z
-x,-y,z
y,-x,z
-x,-y,-z
y,-x,-z
x,y,-z
-y,x,-z
loop_
_atom_site_type_symbol
_atom_site_label
_atom_site_fract_x
_atom_site_fract_y
_atom_site_fract_z
Si Si1 0.149523 0.613824 0.500000
Si Si2 0.903082 0.243753 0.394898
Si Si3 0.580317 0.244448 0.249939
Si Si4 0.500000 0.000000 0.674239
Si Si5 0.500000 0.500000 0.500000
Si Si6 0.755229 0.579369 0.139774
Si Si7 0.256297 0.922234 0.945755
O O1 0.306037 0.507567 0.500000
O O2 0.000000 0.500000 0.500000
O O3 0.134575 0.712339 0.450446
O O4 0.884955 0.395241 0.360057
O O5 0.802127 0.086586 0.386111
O O6 0.690902 0.399370 0.255050
O O7 0.600448 0.182463 0.194783
O O8 0.603961 0.109455 0.289804
O O9 0.599113 0.690388 0.135323
O O10 0.873876 0.629184 0.097629
O O11 0.100343 0.810348 0.942289
O O12 0.325412 0.899369 0.000000
#
# Coordination Sequence:
#
# PCOD9543827 Si02
#       7
#     4   8   8   4   1   8   8
#     4  12  24  47  68 106 144 176 228 292 321 393
#     4  11  24  42  64  93 134 177 212 269 343 387
#     4   9  20  39  57  81 116 155 200 257 315 367
#     4  12  22  37  64  92 119 164 218 262 314 400
#     4  12  28  44  84 112 136 196 256 264 336 448
#     4   9  19  35  55  78 109 147 191 242 298 359
#     4   9  19  35  53  78 112 145 181 230 289 355
#
# _framework density 20.984587000000001
#
# number of rings (size 3 to 8) (size 9 to 14) (size 15 to 20)
#    0.000    1.951    0.976    4.683    0.000    5.463 
#    0.000    2.927    0.000    2.341    0.000    0.000 
#    0.000    0.000    0.000    0.000    0.000    0.000 
#
# Total GULP energy -228848.494332 kJ/mol
# GULP energy per Si atom -5581.670593 kJ/mol
# Density = 2.093682 g / cm^3
# Si number density = 20.984587 Si / 1000 Ang^3
#
#
#
# Elastic Constant Matrix: (Units=GPa)
#
#
# Indices 1 2 3 4 5 6 
#
# 1 48.2763 8.6061 39.2457 0.0000 0.0000 -0.3291
# 2 8.6061 48.2763 39.2457 0.0000 0.0000 0.3291
# 3 39.2457 39.2457 174.0945 0.0000 0.0000 0.0000
# 4 0.0000 0.0000 0.0000 15.5959 0.0000 0.0000
# 5 0.0000 0.0000 0.0000 0.0000 15.5959 0.0000
# 6 -0.3291 0.3291 0.0000 0.0000 0.0000 26.1555
#
#
#
# Elastic Compliance Matrix: (Units=1/GPa)
#
#
# Indices 1 2 3 4 5 6 
#
# 1 0.025365 0.000152 -0.005752 0.000000 0.000000 0.000317
# 2 0.000152 0.025365 -0.005752 0.000000 0.000000 -0.000317
# 3 -0.005752 -0.005752 0.008338 0.000000 0.000000 0.000000
# 4 0.000000 0.000000 0.000000 0.064119 0.000000 0.000000
# 5 0.000000 0.000000 0.000000 0.000000 0.064119 0.000000
# 6 0.000317 -0.000317 0.000000 0.000000 0.000000 0.038241
#
#
# Mechanical properties :
#
#
# Convention : Reuss Voigt Hill
#
# Bulk Modulus (GPa) = 27.50008 49.42688 38.46348
# Shear Modulus (GPa) = 19.20313 23.70611 21.45462
#
# Velocity S-wave (km/s) = 3.02835 3.36473 3.20097
# Velocity P-wave (km/s) = 5.03600 6.22096 5.65957
#
# Compressibility (1/GPa) = 0.03636353
#
# Stress axis : x y z
#
# Youngs Moduli (GPa) = 39.42367 39.42367 119.93976
#
# Poissons Ratio (x) = -0.00601 0.68994
# Poissons Ratio (y) = -0.00601 0.68994
# Poissons Ratio (z) = 0.22678 0.22678
#
# Static dielectric constant tensor:
#      x y z
#    x 1.721810 0.000000 0.000000 
#    y 0.000000 1.721810 0.000000 
#    z 0.000000 0.000000 1.784050 
# 
# From -- ./inp_files/3300.got.cif
#   From: 2010.05.17/outbox.cif.g08.bks.cpg/sg83_2_cif.got.tgz:3300.got - 2010.06.03 18:55:12.
