data_PCOD9543494
_publ_section_title
;
Structure prediction by ZEFSAII (Michael W. Deem and Ramdas Pophale) SiO2 
 PCOD9543494
Probable space group: P 4/M
;
_chemical_formula_sum "Si O2"
_cell_formula_units_Z 32
_cell_length_a 14.127887
_cell_length_b 14.127887
_cell_length_c 8.669979
_cell_angle_alpha 90.000000
_cell_angle_beta 90.000000
_cell_angle_gamma 90.000000
_cell_volume 1730.503455
_symmetry_space_group_name_H-M "P 4/M"
_symmetry_group_IT_number 83
_symmetry_cell_setting 'tetragonal'
loop_
_space_group_symop_operation_xyz
x,y,z
-y,x,z
-x,-y,z
y,-x,z
-x,-y,-z
y,-x,-z
x,y,-z
-y,x,-z
loop_
_atom_site_type_symbol
_atom_site_label
_atom_site_fract_x
_atom_site_fract_y
_atom_site_fract_z
Si Si1 0.127503 0.906278 0.671414
Si Si2 0.757988 0.758622 0.176791
Si Si3 0.092766 0.613432 0.683516
Si Si4 0.597385 0.110155 0.186069
O O1 0.164624 0.878820 0.500000
O O2 0.182613 0.855159 0.805809
O O3 0.018844 0.873551 0.678774
O O4 0.682583 0.821945 0.267858
O O5 0.796098 0.656511 0.232123
O O6 0.726913 0.751520 0.000000
O O7 0.084466 0.610909 0.500000
O O8 0.113242 0.508841 0.749372
O O9 0.989160 0.640452 0.751357
O O10 0.596216 0.105741 0.000000
#
# Coordination Sequence:
#
# PCOD9543494 Si02
#       4
#     8   8   8   8
#     4   9  18  31  46  68 101 138 173 211 255 305
#     4  11  22  34  52  77 104 138 177 218 265 315
#     4  11  22  36  57  82 110 143 179 223 271 320
#     4  10  21  38  58  80 110 144 181 224 267 319
#
# _framework density 18.49173
#
# number of rings (size 3 to 8) (size 9 to 14) (size 15 to 20)
#    0.000    1.750    0.000    7.500    0.000    9.000 
#    0.000    1.250    0.000    0.750    0.000    5.250 
#    0.000    0.000    0.000    0.000    0.000    0.000 
#
# Total GULP energy -178538.665439 kJ/mol
# GULP energy per Si atom -5579.333295 kJ/mol
# Density = 1.844964 g / cm^3
# Si number density = 18.491730 Si / 1000 Ang^3
#
#
#
# Elastic Constant Matrix: (Units=GPa)
#
#
# Indices 1 2 3 4 5 6 
#
# 1 73.5887 44.4863 32.0140 0.0000 0.0000 -0.7976
# 2 44.4863 73.5887 32.0140 0.0000 0.0000 0.7976
# 3 32.0140 32.0140 77.2869 0.0000 0.0000 0.0000
# 4 0.0000 0.0000 0.0000 -33.4683 0.0000 0.0000
# 5 0.0000 0.0000 0.0000 0.0000 -33.4683 0.0000
# 6 -0.7976 0.7976 0.0000 0.0000 0.0000 32.9056
#
#
#
# Elastic Compliance Matrix: (Units=1/GPa)
#
#
# Indices 1 2 3 4 5 6 
#
# 1 0.022665 -0.011742 -0.004524 0.000000 0.000000 0.000834
# 2 -0.011742 0.022665 -0.004524 0.000000 0.000000 -0.000834
# 3 -0.004524 -0.004524 0.016687 0.000000 0.000000 0.000000
# 4 0.000000 0.000000 0.000000 -0.029879 0.000000 0.000000
# 5 0.000000 0.000000 0.000000 0.000000 -0.029879 0.000000
# 6 0.000834 -0.000834 0.000000 0.000000 0.000000 0.030430
#
#
# Mechanical properties :
#
#
# Convention : Reuss Voigt Hill
#
# Bulk Modulus (GPa) = 48.93645 49.05477 48.99561
# Shear Modulus (GPa) = 61.66532 0.92379 31.29456
#
# Velocity S-wave (km/s) = 5.78100 0.70757 4.11829
# Velocity P-wave (km/s) = 8.43097 5.22045 7.01193
#
# Compressibility (1/GPa) = 0.02043467
#
# Stress axis : x y z
#
# Youngs Moduli (GPa) = 44.12114 44.12114 59.92676
#
# Poissons Ratio (x) = 0.51808 0.27113
# Poissons Ratio (y) = 0.51808 0.27113
# Poissons Ratio (z) = 0.19962 0.19962
#
# Static dielectric constant tensor:
#      x y z
#    x 1.658780 0.000000 0.000000 
#    y 0.000000 1.658780 0.000000 
#    z 0.000000 0.000000 1.656980 
# 
# From -- ./inp_files/432.got.cif
#   From: 2010.05.17/outbox.cif.g08.bks.cpg/sg83_1_cif.got.tgz:432.got - 2010.06.03 18:55:12.
