data_PCOD9543777
_publ_section_title
;
Structure prediction by ZEFSAII (Michael W. Deem and Ramdas Pophale) SiO2 
 PCOD9543777
Probable space group: P 4/M
;
_chemical_formula_sum "Si O2"
_cell_formula_units_Z 48
_cell_length_a 8.139561
_cell_length_b 8.139561
_cell_length_c 31.797090
_cell_angle_alpha 90.000000
_cell_angle_beta 90.000000
_cell_angle_gamma 90.000000
_cell_volume 2106.635219
_symmetry_space_group_name_H-M "P 4/M"
_symmetry_group_IT_number 83
_symmetry_cell_setting 'tetragonal'
loop_
_space_group_symop_operation_xyz
x,y,z
-y,x,z
-x,-y,z
y,-x,z
-x,-y,-z
y,-x,-z
x,y,-z
-y,x,-z
loop_
_atom_site_type_symbol
_atom_site_label
_atom_site_fract_x
_atom_site_fract_y
_atom_site_fract_z
Si Si1 0.585161 0.236468 0.418221
Si Si2 0.239167 0.404494 0.255779
Si Si3 0.761083 0.594897 0.838434
Si Si4 0.737521 0.085453 0.337037
Si Si5 0.418811 0.764357 0.000000
Si Si6 0.736425 0.085869 0.500000
Si Si7 0.263149 0.916840 0.080552
O O1 0.699005 0.399606 0.419245
O O2 0.624907 0.139421 0.375746
O O3 0.634671 0.130710 0.458594
O O4 0.407099 0.298166 0.259495
O O5 0.171651 0.379223 0.208676
O O6 0.121409 0.349969 0.292938
O O7 0.593365 0.701591 0.842167
O O8 0.879524 0.648590 0.875528
O O9 0.900054 0.199318 0.339699
O O10 0.302614 0.603148 0.000000
O O11 0.375400 0.865560 0.041558
O O12 0.900013 0.199325 0.500000
O O13 0.101620 0.801592 0.078129
#
# Coordination Sequence:
#
# PCOD9543777 Si02
#       7
#     8   8   8   8   4   4   8
#     4  11  24  41  62  88 116 149 193 239 282 335
#     4   9  19  37  60  85 113 147 190 238 284 334
#     4   9  19  37  60  85 113 147 190 236 280 332
#     4  11  24  39  56  83 118 153 191 236 286 340
#     4  11  24  41  62  86 110 141 186 235 280 332
#     4  11  24  41  62  90 122 153 188 231 280 336
#     4  11  24  39  56  83 118 151 185 228 278 333
#
# _framework density 22.785149000000001
#
# number of rings (size 3 to 8) (size 9 to 14) (size 15 to 20)
#    0.000    1.667    0.000    5.000    0.000   15.333 
#    0.000    5.000    0.000    0.000    0.000    0.000 
#    0.000    0.000    0.000    0.000    0.000    0.000 
#
# Total GULP energy -269217.961007 kJ/mol
# GULP energy per Si atom -5608.707521 kJ/mol
# Density = 2.273329 g / cm^3
# Si number density = 22.785149 Si / 1000 Ang^3
#
#
#
# Elastic Constant Matrix: (Units=GPa)
#
#
# Indices 1 2 3 4 5 6 
#
# 1 93.1093 60.7917 63.0531 0.0000 0.0000 0.0915
# 2 60.7917 93.1093 63.0531 0.0000 0.0000 -0.0915
# 3 63.0531 63.0531 188.0137 0.0000 0.0000 0.0000
# 4 0.0000 0.0000 0.0000 2931.0114 0.0000 0.0000
# 5 0.0000 0.0000 0.0000 0.0000 2931.0114 0.0000
# 6 0.0915 -0.0915 0.0000 0.0000 0.0000 48.4341
#
#
#
# Elastic Compliance Matrix: (Units=1/GPa)
#
#
# Indices 1 2 3 4 5 6 
#
# 1 0.019952 -0.010992 -0.003005 0.000000 0.000000 -0.000058
# 2 -0.010992 0.019952 -0.003005 0.000000 0.000000 0.000058
# 3 -0.003005 -0.003005 0.007334 0.000000 0.000000 0.000000
# 4 0.000000 0.000000 0.000000 0.000341 0.000000 0.000000
# 5 0.000000 0.000000 0.000000 0.000000 0.000341 0.000000
# 6 -0.000058 0.000058 0.000000 0.000000 0.000000 0.020647
#
#
# Mechanical properties :
#
#
# Convention : Reuss Voigt Hill
#
# Bulk Modulus (GPa) = 75.55958 83.11423 79.33691
# Shear Modulus (GPa) = 46.73746 1194.58036 620.65891
#
# Velocity S-wave (km/s) = 4.53396 22.92201 16.52234
# Velocity P-wave (km/s) = 7.78735 27.14985 19.97195
#
# Compressibility (1/GPa) = 0.01323459
#
# Stress axis : x y z
#
# Youngs Moduli (GPa) = 50.12148 50.12148 136.34812
#
# Poissons Ratio (x) = 0.55092 0.40970
# Poissons Ratio (y) = 0.55092 0.40970
# Poissons Ratio (z) = 0.15061 0.15061
#
# Static dielectric constant tensor:
#      x y z
#    x 1.819530 0.000000 0.000000 
#    y 0.000000 1.819530 0.000000 
#    z 0.000000 0.000000 1.778800 
# 
# From -- ./inp_files/3447.got.cif
#   From: 2010.05.17/outbox.cif.g08.bks.cpg/sg83_2_cif.got.tgz:3447.got - 2010.06.03 18:55:12.
