data_PCOD9543573
_publ_section_title
;
Structure prediction by ZEFSAII (Michael W. Deem and Ramdas Pophale) SiO2 
 PCOD9543573
Probable space group: P 4/M
;
_chemical_formula_sum "Si O2"
_cell_formula_units_Z 52
_cell_length_a 14.472340
_cell_length_b 14.472340
_cell_length_c 12.509996
_cell_angle_alpha 90.000000
_cell_angle_beta 90.000000
_cell_angle_gamma 90.000000
_cell_volume 2620.201462
_symmetry_space_group_name_H-M "P 4/M"
_symmetry_group_IT_number 83
_symmetry_cell_setting 'tetragonal'
loop_
_space_group_symop_operation_xyz
x,y,z
-y,x,z
-x,-y,z
y,-x,z
-x,-y,-z
y,-x,-z
x,y,-z
-y,x,-z
loop_
_atom_site_type_symbol
_atom_site_label
_atom_site_fract_x
_atom_site_fract_y
_atom_site_fract_z
Si Si1 0.931759 0.139211 0.876651
Si Si2 0.076959 0.379604 0.624570
Si Si3 0.105639 0.502149 0.170481
Si Si4 0.407297 0.625295 0.807522
Si Si5 0.757853 0.595592 0.000000
Si Si6 0.724180 0.698596 0.620812
Si Si7 0.690130 0.887702 0.270641
O O1 0.898835 0.215464 0.794536
O O2 0.040985 0.119184 0.863049
O O3 0.916917 0.168546 0.000000
O O4 0.067598 0.407875 0.500000
O O5 0.101625 0.460043 0.709067
O O6 0.165186 0.312252 0.631322
O O7 0.982887 0.334249 0.668421
O O8 0.133130 0.608243 0.186479
O O9 0.000000 0.500000 0.130810
O O10 0.171749 0.444533 0.094148
O O11 0.375500 0.518874 0.813180
O O12 0.372131 0.684197 0.906984
O O13 0.369820 0.672800 0.701175
O O14 0.698987 0.675352 0.500000
O O15 0.696790 0.802454 0.649595
#
# Coordination Sequence:
#
# PCOD9543573 Si02
#       7
#     8   8   8   8   4   8   8
#     4   9  19  38  61  89 130 175 216 263 319 388
#     4  10  22  43  63  89 129 172 216 269 333 392
#     4  10  23  39  61  93 130 172 213 265 326 395
#     4  11  25  45  68  94 126 172 221 272 331 391
#     4  12  21  43  64  90 128 166 212 262 326 387
#     4  11  24  42  66  97 129 167 220 279 330 394
#     4  11  22  38  63  97 125 166 221 268 331 392
#
# _framework density 19.845803
#
# number of rings (size 3 to 8) (size 9 to 14) (size 15 to 20)
#    0.000    1.538    1.538    3.462    1.077    4.615 
#    2.769    0.769    0.000    0.000    0.000    6.462 
#    0.000    0.000    0.000    0.000    0.000    0.000 
#
# Total GULP energy -289554.396460 kJ/mol
# GULP energy per Si atom -5568.353778 kJ/mol
# Density = 1.980063 g / cm^3
# Si number density = 19.845803 Si / 1000 Ang^3
#
#
#
# Elastic Constant Matrix: (Units=GPa)
#
#
# Indices 1 2 3 4 5 6 
#
# 1 37.9684 -13.4223 7.8542 0.0000 0.0000 2.8838
# 2 -13.4223 37.9684 7.8542 0.0000 0.0000 -2.8838
# 3 7.8542 7.8542 120.8096 0.0000 0.0000 0.0000
# 4 0.0000 0.0000 0.0000 -13.5168 0.0000 0.0000
# 5 0.0000 0.0000 0.0000 0.0000 -13.5168 0.0000
# 6 2.8838 -2.8838 0.0000 0.0000 0.0000 23.1623
#
#
#
# Elastic Compliance Matrix: (Units=1/GPa)
#
#
# Indices 1 2 3 4 5 6 
#
# 1 0.031121 0.011387 -0.002764 0.000000 0.000000 -0.002457
# 2 0.011387 0.031121 -0.002764 0.000000 0.000000 0.002457
# 3 -0.002764 -0.002764 0.008637 0.000000 0.000000 0.000000
# 4 0.000000 0.000000 0.000000 -0.073982 0.000000 0.000000
# 5 0.000000 0.000000 0.000000 0.000000 -0.073982 0.000000
# 6 -0.002457 0.002457 0.000000 0.000000 0.000000 0.043785
#
#
# Mechanical properties :
#
#
# Convention : Reuss Voigt Hill
#
# Bulk Modulus (GPa) = 12.10666 22.36874 17.23770
# Shear Modulus (GPa) = -285.94999 12.18976 -136.88012
#
# Velocity S-wave (km/s) = -12.01660 2.48104 -8.31394
# Velocity P-wave (km/s) = 13.65350 4.41624 9.13550
#
# Compressibility (1/GPa) = 0.08259916
#
# Stress axis : x y z
#
# Youngs Moduli (GPa) = 32.13217 32.13217 115.78320
#
# Poissons Ratio (x) = -0.36589 0.31998
# Poissons Ratio (y) = -0.36589 0.31998
# Poissons Ratio (z) = 0.08880 0.08880
#
# Static dielectric constant tensor:
#      x y z
#    x 1.717670 0.000000 0.000000 
#    y 0.000000 1.717670 0.000000 
#    z 0.000000 0.000000 1.668090 
# 
# From -- ./inp_files/1938.got.cif
#   From: 2010.05.17/outbox.cif.g08.bks.cpg/sg83_1_cif.got.tgz:1938.got - 2010.06.03 18:55:12.
