data_PCOD9543595
_publ_section_title
;
Structure prediction by ZEFSAII (Michael W. Deem and Ramdas Pophale) SiO2 
 PCOD9543595
Probable space group: P 4/M
;
_chemical_formula_sum "Si O2"
_cell_formula_units_Z 40
_cell_length_a 14.390986
_cell_length_b 14.390986
_cell_length_c 8.806901
_cell_angle_alpha 90.000000
_cell_angle_beta 90.000000
_cell_angle_gamma 90.000000
_cell_volume 1823.913407
_symmetry_space_group_name_H-M "P 4/M"
_symmetry_group_IT_number 83
_symmetry_cell_setting 'tetragonal'
loop_
_space_group_symop_operation_xyz
x,y,z
-y,x,z
-x,-y,z
y,-x,z
-x,-y,-z
y,-x,-z
x,y,-z
-y,x,-z
loop_
_atom_site_type_symbol
_atom_site_label
_atom_site_fract_x
_atom_site_fract_y
_atom_site_fract_z
Si Si1 0.199417 0.639759 0.820641
Si Si2 0.389848 0.000785 0.681338
Si Si3 0.095208 0.122397 0.831936
Si Si4 0.475287 0.349707 0.317996
Si Si5 0.281029 0.819054 0.325592
O O1 0.095038 0.649150 0.755633
O O2 0.251897 0.548589 0.757115
O O3 0.264665 0.724494 0.765050
O O4 0.194577 0.636824 0.000000
O O5 0.372596 0.006040 0.500000
O O6 0.500000 0.000000 0.707670
O O7 0.347249 0.901972 0.733264
O O8 0.134781 0.179914 0.693765
O O9 0.984208 0.124732 0.826678
O O10 0.124384 0.159230 0.000000
O O11 0.572810 0.397623 0.277711
O O12 0.473442 0.338251 0.500000
O O13 0.305473 0.797686 0.500000
#
# Coordination Sequence:
#
# PCOD9543595 Si02
#       5
#     8   8   8   8   8
#     4  12  26  41  64  98 137 177 216 268 337 410
#     4  10  24  46  69  94 127 172 228 282 332 390
#     4   9  18  33  54  81 115 153 192 243 311 377
#     4   9  20  41  69  97 127 168 219 274 329 389
#     4  11  23  39  61  88 119 162 217 271 317 378
#
# _framework density 21.930866999999999
#
# number of rings (size 3 to 8) (size 9 to 14) (size 15 to 20)
#    0.000    1.800    0.000    4.800    2.800    6.800 
#    0.000    2.000    0.000    0.000    0.000    0.000 
#    0.000    0.000    0.000    0.000    0.000    0.000 
#
# Total GULP energy -223472.724457 kJ/mol
# GULP energy per Si atom -5586.818111 kJ/mol
# Density = 2.188095 g / cm^3
# Si number density = 21.930867 Si / 1000 Ang^3
#
#
#
# Elastic Constant Matrix: (Units=GPa)
#
#
# Indices 1 2 3 4 5 6 
#
# 1 61.0359 57.0083 27.1993 0.0000 0.0000 -12.2696
# 2 57.0083 61.0359 27.1993 0.0000 0.0000 12.2696
# 3 27.1993 27.1993 41.5713 0.0000 0.0000 0.0000
# 4 0.0000 0.0000 0.0000 -36.2068 0.0000 0.0000
# 5 0.0000 0.0000 0.0000 0.0000 -36.2068 0.0000
# 6 -12.2696 12.2696 0.0000 0.0000 0.0000 37.4958
#
#
#
# Elastic Compliance Matrix: (Units=1/GPa)
#
#
# Indices 1 2 3 4 5 6 
#
# 1 -0.118868 0.130996 -0.007935 0.000000 0.000000 -0.081762
# 2 0.130996 -0.118868 -0.007935 0.000000 0.000000 0.081762
# 3 -0.007935 -0.007935 0.034439 0.000000 0.000000 0.000000
# 4 0.000000 0.000000 0.000000 -0.027619 0.000000 0.000000
# 5 0.000000 0.000000 0.000000 0.000000 -0.027619 0.000000
# 6 -0.081762 0.081762 0.000000 0.000000 0.000000 -0.026840
#
#
# Mechanical properties :
#
#
# Convention : Reuss Voigt Hill
#
# Bulk Modulus (GPa) = 37.09993 42.93966 40.01979
# Shear Modulus (GPa) = -9.86890 -3.50113 -6.68501
#
# Velocity S-wave (km/s) = -2.12362 -1.26487 -1.74781
# Velocity P-wave (km/s) = 3.30764 4.18197 3.77023
#
# Compressibility (1/GPa) = 0.02695423
#
# Stress axis : x y z
#
# Youngs Moduli (GPa) = -8.41269 -8.41269 29.03699
#
# Poissons Ratio (x) = 1.10203 0.23042
# Poissons Ratio (y) = 1.10203 0.23042
# Poissons Ratio (z) = -0.06676 -0.06676
#
# Static dielectric constant tensor:
#      x y z
#    x 1.822510 0.000000 0.000000 
#    y 0.000000 1.822510 0.000000 
#    z 0.000000 0.000000 1.782300 
# 
# From -- ./inp_files/691.got.cif
#   From: 2010.05.17/outbox.cif.g08.bks.cpg/sg83_1_cif.got.tgz:691.got - 2010.06.03 18:55:12.
