data_PCOD9543677
_publ_section_title
;
Structure prediction by ZEFSAII (Michael W. Deem and Ramdas Pophale) SiO2 
 PCOD9543677
Probable space group: P 4/M
;
_chemical_formula_sum "Si O2"
_cell_formula_units_Z 30
_cell_length_a 8.551503
_cell_length_b 8.551503
_cell_length_c 19.302412
_cell_angle_alpha 90.000000
_cell_angle_beta 90.000000
_cell_angle_gamma 90.000000
_cell_volume 1411.550714
_symmetry_space_group_name_H-M "P 4/M"
_symmetry_group_IT_number 83
_symmetry_cell_setting 'tetragonal'
loop_
_space_group_symop_operation_xyz
x,y,z
-y,x,z
-x,-y,z
y,-x,z
-x,-y,-z
y,-x,-z
x,y,-z
-y,x,-z
loop_
_atom_site_type_symbol
_atom_site_label
_atom_site_fract_x
_atom_site_fract_y
_atom_site_fract_z
Si Si1 0.249196 0.576963 0.419867
Si Si2 0.591164 0.260594 0.221119
Si Si3 0.000000 0.000000 0.905626
Si Si4 0.349709 0.887293 0.076862
Si Si5 0.000000 0.500000 0.685020
O O1 0.313041 0.399669 0.409538
O O2 0.199844 0.592710 0.500000
O O3 0.110570 0.598430 0.366298
O O4 0.692858 0.412116 0.237479
O O5 0.621446 0.227142 0.140752
O O6 0.611473 0.104221 0.265801
O O7 0.986212 0.807625 0.909654
O O8 0.500000 0.000000 0.076507
O O9 0.335352 0.814959 0.000000
#
# Coordination Sequence:
#
# PCOD9543677 Si02
#       5
#     8   8   2   8   4
#     4   9  19  38  65  94 124 162 210 265 328 401
#     4  11  25  43  61  90 131 175 225 283 347 418
#     4  12  25  44  76 104 136 184 241 306 365 432
#     4  11  23  42  67  99 133 176 233 295 355 413
#     4  12  21  36  61  94 126 170 216 270 331 414
#
# _framework density 21.253221
#
# number of rings (size 3 to 8) (size 9 to 14) (size 15 to 20)
#    0.000    1.333    1.333    5.600    0.000    5.333 
#    0.000    1.333    0.000    7.200    0.000   14.933 
#    0.000    0.000    0.000    0.000    0.000    0.000 
#
# Total GULP energy -167140.508552 kJ/mol
# GULP energy per Si atom -5571.350285 kJ/mol
# Density = 2.120485 g / cm^3
# Si number density = 21.253221 Si / 1000 Ang^3
#
#
#
# Elastic Constant Matrix: (Units=GPa)
#
#
# Indices 1 2 3 4 5 6 
#
# 1 111.1026 17.7785 42.7106 0.0000 0.0000 -3.0153
# 2 17.7785 111.1026 42.7106 0.0000 0.0000 3.0153
# 3 42.7106 42.7106 119.2618 0.0000 0.0000 0.0000
# 4 0.0000 0.0000 0.0000 3.6232 0.0000 0.0000
# 5 0.0000 0.0000 0.0000 0.0000 3.6232 0.0000
# 6 -3.0153 3.0153 0.0000 0.0000 0.0000 8.6847
#
#
#
# Elastic Compliance Matrix: (Units=1/GPa)
#
#
# Indices 1 2 3 4 5 6 
#
# 1 0.010568 -0.000394 -0.003644 0.000000 0.000000 0.003806
# 2 -0.000394 0.010568 -0.003644 0.000000 0.000000 -0.003806
# 3 -0.003644 -0.003644 0.010995 0.000000 0.000000 0.000000
# 4 0.000000 0.000000 0.000000 0.275996 0.000000 0.000000
# 5 0.000000 0.000000 0.000000 0.000000 0.275996 0.000000
# 6 0.003806 -0.003806 0.000000 0.000000 0.000000 0.117788
#
#
# Mechanical properties :
#
#
# Convention : Reuss Voigt Hill
#
# Bulk Modulus (GPa) = 59.63606 60.87405 60.25505
# Shear Modulus (GPa) = 6.91697 19.07073 12.99385
#
# Velocity S-wave (km/s) = 1.80599 2.99876 2.47530
# Velocity P-wave (km/s) = 5.69820 6.37923 6.04831
#
# Compressibility (1/GPa) = 0.01676838
#
# Stress axis : x y z
#
# Youngs Moduli (GPa) = 94.62847 94.62847 90.95364
#
# Poissons Ratio (x) = 0.03725 0.33140
# Poissons Ratio (y) = 0.03725 0.33140
# Poissons Ratio (z) = 0.34478 0.34478
#
# Static dielectric constant tensor:
#      x y z
#    x 1.767410 0.000000 0.000000 
#    y 0.000000 1.767410 0.000000 
#    z 0.000000 0.000000 1.827400 
# 
# From -- ./inp_files/2797.got.cif
#   From: 2010.05.17/outbox.cif.g08.bks.cpg/sg83_2_cif.got.tgz:2797.got - 2010.06.03 18:55:12.
