data_PCOD9543837
_publ_section_title
;
Structure prediction by ZEFSAII (Michael W. Deem and Ramdas Pophale) SiO2 
 PCOD9543837
Probable space group: P 4/M
;
_chemical_formula_sum "Si O2"
_cell_formula_units_Z 36
_cell_length_a 10.790290
_cell_length_b 10.790290
_cell_length_c 19.181592
_cell_angle_alpha 90.000000
_cell_angle_beta 90.000000
_cell_angle_gamma 90.000000
_cell_volume 2233.319629
_symmetry_space_group_name_H-M "P 4/M"
_symmetry_group_IT_number 83
_symmetry_cell_setting 'tetragonal'
loop_
_space_group_symop_operation_xyz
x,y,z
-y,x,z
-x,-y,z
y,-x,z
-x,-y,-z
y,-x,-z
x,y,-z
-y,x,-z
loop_
_atom_site_type_symbol
_atom_site_label
_atom_site_fract_x
_atom_site_fract_y
_atom_site_fract_z
Si Si1 0.506125 0.289485 0.424988
Si Si2 0.184519 0.910270 0.916482
Si Si3 0.707135 0.483262 0.000000
Si Si4 0.546327 0.139712 0.133935
Si Si5 0.290238 0.493820 0.727340
O O1 0.621739 0.385154 0.425025
O O2 0.508127 0.221854 0.500000
O O3 0.508034 0.226577 0.349235
O O4 0.305445 0.860044 0.878409
O O5 0.055891 0.839744 0.900704
O O6 0.204862 0.901132 0.000000
O O7 0.627914 0.609773 0.000000
O O8 0.787976 0.483660 0.069671
O O9 0.512464 0.201130 0.207108
O O10 0.500000 0.000000 0.131407
O O11 0.384986 0.377699 0.731289
#
# Coordination Sequence:
#
# PCOD9543837 Si02
#       5
#     8   8   4   8   8
#     4   7  10  20  42  69  93 121 157 188 225 286
#     4   9  20  37  54  68  86 119 163 212 248 269
#     4  11  25  40  54  71  96 128 160 199 251 298
#     4  12  24  32  51  72  97 127 164 199 234 285
#     4   9  18  32  48  70 102 132 154 193 247 289
#
# _framework density 16.119501
#
# number of rings (size 3 to 8) (size 9 to 14) (size 15 to 20)
#    0.000    2.556    1.111    4.333    6.222    1.778 
#    0.000    0.000    0.000    0.667    0.000    0.000 
#    0.000    0.000    0.000    2.444    0.000    0.000 
#
# Total GULP energy -200641.493096 kJ/mol
# GULP energy per Si atom -5573.374808 kJ/mol
# Density = 1.608281 g / cm^3
# Si number density = 16.119501 Si / 1000 Ang^3
#
#
#
# Elastic Constant Matrix: (Units=GPa)
#
#
# Indices 1 2 3 4 5 6 
#
# 1 39.4638 5.6525 36.7780 0.0000 0.0000 0.5316
# 2 5.6525 39.4638 36.7780 0.0000 0.0000 -0.5316
# 3 36.7780 36.7780 171.4170 0.0000 0.0000 0.0000
# 4 0.0000 0.0000 0.0000 -5.0170 0.0000 0.0000
# 5 0.0000 0.0000 0.0000 0.0000 -5.0170 0.0000
# 6 0.5316 -0.5316 0.0000 0.0000 0.0000 8.3173
#
#
#
# Elastic Compliance Matrix: (Units=1/GPa)
#
#
# Indices 1 2 3 4 5 6 
#
# 1 0.031862 0.002227 -0.007314 0.000000 0.000000 -0.001894
# 2 0.002227 0.031862 -0.007314 0.000000 0.000000 0.001894
# 3 -0.007314 -0.007314 0.008972 0.000000 0.000000 0.000000
# 4 0.000000 0.000000 0.000000 -0.199321 0.000000 0.000000
# 5 0.000000 0.000000 0.000000 0.000000 -0.199321 0.000000
# 6 -0.001894 0.001894 0.000000 0.000000 0.000000 0.120474
#
#
# Mechanical properties :
#
#
# Convention : Reuss Voigt Hill
#
# Bulk Modulus (GPa) = 20.87902 45.41797 33.14849
# Shear Modulus (GPa) = -30.35724 11.06573 -9.64576
#
# Velocity S-wave (km/s) = -4.34436 2.62292 -2.44886
# Velocity P-wave (km/s) = 3.49054 6.11636 3.55148
#
# Compressibility (1/GPa) = 0.04789497
#
# Stress axis : x y z
#
# Youngs Moduli (GPa) = 31.38497 31.38497 111.45555
#
# Poissons Ratio (x) = -0.06989 0.81518
# Poissons Ratio (y) = -0.06989 0.81518
# Poissons Ratio (z) = 0.22955 0.22955
#
# Static dielectric constant tensor:
#      x y z
#    x 1.535600 0.000000 0.000000 
#    y 0.000000 1.535600 0.000000 
#    z 0.000000 0.000000 1.570630 
# 
# From -- ./inp_files/2561.got.cif
#   From: 2010.05.17/outbox.cif.g08.bks.cpg/sg83_2_cif.got.tgz:2561.got - 2010.06.03 18:55:12.
