data_PCOD9543186
_publ_section_title
;
Structure prediction by ZEFSAII (Michael W. Deem and Ramdas Pophale) SiO2 
 PCOD9543186
Probable space group: I -4 
;
_chemical_formula_sum "Si O2"
_cell_formula_units_Z 34
_cell_length_a 13.164883
_cell_length_b 13.164883
_cell_length_c 9.416691
_cell_angle_alpha 90.000000
_cell_angle_beta 90.000000
_cell_angle_gamma 90.000000
_cell_volume 1632.045744
_symmetry_space_group_name_H-M "I -4 "
_symmetry_group_IT_number 82
_symmetry_cell_setting 'tetragonal'
loop_
_space_group_symop_operation_xyz
x,y,z
y,-x,-z
-x,-y,z
-y,x,-z
1/2+x,1/2+y,1/2+z
1/2+y,1/2-x,1/2-z
1/2-x,1/2-y,1/2+z
1/2-y,1/2+x,1/2-z
loop_
_atom_site_type_symbol
_atom_site_label
_atom_site_fract_x
_atom_site_fract_y
_atom_site_fract_z
Si Si1 0.966046 0.119403 0.183361
Si Si2 0.966681 0.279496 0.629521
Si Si3 0.000000 0.500000 0.750000
Si Si4 0.320307 0.372605 0.619946
Si Si5 0.810799 0.172813 0.431855
O O1 0.894505 0.152758 0.310638
O O2 0.076478 0.170590 0.187423
O O3 0.772857 0.963065 0.214590
O O4 0.000000 0.000000 0.188406
O O5 0.975173 0.399751 0.656202
O O6 0.784793 0.262047 0.882749
O O7 0.865982 0.236326 0.554864
O O8 0.061328 0.235509 0.541273
O O9 0.351102 0.412598 0.464414
#
# Coordination Sequence:
#
# PCOD9543186 Si02
#       5
#     8   8   2   8   8
#     4  12  23  44  71 102 138 187 239 295 346 426
#     4  12  26  46  73 104 147 188 242 296 362 430
#     4  12  28  52  72 102 152 200 228 286 384 456
#     4  12  23  43  72 103 141 189 241 289 360 427
#     4  12  27  42  70 109 142 185 241 305 357 416
#
# _framework density 20.832747999999999
#
# number of rings (size 3 to 8) (size 9 to 14) (size 15 to 20)
#    0.000    0.000    7.059    2.824    3.294    0.000 
#    0.000    0.000    0.000    1.412    0.000    0.000 
#    0.000    0.000    0.000    0.000    0.000    0.000 
#
# Total GULP energy -94993.197151 kJ/mol
# GULP energy per Si atom -5587.835127 kJ/mol
# Density = 2.078533 g / cm^3
# Si number density = 20.832748 Si / 1000 Ang^3
#
#
#
# Elastic Constant Matrix: (Units=GPa)
#
#
# Indices 1 2 3 4 5 6 
#
# 1 128.5849 26.1175 31.2058 0.0000 0.0000 -5.7472
# 2 26.1175 128.5849 31.2058 0.0000 0.0000 5.7472
# 3 31.2058 31.2058 88.4597 0.0000 0.0000 0.0000
# 4 0.0000 0.0000 0.0000 32.8261 0.0000 0.0000
# 5 0.0000 0.0000 0.0000 0.0000 32.8261 0.0000
# 6 -5.7472 5.7472 0.0000 0.0000 0.0000 47.2332
#
#
#
# Elastic Compliance Matrix: (Units=1/GPa)
#
#
# Indices 1 2 3 4 5 6 
#
# 1 0.008715 -0.001179 -0.002659 0.000000 0.000000 0.001204
# 2 -0.001179 0.008715 -0.002659 0.000000 0.000000 -0.001204
# 3 -0.002659 -0.002659 0.013180 0.000000 0.000000 0.000000
# 4 0.000000 0.000000 0.000000 0.030464 0.000000 0.000000
# 5 0.000000 0.000000 0.000000 0.000000 0.030464 0.000000
# 6 0.001204 -0.001204 0.000000 0.000000 0.000000 0.021465
#
#
# Mechanical properties :
#
#
# Convention : Reuss Voigt Hill
#
# Bulk Modulus (GPa) = 56.75728 58.07642 57.41685
# Shear Modulus (GPa) = 37.91662 39.71709 38.81685
#
# Velocity S-wave (km/s) = 4.27083 4.37106 4.32123
# Velocity P-wave (km/s) = 7.18494 7.30841 7.24694
#
# Compressibility (1/GPa) = 0.01761888
#
# Stress axis : x y z
#
# Youngs Moduli (GPa) = 114.73902 114.73902 75.87029
#
# Poissons Ratio (x) = 0.13526 0.20172
# Poissons Ratio (y) = 0.13526 0.20172
# Poissons Ratio (z) = 0.30506 0.30506
#
# Static dielectric constant tensor:
#      x y z
#    x 1.762660 0.000000 0.000000 
#    y 0.000000 1.762660 0.000000 
#    z 0.000000 0.000000 1.782650 
# 
# From -- ./inp_files/1597.got.cif
#   From: 2010.05.17/outbox.cif.g08.bks.cpg/sg82_1_cif.got.tgz:1597.got - 2010.06.03 18:52:26.
