data_PCOD9543021
_publ_section_title
;
Structure prediction by ZEFSAII (Michael W. Deem and Ramdas Pophale) SiO2 
 PCOD9543021
Probable space group: I -4 
;
_chemical_formula_sum "Si O2"
_cell_formula_units_Z 40
_cell_length_a 9.406553
_cell_length_b 9.406553
_cell_length_c 22.803392
_cell_angle_alpha 90.000000
_cell_angle_beta 90.000000
_cell_angle_gamma 90.000000
_cell_volume 2017.717992
_symmetry_space_group_name_H-M "I -4 "
_symmetry_group_IT_number 82
_symmetry_cell_setting 'tetragonal'
loop_
_space_group_symop_operation_xyz
x,y,z
y,-x,-z
-x,-y,z
-y,x,-z
1/2+x,1/2+y,1/2+z
1/2+y,1/2-x,1/2-z
1/2-x,1/2-y,1/2+z
1/2-y,1/2+x,1/2-z
loop_
_atom_site_type_symbol
_atom_site_label
_atom_site_fract_x
_atom_site_fract_y
_atom_site_fract_z
Si Si1 0.715439 0.168128 0.518783
Si Si2 0.963183 0.666909 0.942314
Si Si3 0.652406 0.577876 0.088245
Si Si4 0.909630 0.645376 0.817079
Si Si5 0.954010 0.841009 0.704704
O O1 0.560538 0.216371 0.496437
O O2 0.797525 0.301523 0.544636
O O3 0.796821 0.135261 0.458305
O O4 0.732599 0.034186 0.562585
O O5 0.977507 0.717016 0.874921
O O6 0.000000 0.500000 0.940489
O O7 0.500000 0.500000 0.088405
O O8 0.664937 0.639848 0.153879
O O9 0.913081 0.749619 0.761658
O O10 0.749314 0.584616 0.823796
O O11 0.000000 0.500000 0.809455
O O12 0.000000 0.000000 0.721417
#
# Coordination Sequence:
#
# PCOD9543021 Si02
#       5
#     8   8   8   8   8
#     4  12  21  38  62  93 126 165 210 261 329 381
#     4  11  23  39  63  92 128 167 210 268 319 392
#     4  11  19  35  63  91 117 159 219 267 303 379
#     4  11  21  42  66  93 123 170 227 265 319 388
#     4  11  22  37  65  96 124 163 220 276 313 379
#
# _framework density 19.824376999999998
#
# number of rings (size 3 to 8) (size 9 to 14) (size 15 to 20)
#    0.000    0.800    6.000    4.800    0.000    0.400 
#    3.600    0.000    0.000    0.600    0.000    0.000 
#    0.000    0.000    0.000    0.000    0.000    0.000 
#
# Total GULP energy -111454.283454 kJ/mol
# GULP energy per Si atom -5572.714173 kJ/mol
# Density = 1.977926 g / cm^3
# Si number density = 19.824377 Si / 1000 Ang^3
#
#
#
# Elastic Constant Matrix: (Units=GPa)
#
#
# Indices 1 2 3 4 5 6 
#
# 1 80.1894 11.9185 37.2598 0.0000 0.0000 -2.5002
# 2 11.9185 80.1894 37.2598 0.0000 0.0000 2.5002
# 3 37.2598 37.2598 149.5830 0.0000 0.0000 0.0000
# 4 0.0000 0.0000 0.0000 27.9469 0.0000 0.0000
# 5 0.0000 0.0000 0.0000 0.0000 27.9469 0.0000
# 6 -2.5002 2.5002 0.0000 0.0000 0.0000 17.4821
#
#
#
# Elastic Compliance Matrix: (Units=1/GPa)
#
#
# Indices 1 2 3 4 5 6 
#
# 1 0.014200 -0.000603 -0.003387 0.000000 0.000000 0.002117
# 2 -0.000603 0.014200 -0.003387 0.000000 0.000000 -0.002117
# 3 -0.003387 -0.003387 0.008373 0.000000 0.000000 0.000000
# 4 0.000000 0.000000 0.000000 0.035782 0.000000 0.000000
# 5 0.000000 0.000000 0.000000 0.000000 0.035782 0.000000
# 6 0.002117 -0.002117 0.000000 0.000000 0.000000 0.057807
#
#
# Mechanical properties :
#
#
# Convention : Reuss Voigt Hill
#
# Bulk Modulus (GPa) = 45.41546 53.64870 49.53208
# Shear Modulus (GPa) = 26.56237 29.57676 28.06957
#
# Velocity S-wave (km/s) = 3.66441 3.86675 3.76694
# Velocity P-wave (km/s) = 6.39238 6.85977 6.63020
#
# Compressibility (1/GPa) = 0.02201894
#
# Stress axis : x y z
#
# Youngs Moduli (GPa) = 70.42361 70.42361 119.43810
#
# Poissons Ratio (x) = 0.04245 0.40452
# Poissons Ratio (y) = 0.04245 0.40452
# Poissons Ratio (z) = 0.23852 0.23852
#
# Static dielectric constant tensor:
#      x y z
#    x 1.744490 0.000000 0.000000 
#    y 0.000000 1.744490 0.000000 
#    z 0.000000 0.000000 1.793630 
# 
# From -- ./inp_files/3352.got.cif
#   From: 2010.05.17/outbox.cif.g08.bks.cpg/sg82_2_cif.got.tgz:3352.got - 2010.06.03 18:52:26.
