data_PCOD9543574
_publ_section_title
;
Structure prediction by ZEFSAII (Michael W. Deem and Ramdas Pophale) SiO2 
 PCOD9543574
Probable space group: P 4/M
;
_chemical_formula_sum "Si O2"
_cell_formula_units_Z 21
_cell_length_a 8.390170
_cell_length_b 8.390170
_cell_length_c 14.083559
_cell_angle_alpha 90.000000
_cell_angle_beta 90.000000
_cell_angle_gamma 90.000000
_cell_volume 991.411469
_symmetry_space_group_name_H-M "P 4/M"
_symmetry_group_IT_number 83
_symmetry_cell_setting 'tetragonal'
loop_
_space_group_symop_operation_xyz
x,y,z
-y,x,z
-x,-y,z
y,-x,z
-x,-y,-z
y,-x,-z
x,y,-z
-y,x,-z
loop_
_atom_site_type_symbol
_atom_site_label
_atom_site_fract_x
_atom_site_fract_y
_atom_site_fract_z
Si Si1 0.500000 0.000000 0.161849
Si Si2 0.600018 0.255643 0.705510
Si Si3 0.000000 0.000000 0.500000
Si Si4 0.569045 0.760846 0.000000
Si Si5 0.884292 0.649359 0.500000
O O1 0.620566 0.100344 0.228744
O O2 0.416259 0.126148 0.091416
O O3 0.698756 0.415287 0.724277
O O4 0.635172 0.215267 0.596515
O O5 0.992636 0.805387 0.500000
O O6 0.389632 0.686968 0.000000
O O7 0.000000 0.500000 0.500000
#
# Coordination Sequence:
#
# PCOD9543574 Si02
#       5
#     4   8   1   4   4
#     4  11  22  37  68 100 126 167 230 291 352 436
#     4  11  23  41  66  98 136 185 234 288 353 421
#     4  12  28  44  76 104 144 214 248 304 360 408
#     4  10  22  44  68  92 126 170 220 285 362 437
#     4  12  24  45  66 102 148 192 242 292 347 415
#
# _framework density 21.181920999999999
#
# number of rings (size 3 to 8) (size 9 to 14) (size 15 to 20)
#    0.000    0.952    1.905    5.714    0.000    4.571 
#    0.000    0.000    0.000   38.857    0.000    0.000 
#    0.000    0.000    0.000    0.000    0.000    0.000 
#
# Total GULP energy -117120.624990 kJ/mol
# GULP energy per Si atom -5577.172619 kJ/mol
# Density = 2.113371 g / cm^3
# Si number density = 21.181921 Si / 1000 Ang^3
#
#
#
# Elastic Constant Matrix: (Units=GPa)
#
#
# Indices 1 2 3 4 5 6 
#
# 1 105.6733 14.0678 31.9960 0.0000 0.0000 -5.0597
# 2 14.0678 105.6733 31.9960 0.0000 0.0000 5.0597
# 3 31.9960 31.9960 158.4940 0.0000 0.0000 0.0000
# 4 0.0000 0.0000 0.0000 6.2040 0.0000 0.0000
# 5 0.0000 0.0000 0.0000 0.0000 6.2040 0.0000
# 6 -5.0597 5.0597 0.0000 0.0000 0.0000 22.5864
#
#
#
# Elastic Compliance Matrix: (Units=1/GPa)
#
#
# Indices 1 2 3 4 5 6 
#
# 1 0.010277 -0.000916 -0.001890 0.000000 0.000000 0.002507
# 2 -0.000916 0.010277 -0.001890 0.000000 0.000000 -0.002507
# 3 -0.001890 -0.001890 0.007072 0.000000 0.000000 0.000000
# 4 0.000000 0.000000 0.000000 0.161188 0.000000 0.000000
# 5 0.000000 0.000000 0.000000 0.000000 0.161188 0.000000
# 6 0.002507 -0.002507 0.000000 0.000000 0.000000 0.045398
#
#
# Mechanical properties :
#
#
# Convention : Reuss Voigt Hill
#
# Bulk Modulus (GPa) = 54.83734 58.44002 56.63868
# Shear Modulus (GPa) = 12.16930 26.45091 19.31010
#
# Velocity S-wave (km/s) = 2.39950 3.53760 3.02260
# Velocity P-wave (km/s) = 5.79843 6.65850 6.24329
#
# Compressibility (1/GPa) = 0.01823575
#
# Stress axis : x y z
#
# Youngs Moduli (GPa) = 97.30151 97.30151 141.39466
#
# Poissons Ratio (x) = 0.08913 0.26721
# Poissons Ratio (y) = 0.08913 0.26721
# Poissons Ratio (z) = 0.18388 0.18388
#
# Static dielectric constant tensor:
#      x y z
#    x 1.670120 0.000000 0.000000 
#    y 0.000000 1.670120 0.000000 
#    z 0.000000 0.000000 1.849000 
# 
# From -- ./inp_files/2132.got.cif
#   From: 2010.05.17/outbox.cif.g08.bks.cpg/sg83_2_cif.got.tgz:2132.got - 2010.06.03 18:55:12.
