data_PCOD9543410
_publ_section_title
;
Structure prediction by ZEFSAII (Michael W. Deem and Ramdas Pophale) SiO2 
 PCOD9543410
Probable space group: P 4/M
;
_chemical_formula_sum "Si O2"
_cell_formula_units_Z 40
_cell_length_a 16.344198
_cell_length_b 16.344198
_cell_length_c 8.484382
_cell_angle_alpha 90.000000
_cell_angle_beta 90.000000
_cell_angle_gamma 90.000000
_cell_volume 2266.456790
_symmetry_space_group_name_H-M "P 4/M"
_symmetry_group_IT_number 83
_symmetry_cell_setting 'tetragonal'
loop_
_space_group_symop_operation_xyz
x,y,z
-y,x,z
-x,-y,z
y,-x,z
-x,-y,-z
y,-x,-z
x,y,-z
-y,x,-z
loop_
_atom_site_type_symbol
_atom_site_label
_atom_site_fract_x
_atom_site_fract_y
_atom_site_fract_z
Si Si1 0.058478 0.880911 0.809720
Si Si2 0.483196 0.743698 0.690779
Si Si3 0.083891 0.542251 0.811103
Si Si4 0.861632 0.284697 0.311334
Si Si5 0.659637 0.683426 0.691866
O O1 0.098385 0.799345 0.743586
O O2 0.963768 0.893894 0.761889
O O3 0.060054 0.877484 0.000000
O O4 0.482378 0.744592 0.500000
O O5 0.495155 0.836315 0.747868
O O6 0.565021 0.694643 0.739963
O O7 0.399658 0.701986 0.747352
O O8 0.091899 0.635739 0.754323
O O9 0.000000 0.500000 0.756962
O O10 0.085729 0.541058 0.000000
O O11 0.863051 0.289196 0.500000
O O12 0.766636 0.294014 0.259861
O O13 0.660489 0.681285 0.500000
#
# Coordination Sequence:
#
# PCOD9543410 Si02
#       5
#     8   8   8   8   8
#     4   9  19  36  55  75 103 139 174 207 249 303
#     4   9  17  32  52  74 102 132 165 206 253 304
#     4  10  21  36  52  72  99 132 172 212 252 304
#     4  10  20  34  53  78 105 133 169 213 259 303
#     4   8  16  30  49  74 101 130 164 203 248 299
#
# _framework density 17.648693999999999
#
# number of rings (size 3 to 8) (size 9 to 14) (size 15 to 20)
#    0.000    2.800    0.000    3.000    0.000    4.400 
#    0.000   12.000    0.000    0.000    0.000    5.600 
#    0.000    0.000    0.000    0.000    0.000    0.000 
#
# Total GULP energy -223039.250356 kJ/mol
# GULP energy per Si atom -5575.981259 kJ/mol
# Density = 1.760852 g / cm^3
# Si number density = 17.648694 Si / 1000 Ang^3
#
#
#
# Elastic Constant Matrix: (Units=GPa)
#
#
# Indices 1 2 3 4 5 6 
#
# 1 170.6822 130.4429 26.2949 0.0000 0.0000 18.7631
# 2 130.4429 170.6822 26.2949 0.0000 0.0000 -18.7631
# 3 26.2949 26.2949 18.8018 0.0000 0.0000 0.0000
# 4 0.0000 0.0000 0.0000 20.7469 0.0000 0.0000
# 5 0.0000 0.0000 0.0000 0.0000 20.7469 0.0000
# 6 18.7631 -18.7631 0.0000 0.0000 0.0000 30.6717
#
#
#
# Elastic Compliance Matrix: (Units=1/GPa)
#
#
# Indices 1 2 3 4 5 6 
#
# 1 0.031127 -0.026733 -0.006145 0.000000 0.000000 -0.035396
# 2 -0.026733 0.031127 -0.006145 0.000000 0.000000 0.035396
# 3 -0.006145 -0.006145 0.070375 0.000000 0.000000 0.000000
# 4 0.000000 0.000000 0.000000 0.048200 0.000000 0.000000
# 5 0.000000 0.000000 0.000000 0.000000 0.048200 0.000000
# 6 -0.035396 0.035396 0.000000 0.000000 0.000000 0.075909
#
#
# Mechanical properties :
#
#
# Convention : Reuss Voigt Hill
#
# Bulk Modulus (GPa) = 18.32099 80.69240 49.50669
# Shear Modulus (GPa) = 12.46320 26.24199 19.35260
#
# Velocity S-wave (km/s) = 2.66029 3.86023 3.31501
# Velocity P-wave (km/s) = 4.45417 8.10489 6.53945
#
# Compressibility (1/GPa) = 0.05458221
#
# Stress axis : x y z
#
# Youngs Moduli (GPa) = 32.12611 32.12611 14.20955
#
# Poissons Ratio (x) = 0.85883 0.08732
# Poissons Ratio (y) = 0.85883 0.08732
# Poissons Ratio (z) = 0.19743 0.19743
#
# Static dielectric constant tensor:
#      x y z
#    x 1.586710 0.000000 0.000000 
#    y 0.000000 1.586710 0.000000 
#    z 0.000000 0.000000 1.607310 
# 
# From -- ./inp_files/654.got.cif
#   From: 2010.05.17/outbox.cif.g08.bks.cpg/sg83_1_cif.got.tgz:654.got - 2010.06.03 18:55:12.
