data_PCOD9543111
_publ_section_title
;
Structure prediction by ZEFSAII (Michael W. Deem and Ramdas Pophale) SiO2 
 PCOD9543111
Probable space group: I -4 
;
_chemical_formula_sum "Si O2"
_cell_formula_units_Z 40
_cell_length_a 8.711877
_cell_length_b 8.711877
_cell_length_c 23.748989
_cell_angle_alpha 90.000000
_cell_angle_beta 90.000000
_cell_angle_gamma 90.000000
_cell_volume 1802.472289
_symmetry_space_group_name_H-M "I -4 "
_symmetry_group_IT_number 82
_symmetry_cell_setting 'tetragonal'
loop_
_space_group_symop_operation_xyz
x,y,z
y,-x,-z
-x,-y,z
-y,x,-z
1/2+x,1/2+y,1/2+z
1/2+y,1/2-x,1/2-z
1/2-x,1/2-y,1/2+z
1/2-y,1/2+x,1/2-z
loop_
_atom_site_type_symbol
_atom_site_label
_atom_site_fract_x
_atom_site_fract_y
_atom_site_fract_z
Si Si1 0.755748 0.891281 0.604880
Si Si2 0.739076 0.398973 0.500093
Si Si3 0.730125 0.603742 0.898121
Si Si4 0.090204 0.304395 0.221978
Si Si5 0.585482 0.217159 0.228716
O O1 0.646522 0.835536 0.554855
O O2 0.669880 0.850048 0.663471
O O3 0.921766 0.807733 0.598187
O O4 0.801616 0.070125 0.599849
O O5 0.577760 0.305802 0.498402
O O6 0.835389 0.342544 0.553921
O O7 0.796774 0.626435 0.836116
O O8 0.159827 0.411525 0.272167
O O9 0.125173 0.134267 0.242724
O O10 0.409180 0.178495 0.236394
#
# Coordination Sequence:
#
# PCOD9543111 Si02
#       5
#     8   8   8   8   8
#     4  11  24  45  71 100 136 180 228 278 336 406
#     4  11  28  47  68 102 136 177 226 285 344 398
#     4  11  24  45  71 100 136 180 228 278 336 406
#     4  11  24  41  66 102 139 179 222 273 337 398
#     4  11  24  41  66 102 139 179 222 273 337 398
#
# _framework density 22.191739999999999
#
# number of rings (size 3 to 8) (size 9 to 14) (size 15 to 20)
#    0.000    1.000    4.000    1.200    5.600    5.600 
#    0.000    0.000    0.000    0.000    0.000    0.000 
#    0.000    0.000    0.000    0.000    0.000    0.000 
#
# Total GULP energy -111856.799206 kJ/mol
# GULP energy per Si atom -5592.839960 kJ/mol
# Density = 2.214123 g / cm^3
# Si number density = 22.191740 Si / 1000 Ang^3
#
#
#
# Elastic Constant Matrix: (Units=GPa)
#
#
# Indices 1 2 3 4 5 6 
#
# 1 45.0613 48.7054 41.8016 0.0000 0.0000 0.2895
# 2 48.7054 45.0613 41.8016 0.0000 0.0000 -0.2895
# 3 41.8016 41.8016 153.9923 0.0000 0.0000 0.0000
# 4 0.0000 0.0000 0.0000 28.6947 0.0000 0.0000
# 5 0.0000 0.0000 0.0000 0.0000 28.6947 0.0000
# 6 0.2895 -0.2895 0.0000 0.0000 0.0000 42.0012
#
#
#
# Elastic Compliance Matrix: (Units=1/GPa)
#
#
# Indices 1 2 3 4 5 6 
#
# 1 -0.130021 0.144091 -0.003819 0.000000 0.000000 0.001889
# 2 0.144091 -0.130021 -0.003819 0.000000 0.000000 -0.001889
# 3 -0.003819 -0.003819 0.008567 0.000000 0.000000 0.000000
# 4 0.000000 0.000000 0.000000 0.034850 0.000000 0.000000
# 5 0.000000 0.000000 0.000000 0.000000 0.034850 0.000000
# 6 0.001889 -0.001889 0.000000 0.000000 0.000000 0.023783
#
#
# Mechanical properties :
#
#
# Convention : Reuss Voigt Hill
#
# Bulk Modulus (GPa) = 46.66313 56.52579 51.59446
# Shear Modulus (GPa) = -11.79929 27.33188 7.76629
#
# Velocity S-wave (km/s) = -2.30836 3.51326 1.87276
# Velocity P-wave (km/s) = 3.73741 6.47952 5.28925
#
# Compressibility (1/GPa) = 0.02143019
#
# Stress axis : x y z
#
# Youngs Moduli (GPa) = -7.69106 -7.69106 116.72165
#
# Poissons Ratio (x) = 1.10821 0.44580
# Poissons Ratio (y) = 1.10821 0.44580
# Poissons Ratio (z) = -0.02938 -0.02938
#
# Static dielectric constant tensor:
#      x y z
#    x 1.814890 0.000000 0.000000 
#    y 0.000000 1.814890 0.000000 
#    z 0.000000 0.000000 1.754140 
# 
# From -- ./inp_files/3323.got.cif
#   From: 2010.05.17/outbox.cif.g08.bks.cpg/sg82_2_cif.got.tgz:3323.got - 2010.06.03 18:52:26.
