data_PCOD9543481
_publ_section_title
;
Structure prediction by ZEFSAII (Michael W. Deem and Ramdas Pophale) SiO2 
 PCOD9543481
Probable space group: P 4/M
;
_chemical_formula_sum "Si O2"
_cell_formula_units_Z 64
_cell_length_a 11.519788
_cell_length_b 11.519788
_cell_length_c 27.077833
_cell_angle_alpha 90.000000
_cell_angle_beta 90.000000
_cell_angle_gamma 90.000000
_cell_volume 3593.377789
_symmetry_space_group_name_H-M "P 4/M"
_symmetry_group_IT_number 83
_symmetry_cell_setting 'tetragonal'
loop_
_space_group_symop_operation_xyz
x,y,z
-y,x,z
-x,-y,z
y,-x,z
-x,-y,-z
y,-x,-z
x,y,-z
-y,x,-z
loop_
_atom_site_type_symbol
_atom_site_label
_atom_site_fract_x
_atom_site_fract_y
_atom_site_fract_z
Si Si1 0.822818 0.916825 0.053414
Si Si2 0.609903 0.349678 0.819438
Si Si3 0.616507 0.802394 0.656418
Si Si4 0.040260 0.819836 0.333004
Si Si5 0.311615 0.554543 0.554884
Si Si6 0.769374 0.619335 0.282951
Si Si7 0.164927 0.776580 0.840252
Si Si8 0.242562 0.975070 0.772269
O O1 0.766147 0.883612 0.104974
O O2 0.946869 0.851844 0.054143
O O3 0.766342 0.890272 0.000000
O O4 0.656255 0.476277 0.833836
O O5 0.606403 0.324737 0.760778
O O6 0.701719 0.260760 0.840952
O O7 0.690043 0.921141 0.654900
O O8 0.580500 0.767850 0.601380
O O9 0.707765 0.708309 0.679098
O O10 0.501740 0.800525 0.690618
O O11 0.915222 0.865743 0.350289
O O12 0.035125 0.823097 0.273335
O O13 0.362278 0.424320 0.558226
O O14 0.259945 0.569655 0.500000
O O15 0.882041 0.674870 0.255648
O O16 0.169720 0.903531 0.813640
O O17 0.083032 0.703508 0.802790
#
# Coordination Sequence:
#
# PCOD9543481 Si02
#       8
#     8   8   8   8   8   8   8   8
#     4   9  17  30  51  83 114 141 180 227 277 336
#     4  10  21  37  52  73 109 146 187 222 266 338
#     4  12  21  36  56  82 114 152 178 225 281 327
#     4  11  22  37  52  74 111 151 192 225 262 327
#     4   9  18  33  57  87 113 140 180 232 286 343
#     4  11  22  34  52  80 114 150 184 215 271 339
#     4  11  20  34  56  79 109 153 177 226 285 323
#     4  11  21  35  49  80 111 148 187 220 264 331
#
# _framework density 17.810541000000001
#
# number of rings (size 3 to 8) (size 9 to 14) (size 15 to 20)
#    0.000    1.500    6.250    1.500    0.000    1.000 
#    2.250    0.000    0.000    1.500    0.000    6.125 
#    0.000    0.000    0.000    0.000    0.000    0.000 
#
# Total GULP energy -356455.752085 kJ/mol
# GULP energy per Si atom -5569.621126 kJ/mol
# Density = 1.777000 g / cm^3
# Si number density = 17.810541 Si / 1000 Ang^3
#
#
#
# Elastic Constant Matrix: (Units=GPa)
#
#
# Indices 1 2 3 4 5 6 
#
# 1 42.1194 33.6357 19.1059 0.0000 0.0000 0.4407
# 2 33.6357 42.1194 19.1059 0.0000 0.0000 -0.4407
# 3 19.1059 19.1059 99.1197 0.0000 0.0000 0.0000
# 4 0.0000 0.0000 0.0000 17.7553 0.0000 0.0000
# 5 0.0000 0.0000 0.0000 0.0000 17.7553 0.0000
# 6 0.4407 -0.4407 0.0000 0.0000 0.0000 23.3610
#
#
#
# Elastic Compliance Matrix: (Units=1/GPa)
#
#
# Indices 1 2 3 4 5 6 
#
# 1 0.066363 -0.051741 -0.002819 0.000000 0.000000 -0.002228
# 2 -0.051741 0.066363 -0.002819 0.000000 0.000000 0.002228
# 3 -0.002819 -0.002819 0.011175 0.000000 0.000000 0.000000
# 4 0.000000 0.000000 0.000000 0.056321 0.000000 0.000000
# 5 0.000000 0.000000 0.000000 0.000000 0.056321 0.000000
# 6 -0.002228 0.002228 0.000000 0.000000 0.000000 0.042890
#
#
# Mechanical properties :
#
#
# Convention : Reuss Voigt Hill
#
# Bulk Modulus (GPa) = 34.31050 36.33930 35.32490
# Shear Modulus (GPa) = 11.79505 19.20839 15.50172
#
# Velocity S-wave (km/s) = 2.57622 3.28759 2.95340
# Velocity P-wave (km/s) = 5.30614 5.90411 5.61310
#
# Compressibility (1/GPa) = 0.02914560
#
# Stress axis : x y z
#
# Youngs Moduli (GPa) = 15.06855 15.06855 89.48239
#
# Poissons Ratio (x) = 0.77967 0.25221
# Poissons Ratio (y) = 0.77967 0.25221
# Poissons Ratio (z) = 0.04247 0.04247
#
# Static dielectric constant tensor:
#      x y z
#    x 1.648380 0.000000 0.000000 
#    y 0.000000 1.648380 0.000000 
#    z 0.000000 0.000000 1.608470 
# 
# From -- ./inp_files/3213.got.cif
#   From: 2010.05.17/outbox.cif.g08.bks.cpg/sg83_2_cif.got.tgz:3213.got - 2010.06.03 18:55:12.
