data_PCOD9543080
_publ_section_title
;
Structure prediction by ZEFSAII (Michael W. Deem and Ramdas Pophale) SiO2 
 PCOD9543080
Probable space group: I -4 
;
_chemical_formula_sum "Si O2"
_cell_formula_units_Z 36
_cell_length_a 12.281035
_cell_length_b 12.281035
_cell_length_c 9.888325
_cell_angle_alpha 90.000000
_cell_angle_beta 90.000000
_cell_angle_gamma 90.000000
_cell_volume 1491.394957
_symmetry_space_group_name_H-M "I -4 "
_symmetry_group_IT_number 82
_symmetry_cell_setting 'tetragonal'
loop_
_space_group_symop_operation_xyz
x,y,z
y,-x,-z
-x,-y,z
-y,x,-z
1/2+x,1/2+y,1/2+z
1/2+y,1/2-x,1/2-z
1/2-x,1/2-y,1/2+z
1/2-y,1/2+x,1/2-z
loop_
_atom_site_type_symbol
_atom_site_label
_atom_site_fract_x
_atom_site_fract_y
_atom_site_fract_z
Si Si1 0.151214 0.387389 0.441367
Si Si2 0.604936 0.837536 0.406468
Si Si3 0.000000 0.000000 0.500000
Si Si4 0.958928 0.767198 0.623694
Si Si5 0.387843 0.381082 0.470528
Si Si6 0.000000 0.500000 0.250000
O O1 0.127055 0.483468 0.551080
O O2 0.275206 0.400465 0.390565
O O3 0.061045 0.407301 0.331006
O O4 0.126607 0.273984 0.511667
O O5 0.692123 0.932612 0.394870
O O6 0.592433 0.770073 0.266909
O O7 0.630032 0.742991 0.516899
O O8 0.107092 0.983141 0.406423
O O9 0.383820 0.484520 0.572871
#
# Coordination Sequence:
#
# PCOD9543080 Si02
#       6
#     8   8   2   8   8   2
#     4  11  23  43  71 104 138 187 251 309 372 446
#     4  11  22  44  79 100 138 195 255 295 367 460
#     4  12  32  44  68 120 178 184 244 320 412 430
#     4  12  24  47  72 109 145 198 242 311 372 465
#     4   9  21  42  64  96 138 183 231 292 360 455
#     4  12  24  40  70 108 140 176 256 342 368 424
#
# _framework density 24.138477000000002
#
# number of rings (size 3 to 8) (size 9 to 14) (size 15 to 20)
#    0.000    1.111    4.444    1.333    0.000    5.333 
#    8.000    2.222    0.000    0.000    0.000    0.000 
#    0.000    0.000    0.000    0.000    0.000    0.000 
#
# Total GULP energy -100202.446897 kJ/mol
# GULP energy per Si atom -5566.802605 kJ/mol
# Density = 2.408354 g / cm^3
# Si number density = 24.138477 Si / 1000 Ang^3
#
#
#
# Elastic Constant Matrix: (Units=GPa)
#
#
# Indices 1 2 3 4 5 6 
#
# 1 176.9905 36.2343 19.4519 0.0000 0.0000 -13.9588
# 2 36.2343 176.9905 19.4519 0.0000 0.0000 13.9588
# 3 19.4519 19.4519 44.0394 0.0000 0.0000 0.0000
# 4 0.0000 0.0000 0.0000 19.7592 0.0000 0.0000
# 5 0.0000 0.0000 0.0000 0.0000 19.7592 0.0000
# 6 -13.9588 13.9588 0.0000 0.0000 0.0000 41.4183
#
#
#
# Elastic Compliance Matrix: (Units=1/GPa)
#
#
# Indices 1 2 3 4 5 6 
#
# 1 0.006357 -0.001256 -0.002253 0.000000 0.000000 0.002566
# 2 -0.001256 0.006357 -0.002253 0.000000 0.000000 -0.002566
# 3 -0.002253 -0.002253 0.024697 0.000000 0.000000 0.000000
# 4 0.000000 0.000000 0.000000 0.050609 0.000000 0.000000
# 5 0.000000 0.000000 0.000000 0.000000 0.050609 0.000000
# 6 0.002566 -0.002566 0.000000 0.000000 0.000000 0.025873
#
#
# Mechanical properties :
#
#
# Convention : Reuss Voigt Hill
#
# Bulk Modulus (GPa) = 38.62950 60.92183 49.77566
# Shear Modulus (GPa) = 27.07717 37.71283 32.39500
#
# Velocity S-wave (km/s) = 3.35288 3.95695 3.66737
# Velocity P-wave (km/s) = 5.57020 6.79484 6.21277
#
# Compressibility (1/GPa) = 0.02588695
#
# Stress axis : x y z
#
# Youngs Moduli (GPa) = 157.30238 157.30238 40.49033
#
# Poissons Ratio (x) = 0.19761 0.09123
# Poissons Ratio (y) = 0.19761 0.09123
# Poissons Ratio (z) = 0.35441 0.35441
#
# Static dielectric constant tensor:
#      x y z
#    x 1.971810 0.000000 0.000000 
#    y 0.000000 1.971810 0.000000 
#    z 0.000000 0.000000 1.980610 
# 
# From -- ./inp_files/1602.got.cif
#   From: 2010.05.17/outbox.cif.g08.bks.cpg/sg82_1_cif.got.tgz:1602.got - 2010.06.03 18:52:26.
