data_PCOD9543696
_publ_section_title
;
Structure prediction by ZEFSAII (Michael W. Deem and Ramdas Pophale) SiO2 
 PCOD9543696
Probable space group: P 4/M
;
_chemical_formula_sum "Si O2"
_cell_formula_units_Z 40
_cell_length_a 7.972102
_cell_length_b 7.972102
_cell_length_c 27.816800
_cell_angle_alpha 90.000000
_cell_angle_beta 90.000000
_cell_angle_gamma 90.000000
_cell_volume 1767.880320
_symmetry_space_group_name_H-M "P 4/M"
_symmetry_group_IT_number 83
_symmetry_cell_setting 'tetragonal'
loop_
_space_group_symop_operation_xyz
x,y,z
-y,x,z
-x,-y,z
y,-x,z
-x,-y,-z
y,-x,-z
x,y,-z
-y,x,-z
loop_
_atom_site_type_symbol
_atom_site_label
_atom_site_fract_x
_atom_site_fract_y
_atom_site_fract_z
Si Si1 0.234612 0.605144 0.345750
Si Si2 0.767600 0.405224 0.758077
Si Si3 0.268066 0.081095 0.146972
Si Si4 0.235555 0.608841 0.448553
Si Si5 0.589499 0.768669 0.947366
O O1 0.292355 0.410160 0.345741
O O2 0.150413 0.633611 0.294069
O O3 0.148947 0.642409 0.397118
O O4 0.704705 0.596911 0.760017
O O5 0.876107 0.363768 0.804202
O O6 0.366339 0.122602 0.098496
O O7 0.106386 0.201537 0.146827
O O8 0.291047 0.412862 0.448552
O O9 0.149863 0.644419 0.500000
O O10 0.399321 0.702836 0.945205
O O11 0.620093 0.847390 0.000000
#
# Coordination Sequence:
#
# PCOD9543696 Si02
#       5
#     8   8   8   8   8
#     4   7  10  17  30  51  79 109 142 180 220 264
#     4   9  17  30  49  70  91 119 157 198 236 276
#     4  11  24  37  48  68  99 130 159 193 232 272
#     4   7   8  10  19  39  71 109 140 165 204 263
#     4   9  19  37  60  83 103 123 151 186 222 265
#
# _framework density 22.625964
#
# number of rings (size 3 to 8) (size 9 to 14) (size 15 to 20)
#    0.000    3.400    0.000    4.800    0.000    5.600 
#    0.000    3.000    0.000    0.000    0.000    0.000 
#    0.000    1.600    0.000   17.800    0.000   16.000 
#
# Total GULP energy -223312.037403 kJ/mol
# GULP energy per Si atom -5582.800935 kJ/mol
# Density = 2.257447 g / cm^3
# Si number density = 22.625964 Si / 1000 Ang^3
#
#
#
# Elastic Constant Matrix: (Units=GPa)
#
#
# Indices 1 2 3 4 5 6 
#
# 1 38.5379 33.0238 55.8635 0.0000 0.0000 9.6440
# 2 33.0238 38.5379 55.8635 0.0000 0.0000 -9.6440
# 3 55.8635 55.8635 299.1556 0.0000 0.0000 0.0000
# 4 0.0000 0.0000 0.0000 -95.3632 0.0000 0.0000
# 5 0.0000 0.0000 0.0000 0.0000 -95.3632 0.0000
# 6 9.6440 -9.6440 0.0000 0.0000 0.0000 23.3316
#
#
#
# Elastic Compliance Matrix: (Units=1/GPa)
#
#
# Indices 1 2 3 4 5 6 
#
# 1 -0.193511 0.213236 -0.003683 0.000000 0.000000 0.168128
# 2 0.213236 -0.193511 -0.003683 0.000000 0.000000 -0.168128
# 3 -0.003683 -0.003683 0.004718 0.000000 0.000000 0.000000
# 4 0.000000 0.000000 0.000000 -0.010486 0.000000 0.000000
# 5 0.000000 0.000000 0.000000 0.000000 -0.010486 0.000000
# 6 0.168128 -0.168128 0.000000 0.000000 0.000000 -0.096130
#
#
# Mechanical properties :
#
#
# Convention : Reuss Voigt Hill
#
# Bulk Modulus (GPa) = 33.97397 73.97031 53.97214
# Shear Modulus (GPa) = -5.54734 -18.04693 -11.79714
#
# Velocity S-wave (km/s) = -1.56751 -2.82728 -2.28589
# Velocity P-wave (km/s) = 3.43103 4.70166 4.11568
#
# Compressibility (1/GPa) = 0.02943430
#
# Stress axis : x y z
#
# Youngs Moduli (GPa) = -5.16767 -5.16767 211.93782
#
# Poissons Ratio (x) = 1.10193 0.78063
# Poissons Ratio (y) = 1.10193 0.78063
# Poissons Ratio (z) = -0.01903 -0.01903
#
# Static dielectric constant tensor:
#      x y z
#    x 1.805180 0.000000 0.000000 
#    y 0.000000 1.805180 0.000000 
#    z 0.000000 0.000000 1.901270 
# 
# From -- ./inp_files/3246.got.cif
#   From: 2010.05.17/outbox.cif.g08.bks.cpg/sg83_2_cif.got.tgz:3246.got - 2010.06.03 18:55:12.
