data_PCOD9543231
_publ_section_title
;
Structure prediction by ZEFSAII (Michael W. Deem and Ramdas Pophale) SiO2 
 PCOD9543231
Probable space group: P 4/M
;
_chemical_formula_sum "Si O2"
_cell_formula_units_Z 54
_cell_length_a 11.231757
_cell_length_b 11.231757
_cell_length_c 21.389374
_cell_angle_alpha 90.000000
_cell_angle_beta 90.000000
_cell_angle_gamma 90.000000
_cell_volume 2698.320123
_symmetry_space_group_name_H-M "P 4/M"
_symmetry_group_IT_number 83
_symmetry_cell_setting 'tetragonal'
loop_
_space_group_symop_operation_xyz
x,y,z
-y,x,z
-x,-y,z
y,-x,z
-x,-y,-z
y,-x,-z
x,y,-z
-y,x,-z
loop_
_atom_site_type_symbol
_atom_site_label
_atom_site_fract_x
_atom_site_fract_y
_atom_site_fract_z
Si Si1 0.443180 0.693710 0.570794
Si Si2 0.808435 0.043690 0.745856
Si Si3 0.395273 0.822182 0.194777
Si Si4 0.500000 0.500000 0.299426
Si Si5 0.755805 0.193914 0.367534
Si Si6 0.693900 0.551712 0.072384
Si Si7 0.149577 0.131818 0.500000
Si Si8 0.614558 0.744855 0.732909
O O1 0.359823 0.575414 0.576304
O O2 0.433898 0.740284 0.500000
O O3 0.384711 0.787611 0.617574
O O4 0.692502 0.071906 0.786372
O O5 0.780099 0.075295 0.672926
O O6 0.915571 0.136627 0.759193
O O7 0.420404 0.795123 0.122515
O O8 0.521318 0.827321 0.230761
O O9 0.321385 0.706263 0.220055
O O10 0.467558 0.359059 0.294710
O O11 0.817449 0.199096 0.434873
O O12 0.794134 0.303082 0.322537
O O13 0.580627 0.639538 0.082279
O O14 0.730367 0.561694 0.000000
O O15 0.009719 0.162410 0.500000
#
# Coordination Sequence:
#
# PCOD9543231 Si02
#       8
#     8   8   8   2   8   8   4   8
#     4   9  19  33  52  78 110 145 176 207 260 353
#     4  10  23  42  60  76  99 144 206 258 289 332
#     4  10  17  33  56  81 120 157 186 224 280 336
#     4   8  16  28  44  77 109 148 184 200 238 328
#     4  11  21  35  58  85 108 133 180 243 301 341
#     4   9  16  26  50  90 133 167 190 218 265 336
#     4  11  24  44  68  79  92 140 206 254 298 362
#     4   9  19  27  50  85 117 149 179 223 274 342
#
# _framework density 20.012452
#
# number of rings (size 3 to 8) (size 9 to 14) (size 15 to 20)
#    0.000    2.296    2.222    1.778    6.222    1.185 
#    0.000    2.963    3.259    1.778    0.000    3.111 
#    0.000    0.000    0.000    0.000    0.000    0.000 
#
# Total GULP energy -300766.278718 kJ/mol
# GULP energy per Si atom -5569.745902 kJ/mol
# Density = 1.996690 g / cm^3
# Si number density = 20.012452 Si / 1000 Ang^3
#
#
#
# Elastic Constant Matrix: (Units=GPa)
#
#
# Indices 1 2 3 4 5 6 
#
# 1 27.5440 42.2895 23.9465 0.0000 0.0000 11.5784
# 2 42.2895 27.5440 23.9465 0.0000 0.0000 -11.5784
# 3 23.9465 23.9465 123.1872 0.0000 0.0000 0.0000
# 4 0.0000 0.0000 0.0000 19.2913 0.0000 0.0000
# 5 0.0000 0.0000 0.0000 0.0000 19.2913 0.0000
# 6 11.5784 -11.5784 0.0000 0.0000 0.0000 27.6554
#
#
#
# Elastic Compliance Matrix: (Units=1/GPa)
#
#
# Indices 1 2 3 4 5 6 
#
# 1 -0.012197 0.028719 -0.003212 0.000000 0.000000 0.017130
# 2 0.028719 -0.012197 -0.003212 0.000000 0.000000 -0.017130
# 3 -0.003212 -0.003212 0.009366 0.000000 0.000000 0.000000
# 4 0.000000 0.000000 0.000000 0.051837 0.000000 0.000000
# 5 0.000000 0.000000 0.000000 0.000000 0.051837 0.000000
# 6 0.017130 -0.017130 0.000000 0.000000 0.000000 0.021816
#
#
# Mechanical properties :
#
#
# Convention : Reuss Voigt Hill
#
# Bulk Modulus (GPa) = 33.82479 39.84892 36.83685
# Shear Modulus (GPa) = 66.02750 19.12047 42.57398
#
# Velocity S-wave (km/s) = 5.75020 3.09435 4.61735
# Velocity P-wave (km/s) = 7.81185 5.72031 6.84642
#
# Compressibility (1/GPa) = 0.02956412
#
# Stress axis : x y z
#
# Youngs Moduli (GPa) = -81.98954 -81.98954 106.76430
#
# Poissons Ratio (x) = 2.35467 0.34291
# Poissons Ratio (y) = 2.35467 0.34291
# Poissons Ratio (z) = -0.26334 -0.26334
#
# Static dielectric constant tensor:
#      x y z
#    x 1.732960 0.000000 0.000000 
#    y 0.000000 1.732960 0.000000 
#    z 0.000000 0.000000 1.753530 
# 
# From -- ./inp_files/3021.got.cif
#   From: 2010.05.17/outbox.cif.g08.bks.cpg/sg83_2_cif.got.tgz:3021.got - 2010.06.03 18:55:12.
