data_PCOD9543738
_publ_section_title
;
Structure prediction by ZEFSAII (Michael W. Deem and Ramdas Pophale) SiO2 
 PCOD9543738
Probable space group: P 4/M
;
_chemical_formula_sum "Si O2"
_cell_formula_units_Z 48
_cell_length_a 8.030153
_cell_length_b 8.030153
_cell_length_c 33.821266
_cell_angle_alpha 90.000000
_cell_angle_beta 90.000000
_cell_angle_gamma 90.000000
_cell_volume 2180.908777
_symmetry_space_group_name_H-M "P 4/M"
_symmetry_group_IT_number 83
_symmetry_cell_setting 'tetragonal'
loop_
_space_group_symop_operation_xyz
x,y,z
-y,x,z
-x,-y,z
y,-x,z
-x,-y,-z
y,-x,-z
x,y,-z
-y,x,-z
loop_
_atom_site_type_symbol
_atom_site_label
_atom_site_fract_x
_atom_site_fract_y
_atom_site_fract_z
Si Si1 0.595982 0.233591 0.000000
Si Si2 0.410946 0.764174 0.327783
Si Si3 0.589453 0.233564 0.085109
Si Si4 0.090217 0.265565 0.162494
Si Si5 0.097524 0.264718 0.750741
Si Si6 0.500000 0.000000 0.607708
Si Si7 0.902191 0.263371 0.544319
O O1 0.703183 0.404445 0.000000
O O2 0.625552 0.149092 0.042426
O O3 0.296679 0.601314 0.330804
O O4 0.376972 0.848400 0.285636
O O5 0.383143 0.894192 0.363057
O O6 0.701996 0.400376 0.086073
O O7 0.629677 0.131946 0.124081
O O8 0.123836 0.342588 0.205729
O O9 0.901113 0.202325 0.161131
O O10 0.906147 0.204817 0.748266
O O11 0.604066 0.879798 0.578799
O O12 0.875510 0.331661 0.500000
O O13 0.795060 0.095336 0.547561
#
# Coordination Sequence:
#
# PCOD9543738 Si02
#       7
#     4   8   8   8   8   4   8
#     4   7  12  26  46  67  96 132 168 209 256 307
#     4  11  24  38  53  79 113 144 179 227 276 322
#     4   9  17  30  50  75 100 130 171 216 261 311
#     4   9  19  35  53  74 102 134 169 210 258 314
#     4   9  19  38  60  77  98 137 184 223 266 327
#     4  12  21  36  58  82 112 152 186 219 274 334
#     4   9  19  36  58  85 114 145 187 234 271 310
#
# _framework density 22.009174999999999
#
# number of rings (size 3 to 8) (size 9 to 14) (size 15 to 20)
#    0.000    2.583    0.000    4.750    0.000    2.000 
#    0.000    7.500    0.000    4.000    0.000    7.000 
#    0.000    0.000    0.000    0.000    0.000    0.000 
#
# Total GULP energy -268245.968576 kJ/mol
# GULP energy per Si atom -5588.457679 kJ/mol
# Density = 2.195908 g / cm^3
# Si number density = 22.009175 Si / 1000 Ang^3
#
#
#
# Elastic Constant Matrix: (Units=GPa)
#
#
# Indices 1 2 3 4 5 6 
#
# 1 43.6315 8.6846 42.7316 0.0000 0.0000 -4.0725
# 2 8.6846 43.6315 42.7316 0.0000 0.0000 4.0725
# 3 42.7316 42.7316 222.7646 0.0000 0.0000 0.0000
# 4 0.0000 0.0000 0.0000 55.8501 0.0000 0.0000
# 5 0.0000 0.0000 0.0000 0.0000 55.8501 0.0000
# 6 -4.0725 4.0725 0.0000 0.0000 0.0000 28.1203
#
#
#
# Elastic Compliance Matrix: (Units=1/GPa)
#
#
# Indices 1 2 3 4 5 6 
#
# 1 0.028726 -0.000888 -0.005340 0.000000 0.000000 0.004289
# 2 -0.000888 0.028726 -0.005340 0.000000 0.000000 -0.004289
# 3 -0.005340 -0.005340 0.006538 0.000000 0.000000 0.000000
# 4 0.000000 0.000000 0.000000 0.017905 0.000000 0.000000
# 5 0.000000 0.000000 0.000000 0.000000 0.017905 0.000000
# 6 0.004289 -0.004289 0.000000 0.000000 0.000000 0.036804
#
#
# Mechanical properties :
#
#
# Convention : Reuss Voigt Hill
#
# Bulk Modulus (GPa) = 24.47758 55.36925 39.92342
# Shear Modulus (GPa) = 28.84197 42.35607 35.59902
#
# Velocity S-wave (km/s) = 3.62394 4.39164 4.02613
# Velocity P-wave (km/s) = 5.35316 7.13634 6.30807
#
# Compressibility (1/GPa) = 0.04085372
#
# Stress axis : x y z
#
# Youngs Moduli (GPa) = 34.81140 34.81140 152.95838
#
# Poissons Ratio (x) = 0.03092 0.81680
# Poissons Ratio (y) = 0.03092 0.81680
# Poissons Ratio (z) = 0.18589 0.18589
#
# Static dielectric constant tensor:
#      x y z
#    x 1.818840 0.000000 0.000000 
#    y 0.000000 1.818840 0.000000 
#    z 0.000000 0.000000 1.818960 
# 
# From -- ./inp_files/3432.got.cif
#   From: 2010.05.17/outbox.cif.g08.bks.cpg/sg83_2_cif.got.tgz:3432.got - 2010.06.03 18:55:12.
