data_PCOD9543394
_publ_section_title
;
Structure prediction by ZEFSAII (Michael W. Deem and Ramdas Pophale) SiO2 
 PCOD9543394
Probable space group: P 4/M
;
_chemical_formula_sum "Si O2"
_cell_formula_units_Z 32
_cell_length_a 14.202548
_cell_length_b 14.202548
_cell_length_c 8.664007
_cell_angle_alpha 90.000000
_cell_angle_beta 90.000000
_cell_angle_gamma 90.000000
_cell_volume 1747.637383
_symmetry_space_group_name_H-M "P 4/M"
_symmetry_group_IT_number 83
_symmetry_cell_setting 'tetragonal'
loop_
_space_group_symop_operation_xyz
x,y,z
-y,x,z
-x,-y,z
y,-x,z
-x,-y,-z
y,-x,-z
x,y,-z
-y,x,-z
loop_
_atom_site_type_symbol
_atom_site_label
_atom_site_fract_x
_atom_site_fract_y
_atom_site_fract_z
Si Si1 0.753395 0.636585 0.752236
Si Si2 0.287454 0.008735 0.000000
Si Si3 0.607791 0.033056 0.327217
Si Si4 0.342811 0.475621 0.000000
Si Si5 0.390612 0.385509 0.500000
Si Si6 0.789324 0.193769 0.000000
O O1 0.853172 0.614442 0.675358
O O2 0.722291 0.547040 0.854797
O O3 0.664809 0.654835 0.644223
O O4 0.770139 0.727724 0.856475
O O5 0.234046 0.107090 0.000000
O O6 0.344595 0.999578 0.163872
O O7 0.217914 0.919042 0.000000
O O8 0.644728 0.002692 0.500000
O O9 0.500000 0.000000 0.320371
O O10 0.425640 0.396211 0.000000
O O11 0.501667 0.372505 0.500000
#
# Coordination Sequence:
#
# PCOD9543394 Si02
#       6
#     8   4   8   4   4   4
#     4  10  20  37  54  80 117 150 196 244 287 352
#     4  10  21  41  62  88 120 152 191 250 303 363
#     4  10  21  38  59  87 119 155 196 248 300 347
#     4  10  20  33  51  77 112 157 203 243 286 336
#     4  11  22  34  51  80 120 161 195 232 276 334
#     4   9  22  40  62  86 110 148 193 246 309 355
#
# _framework density 18.310434000000001
#
# number of rings (size 3 to 8) (size 9 to 14) (size 15 to 20)
#    0.000    2.000    1.250    2.625    0.000    8.250 
#    2.250    0.000    0.000    0.000    0.000    3.500 
#    0.000    0.000    0.000    0.000    0.000    0.000 
#
# Total GULP energy -178283.836710 kJ/mol
# GULP energy per Si atom -5571.369897 kJ/mol
# Density = 1.826876 g / cm^3
# Si number density = 18.310434 Si / 1000 Ang^3
#
#
#
# Elastic Constant Matrix: (Units=GPa)
#
#
# Indices 1 2 3 4 5 6 
#
# 1 93.2147 57.6537 45.8025 0.0000 0.0000 15.9440
# 2 57.6537 93.2147 45.8025 0.0000 0.0000 -15.9440
# 3 45.8025 45.8025 138.8326 0.0000 0.0000 0.0000
# 4 0.0000 0.0000 0.0000 21.5478 0.0000 0.0000
# 5 0.0000 0.0000 0.0000 0.0000 21.5478 0.0000
# 6 15.9440 -15.9440 0.0000 0.0000 0.0000 26.9387
#
#
#
# Elastic Compliance Matrix: (Units=1/GPa)
#
#
# Indices 1 2 3 4 5 6 
#
# 1 0.034106 -0.025818 -0.002735 0.000000 0.000000 -0.035466
# 2 -0.025818 0.034106 -0.002735 0.000000 0.000000 0.035466
# 3 -0.002735 -0.002735 0.009007 0.000000 0.000000 0.000000
# 4 0.000000 0.000000 0.000000 0.046408 0.000000 0.000000
# 5 0.000000 0.000000 0.000000 0.000000 0.046408 0.000000
# 6 -0.035466 0.035466 0.000000 0.000000 0.000000 0.079104
#
#
# Mechanical properties :
#
#
# Convention : Reuss Voigt Hill
#
# Bulk Modulus (GPa) = 68.27600 69.30882 68.79241
# Shear Modulus (GPa) = 15.79302 25.74043 20.76673
#
# Velocity S-wave (km/s) = 2.94005 3.75344 3.37136
# Velocity P-wave (km/s) = 6.99243 7.53118 7.26680
#
# Compressibility (1/GPa) = 0.01464643
#
# Stress axis : x y z
#
# Youngs Moduli (GPa) = 29.32018 29.32018 111.02196
#
# Poissons Ratio (x) = 0.75698 0.30359
# Poissons Ratio (y) = 0.75698 0.30359
# Poissons Ratio (z) = 0.08018 0.08018
#
# Static dielectric constant tensor:
#      x y z
#    x 1.589480 0.000000 0.000000 
#    y 0.000000 1.589480 0.000000 
#    z 0.000000 0.000000 1.967300 
# 
# From -- ./inp_files/483.got.cif
#   From: 2010.05.17/outbox.cif.g08.bks.cpg/sg83_1_cif.got.tgz:483.got - 2010.06.03 18:55:12.
