data_PCOD9543949
_publ_section_title
;
Structure prediction by ZEFSAII (Michael W. Deem and Ramdas Pophale) SiO2 
 PCOD9543949
Probable space group: P 42/M
;
_chemical_formula_sum "Si O2"
_cell_formula_units_Z 48
_cell_length_a 17.520277
_cell_length_b 17.520277
_cell_length_c 7.629533
_cell_angle_alpha 90.000000
_cell_angle_beta 90.000000
_cell_angle_gamma 90.000000
_cell_volume 2341.962260
_symmetry_space_group_name_H-M "P 42/M"
_symmetry_group_IT_number 84
_symmetry_cell_setting 'tetragonal'
loop_
_space_group_symop_operation_xyz
x,y,z
-y,x,1/2+z
-x,-y,z
y,-x,1/2+z
-x,-y,-z
y,-x,1/2-z
x,y,-z
-y,x,1/2-z
loop_
_atom_site_type_symbol
_atom_site_label
_atom_site_fract_x
_atom_site_fract_y
_atom_site_fract_z
Si Si1 0.720959 0.994389 0.214320
Si Si2 0.701965 0.401645 0.289327
Si Si3 0.156523 0.311583 0.289389
Si Si4 0.727543 0.819232 0.788790
Si Si5 0.426129 0.713189 0.789530
Si Si6 0.033248 0.112189 0.303472
O O1 0.716236 0.906527 0.274709
O O2 0.804208 0.024199 0.266587
O O3 0.672945 0.069156 0.270006
O O4 0.717842 0.990979 0.000000
O O5 0.709218 0.403850 0.500000
O O6 0.766137 0.342167 0.224486
O O7 0.711322 0.487523 0.222513
O O8 0.620700 0.363699 0.248253
O O9 0.154603 0.316872 0.500000
O O10 0.195129 0.228271 0.253420
O O11 0.216831 0.374149 0.221393
O O12 0.724988 0.822500 0.000000
O O13 0.429636 0.721372 0.000000
O O14 0.065199 0.113271 0.500000
O O15 0.079918 0.052740 0.191150
#
# Coordination Sequence:
#
# PCOD9543949 Si02
#       6
#     8   8   8   8   8   8
#     4   9  17  28  44  64  85 114 151 188 224 263
#     4   9  18  32  50  72  96 121 149 182 222 270
#     4   9  17  31  48  66  91 121 153 189 228 268
#     4   9  17  31  48  66  91 121 153 189 228 268
#     4   9  18  32  50  72  96 121 149 182 222 270
#     4  10  18  27  38  55  80 108 141 182 227 268
#
# _framework density 20.495633999999999
#
# number of rings (size 3 to 8) (size 9 to 14) (size 15 to 20)
#    0.000    2.833    0.000    2.000    0.000    1.000 
#    0.000    5.000    0.000    5.000    0.000    0.000 
#    0.000   10.667    0.000    0.000    0.000    0.000 
#
# Total GULP energy -267422.602866 kJ/mol
# GULP energy per Si atom -5571.304226 kJ/mol
# Density = 2.044899 g / cm^3
# Si number density = 20.495634 Si / 1000 Ang^3
#
#
#
# Elastic Constant Matrix: (Units=GPa)
#
#
# Indices 1 2 3 4 5 6 
#
# 1 139.0929 56.0441 0.5511 0.0000 0.0000 2.8424
# 2 56.0441 139.0929 0.5511 0.0000 0.0000 -2.8424
# 3 0.5511 0.5511 41.3362 0.0000 0.0000 0.0000
# 4 0.0000 0.0000 0.0000 17.8075 0.0000 0.0000
# 5 0.0000 0.0000 0.0000 0.0000 17.8075 0.0000
# 6 2.8424 -2.8424 0.0000 0.0000 0.0000 -9.6646
#
#
#
# Elastic Compliance Matrix: (Units=1/GPa)
#
#
# Indices 1 2 3 4 5 6 
#
# 1 0.008464 -0.003339 -0.000068 0.000000 0.000000 0.003471
# 2 -0.003339 0.008464 -0.000068 0.000000 0.000000 -0.003471
# 3 -0.000068 -0.000068 0.024194 0.000000 0.000000 0.000000
# 4 0.000000 0.000000 0.000000 0.056156 0.000000 0.000000
# 5 0.000000 0.000000 0.000000 0.000000 0.056156 0.000000
# 6 0.003471 -0.003471 0.000000 0.000000 0.000000 -0.101428
#
#
# Mechanical properties :
#
#
# Convention : Reuss Voigt Hill
#
# Bulk Modulus (GPa) = 29.26511 48.20161 38.73336
# Shear Modulus (GPa) = 71.07508 22.68179 46.87844
#
# Velocity S-wave (km/s) = 5.89520 3.33027 4.78770
# Velocity P-wave (km/s) = 7.78766 6.19327 7.03577
#
# Compressibility (1/GPa) = 0.03417038
#
# Stress axis : x y z
#
# Youngs Moduli (GPa) = 118.14403 118.14403 41.33309
#
# Poissons Ratio (x) = 0.39451 0.00282
# Poissons Ratio (y) = 0.39451 0.00282
# Poissons Ratio (z) = 0.00807 0.00807
#
# Static dielectric constant tensor:
#      x y z
#    x 1.755170 0.000000 0.000000 
#    y 0.000000 1.755170 0.000000 
#    z 0.000000 0.000000 1.785330 
# 
# From -- ./inp_files/1010.got.cif
#   From: 2010.05.17/outbox.cif.g08.bks.cpg/sg84_1_cif.got.tgz:1010.got - 2010.06.03 18:57:40.
