data_PCOD9543548
_publ_section_title
;
Structure prediction by ZEFSAII (Michael W. Deem and Ramdas Pophale) SiO2 
 PCOD9543548
Probable space group: P 4/M
;
_chemical_formula_sum "Si O2"
_cell_formula_units_Z 40
_cell_length_a 15.083948
_cell_length_b 15.083948
_cell_length_c 10.172075
_cell_angle_alpha 90.000000
_cell_angle_beta 90.000000
_cell_angle_gamma 90.000000
_cell_volume 2314.406321
_symmetry_space_group_name_H-M "P 4/M"
_symmetry_group_IT_number 83
_symmetry_cell_setting 'tetragonal'
loop_
_space_group_symop_operation_xyz
x,y,z
-y,x,z
-x,-y,z
y,-x,z
-x,-y,-z
y,-x,-z
x,y,-z
-y,x,-z
loop_
_atom_site_type_symbol
_atom_site_label
_atom_site_fract_x
_atom_site_fract_y
_atom_site_fract_z
Si Si1 0.562327 0.914473 0.348422
Si Si2 0.083374 0.876571 0.500000
Si Si3 0.881193 0.245854 0.745326
Si Si4 0.505664 0.236283 0.844219
Si Si5 0.694775 0.316372 0.844809
Si Si6 0.858260 0.948623 0.000000
O O1 0.567843 0.882163 0.500000
O O2 0.662740 0.929329 0.297556
O O3 0.518230 0.845044 0.249171
O O4 0.500000 0.000000 0.347353
O O5 0.114169 0.823902 0.627906
O O6 0.976679 0.881658 0.500000
O O7 0.779534 0.273772 0.773948
O O8 0.924602 0.200271 0.872683
O O9 0.600161 0.276882 0.807523
O O10 0.422465 0.302397 0.827500
O O11 0.507585 0.211772 0.000000
O O12 0.707719 0.299129 0.000000
O O13 0.948873 0.890152 0.000000
#
# Coordination Sequence:
#
# PCOD9543548 Si02
#       6
#     8   4   8   8   8   4
#     4  10  22  40  57  83 117 152 196 245 289 340
#     4  11  24  40  59  84 114 151 203 244 286 344
#     4  11  21  41  60  85 119 157 191 242 292 347
#     4   9  19  35  59  85 117 151 190 239 289 348
#     4   9  18  36  58  87 116 149 190 235 288 347
#     4  11  24  40  61  88 120 153 193 246 296 342
#
# _framework density 17.283048999999998
#
# number of rings (size 3 to 8) (size 9 to 14) (size 15 to 20)
#    0.000    2.000    2.000    1.200    1.400    5.600 
#    1.800    2.000    0.000    0.000    0.000    2.800 
#    0.000    0.000    0.000    0.000    0.000    0.000 
#
# Total GULP energy -223122.725533 kJ/mol
# GULP energy per Si atom -5578.068138 kJ/mol
# Density = 1.724371 g / cm^3
# Si number density = 17.283049 Si / 1000 Ang^3
#
#
#
# Elastic Constant Matrix: (Units=GPa)
#
#
# Indices 1 2 3 4 5 6 
#
# 1 93.7146 57.7483 46.7597 0.0000 0.0000 11.9412
# 2 57.7483 93.7146 46.7597 0.0000 0.0000 -11.9412
# 3 46.7597 46.7597 101.0517 0.0000 0.0000 0.0000
# 4 0.0000 0.0000 0.0000 20.1956 0.0000 0.0000
# 5 0.0000 0.0000 0.0000 0.0000 20.1956 0.0000
# 6 11.9412 -11.9412 0.0000 0.0000 0.0000 25.9263
#
#
#
# Elastic Compliance Matrix: (Units=1/GPa)
#
#
# Indices 1 2 3 4 5 6 
#
# 1 0.024648 -0.015405 -0.004277 0.000000 0.000000 -0.018448
# 2 -0.015405 0.024648 -0.004277 0.000000 0.000000 0.018448
# 3 -0.004277 -0.004277 0.013854 0.000000 0.000000 0.000000
# 4 0.000000 0.000000 0.000000 0.049516 0.000000 0.000000
# 5 0.000000 0.000000 0.000000 0.000000 0.049516 0.000000
# 6 -0.018448 0.018448 0.000000 0.000000 0.000000 0.055565
#
#
# Mechanical properties :
#
#
# Convention : Reuss Voigt Hill
#
# Bulk Modulus (GPa) = 65.65068 65.66847 65.65958
# Shear Modulus (GPa) = 18.46768 22.41106 20.43937
#
# Velocity S-wave (km/s) = 3.27240 3.60489 3.44266
# Velocity P-wave (km/s) = 7.23507 7.44348 7.34001
#
# Compressibility (1/GPa) = 0.01523213
#
# Stress axis : x y z
#
# Youngs Moduli (GPa) = 40.57054 40.57054 72.18041
#
# Poissons Ratio (x) = 0.62500 0.30872
# Poissons Ratio (y) = 0.62500 0.30872
# Poissons Ratio (z) = 0.17352 0.17352
#
# Static dielectric constant tensor:
#      x y z
#    x 1.574020 0.000000 0.000000 
#    y 0.000000 1.574020 0.000000 
#    z 0.000000 0.000000 1.584300 
# 
# From -- ./inp_files/754.got.cif
#   From: 2010.05.17/outbox.cif.g08.bks.cpg/sg83_1_cif.got.tgz:754.got - 2010.06.03 18:55:12.
