data_PCOD9543510
_publ_section_title
;
Structure prediction by ZEFSAII (Michael W. Deem and Ramdas Pophale) SiO2 
 PCOD9543510
Probable space group: P 4/M
;
_chemical_formula_sum "Si O2"
_cell_formula_units_Z 36
_cell_length_a 15.777805
_cell_length_b 15.777805
_cell_length_c 7.486460
_cell_angle_alpha 90.000000
_cell_angle_beta 90.000000
_cell_angle_gamma 90.000000
_cell_volume 1863.672844
_symmetry_space_group_name_H-M "P 4/M"
_symmetry_group_IT_number 83
_symmetry_cell_setting 'tetragonal'
loop_
_space_group_symop_operation_xyz
x,y,z
-y,x,z
-x,-y,z
y,-x,z
-x,-y,-z
y,-x,-z
x,y,-z
-y,x,-z
loop_
_atom_site_type_symbol
_atom_site_label
_atom_site_fract_x
_atom_site_fract_y
_atom_site_fract_z
Si Si1 0.755602 0.630304 0.291640
Si Si2 0.622564 0.573787 0.000000
Si Si3 0.993769 0.246573 0.783978
Si Si4 0.825864 0.815066 0.783400
Si Si5 0.569608 0.062641 0.708798
O O1 0.742041 0.609716 0.500000
O O2 0.676744 0.604690 0.170442
O O3 0.777574 0.730442 0.278436
O O4 0.841779 0.583726 0.222599
O O5 0.528043 0.612332 0.000000
O O6 0.075685 0.192043 0.728976
O O7 0.015198 0.341076 0.723716
O O8 0.902985 0.214237 0.721236
O O9 0.991981 0.246286 0.000000
O O10 0.823083 0.813382 0.000000
O O11 0.548450 0.074330 0.500000
O O12 0.500000 0.000000 0.789711
#
# Coordination Sequence:
#
# PCOD9543510 Si02
#       5
#     8   4   8   8   8
#     4  10  21  40  64  87 118 157 192 237 295 349
#     4  11  26  46  65  88 118 147 189 246 292 352
#     4   9  18  30  50  77 112 155 193 235 283 337
#     4   9  17  33  53  82 119 156 198 238 283 336
#     4   9  19  35  54  82 116 146 189 243 290 343
#
# _framework density 19.316693999999998
#
# number of rings (size 3 to 8) (size 9 to 14) (size 15 to 20)
#    0.000    2.556    1.111    0.000    1.556    4.444 
#    0.000    5.556    0.000    0.000    0.000    6.222 
#    0.000    0.000    0.000    0.000    0.000    0.000 
#
# Total GULP energy -200832.197466 kJ/mol
# GULP energy per Si atom -5578.672152 kJ/mol
# Density = 1.927273 g / cm^3
# Si number density = 19.316694 Si / 1000 Ang^3
#
#
#
# Elastic Constant Matrix: (Units=GPa)
#
#
# Indices 1 2 3 4 5 6 
#
# 1 107.4527 66.6600 28.1178 0.0000 0.0000 18.7253
# 2 66.6600 107.4527 28.1178 0.0000 0.0000 -18.7253
# 3 28.1178 28.1178 87.3101 0.0000 0.0000 0.0000
# 4 0.0000 0.0000 0.0000 44.2923 0.0000 0.0000
# 5 0.0000 0.0000 0.0000 0.0000 44.2923 0.0000
# 6 18.7253 -18.7253 0.0000 0.0000 0.0000 25.8645
#
#
#
# Elastic Compliance Matrix: (Units=1/GPa)
#
#
# Indices 1 2 3 4 5 6 
#
# 1 0.039756 -0.033346 -0.002064 0.000000 0.000000 -0.052924
# 2 -0.033346 0.039756 -0.002064 0.000000 0.000000 0.052924
# 3 -0.002064 -0.002064 0.012783 0.000000 0.000000 0.000000
# 4 0.000000 0.000000 0.000000 0.022577 0.000000 0.000000
# 5 0.000000 0.000000 0.000000 0.000000 0.022577 0.000000
# 6 -0.052924 0.052924 0.000000 0.000000 0.000000 0.115295
#
#
# Mechanical properties :
#
#
# Convention : Reuss Voigt Hill
#
# Bulk Modulus (GPa) = 57.65034 60.88959 59.26997
# Shear Modulus (GPa) = 14.99353 34.84446 24.91900
#
# Velocity S-wave (km/s) = 2.78905 4.25179 3.59559
# Velocity P-wave (km/s) = 6.34676 7.46282 6.92731
#
# Compressibility (1/GPa) = 0.01734595
#
# Stress axis : x y z
#
# Youngs Moduli (GPa) = 25.15325 25.15325 78.22852
#
# Poissons Ratio (x) = 0.83876 0.16149
# Poissons Ratio (y) = 0.83876 0.16149
# Poissons Ratio (z) = 0.05193 0.05193
#
# Static dielectric constant tensor:
#      x y z
#    x 1.656720 0.000000 0.000000 
#    y 0.000000 1.656720 0.000000 
#    z 0.000000 0.000000 1.718500 
# 
# From -- ./inp_files/547.got.cif
#   From: 2010.05.17/outbox.cif.g08.bks.cpg/sg83_1_cif.got.tgz:547.got - 2010.06.03 18:55:12.
