data_PCOD9543623
_publ_section_title
;
Structure prediction by ZEFSAII (Michael W. Deem and Ramdas Pophale) SiO2 
 PCOD9543623
Probable space group: P 4/M
;
_chemical_formula_sum "Si O2"
_cell_formula_units_Z 34
_cell_length_a 8.540209
_cell_length_b 8.540209
_cell_length_c 21.744962
_cell_angle_alpha 90.000000
_cell_angle_beta 90.000000
_cell_angle_gamma 90.000000
_cell_volume 1585.972495
_symmetry_space_group_name_H-M "P 4/M"
_symmetry_group_IT_number 83
_symmetry_cell_setting 'tetragonal'
loop_
_space_group_symop_operation_xyz
x,y,z
-y,x,z
-x,-y,z
y,-x,z
-x,-y,-z
y,-x,-z
x,y,-z
-y,x,-z
loop_
_atom_site_type_symbol
_atom_site_label
_atom_site_fract_x
_atom_site_fract_y
_atom_site_fract_z
Si Si1 0.410373 0.160104 0.623743
Si Si2 0.500000 0.500000 0.363706
Si Si3 0.756880 0.900962 0.751600
Si Si4 0.344878 0.280647 0.500000
Si Si5 0.749031 0.411407 0.000000
Si Si6 0.902605 0.247913 0.887240
O O1 0.522839 0.309951 0.633027
O O2 0.334050 0.136907 0.690217
O O3 0.305037 0.194036 0.563145
O O4 0.500000 0.000000 0.609433
O O5 0.683341 0.872825 0.818905
O O6 0.917442 0.803985 0.750576
O O7 0.537455 0.292535 0.500000
O O8 0.693170 0.590421 0.000000
O O9 0.848005 0.363752 0.940186
O O10 0.084191 0.194756 0.892671
#
# Coordination Sequence:
#
# PCOD9543623 Si02
#       6
#     8   2   8   4   4   8
#     4  12  23  41  68  97 130 179 224 273 342 408
#     4  12  24  45  64 100 136 169 220 282 336 393
#     4   9  20  41  64  94 132 168 218 281 332 399
#     4  11  21  42  64  90 132 175 220 283 332 395
#     4  11  24  41  54  90 134 165 204 265 322 382
#     4   9  19  40  68  90 119 165 214 263 322 386
#
# _framework density 21.437951999999999
#
# number of rings (size 3 to 8) (size 9 to 14) (size 15 to 20)
#    0.000    1.647    2.353    3.882    0.000    2.824 
#   12.706    0.000    0.000    1.412    0.000    0.000 
#    0.000    0.000    0.000    0.000    0.000    0.000 
#
# Total GULP energy -189379.989857 kJ/mol
# GULP energy per Si atom -5569.999702 kJ/mol
# Density = 2.138916 g / cm^3
# Si number density = 21.437952 Si / 1000 Ang^3
#
#
#
# Elastic Constant Matrix: (Units=GPa)
#
#
# Indices 1 2 3 4 5 6 
#
# 1 47.1983 7.2450 17.0060 0.0000 0.0000 -3.5447
# 2 7.2450 47.1983 17.0060 0.0000 0.0000 3.5447
# 3 17.0060 17.0060 167.5998 0.0000 0.0000 0.0000
# 4 0.0000 0.0000 0.0000 17.1723 0.0000 0.0000
# 5 0.0000 0.0000 0.0000 0.0000 17.1723 0.0000
# 6 -3.5447 3.5447 0.0000 0.0000 0.0000 37.7915
#
#
#
# Elastic Compliance Matrix: (Units=1/GPa)
#
#
# Indices 1 2 3 4 5 6 
#
# 1 0.022532 -0.002921 -0.001990 0.000000 0.000000 0.002387
# 2 -0.002921 0.022532 -0.001990 0.000000 0.000000 -0.002387
# 3 -0.001990 -0.001990 0.006370 0.000000 0.000000 0.000000
# 4 0.000000 0.000000 0.000000 0.058233 0.000000 0.000000
# 5 0.000000 0.000000 0.000000 0.000000 0.058233 0.000000
# 6 0.002387 -0.002387 0.000000 0.000000 0.000000 0.026909
#
#
# Mechanical properties :
#
#
# Convention : Reuss Voigt Hill
#
# Bulk Modulus (GPa) = 26.57267 38.27893 32.42580
# Shear Modulus (GPa) = 22.60855 29.14318 25.87586
#
# Velocity S-wave (km/s) = 3.25099 3.69103 3.47798
# Velocity P-wave (km/s) = 5.14917 6.00495 5.59345
#
# Compressibility (1/GPa) = 0.03763265
#
# Stress axis : x y z
#
# Youngs Moduli (GPa) = 44.38165 44.38165 156.97571
#
# Poissons Ratio (x) = 0.12964 0.31236
# Poissons Ratio (y) = 0.12964 0.31236
# Poissons Ratio (z) = 0.08831 0.08831
#
# Static dielectric constant tensor:
#      x y z
#    x 1.786490 0.000000 0.000000 
#    y 0.000000 1.786490 0.000000 
#    z 0.000000 0.000000 1.831010 
# 
# From -- ./inp_files/2886.got.cif
#   From: 2010.05.17/outbox.cif.g08.bks.cpg/sg83_2_cif.got.tgz:2886.got - 2010.06.03 18:55:12.
