data_PCOD9543471
_publ_section_title
;
Structure prediction by ZEFSAII (Michael W. Deem and Ramdas Pophale) SiO2 
 PCOD9543471
Probable space group: P 4/M
;
_chemical_formula_sum "Si O2"
_cell_formula_units_Z 36
_cell_length_a 16.448727
_cell_length_b 16.448727
_cell_length_c 7.706922
_cell_angle_alpha 90.000000
_cell_angle_beta 90.000000
_cell_angle_gamma 90.000000
_cell_volume 2085.189594
_symmetry_space_group_name_H-M "P 4/M"
_symmetry_group_IT_number 83
_symmetry_cell_setting 'tetragonal'
loop_
_space_group_symop_operation_xyz
x,y,z
-y,x,z
-x,-y,z
y,-x,z
-x,-y,-z
y,-x,-z
x,y,-z
-y,x,-z
loop_
_atom_site_type_symbol
_atom_site_label
_atom_site_fract_x
_atom_site_fract_y
_atom_site_fract_z
Si Si1 0.164645 0.663191 0.000000
Si Si2 0.612274 0.280210 0.702967
Si Si3 0.985847 0.134822 0.701955
Si Si4 0.421991 0.265434 0.703085
Si Si5 0.000155 0.737197 0.000000
Si Si6 0.807666 0.711035 0.000000
O O1 0.200008 0.617213 0.168094
O O2 0.205688 0.753967 0.000000
O O3 0.067530 0.667009 0.000000
O O4 0.623390 0.258127 0.500000
O O5 0.516663 0.279123 0.741446
O O6 0.652817 0.368830 0.727334
O O7 0.660848 0.221249 0.831207
O O8 0.983103 0.158406 0.500000
O O9 0.069633 0.085685 0.732437
O O10 0.981385 0.208833 0.831002
O O11 0.414349 0.242089 0.500000
O O12 0.904391 0.719295 0.000000
#
# Coordination Sequence:
#
# PCOD9543471 Si02
#       6
#     4   8   8   8   4   4
#     4  10  21  35  51  74 104 137 173 215 259 298
#     4   9  18  34  56  80 106 134 164 205 259 315
#     4   9  18  32  50  73  98 122 157 216 282 326
#     4   9  18  34  56  80 106 134 164 205 259 315
#     4  12  22  33  51  72  98 140 188 216 240 297
#     4  10  21  35  51  74 104 137 173 215 259 298
#
# _framework density 17.264617999999999
#
# number of rings (size 3 to 8) (size 9 to 14) (size 15 to 20)
#    0.000    2.444    0.000    3.333    0.000    3.111 
#    0.000    8.889    0.000    6.667    0.000    0.000 
#    0.000    0.000    0.000    0.000    0.000    0.000 
#
# Total GULP energy -200803.467445 kJ/mol
# GULP energy per Si atom -5577.874096 kJ/mol
# Density = 1.722532 g / cm^3
# Si number density = 17.264618 Si / 1000 Ang^3
#
#
#
# Elastic Constant Matrix: (Units=GPa)
#
#
# Indices 1 2 3 4 5 6 
#
# 1 59.9576 -3.6804 25.4176 0.0000 0.0000 -2.6413
# 2 -3.6804 59.9576 25.4176 0.0000 0.0000 2.6413
# 3 25.4176 25.4176 46.0984 0.0000 0.0000 0.0000
# 4 0.0000 0.0000 0.0000 43.9533 0.0000 0.0000
# 5 0.0000 0.0000 0.0000 0.0000 43.9533 0.0000
# 6 -2.6413 2.6413 0.0000 0.0000 0.0000 -1.6423
#
#
#
# Elastic Compliance Matrix: (Units=1/GPa)
#
#
# Indices 1 2 3 4 5 6 
#
# 1 0.024632 0.010769 -0.019519 0.000000 0.000000 -0.022296
# 2 0.010769 0.024632 -0.019519 0.000000 0.000000 0.022296
# 3 -0.019519 -0.019519 0.043218 0.000000 0.000000 0.000000
# 4 0.000000 0.000000 0.000000 0.022751 0.000000 0.000000
# 5 0.000000 0.000000 0.000000 0.000000 0.022751 0.000000
# 6 -0.022296 0.022296 0.000000 0.000000 0.000000 -0.537179
#
#
# Mechanical properties :
#
#
# Convention : Reuss Voigt Hill
#
# Bulk Modulus (GPa) = 27.82220 28.92478 28.37349
# Shear Modulus (GPa) = -15.12059 25.17680 5.02811
#
# Velocity S-wave (km/s) = -2.96263 3.82290 1.70842
# Velocity P-wave (km/s) = 2.10886 6.02297 4.51240
#
# Compressibility (1/GPa) = 0.03594252
#
# Stress axis : x y z
#
# Youngs Moduli (GPa) = 40.59763 40.59763 23.13875
#
# Poissons Ratio (x) = -0.43719 0.45165
# Poissons Ratio (y) = -0.43719 0.45165
# Poissons Ratio (z) = 0.79243 0.79243
#
# Static dielectric constant tensor:
#      x y z
#    x 1.570960 0.000000 0.000000 
#    y 0.000000 1.570960 0.000000 
#    z 0.000000 0.000000 1.590250 
# 
# From -- ./inp_files/598.got.cif
#   From: 2010.05.17/outbox.cif.g08.bks.cpg/sg83_1_cif.got.tgz:598.got - 2010.06.03 18:55:12.
