data_PCOD9543635
_publ_section_title
;
Structure prediction by ZEFSAII (Michael W. Deem and Ramdas Pophale) SiO2 
 PCOD9543635
Probable space group: P 4/M
;
_chemical_formula_sum "Si O2"
_cell_formula_units_Z 48
_cell_length_a 9.676456
_cell_length_b 9.676456
_cell_length_c 28.829315
_cell_angle_alpha 90.000000
_cell_angle_beta 90.000000
_cell_angle_gamma 90.000000
_cell_volume 2699.398336
_symmetry_space_group_name_H-M "P 4/M"
_symmetry_group_IT_number 83
_symmetry_cell_setting 'tetragonal'
loop_
_space_group_symop_operation_xyz
x,y,z
-y,x,z
-x,-y,z
y,-x,z
-x,-y,-z
y,-x,-z
x,y,-z
-y,x,-z
loop_
_atom_site_type_symbol
_atom_site_label
_atom_site_fract_x
_atom_site_fract_y
_atom_site_fract_z
Si Si1 0.377057 0.149312 0.254047
Si Si2 0.700966 0.606452 0.055676
Si Si3 0.860293 0.667903 0.782943
Si Si4 0.538662 0.731725 0.348874
Si Si5 0.731816 0.461589 0.549837
Si Si6 0.207327 0.895918 0.114881
O O1 0.267739 0.266270 0.243267
O O2 0.503002 0.159088 0.217519
O O3 0.437968 0.169819 0.305253
O O4 0.308537 0.001285 0.245433
O O5 0.555214 0.681000 0.068062
O O6 0.826871 0.682293 0.080568
O O7 0.715371 0.613674 0.000000
O O8 0.873347 0.735757 0.833191
O O9 0.391533 0.652675 0.346095
O O10 0.550376 0.801015 0.399792
O O11 0.651835 0.608583 0.549833
O O12 0.806426 0.448787 0.500000
O O13 0.059042 0.820763 0.108551
#
# Coordination Sequence:
#
# PCOD9543635 Si02
#       6
#     8   8   8   8   8   8
#     4  11  22  37  55  79 110 147 188 227 279 332
#     4   9  21  42  66  94 125 154 189 234 280 326
#     4  11  24  38  56  81 111 147 187 232 278 328
#     4   9  15  26  46  72 104 141 180 229 280 328
#     4   7  10  17  33  62  98 133 171 217 274 333
#     4  11  24  41  61  85 117 155 191 233 280 332
#
# _framework density 17.781739999999999
#
# number of rings (size 3 to 8) (size 9 to 14) (size 15 to 20)
#    0.000    2.333    3.333    2.000    2.333    2.000 
#    0.000    2.500    0.000    0.000    0.000    3.500 
#    0.000    0.000    0.000    1.500    0.000    0.000 
#
# Total GULP energy -267448.130566 kJ/mol
# GULP energy per Si atom -5571.836053 kJ/mol
# Density = 1.774127 g / cm^3
# Si number density = 17.781740 Si / 1000 Ang^3
#
#
#
# Elastic Constant Matrix: (Units=GPa)
#
#
# Indices 1 2 3 4 5 6 
#
# 1 48.1367 21.3182 20.5570 0.0000 0.0000 -1.5918
# 2 21.3182 48.1367 20.5570 0.0000 0.0000 1.5918
# 3 20.5570 20.5570 69.9333 0.0000 0.0000 0.0000
# 4 0.0000 0.0000 0.0000 8.5039 0.0000 0.0000
# 5 0.0000 0.0000 0.0000 0.0000 8.5039 0.0000
# 6 -1.5918 1.5918 0.0000 0.0000 0.0000 29.2545
#
#
#
# Elastic Compliance Matrix: (Units=1/GPa)
#
#
# Indices 1 2 3 4 5 6 
#
# 1 0.027481 -0.010050 -0.005124 0.000000 0.000000 0.002042
# 2 -0.010050 0.027481 -0.005124 0.000000 0.000000 -0.002042
# 3 -0.005124 -0.005124 0.017312 0.000000 0.000000 0.000000
# 4 0.000000 0.000000 0.000000 0.117592 0.000000 0.000000
# 5 0.000000 0.000000 0.000000 0.000000 0.117592 0.000000
# 6 0.002042 -0.002042 0.000000 0.000000 0.000000 0.034405
#
#
# Mechanical properties :
#
#
# Convention : Reuss Voigt Hill
#
# Bulk Modulus (GPa) = 31.56756 32.34125 31.95440
# Shear Modulus (GPa) = 12.72211 16.17077 14.44644
#
# Velocity S-wave (km/s) = 2.67771 3.01890 2.85341
# Velocity P-wave (km/s) = 5.22987 5.51172 5.37264
#
# Compressibility (1/GPa) = 0.03167809
#
# Stress axis : x y z
#
# Youngs Moduli (GPa) = 36.38939 36.38939 57.76450
#
# Poissons Ratio (x) = 0.36570 0.29598
# Poissons Ratio (y) = 0.36570 0.29598
# Poissons Ratio (z) = 0.18645 0.18645
#
# Static dielectric constant tensor:
#      x y z
#    x 1.608430 0.000000 0.000000 
#    y 0.000000 1.608430 0.000000 
#    z 0.000000 0.000000 1.636160 
# 
# From -- ./inp_files/3416.got.cif
#   From: 2010.05.17/outbox.cif.g08.bks.cpg/sg83_2_cif.got.tgz:3416.got - 2010.06.03 18:55:12.
