data_PCOD9543502
_publ_section_title
;
Structure prediction by ZEFSAII (Michael W. Deem and Ramdas Pophale) SiO2 
 PCOD9543502
Probable space group: P 4/M
;
_chemical_formula_sum "Si O2"
_cell_formula_units_Z 40
_cell_length_a 16.211400
_cell_length_b 16.211400
_cell_length_c 8.754361
_cell_angle_alpha 90.000000
_cell_angle_beta 90.000000
_cell_angle_gamma 90.000000
_cell_volume 2300.729149
_symmetry_space_group_name_H-M "P 4/M"
_symmetry_group_IT_number 83
_symmetry_cell_setting 'tetragonal'
loop_
_space_group_symop_operation_xyz
x,y,z
-y,x,z
-x,-y,z
y,-x,z
-x,-y,-z
y,-x,-z
x,y,-z
-y,x,-z
loop_
_atom_site_type_symbol
_atom_site_label
_atom_site_fract_x
_atom_site_fract_y
_atom_site_fract_z
Si Si1 0.858114 0.281033 0.682843
Si Si2 0.483511 0.739654 0.817456
Si Si3 0.536564 0.911152 0.684437
Si Si4 0.321063 0.655374 0.683803
Si Si5 0.059608 0.880952 0.815955
O O1 0.863059 0.273718 0.500000
O O2 0.902816 0.366855 0.726029
O O3 0.761932 0.293533 0.723356
O O4 0.899038 0.201395 0.755423
O O5 0.490444 0.834363 0.761501
O O6 0.401374 0.697448 0.753338
O O7 0.563851 0.693972 0.748901
O O8 0.485374 0.735898 0.000000
O O9 0.530575 0.901209 0.500000
O O10 0.500000 0.000000 0.725283
O O11 0.326987 0.651318 0.500000
O O12 0.964301 0.892683 0.767247
O O13 0.060331 0.879530 0.000000
#
# Coordination Sequence:
#
# PCOD9543502 Si02
#       5
#     8   8   8   8   8
#     4   9  19  34  54  79 103 133 176 220 258 303
#     4  11  22  36  56  84 112 137 176 228 272 311
#     4   9  19  37  57  77 107 146 182 217 264 324
#     4  10  21  39  58  77 107 146 180 212 263 327
#     4   9  19  35  52  72 103 141 175 211 262 318
#
# _framework density 17.385791999999999
#
# number of rings (size 3 to 8) (size 9 to 14) (size 15 to 20)
#    0.000    2.400    0.000    4.200    0.000    7.200 
#    0.000    9.000    0.000    0.000    0.000    0.000 
#    0.000    0.000    0.000    0.000    0.000    0.000 
#
# Total GULP energy -223222.872058 kJ/mol
# GULP energy per Si atom -5580.571801 kJ/mol
# Density = 1.734622 g / cm^3
# Si number density = 17.385792 Si / 1000 Ang^3
#
#
#
# Elastic Constant Matrix: (Units=GPa)
#
#
# Indices 1 2 3 4 5 6 
#
# 1 164.8341 126.0166 61.3774 0.0000 0.0000 18.6165
# 2 126.0166 164.8341 61.3774 0.0000 0.0000 -18.6165
# 3 61.3774 61.3774 59.9392 0.0000 0.0000 0.0000
# 4 0.0000 0.0000 0.0000 19.3249 0.0000 0.0000
# 5 0.0000 0.0000 0.0000 0.0000 19.3249 0.0000
# 6 18.6165 -18.6165 0.0000 0.0000 0.0000 30.5691
#
#
#
# Elastic Compliance Matrix: (Units=1/GPa)
#
#
# Indices 1 2 3 4 5 6 
#
# 1 0.034002 -0.027946 -0.006200 0.000000 0.000000 -0.037726
# 2 -0.027946 0.034002 -0.006200 0.000000 0.000000 0.037726
# 3 -0.006200 -0.006200 0.029382 0.000000 0.000000 0.000000
# 4 0.000000 0.000000 0.000000 0.051747 0.000000 0.000000
# 5 0.000000 0.000000 0.000000 0.000000 0.051747 0.000000
# 6 -0.037726 0.037726 0.000000 0.000000 0.000000 0.078663
#
#
# Mechanical properties :
#
#
# Convention : Reuss Voigt Hill
#
# Bulk Modulus (GPa) = 59.91412 98.57224 79.24318
# Shear Modulus (GPa) = 13.66869 23.23286 18.45077
#
# Velocity S-wave (km/s) = 2.80697 3.65953 3.26123
# Velocity P-wave (km/s) = 6.71132 8.64154 7.73686
#
# Compressibility (1/GPa) = 0.01669056
#
# Stress axis : x y z
#
# Youngs Moduli (GPa) = 29.41043 29.41043 34.03454
#
# Poissons Ratio (x) = 0.82192 0.21103
# Poissons Ratio (y) = 0.82192 0.21103
# Poissons Ratio (z) = 0.18236 0.18236
#
# Static dielectric constant tensor:
#      x y z
#    x 1.569730 0.000000 0.000000 
#    y 0.000000 1.569730 0.000000 
#    z 0.000000 0.000000 1.584740 
# 
# From -- ./inp_files/652.got.cif
#   From: 2010.05.17/outbox.cif.g08.bks.cpg/sg83_1_cif.got.tgz:652.got - 2010.06.03 18:55:12.
