data_PCOD9543681
_publ_section_title
;
Structure prediction by ZEFSAII (Michael W. Deem and Ramdas Pophale) SiO2 
 PCOD9543681
Probable space group: P 4/M
;
_chemical_formula_sum "Si O2"
_cell_formula_units_Z 32
_cell_length_a 7.553955
_cell_length_b 7.553955
_cell_length_c 22.772218
_cell_angle_alpha 90.000000
_cell_angle_beta 90.000000
_cell_angle_gamma 90.000000
_cell_volume 1299.433681
_symmetry_space_group_name_H-M "P 4/M"
_symmetry_group_IT_number 83
_symmetry_cell_setting 'tetragonal'
loop_
_space_group_symop_operation_xyz
x,y,z
-y,x,z
-x,-y,z
y,-x,z
-x,-y,-z
y,-x,-z
x,y,-z
-y,x,-z
loop_
_atom_site_type_symbol
_atom_site_label
_atom_site_fract_x
_atom_site_fract_y
_atom_site_fract_z
Si Si1 0.635400 0.769792 0.000000
Si Si2 0.394328 0.222179 0.376237
Si Si3 0.909360 0.277901 0.500000
Si Si4 0.229239 0.633359 0.125613
Si Si5 0.225814 0.626008 0.748867
O O1 0.424585 0.726661 0.000000
O O2 0.676970 0.858343 0.062809
O O3 0.597399 0.282038 0.375822
O O4 0.365532 0.129353 0.437807
O O5 0.343103 0.132607 0.313872
O O6 0.108392 0.215710 0.500000
O O7 0.273988 0.422915 0.125576
O O8 0.138808 0.671526 0.188386
O O9 0.276568 0.417018 0.749005
#
# Coordination Sequence:
#
# PCOD9543681 Si02
#       5
#     4   8   4   8   8
#     4   7   8   8  12  26  52  90 130 155 172 206
#     4   9  17  30  49  70  87 106 137 173 206 244
#     4  11  24  37  46  60  84 111 136 165 206 254
#     4   7   8  10  17  32  58  92 126 155 181 212
#     4   7  10  17  30  49  72  96 124 160 196 226
#
# _framework density 24.626114999999999
#
# number of rings (size 3 to 8) (size 9 to 14) (size 15 to 20)
#    0.000    4.000    0.000    5.250    0.000    3.000 
#    0.000    0.000    0.000    0.000    0.000    0.000 
#    0.000    0.000    0.000    2.250    0.000   53.750 
#
# Total GULP energy -178450.014904 kJ/mol
# GULP energy per Si atom -5576.562966 kJ/mol
# Density = 2.457006 g / cm^3
# Si number density = 24.626115 Si / 1000 Ang^3
#
#
#
# Elastic Constant Matrix: (Units=GPa)
#
#
# Indices 1 2 3 4 5 6 
#
# 1 40.0934 2.2160 42.3325 0.0000 0.0000 -5.3766
# 2 2.2160 40.0934 42.3325 0.0000 0.0000 5.3766
# 3 42.3325 42.3325 368.0380 0.0000 0.0000 0.0000
# 4 0.0000 0.0000 0.0000 -46.3750 0.0000 0.0000
# 5 0.0000 0.0000 0.0000 0.0000 -46.3750 0.0000
# 6 -5.3766 5.3766 0.0000 0.0000 0.0000 25.1080
#
#
#
# Elastic Compliance Matrix: (Units=1/GPa)
#
#
# Indices 1 2 3 4 5 6 
#
# 1 0.029406 0.001296 -0.003531 0.000000 0.000000 0.006019
# 2 0.001296 0.029406 -0.003531 0.000000 0.000000 -0.006019
# 3 -0.003531 -0.003531 0.003529 0.000000 0.000000 0.000000
# 4 0.000000 0.000000 0.000000 -0.021563 0.000000 0.000000
# 5 0.000000 0.000000 0.000000 0.000000 -0.021563 0.000000
# 6 0.006019 -0.006019 0.000000 0.000000 0.000000 0.042406
#
#
# Mechanical properties :
#
#
# Convention : Reuss Voigt Hill
#
# Bulk Modulus (GPa) = 19.68193 69.10964 44.39578
# Shear Modulus (GPa) = 55.49988 10.56116 33.03052
#
# Velocity S-wave (km/s) = 4.75247 2.07314 3.66632
# Velocity P-wave (km/s) = 6.17448 5.81851 5.99914
#
# Compressibility (1/GPa) = 0.05080803
#
# Stress axis : x y z
#
# Youngs Moduli (GPa) = 34.00666 34.00666 283.32673
#
# Poissons Ratio (x) = -0.04408 1.00055
# Poissons Ratio (y) = -0.04408 1.00055
# Poissons Ratio (z) = 0.12009 0.12009
#
# Static dielectric constant tensor:
#      x y z
#    x 1.908940 0.000000 0.000000 
#    y 0.000000 1.908940 0.000000 
#    z 0.000000 0.000000 2.082780 
# 
# From -- ./inp_files/3070.got.cif
#   From: 2010.05.17/outbox.cif.g08.bks.cpg/sg83_2_cif.got.tgz:3070.got - 2010.06.03 18:55:12.
