data_PCOD9543254
_publ_section_title
;
Structure prediction by ZEFSAII (Michael W. Deem and Ramdas Pophale) SiO2 
 PCOD9543254
Probable space group: P 4/M
;
_chemical_formula_sum "Si O2"
_cell_formula_units_Z 48
_cell_length_a 17.542957
_cell_length_b 17.542957
_cell_length_c 8.034321
_cell_angle_alpha 90.000000
_cell_angle_beta 90.000000
_cell_angle_gamma 90.000000
_cell_volume 2472.605193
_symmetry_space_group_name_H-M "P 4/M"
_symmetry_group_IT_number 83
_symmetry_cell_setting 'tetragonal'
loop_
_space_group_symop_operation_xyz
x,y,z
-y,x,z
-x,-y,z
y,-x,z
-x,-y,-z
y,-x,-z
x,y,-z
-y,x,-z
loop_
_atom_site_type_symbol
_atom_site_label
_atom_site_fract_x
_atom_site_fract_y
_atom_site_fract_z
Si Si1 0.998585 0.386012 0.308629
Si Si2 0.001669 0.779305 0.797773
Si Si3 0.258906 0.714617 0.799312
Si Si4 0.150904 0.847386 0.798545
Si Si5 0.166325 0.566881 0.302997
Si Si6 0.176191 0.398268 0.801661
O O1 0.006674 0.409888 0.500000
O O2 0.085442 0.387472 0.238692
O O3 0.975390 0.298276 0.288626
O O4 0.922242 0.426950 0.234958
O O5 0.062592 0.844135 0.759086
O O6 0.919573 0.804058 0.737021
O O7 0.001487 0.767185 0.000000
O O8 0.191067 0.770511 0.744150
O O9 0.227781 0.630879 0.751558
O O10 0.334872 0.761656 0.740806
O O11 0.263544 0.713821 0.000000
O O12 0.156735 0.849889 0.000000
O O13 0.157905 0.575543 0.500000
O O14 0.195339 0.482636 0.260961
O O15 0.180602 0.395692 0.000000
#
# Coordination Sequence:
#
# PCOD9543254 Si02
#       6
#     8   8   8   8   8   8
#     4  11  22  35  53  82 117 150 187 233 283 337
#     4  10  18  32  52  76 107 147 193 239 281 327
#     4  10  20  37  60  85 110 144 189 232 278 337
#     4   9  17  30  52  78 106 142 192 239 276 325
#     4  11  24  39  57  86 120 152 187 228 282 341
#     4  11  23  39  61  87 115 149 190 234 282 334
#
# _framework density 19.412724000000001
#
# number of rings (size 3 to 8) (size 9 to 14) (size 15 to 20)
#    0.000    1.667    3.333    2.000    0.000    5.667 
#    0.000    2.500    0.000    0.500    0.000    4.667 
#    0.000    0.000    0.000    0.000    0.000    0.000 
#
# Total GULP energy -267299.617311 kJ/mol
# GULP energy per Si atom -5568.742027 kJ/mol
# Density = 1.936854 g / cm^3
# Si number density = 19.412724 Si / 1000 Ang^3
#
#
#
# Elastic Constant Matrix: (Units=GPa)
#
#
# Indices 1 2 3 4 5 6 
#
# 1 108.2823 63.2139 9.5766 0.0000 0.0000 -16.5052
# 2 63.2139 108.2823 9.5766 0.0000 0.0000 16.5052
# 3 9.5766 9.5766 19.0239 0.0000 0.0000 0.0000
# 4 0.0000 0.0000 0.0000 -33.8131 0.0000 0.0000
# 5 0.0000 0.0000 0.0000 0.0000 -33.8131 0.0000
# 6 -16.5052 16.5052 0.0000 0.0000 0.0000 4.8760
#
#
#
# Elastic Compliance Matrix: (Units=1/GPa)
#
#
# Indices 1 2 3 4 5 6 
#
# 1 -0.004410 0.010589 -0.003110 0.000000 0.000000 -0.050771
# 2 0.010589 -0.004410 -0.003110 0.000000 0.000000 0.050771
# 3 -0.003110 -0.003110 0.055697 0.000000 0.000000 0.000000
# 4 0.000000 0.000000 0.000000 -0.029574 0.000000 0.000000
# 5 0.000000 0.000000 0.000000 0.000000 -0.029574 0.000000
# 6 -0.050771 0.050771 0.000000 0.000000 0.000000 -0.138633
#
#
# Mechanical properties :
#
#
# Convention : Reuss Voigt Hill
#
# Bulk Modulus (GPa) = 17.98145 44.48030 31.23088
# Shear Modulus (GPa) = -35.43476 -2.33529 -18.88503
#
# Velocity S-wave (km/s) = -4.27703 -1.09799 -3.12239
# Velocity P-wave (km/s) = 3.88688 4.62118 1.76740
#
# Compressibility (1/GPa) = 0.05561286
#
# Stress axis : x y z
#
# Youngs Moduli (GPa) = -226.74692 -226.74692 17.95433
#
# Poissons Ratio (x) = 2.40093 0.05584
# Poissons Ratio (y) = 2.40093 0.05584
# Poissons Ratio (z) = -0.70523 -0.70523
#
# Static dielectric constant tensor:
#      x y z
#    x 1.690050 0.000000 0.000000 
#    y 0.000000 1.690050 0.000000 
#    z 0.000000 0.000000 1.707540 
# 
# From -- ./inp_files/930.got.cif
#   From: 2010.05.17/outbox.cif.g08.bks.cpg/sg83_1_cif.got.tgz:930.got - 2010.06.03 18:55:12.
