data_PCOD9543135
_publ_section_title
;
Structure prediction by ZEFSAII (Michael W. Deem and Ramdas Pophale) SiO2 
 PCOD9543135
Probable space group: I -4 
;
_chemical_formula_sum "Si O2"
_cell_formula_units_Z 34
_cell_length_a 10.959587
_cell_length_b 10.959587
_cell_length_c 11.840549
_cell_angle_alpha 90.000000
_cell_angle_beta 90.000000
_cell_angle_gamma 90.000000
_cell_volume 1422.198501
_symmetry_space_group_name_H-M "I -4 "
_symmetry_group_IT_number 82
_symmetry_cell_setting 'tetragonal'
loop_
_space_group_symop_operation_xyz
x,y,z
y,-x,-z
-x,-y,z
-y,x,-z
1/2+x,1/2+y,1/2+z
1/2+y,1/2-x,1/2-z
1/2-x,1/2-y,1/2+z
1/2-y,1/2+x,1/2-z
loop_
_atom_site_type_symbol
_atom_site_label
_atom_site_fract_x
_atom_site_fract_y
_atom_site_fract_z
Si Si1 0.142905 0.098606 0.940958
Si Si2 0.942852 0.126820 0.314976
Si Si3 0.500000 0.000000 0.750000
Si Si4 0.899961 0.666395 0.431964
Si Si5 0.568700 0.840049 0.185150
O O1 0.138150 0.035368 0.818949
O O2 0.255557 0.191452 0.944833
O O3 0.013235 0.158802 0.970995
O O4 0.796128 0.122341 0.320152
O O5 0.011408 0.229143 0.386305
O O6 0.000000 0.000000 0.354159
O O7 0.435649 0.907257 0.665199
O O8 0.944037 0.624801 0.554360
O O9 0.438307 0.848183 0.248631
#
# Coordination Sequence:
#
# PCOD9543135 Si02
#       5
#     8   8   2   8   8
#     4  11  24  49  81 116 160 221 278 338 417 507
#     4  12  28  48  77 119 160 215 279 342 420 493
#     4  12  24  48  70 120 152 212 268 338 424 488
#     4  12  28  47  80 116 165 210 280 350 419 492
#     4  11  28  52  81 116 162 224 283 345 416 500
#
# _framework density 23.906645999999999
#
# number of rings (size 3 to 8) (size 9 to 14) (size 15 to 20)
#    0.000    0.471    4.706    2.824    6.588    1.882 
#    0.000    0.000    0.000    0.000    0.000    0.000 
#    0.000    0.000    0.000    0.000    0.000    0.000 
#
# Total GULP energy -95118.244471 kJ/mol
# GULP energy per Si atom -5595.190851 kJ/mol
# Density = 2.385223 g / cm^3
# Si number density = 23.906646 Si / 1000 Ang^3
#
#
#
# Elastic Constant Matrix: (Units=GPa)
#
#
# Indices 1 2 3 4 5 6 
#
# 1 132.7111 26.4117 38.4631 0.0000 0.0000 10.1421
# 2 26.4117 132.7111 38.4631 0.0000 0.0000 -10.1421
# 3 38.4631 38.4631 181.3236 0.0000 0.0000 0.0000
# 4 0.0000 0.0000 0.0000 22.8055 0.0000 0.0000
# 5 0.0000 0.0000 0.0000 0.0000 22.8055 0.0000
# 6 10.1421 -10.1421 0.0000 0.0000 0.0000 38.6806
#
#
#
# Elastic Compliance Matrix: (Units=1/GPa)
#
#
# Indices 1 2 3 4 5 6 
#
# 1 0.008453 -0.001450 -0.001485 0.000000 0.000000 -0.002597
# 2 -0.001450 0.008453 -0.001485 0.000000 0.000000 0.002597
# 3 -0.001485 -0.001485 0.006145 0.000000 0.000000 0.000000
# 4 0.000000 0.000000 0.000000 0.043849 0.000000 0.000000
# 5 0.000000 0.000000 0.000000 0.000000 0.043849 0.000000
# 6 -0.002597 0.002597 0.000000 0.000000 0.000000 0.027214
#
#
# Mechanical properties :
#
#
# Convention : Reuss Voigt Hill
#
# Bulk Modulus (GPa) = 70.37961 72.60239 71.49100
# Shear Modulus (GPa) = 32.99429 39.75218 36.37323
#
# Velocity S-wave (km/s) = 3.71904 4.08218 3.90483
# Velocity P-wave (km/s) = 6.92423 7.25631 7.09221
#
# Compressibility (1/GPa) = 0.01420866
#
# Stress axis : x y z
#
# Youngs Moduli (GPa) = 118.30524 118.30524 162.72911
#
# Poissons Ratio (x) = 0.17156 0.24172
# Poissons Ratio (y) = 0.17156 0.24172
# Poissons Ratio (z) = 0.17573 0.17573
#
# Static dielectric constant tensor:
#      x y z
#    x 1.958020 0.000000 0.000000 
#    y 0.000000 1.958020 0.000000 
#    z 0.000000 0.000000 1.906370 
# 
# From -- ./inp_files/1595.got.cif
#   From: 2010.05.17/outbox.cif.g08.bks.cpg/sg82_1_cif.got.tgz:1595.got - 2010.06.03 18:52:26.
