data_PCOD9543268
_publ_section_title
;
Structure prediction by ZEFSAII (Michael W. Deem and Ramdas Pophale) SiO2 
 PCOD9543268
Probable space group: P 4/M
;
_chemical_formula_sum "Si O2"
_cell_formula_units_Z 32
_cell_length_a 12.775312
_cell_length_b 12.775312
_cell_length_c 14.106672
_cell_angle_alpha 90.000000
_cell_angle_beta 90.000000
_cell_angle_gamma 90.000000
_cell_volume 2302.330141
_symmetry_space_group_name_H-M "P 4/M"
_symmetry_group_IT_number 83
_symmetry_cell_setting 'tetragonal'
loop_
_space_group_symop_operation_xyz
x,y,z
-y,x,z
-x,-y,z
y,-x,z
-x,-y,-z
y,-x,-z
x,y,-z
-y,x,-z
loop_
_atom_site_type_symbol
_atom_site_label
_atom_site_fract_x
_atom_site_fract_y
_atom_site_fract_z
Si Si1 0.663334 0.433500 0.890398
Si Si2 0.989530 0.373513 0.608178
Si Si3 0.776885 0.619563 0.386310
Si Si4 0.222453 0.611620 0.703413
O O1 0.631106 0.555256 0.876276
O O2 0.747988 0.399128 0.813530
O O3 0.695272 0.420629 0.000000
O O4 0.964358 0.340056 0.500000
O O5 0.894240 0.349726 0.677945
O O6 0.000000 0.500000 0.605622
O O7 0.106012 0.337531 0.635102
O O8 0.769166 0.611413 0.500000
O O9 0.766351 0.503897 0.342364
O O10 0.688971 0.694905 0.345144
#
# Coordination Sequence:
#
# PCOD9543268 Si02
#       4
#     8   8   8   8
#     4   9  17  29  42  61  90 119 144 173 223 275
#     4   8  16  29  41  58  89 123 145 165 214 271
#     4  10  19  28  42  66  92 117 144 177 216 262
#     4  11  17  28  46  64  86 115 149 182 212 256
#
# _framework density 13.898963
#
# number of rings (size 3 to 8) (size 9 to 14) (size 15 to 20)
#    0.000    2.500    2.500    4.500    0.000    0.500 
#    0.000    1.250    0.000    9.000    0.000    3.500 
#    0.000    0.000    0.000    2.250    0.000    0.250 
#
# Total GULP energy -178173.006428 kJ/mol
# GULP energy per Si atom -5567.906451 kJ/mol
# Density = 1.386733 g / cm^3
# Si number density = 13.898963 Si / 1000 Ang^3
#
#
#
# Elastic Constant Matrix: (Units=GPa)
#
#
# Indices 1 2 3 4 5 6 
#
# 1 66.0218 35.5691 45.9002 0.0000 0.0000 5.5343
# 2 35.5691 66.0218 45.9002 0.0000 0.0000 -5.5343
# 3 45.9002 45.9002 104.6192 0.0000 0.0000 0.0000
# 4 0.0000 0.0000 0.0000 16.7599 0.0000 0.0000
# 5 0.0000 0.0000 0.0000 0.0000 16.7599 0.0000
# 6 5.5343 -5.5343 0.0000 0.0000 0.0000 4.9593
#
#
#
# Elastic Compliance Matrix: (Units=1/GPa)
#
#
# Indices 1 2 3 4 5 6 
#
# 1 0.035778 -0.019468 -0.007155 0.000000 0.000000 -0.061651
# 2 -0.019468 0.035778 -0.007155 0.000000 0.000000 0.061651
# 3 -0.007155 -0.007155 0.015837 0.000000 0.000000 0.000000
# 4 0.000000 0.000000 0.000000 0.059666 0.000000 0.000000
# 5 0.000000 0.000000 0.000000 0.000000 0.059666 0.000000
# 6 -0.061651 0.061651 0.000000 0.000000 0.000000 0.339237
#
#
# Mechanical properties :
#
#
# Convention : Reuss Voigt Hill
#
# Bulk Modulus (GPa) = 50.41872 54.60019 52.50945
# Shear Modulus (GPa) = 8.06280 14.98203 11.52242
#
# Velocity S-wave (km/s) = 2.41114 3.28674 2.88238
# Velocity P-wave (km/s) = 6.64119 7.33297 6.99564
#
# Compressibility (1/GPa) = 0.01983390
#
# Stress axis : x y z
#
# Youngs Moduli (GPa) = 27.95045 27.95045 63.14246
#
# Poissons Ratio (x) = 0.54415 0.45181
# Poissons Ratio (y) = 0.54415 0.45181
# Poissons Ratio (z) = 0.20000 0.20000
#
# Static dielectric constant tensor:
#      x y z
#    x 1.457280 0.000000 0.000000 
#    y 0.000000 1.457280 0.000000 
#    z 0.000000 0.000000 1.453810 
# 
# From -- ./inp_files/1537.got.cif
#   From: 2010.05.17/outbox.cif.g08.bks.cpg/sg83_1_cif.got.tgz:1537.got - 2010.06.03 18:55:12.
