data_PCOD9543805
_publ_section_title
;
Structure prediction by ZEFSAII (Michael W. Deem and Ramdas Pophale) SiO2 
 PCOD9543805
Probable space group: P 4/M
;
_chemical_formula_sum "Si O2"
_cell_formula_units_Z 26
_cell_length_a 8.164515
_cell_length_b 8.164515
_cell_length_c 16.513625
_cell_angle_alpha 90.000000
_cell_angle_beta 90.000000
_cell_angle_gamma 90.000000
_cell_volume 1100.786769
_symmetry_space_group_name_H-M "P 4/M"
_symmetry_group_IT_number 83
_symmetry_cell_setting 'tetragonal'
loop_
_space_group_symop_operation_xyz
x,y,z
-y,x,z
-x,-y,z
y,-x,z
-x,-y,-z
y,-x,-z
x,y,-z
-y,x,-z
loop_
_atom_site_type_symbol
_atom_site_label
_atom_site_fract_x
_atom_site_fract_y
_atom_site_fract_z
Si Si1 0.500000 0.500000 0.500000
Si Si2 0.079916 0.262975 0.000000
Si Si3 0.000000 0.000000 0.500000
Si Si4 0.296031 0.820098 0.500000
Si Si5 0.235613 0.409908 0.332293
Si Si6 0.588902 0.237148 0.154407
O O1 0.347687 0.628130 0.500000
O O2 0.123422 0.362625 0.919545
O O3 0.896420 0.196954 0.000000
O O4 0.901409 0.171710 0.500000
O O5 0.361248 0.869169 0.410346
O O6 0.403588 0.301788 0.334292
O O7 0.160781 0.382188 0.243461
O O8 0.698798 0.402525 0.149208
#
# Coordination Sequence:
#
# PCOD9543805 Si02
#       6
#     1   4   1   4   8   8
#     4  12  20  40 100  84 116 186 284 276 292 408
#     4  11  24  41  54  76 114 169 208 241 310 422
#     4  12  36  40  52 100 180 170 204 292 396 400
#     4  12  20  46  64 106 128 194 216 286 328 410
#     4   9  15  33  67  99 116 153 227 275 303 377
#     4   9  19  35  62  94 119 142 195 278 326 350
#
# _framework density 23.619468999999999
#
# number of rings (size 3 to 8) (size 9 to 14) (size 15 to 20)
#    0.000    2.000    3.077    2.769    0.000    4.308 
#    5.538    0.000    0.000    0.000    0.000    0.000 
#    0.000    0.000    0.000    0.000    0.000    0.000 
#
# Total GULP energy -144796.506748 kJ/mol
# GULP energy per Si atom -5569.096413 kJ/mol
# Density = 2.356571 g / cm^3
# Si number density = 23.619469 Si / 1000 Ang^3
#
#
#
# Elastic Constant Matrix: (Units=GPa)
#
#
# Indices 1 2 3 4 5 6 
#
# 1 58.6342 41.0570 51.3352 0.0000 0.0000 -12.4434
# 2 41.0570 58.6342 51.3352 0.0000 0.0000 12.4434
# 3 51.3352 51.3352 260.4318 0.0000 0.0000 0.0000
# 4 0.0000 0.0000 0.0000 -49.1213 0.0000 0.0000
# 5 0.0000 0.0000 0.0000 0.0000 -49.1213 0.0000
# 6 -12.4434 12.4434 0.0000 0.0000 0.0000 50.8900
#
#
#
# Elastic Compliance Matrix: (Units=1/GPa)
#
#
# Indices 1 2 3 4 5 6 
#
# 1 0.049801 -0.037215 -0.002481 0.000000 0.000000 0.021277
# 2 -0.037215 0.049801 -0.002481 0.000000 0.000000 -0.021277
# 3 -0.002481 -0.002481 0.004818 0.000000 0.000000 0.000000
# 4 0.000000 0.000000 0.000000 -0.020358 0.000000 0.000000
# 5 0.000000 0.000000 0.000000 0.000000 -0.020358 0.000000
# 6 0.021277 -0.021277 0.000000 0.000000 0.000000 0.030055
#
#
# Mechanical properties :
#
#
# Convention : Reuss Voigt Hill
#
# Bulk Modulus (GPa) = 49.83496 73.90614 61.87055
# Shear Modulus (GPa) = 27.05571 6.12765 16.59168
#
# Velocity S-wave (km/s) = 3.38817 1.61244 2.65327
# Velocity P-wave (km/s) = 6.03748 5.90126 5.96976
#
# Compressibility (1/GPa) = 0.02006624
#
# Stress axis : x y z
#
# Youngs Moduli (GPa) = 20.07972 20.07972 207.56242
#
# Poissons Ratio (x) = 0.74728 0.51494
# Poissons Ratio (y) = 0.74728 0.51494
# Poissons Ratio (z) = 0.04982 0.04982
#
# Static dielectric constant tensor:
#      x y z
#    x 1.890060 0.000000 0.000000 
#    y 0.000000 1.890060 0.000000 
#    z 0.000000 0.000000 2.003170 
# 
# From -- ./inp_files/2500.got.cif
#   From: 2010.05.17/outbox.cif.g08.bks.cpg/sg83_2_cif.got.tgz:2500.got - 2010.06.03 18:55:12.
