data_PCOD9543311
_publ_section_title
;
Structure prediction by ZEFSAII (Michael W. Deem and Ramdas Pophale) SiO2 
 PCOD9543311
Probable space group: P 4/M
;
_chemical_formula_sum "Si O2"
_cell_formula_units_Z 52
_cell_length_a 18.898629
_cell_length_b 18.898629
_cell_length_c 8.479409
_cell_angle_alpha 90.000000
_cell_angle_beta 90.000000
_cell_angle_gamma 90.000000
_cell_volume 3028.490270
_symmetry_space_group_name_H-M "P 4/M"
_symmetry_group_IT_number 83
_symmetry_cell_setting 'tetragonal'
loop_
_space_group_symop_operation_xyz
x,y,z
-y,x,z
-x,-y,z
y,-x,z
-x,-y,-z
y,-x,-z
x,y,-z
-y,x,-z
loop_
_atom_site_type_symbol
_atom_site_label
_atom_site_fract_x
_atom_site_fract_y
_atom_site_fract_z
Si Si1 0.984496 0.269481 0.685405
Si Si2 0.745028 0.755487 0.678580
Si Si3 0.857334 0.884115 0.323876
Si Si4 0.904406 0.069571 0.000000
Si Si5 0.141675 0.634246 0.813400
Si Si6 0.082173 0.487152 0.191146
Si Si7 0.664864 0.130726 0.309283
O O1 0.981593 0.287853 0.500000
O O2 0.955133 0.189891 0.695828
O O3 0.927596 0.319509 0.770130
O O4 0.063898 0.286125 0.740366
O O5 0.726100 0.735496 0.500000
O O6 0.800387 0.820929 0.671485
O O7 0.675758 0.788953 0.756047
O O8 0.793821 0.693871 0.751985
O O9 0.891904 0.885280 0.500000
O O10 0.902180 0.874580 0.165836
O O11 0.985618 0.094987 0.000000
O O12 0.127358 0.554982 0.753468
O O13 0.145309 0.630352 0.000000
O O14 0.111348 0.414018 0.258563
O O15 0.000000 0.500000 0.236007
O O16 0.084108 0.483404 0.000000
O O17 0.669444 0.134570 0.500000
#
# Coordination Sequence:
#
# PCOD9543311 Si02
#       7
#     8   8   8   4   8   8   8
#     4   9  18  31  48  72  96 125 168 209 254 311
#     4   9  20  36  51  73 100 128 171 217 256 306
#     4   9  20  38  56  70  95 129 162 214 276 317
#     4  11  26  40  48  70  92 113 173 225 261 331
#     4  10  19  32  50  70 101 140 172 202 254 312
#     4  10  20  34  48  74 111 140 167 207 257 311
#     4  10  20  33  52  77 101 128 172 218 254 307
#
# _framework density 17.170271
#
# number of rings (size 3 to 8) (size 9 to 14) (size 15 to 20)
#    0.000    2.385    1.538    1.385    6.462    2.769 
#    0.000    0.769    0.000    0.000    0.000    0.000 
#    0.000    0.615    0.000    6.769    0.000    4.923 
#
# Total GULP energy -289885.390465 kJ/mol
# GULP energy per Si atom -5574.719047 kJ/mol
# Density = 1.713119 g / cm^3
# Si number density = 17.170271 Si / 1000 Ang^3
#
#
#
# Elastic Constant Matrix: (Units=GPa)
#
#
# Indices 1 2 3 4 5 6 
#
# 1 50.6163 79.1298 23.6826 0.0000 0.0000 0.6352
# 2 79.1298 50.6163 23.6826 0.0000 0.0000 -0.6352
# 3 23.6826 23.6826 46.7419 0.0000 0.0000 0.0000
# 4 0.0000 0.0000 0.0000 18.2225 0.0000 0.0000
# 5 0.0000 0.0000 0.0000 0.0000 18.2225 0.0000
# 6 0.6352 -0.6352 0.0000 0.0000 0.0000 25.2223
#
#
#
# Elastic Compliance Matrix: (Units=1/GPa)
#
#
# Indices 1 2 3 4 5 6 
#
# 1 -0.012788 0.022244 -0.004791 0.000000 0.000000 0.000882
# 2 0.022244 -0.012788 -0.004791 0.000000 0.000000 -0.000882
# 3 -0.004791 -0.004791 0.026249 0.000000 0.000000 0.000000
# 4 0.000000 0.000000 0.000000 0.054877 0.000000 0.000000
# 5 0.000000 0.000000 0.000000 0.000000 0.054877 0.000000
# 6 0.000882 -0.000882 0.000000 0.000000 0.000000 0.039603
#
#
# Mechanical properties :
#
#
# Convention : Reuss Voigt Hill
#
# Bulk Modulus (GPa) = 38.46589 44.55161 41.50875
# Shear Modulus (GPa) = 37.48849 13.76540 25.62695
#
# Velocity S-wave (km/s) = 4.67769 2.83450 3.86750
# Velocity P-wave (km/s) = 7.18510 6.05936 6.64610
#
# Compressibility (1/GPa) = 0.02599706
#
# Stress axis : x y z
#
# Youngs Moduli (GPa) = -78.20037 -78.20037 38.09625
#
# Poissons Ratio (x) = 1.73950 0.18253
# Poissons Ratio (y) = 1.73950 0.18253
# Poissons Ratio (z) = -0.37468 -0.37468
#
# Static dielectric constant tensor:
#      x y z
#    x 1.596890 0.000000 0.000000 
#    y 0.000000 1.596890 0.000000 
#    z 0.000000 0.000000 1.615050 
# 
# From -- ./inp_files/1018.got.cif
#   From: 2010.05.17/outbox.cif.g08.bks.cpg/sg83_1_cif.got.tgz:1018.got - 2010.06.03 18:55:12.
