data_PCOD9543957
_publ_section_title
;
Structure prediction by ZEFSAII (Michael W. Deem and Ramdas Pophale) SiO2 
 PCOD9543957
Probable space group: P 42/M
;
_chemical_formula_sum "Si O2"
_cell_formula_units_Z 48
_cell_length_a 15.502818
_cell_length_b 15.502818
_cell_length_c 8.102028
_cell_angle_alpha 90.000000
_cell_angle_beta 90.000000
_cell_angle_gamma 90.000000
_cell_volume 1947.220068
_symmetry_space_group_name_H-M "P 42/M"
_symmetry_group_IT_number 84
_symmetry_cell_setting 'tetragonal'
loop_
_space_group_symop_operation_xyz
x,y,z
-y,x,1/2+z
-x,-y,z
y,-x,1/2+z
-x,-y,-z
y,-x,1/2-z
x,y,-z
-y,x,1/2-z
loop_
_atom_site_type_symbol
_atom_site_label
_atom_site_fract_x
_atom_site_fract_y
_atom_site_fract_z
Si Si1 0.378670 0.949738 0.195256
Si Si2 0.208882 0.280499 0.806437
Si Si3 0.882174 0.303430 0.690280
Si Si4 0.791451 0.524484 0.810489
Si Si5 0.460544 0.377297 0.182306
Si Si6 0.969805 0.134399 0.802883
O O1 0.296720 0.886796 0.234376
O O2 0.457659 0.888983 0.251294
O O3 0.366476 0.045537 0.267729
O O4 0.384939 0.959080 0.000000
O O5 0.272582 0.208832 0.733310
O O6 0.245555 0.377341 0.796451
O O7 0.197315 0.259483 0.000000
O O8 0.866315 0.330280 0.500000
O O9 0.935307 0.214723 0.700835
O O10 0.724764 0.463890 0.716545
O O11 0.792411 0.498956 0.000000
O O12 0.411538 0.440549 0.306516
O O13 0.425769 0.393186 0.000000
O O14 0.058351 0.098547 0.729840
O O15 0.976423 0.151767 0.000000
#
# Coordination Sequence:
#
# PCOD9543957 Si02
#       6
#     8   8   8   8   8   8
#     4   9  17  28  44  65  91 126 171 217 262 307
#     4   8  17  30  44  61  91 130 169 212 261 308
#     4  10  18  29  43  62  86 119 165 216 261 305
#     4   9  18  34  51  71 105 141 173 205 249 299
#     4  11  21  35  58  89 121 145 167 190 228 285
#     4  11  21  30  38  50  72 107 149 202 265 323
#
# _framework density 24.650524000000001
#
# number of rings (size 3 to 8) (size 9 to 14) (size 15 to 20)
#    1.000    1.333    0.000    5.500    0.000    4.667 
#    0.000    0.000    0.000    0.000    0.000    1.167 
#    0.000    9.333    0.000    0.000    0.000    0.000 
#
# Total GULP energy -267676.117957 kJ/mol
# GULP energy per Si atom -5576.585791 kJ/mol
# Density = 2.459442 g / cm^3
# Si number density = 24.650524 Si / 1000 Ang^3
#
#
#
# Elastic Constant Matrix: (Units=GPa)
#
#
# Indices 1 2 3 4 5 6 
#
# 1 103.5634 31.8928 4.2121 0.0000 0.0000 41.4146
# 2 31.8928 103.5634 4.2121 0.0000 0.0000 -41.4146
# 3 4.2121 4.2121 59.0952 0.0000 0.0000 0.0000
# 4 0.0000 0.0000 0.0000 -16.3129 0.0000 0.0000
# 5 0.0000 0.0000 0.0000 0.0000 -16.3129 0.0000
# 6 41.4146 -41.4146 0.0000 0.0000 0.0000 24.5035
#
#
#
# Elastic Compliance Matrix: (Units=1/GPa)
#
#
# Indices 1 2 3 4 5 6 
#
# 1 -0.003610 0.011026 -0.000529 0.000000 0.000000 0.024738
# 2 0.011026 -0.003610 -0.000529 0.000000 0.000000 -0.024738
# 3 -0.000529 -0.000529 0.016997 0.000000 0.000000 0.000000
# 4 0.000000 0.000000 0.000000 -0.061301 0.000000 0.000000
# 5 0.000000 0.000000 0.000000 0.000000 -0.061301 0.000000
# 6 0.024738 -0.024738 0.000000 0.000000 0.000000 -0.042810
#
#
# Mechanical properties :
#
#
# Convention : Reuss Voigt Hill
#
# Bulk Modulus (GPa) = 33.65455 38.53959 36.09707
# Shear Modulus (GPa) = -30.18071 13.43587 -8.37242
#
# Velocity S-wave (km/s) = -3.50286 2.33717 -1.84494
# Velocity P-wave (km/s) = 1.63637 4.79077 3.18385
#
# Compressibility (1/GPa) = 0.02971367
#
# Stress axis : x y z
#
# Youngs Moduli (GPa) = -276.97068 -276.97068 58.83326
#
# Poissons Ratio (x) = 3.05383 0.03110
# Poissons Ratio (y) = 3.05383 0.03110
# Poissons Ratio (z) = -0.14639 -0.14639
#
# Static dielectric constant tensor:
#      x y z
#    x 2.031270 0.000000 0.000000 
#    y 0.000000 2.031270 0.000000 
#    z 0.000000 0.000000 1.871170 
# 
# From -- ./inp_files/1022.got.cif
#   From: 2010.05.17/outbox.cif.g08.bks.cpg/sg84_1_cif.got.tgz:1022.got - 2010.06.03 18:57:40.
