data_PCOD9543709
_publ_section_title
;
Structure prediction by ZEFSAII (Michael W. Deem and Ramdas Pophale) SiO2 
 PCOD9543709
Probable space group: P 4/M
;
_chemical_formula_sum "Si O2"
_cell_formula_units_Z 32
_cell_length_a 8.192809
_cell_length_b 8.192809
_cell_length_c 21.800007
_cell_angle_alpha 90.000000
_cell_angle_beta 90.000000
_cell_angle_gamma 90.000000
_cell_volume 1463.262671
_symmetry_space_group_name_H-M "P 4/M"
_symmetry_group_IT_number 83
_symmetry_cell_setting 'tetragonal'
loop_
_space_group_symop_operation_xyz
x,y,z
-y,x,z
-x,-y,z
y,-x,z
-x,-y,-z
y,-x,-z
x,y,-z
-y,x,-z
loop_
_atom_site_type_symbol
_atom_site_label
_atom_site_fract_x
_atom_site_fract_y
_atom_site_fract_z
Si Si1 0.578405 0.237432 0.500000
Si Si2 0.237679 0.410339 0.000000
Si Si3 0.237253 0.415118 0.867360
Si Si4 0.915442 0.738050 0.248280
Si Si5 0.086846 0.262348 0.384223
O O1 0.695731 0.395874 0.500000
O O2 0.621677 0.137225 0.439215
O O3 0.403078 0.302297 0.000000
O O4 0.155713 0.382603 0.065959
O O5 0.400148 0.303067 0.865006
O O6 0.130658 0.372231 0.808879
O O7 0.888159 0.665375 0.316118
O O8 0.099918 0.803044 0.244897
O O9 0.901624 0.197439 0.388815
#
# Coordination Sequence:
#
# PCOD9543709 Si02
#       5
#     4   4   8   8   8
#     4  11  24  37  50  76 110 133 154 195 246 290
#     4   7  12  26  46  67  94 128 164 201 242 289
#     4   9  17  30  50  74  98 127 165 207 248 291
#     4   9  19  35  52  72 100 131 163 201 244 290
#     4   9  19  37  58  75  94 128 171 205 236 285
#
# _framework density 21.868936999999999
#
# number of rings (size 3 to 8) (size 9 to 14) (size 15 to 20)
#    0.000    3.000    0.000    3.750    0.000    6.000 
#    0.000    8.750    0.000    6.000    0.000    0.000 
#    0.000    0.000    0.000    0.000    0.000    0.000 
#
# Total GULP energy -178856.741659 kJ/mol
# GULP energy per Si atom -5589.273177 kJ/mol
# Density = 2.181916 g / cm^3
# Si number density = 21.868937 Si / 1000 Ang^3
#
#
#
# Elastic Constant Matrix: (Units=GPa)
#
#
# Indices 1 2 3 4 5 6 
#
# 1 52.6298 38.3521 69.1909 0.0000 0.0000 -1.0472
# 2 38.3521 52.6298 69.1909 0.0000 0.0000 1.0472
# 3 69.1909 69.1909 253.7429 0.0000 0.0000 0.0000
# 4 0.0000 0.0000 0.0000 135.1757 0.0000 0.0000
# 5 0.0000 0.0000 0.0000 0.0000 135.1757 0.0000
# 6 -1.0472 1.0472 0.0000 0.0000 0.0000 37.2986
#
#
#
# Elastic Compliance Matrix: (Units=1/GPa)
#
#
# Indices 1 2 3 4 5 6 
#
# 1 0.044555 -0.025774 -0.005121 0.000000 0.000000 0.001975
# 2 -0.025774 0.044555 -0.005121 0.000000 0.000000 -0.001975
# 3 -0.005121 -0.005121 0.006734 0.000000 0.000000 0.000000
# 4 0.000000 0.000000 0.000000 0.007398 0.000000 0.000000
# 5 0.000000 0.000000 0.000000 0.000000 0.007398 0.000000
# 6 0.001975 -0.001975 0.000000 0.000000 0.000000 0.026922
#
#
# Mechanical properties :
#
#
# Convention : Reuss Voigt Hill
#
# Bulk Modulus (GPa) = 41.99900 79.16338 60.58119
# Shear Modulus (GPa) = 22.98540 73.68123 48.33331
#
# Velocity S-wave (km/s) = 3.24551 5.81079 4.70631
# Velocity P-wave (km/s) = 5.76984 9.01654 7.56931
#
# Compressibility (1/GPa) = 0.02381009
#
# Stress axis : x y z
#
# Youngs Moduli (GPa) = 22.44441 22.44441 148.50475
#
# Poissons Ratio (x) = 0.57849 0.76049
# Poissons Ratio (y) = 0.57849 0.76049
# Poissons Ratio (z) = 0.11494 0.11494
#
# Static dielectric constant tensor:
#      x y z
#    x 1.787880 0.000000 0.000000 
#    y 0.000000 1.787880 0.000000 
#    z 0.000000 0.000000 1.808910 
# 
# From -- ./inp_files/3069.got.cif
#   From: 2010.05.17/outbox.cif.g08.bks.cpg/sg83_2_cif.got.tgz:3069.got - 2010.06.03 18:55:12.
