data_PCOD9543523
_publ_section_title
;
Structure prediction by ZEFSAII (Michael W. Deem and Ramdas Pophale) SiO2 
 PCOD9543523
Probable space group: P 4/M
;
_chemical_formula_sum "Si O2"
_cell_formula_units_Z 34
_cell_length_a 8.248591
_cell_length_b 8.248591
_cell_length_c 23.520147
_cell_angle_alpha 90.000000
_cell_angle_beta 90.000000
_cell_angle_gamma 90.000000
_cell_volume 1600.293244
_symmetry_space_group_name_H-M "P 4/M"
_symmetry_group_IT_number 83
_symmetry_cell_setting 'tetragonal'
loop_
_space_group_symop_operation_xyz
x,y,z
-y,x,z
-x,-y,z
y,-x,z
-x,-y,-z
y,-x,-z
x,y,-z
-y,x,-z
loop_
_atom_site_type_symbol
_atom_site_label
_atom_site_fract_x
_atom_site_fract_y
_atom_site_fract_z
Si Si1 0.762383 0.420284 0.500000
Si Si2 0.190881 0.691093 0.000000
Si Si3 0.912198 0.740760 0.184834
Si Si4 0.000000 0.000000 0.000000
Si Si5 0.500000 0.000000 0.094740
Si Si6 0.000000 0.500000 0.404154
Si Si7 0.500000 0.500000 0.000000
Si Si8 0.740916 0.085924 0.312690
O O1 0.695279 0.606108 0.500000
O O2 0.878585 0.402315 0.445359
O O3 0.109682 0.613582 0.944199
O O4 0.382067 0.659549 0.000000
O O5 0.159250 0.882715 0.000000
O O6 0.889306 0.609679 0.136258
O O7 0.889920 0.674861 0.248816
O O8 0.098137 0.803836 0.179391
O O9 0.894526 0.613079 0.362613
O O10 0.900316 0.196290 0.317278
#
# Coordination Sequence:
#
# PCOD9543523 Si02
#       8
#     4   4   8   1   4   4   1   8
#     4  10  22  36  48  76 110 146 190 234 298 364
#     4  11  28  43  74  90 142 160 234 258 340 380
#     4   9  20  36  59  85 122 159 203 250 313 388
#     4  12  28  56  68 108 116 200 228 268 300 442
#     4  11  23  40  60 100 117 181 200 280 298 403
#     4  11  19  32  58  76 105 149 188 250 290 353
#     4  12  28  56  60 116 132 176 196 308 340 362
#     4   9  18  34  54  83 112 149 194 247 297 359
#
# _framework density 21.246103999999999
#
# number of rings (size 3 to 8) (size 9 to 14) (size 15 to 20)
#    0.000    2.000    0.000    4.941    6.588    0.000 
#    0.000    0.000    0.000    5.647    0.000    6.588 
#    0.000    0.000    0.000    0.000    0.000    0.000 
#
# Total GULP energy -189606.320317 kJ/mol
# GULP energy per Si atom -5576.656480 kJ/mol
# Density = 2.119775 g / cm^3
# Si number density = 21.246104 Si / 1000 Ang^3
#
#
#
# Elastic Constant Matrix: (Units=GPa)
#
#
# Indices 1 2 3 4 5 6 
#
# 1 58.7235 -7.0120 21.6149 0.0000 0.0000 1.4758
# 2 -7.0120 58.7235 21.6149 0.0000 0.0000 -1.4758
# 3 21.6149 21.6149 146.2135 0.0000 0.0000 0.0000
# 4 0.0000 0.0000 0.0000 -34.4786 0.0000 0.0000
# 5 0.0000 0.0000 0.0000 0.0000 -34.4786 0.0000
# 6 1.4758 -1.4758 0.0000 0.0000 0.0000 31.1701
#
#
#
# Elastic Compliance Matrix: (Units=1/GPa)
#
#
# Indices 1 2 3 4 5 6 
#
# 1 0.018655 0.003410 -0.003262 0.000000 0.000000 -0.000722
# 2 0.003410 0.018655 -0.003262 0.000000 0.000000 0.000722
# 3 -0.003262 -0.003262 0.007804 0.000000 0.000000 0.000000
# 4 0.000000 0.000000 0.000000 -0.029003 0.000000 0.000000
# 5 0.000000 0.000000 0.000000 0.000000 -0.029003 0.000000
# 6 -0.000722 0.000722 0.000000 0.000000 0.000000 0.032150
#
#
# Mechanical properties :
#
#
# Convention : Reuss Voigt Hill
#
# Bulk Modulus (GPa) = 25.71617 37.34401 31.53009
# Shear Modulus (GPa) = 130.05101 7.60542 68.82822
#
# Velocity S-wave (km/s) = 7.83228 1.89406 5.69790
# Velocity P-wave (km/s) = 9.69139 4.73268 7.62631
#
# Compressibility (1/GPa) = 0.03888603
#
# Stress axis : x y z
#
# Youngs Moduli (GPa) = 53.60522 53.60522 128.14390
#
# Poissons Ratio (x) = -0.18279 0.41799
# Poissons Ratio (y) = -0.18279 0.41799
# Poissons Ratio (z) = 0.17485 0.17485
#
# Static dielectric constant tensor:
#      x y z
#    x 1.746220 0.000000 0.000000 
#    y 0.000000 1.746220 0.000000 
#    z 0.000000 0.000000 1.786410 
# 
# From -- ./inp_files/2918.got.cif
#   From: 2010.05.17/outbox.cif.g08.bks.cpg/sg83_2_cif.got.tgz:2918.got - 2010.06.03 18:55:12.
