data_PCOD9543441
_publ_section_title
;
Structure prediction by ZEFSAII (Michael W. Deem and Ramdas Pophale) SiO2 
 PCOD9543441
Probable space group: P 4/M
;
_chemical_formula_sum "Si O2"
_cell_formula_units_Z 40
_cell_length_a 14.655167
_cell_length_b 14.655167
_cell_length_c 7.486395
_cell_angle_alpha 90.000000
_cell_angle_beta 90.000000
_cell_angle_gamma 90.000000
_cell_volume 1607.882399
_symmetry_space_group_name_H-M "P 4/M"
_symmetry_group_IT_number 83
_symmetry_cell_setting 'tetragonal'
loop_
_space_group_symop_operation_xyz
x,y,z
-y,x,z
-x,-y,z
y,-x,z
-x,-y,-z
y,-x,-z
x,y,-z
-y,x,-z
loop_
_atom_site_type_symbol
_atom_site_label
_atom_site_fract_x
_atom_site_fract_y
_atom_site_fract_z
Si Si1 0.145644 0.977772 0.781372
Si Si2 0.608647 0.406658 0.717166
Si Si3 0.211861 0.690396 0.716489
Si Si4 0.692862 0.127739 0.793942
Si Si5 0.488017 0.101716 0.711152
O O1 0.249079 0.958354 0.718049
O O2 0.072414 0.900722 0.725666
O O3 0.147945 0.978400 0.000000
O O4 0.623796 0.509831 0.776015
O O5 0.608317 0.406911 0.500000
O O6 0.689710 0.346137 0.775955
O O7 0.205619 0.694523 0.500000
O O8 0.228918 0.793828 0.778882
O O9 0.147010 0.606680 0.779321
O O10 0.590293 0.146832 0.722922
O O11 0.675763 0.110348 0.000000
O O12 0.471820 0.095567 0.500000
O O13 0.500000 0.000000 0.785148
#
# Coordination Sequence:
#
# PCOD9543441 Si02
#       5
#     8   8   8   8   8
#     4   8  16  33  56  82 114 153 199 248 303 373
#     4   8  13  23  44  72  96 125 174 228 274 327
#     4  10  20  36  57  79 112 159 203 245 293 361
#     4  11  23  36  60  93 122 159 204 259 319 371
#     4  10  23  42  62  87 123 168 212 254 309 377
#
# _framework density 24.877441000000001
#
# number of rings (size 3 to 8) (size 9 to 14) (size 15 to 20)
#    0.000    2.600    0.000    3.000    2.800    4.400 
#    0.000    0.000    0.000    0.000    0.000    9.800 
#    0.000    0.000    0.000    0.000    0.000    0.000 
#
# Total GULP energy -222842.883631 kJ/mol
# GULP energy per Si atom -5571.072091 kJ/mol
# Density = 2.482082 g / cm^3
# Si number density = 24.877441 Si / 1000 Ang^3
#
#
#
# Elastic Constant Matrix: (Units=GPa)
#
#
# Indices 1 2 3 4 5 6 
#
# 1 235.6177 -100.3461 -8.3396 0.0000 0.0000 68.2248
# 2 -100.3461 235.6177 -8.3396 0.0000 0.0000 -68.2248
# 3 -8.3396 -8.3396 72.8827 0.0000 0.0000 0.0000
# 4 0.0000 0.0000 0.0000 29.3308 0.0000 0.0000
# 5 0.0000 0.0000 0.0000 0.0000 29.3308 0.0000
# 6 68.2248 -68.2248 0.0000 0.0000 0.0000 94.3204
#
#
#
# Elastic Compliance Matrix: (Units=1/GPa)
#
#
# Indices 1 2 3 4 5 6 
#
# 1 0.005857 0.001642 0.000858 0.000000 0.000000 -0.003049
# 2 0.001642 0.005857 0.000858 0.000000 0.000000 0.003049
# 3 0.000858 0.000858 0.013917 0.000000 0.000000 0.000000
# 4 0.000000 0.000000 0.000000 0.034094 0.000000 0.000000
# 5 0.000000 0.000000 0.000000 0.000000 0.034094 0.000000
# 6 -0.003049 0.003049 0.000000 0.000000 0.000000 0.015012
#
#
# Mechanical properties :
#
#
# Convention : Reuss Voigt Hill
#
# Bulk Modulus (GPa) = 30.91605 34.45194 32.68400
# Shear Modulus (GPa) = 44.28838 74.67263 59.48051
#
# Velocity S-wave (km/s) = 4.22389 5.48465 4.89503
# Velocity P-wave (km/s) = 6.02019 7.34760 6.71677
#
# Compressibility (1/GPa) = 0.03234566
#
# Stress axis : x y z
#
# Youngs Moduli (GPa) = 170.75025 170.75025 71.85446
#
# Poissons Ratio (x) = -0.28034 -0.06165
# Poissons Ratio (y) = -0.28034 -0.06165
# Poissons Ratio (z) = -0.14650 -0.14650
#
# Static dielectric constant tensor:
#      x y z
#    x 2.030880 0.000000 0.000000 
#    y 0.000000 2.030880 0.000000 
#    z 0.000000 0.000000 1.948620 
# 
# From -- ./inp_files/679.got.cif
#   From: 2010.05.17/outbox.cif.g08.bks.cpg/sg83_1_cif.got.tgz:679.got - 2010.06.03 18:55:12.
