data_PCOD9543342
_publ_section_title
;
Structure prediction by ZEFSAII (Michael W. Deem and Ramdas Pophale) SiO2 
 PCOD9543342
Probable space group: P 4/M
;
_chemical_formula_sum "Si O2"
_cell_formula_units_Z 58
_cell_length_a 17.478511
_cell_length_b 17.478511
_cell_length_c 9.196444
_cell_angle_alpha 90.000000
_cell_angle_beta 90.000000
_cell_angle_gamma 90.000000
_cell_volume 2809.498438
_symmetry_space_group_name_H-M "P 4/M"
_symmetry_group_IT_number 83
_symmetry_cell_setting 'tetragonal'
loop_
_space_group_symop_operation_xyz
x,y,z
-y,x,z
-x,-y,z
y,-x,z
-x,-y,-z
y,-x,-z
x,y,-z
-y,x,-z
loop_
_atom_site_type_symbol
_atom_site_label
_atom_site_fract_x
_atom_site_fract_y
_atom_site_fract_z
Si Si1 0.091168 0.389357 0.171615
Si Si2 0.460284 0.620209 0.327618
Si Si3 0.681905 0.960078 0.333037
Si Si4 0.648480 0.779518 0.666099
Si Si5 0.767264 0.508942 0.826641
Si Si6 0.756689 0.198658 0.169156
Si Si7 0.066396 0.838354 0.827026
Si Si8 0.000000 0.000000 0.261374
O O1 0.151208 0.454631 0.215465
O O2 0.137229 0.309651 0.191696
O O3 0.014620 0.381784 0.263838
O O4 0.073526 0.397717 0.000000
O O5 0.407690 0.547053 0.295246
O O6 0.455486 0.635054 0.500000
O O7 0.443802 0.696472 0.239017
O O8 0.697635 0.981849 0.500000
O O9 0.657508 0.871578 0.331273
O O10 0.758837 0.964726 0.236798
O O11 0.636305 0.754174 0.500000
O O12 0.575845 0.760592 0.763453
O O13 0.727588 0.747831 0.729671
O O14 0.762930 0.509811 0.000000
O O15 0.841571 0.164262 0.192039
O O16 0.753283 0.223368 0.000000
O O17 0.029482 0.910578 0.749274
O O18 0.049824 0.844847 0.000000
#
# Coordination Sequence:
#
# PCOD9543342 Si02
#       8
#     8   8   8   8   8   8   8   2
#     4  10  22  39  59  86 117 149 190 240 292 346
#     4   9  20  40  63  88 122 161 195 230 280 343
#     4  10  22  40  60  81 111 151 197 246 294 348
#     4  10  22  40  60  84 115 153 196 241 291 348
#     4  11  24  38  58  91 123 152 192 241 289 342
#     4   9  19  37  60  84 113 151 194 240 288 342
#     4  10  19  33  56  84 114 152 195 238 288 345
#     4  12  21  32  57  90 121 156 197 238 285 352
#
# _framework density 20.644254
#
# number of rings (size 3 to 8) (size 9 to 14) (size 15 to 20)
#    0.000    2.069    0.000    3.103    1.931    5.517 
#    0.000    7.241    0.000    0.000    0.000    0.000 
#    0.000    0.000    0.000    0.000    0.000    0.000 
#
# Total GULP energy -323718.884964 kJ/mol
# GULP energy per Si atom -5581.360086 kJ/mol
# Density = 2.059727 g / cm^3
# Si number density = 20.644254 Si / 1000 Ang^3
#
#
#
# Elastic Constant Matrix: (Units=GPa)
#
#
# Indices 1 2 3 4 5 6 
#
# 1 46.9154 -0.9710 9.2690 0.0000 0.0000 6.2601
# 2 -0.9710 46.9154 9.2690 0.0000 0.0000 -6.2601
# 3 9.2690 9.2690 19.8580 0.0000 0.0000 0.0000
# 4 0.0000 0.0000 0.0000 9.8128 0.0000 0.0000
# 5 0.0000 0.0000 0.0000 0.0000 9.8128 0.0000
# 6 6.2601 -6.2601 0.0000 0.0000 0.0000 12.7242
#
#
#
# Elastic Compliance Matrix: (Units=1/GPa)
#
#
# Indices 1 2 3 4 5 6 
#
# 1 0.025391 0.001425 -0.012517 0.000000 0.000000 -0.011791
# 2 0.001425 0.025391 -0.012517 0.000000 0.000000 0.011791
# 3 -0.012517 -0.012517 0.062042 0.000000 0.000000 0.000000
# 4 0.000000 0.000000 0.000000 0.101907 0.000000 0.000000
# 5 0.000000 0.000000 0.000000 0.000000 0.101907 0.000000
# 6 -0.011791 0.011791 0.000000 0.000000 0.000000 0.090192
#
#
# Mechanical properties :
#
#
# Convention : Reuss Voigt Hill
#
# Bulk Modulus (GPa) = 15.24226 16.53587 15.88907
# Shear Modulus (GPa) = 10.50608 12.87811 11.69209
#
# Velocity S-wave (km/s) = 2.25835 2.50033 2.38242
# Velocity P-wave (km/s) = 3.76823 4.04510 3.90912
#
# Compressibility (1/GPa) = 0.06560708
#
# Stress axis : x y z
#
# Youngs Moduli (GPa) = 39.38461 39.38461 16.11811
#
# Poissons Ratio (x) = -0.05613 0.20174
# Poissons Ratio (y) = -0.05613 0.20174
# Poissons Ratio (z) = 0.49296 0.49296
#
# Static dielectric constant tensor:
#      x y z
#    x 1.738270 0.000000 0.000000 
#    y 0.000000 1.738270 0.000000 
#    z 0.000000 0.000000 1.702290 
# 
# From -- ./inp_files/1114.got.cif
#   From: 2010.05.17/outbox.cif.g08.bks.cpg/sg83_1_cif.got.tgz:1114.got - 2010.06.03 18:55:12.
