data_PCOD9543159
_publ_section_title
;
Structure prediction by ZEFSAII (Michael W. Deem and Ramdas Pophale) SiO2 
 PCOD9543159
Probable space group: I -4 
;
_chemical_formula_sum "Si O2"
_cell_formula_units_Z 38
_cell_length_a 8.794496
_cell_length_b 8.794496
_cell_length_c 18.725328
_cell_angle_alpha 90.000000
_cell_angle_beta 90.000000
_cell_angle_gamma 90.000000
_cell_volume 1448.276038
_symmetry_space_group_name_H-M "I -4 "
_symmetry_group_IT_number 82
_symmetry_cell_setting 'tetragonal'
loop_
_space_group_symop_operation_xyz
x,y,z
y,-x,-z
-x,-y,z
-y,x,-z
1/2+x,1/2+y,1/2+z
1/2+y,1/2-x,1/2-z
1/2-x,1/2-y,1/2+z
1/2-y,1/2+x,1/2-z
loop_
_atom_site_type_symbol
_atom_site_label
_atom_site_fract_x
_atom_site_fract_y
_atom_site_fract_z
Si Si1 0.000000 0.000000 0.000000
Si Si2 0.825575 0.719319 0.013102
Si Si3 0.612498 0.702503 0.122646
Si Si4 0.816489 0.005001 0.846150
Si Si5 0.391494 0.290625 0.813749
Si Si6 0.500000 0.000000 0.407620
O O1 0.140389 0.115816 0.980180
O O2 0.654112 0.689375 0.038263
O O3 0.897988 0.736788 0.092050
O O4 0.899549 0.601142 0.960771
O O5 0.440578 0.670542 0.147826
O O6 0.705451 0.567525 0.161463
O O7 0.612064 0.886822 0.135254
O O8 0.809955 0.094846 0.771080
O O9 0.717502 0.851062 0.833577
O O10 0.000000 0.000000 0.864209
#
# Coordination Sequence:
#
# PCOD9543159 Si02
#       6
#     2   8   8   8   8   4
#     4  12  24  44  64 108 156 204 272 312 426 488
#     4  12  26  47  74 112 158 222 265 348 421 508
#     4  11  26  48  77 117 164 209 287 347 428 508
#     4  12  26  49  81 114 165 215 288 353 434 521
#     4  11  27  52  79 120 159 222 280 359 436 503
#     4  12  28  46  80 122 168 220 282 354 434 520
#
# _framework density 26.238092999999999
#
# number of rings (size 3 to 8) (size 9 to 14) (size 15 to 20)
#    0.000    0.421    5.263    2.526    5.895    5.474 
#    0.000    0.000    0.000    0.000    0.000    0.000 
#    0.000    0.000    0.000    0.000    0.000    0.000 
#
# Total GULP energy -105954.411378 kJ/mol
# GULP energy per Si atom -5576.547967 kJ/mol
# Density = 2.617837 g / cm^3
# Si number density = 26.238093 Si / 1000 Ang^3
#
#
#
# Elastic Constant Matrix: (Units=GPa)
#
#
# Indices 1 2 3 4 5 6 
#
# 1 135.7100 47.6058 72.9883 0.0000 0.0000 0.8014
# 2 47.6058 135.7100 72.9883 0.0000 0.0000 -0.8014
# 3 72.9883 72.9883 106.3048 0.0000 0.0000 0.0000
# 4 0.0000 0.0000 0.0000 35.9191 0.0000 0.0000
# 5 0.0000 0.0000 0.0000 0.0000 35.9191 0.0000
# 6 0.8014 -0.8014 0.0000 0.0000 0.0000 73.9788
#
#
#
# Elastic Compliance Matrix: (Units=1/GPa)
#
#
# Indices 1 2 3 4 5 6 
#
# 1 0.011694 0.000341 -0.008263 0.000000 0.000000 -0.000123
# 2 0.000341 0.011694 -0.008263 0.000000 0.000000 0.000123
# 3 -0.008263 -0.008263 0.020754 0.000000 0.000000 0.000000
# 4 0.000000 0.000000 0.000000 0.027840 0.000000 0.000000
# 5 0.000000 0.000000 0.000000 0.000000 0.027840 0.000000
# 6 -0.000123 0.000123 0.000000 0.000000 0.000000 0.013520
#
#
# Mechanical properties :
#
#
# Convention : Reuss Voigt Hill
#
# Bulk Modulus (GPa) = 84.95312 84.98771 84.97041
# Shear Modulus (GPa) = 33.41425 41.43957 37.42691
#
# Velocity S-wave (km/s) = 3.57249 3.97844 3.78091
# Velocity P-wave (km/s) = 7.03313 7.31883 7.17740
#
# Compressibility (1/GPa) = 0.01177120
#
# Stress axis : x y z
#
# Youngs Moduli (GPa) = 85.51501 85.51500 48.18339
#
# Poissons Ratio (x) = -0.02920 0.39816
# Poissons Ratio (y) = -0.02920 0.39816
# Poissons Ratio (z) = 0.70664 0.70664
#
# Static dielectric constant tensor:
#      x y z
#    x 2.393840 0.000000 0.000000 
#    y 0.000000 2.393840 0.000000 
#    z 0.000000 0.000000 2.021660 
# 
# From -- ./inp_files/3415.got.cif
#   From: 2010.05.17/outbox.cif.g08.bks.cpg/sg82_2_cif.got.tgz:3415.got - 2010.06.03 18:52:26.
