data_PCOD9543980
_publ_section_title
;
Structure prediction by ZEFSAII (Michael W. Deem and Ramdas Pophale) SiO2 
 PCOD9543980
Probable space group: P 42/M
;
_chemical_formula_sum "Si O2"
_cell_formula_units_Z 44
_cell_length_a 15.144981
_cell_length_b 15.144981
_cell_length_c 10.645458
_cell_angle_alpha 90.000000
_cell_angle_beta 90.000000
_cell_angle_gamma 90.000000
_cell_volume 2441.753486
_symmetry_space_group_name_H-M "P 42/M"
_symmetry_group_IT_number 84
_symmetry_cell_setting 'tetragonal'
loop_
_space_group_symop_operation_xyz
x,y,z
-y,x,1/2+z
-x,-y,z
y,-x,1/2+z
-x,-y,-z
y,-x,1/2-z
x,y,-z
-y,x,1/2-z
loop_
_atom_site_type_symbol
_atom_site_label
_atom_site_fract_x
_atom_site_fract_y
_atom_site_fract_z
Si Si1 0.549198 0.272882 0.000000
Si Si2 0.791285 0.436018 0.858754
Si Si3 0.908994 0.446202 0.500000
Si Si4 0.643067 0.325376 0.737645
Si Si5 0.363553 0.853638 0.352266
Si Si6 0.398325 0.034777 0.739359
Si Si7 0.428927 0.580708 0.500000
O O1 0.514624 0.172185 0.000000
O O2 0.601204 0.299557 0.127107
O O3 0.463738 0.333594 0.000000
O O4 0.718875 0.396172 0.767145
O O5 0.820880 0.535583 0.825933
O O6 0.884445 0.384060 0.854846
O O7 0.755607 0.435143 0.000000
O O8 0.917284 0.390999 0.373266
O O9 0.000000 0.500000 0.500000
O O10 0.686647 0.235435 0.684289
O O11 0.575168 0.363755 0.631063
O O12 0.358105 0.871885 0.500000
O O13 0.345134 0.944398 0.279881
O O14 0.500000 0.000000 0.723453
O O15 0.500000 0.500000 0.500000
#
# Coordination Sequence:
#
# PCOD9543980 Si02
#       7
#     4   8   4   8   8   8   4
#     4  12  26  38  58  75 106 145 191 236 285 326
#     4  10  20  35  53  76 102 136 180 226 279 331
#     4  10  18  34  54  80 101 131 171 225 294 346
#     4  12  23  40  53  78 106 143 185 239 279 329
#     4  10  20  35  55  79 108 142 184 230 282 335
#     4   9  17  32  56  77 102 130 177 225 281 336
#     4  12  30  40  54  67 103 151 204 240 275 316
#
# _framework density 18.019836000000002
#
# number of rings (size 3 to 8) (size 9 to 14) (size 15 to 20)
#    0.000    1.455    1.818    6.000    5.091    2.182 
#    0.000    0.000    0.000    0.000    0.000    0.000 
#    0.000    0.727    0.000    3.455    0.000    0.182 
#
# Total GULP energy -245244.460276 kJ/mol
# GULP energy per Si atom -5573.737734 kJ/mol
# Density = 1.797882 g / cm^3
# Si number density = 18.019836 Si / 1000 Ang^3
#
#
#
# Elastic Constant Matrix: (Units=GPa)
#
#
# Indices 1 2 3 4 5 6 
#
# 1 61.5822 22.3699 38.5035 0.0000 0.0000 -6.1025
# 2 22.3699 61.5822 38.5035 0.0000 0.0000 6.1025
# 3 38.5035 38.5035 129.7458 0.0000 0.0000 0.0000
# 4 0.0000 0.0000 0.0000 24.5712 0.0000 0.0000
# 5 0.0000 0.0000 0.0000 0.0000 24.5712 0.0000
# 6 -6.1025 6.1025 0.0000 0.0000 0.0000 6.6313
#
#
#
# Elastic Compliance Matrix: (Units=1/GPa)
#
#
# Indices 1 2 3 4 5 6 
#
# 1 0.026053 -0.009686 -0.004857 0.000000 0.000000 0.032889
# 2 -0.009686 0.026053 -0.004857 0.000000 0.000000 -0.032889
# 3 -0.004857 -0.004857 0.010590 0.000000 0.000000 0.000000
# 4 0.000000 0.000000 0.000000 0.040698 0.000000 0.000000
# 5 0.000000 0.000000 0.000000 0.000000 0.040698 0.000000
# 6 0.032889 -0.032889 0.000000 0.000000 0.000000 0.211332
#
#
# Mechanical properties :
#
#
# Convention : Reuss Voigt Hill
#
# Bulk Modulus (GPa) = 41.84874 50.18491 46.01682
# Shear Modulus (GPa) = 12.43195 21.39032 16.91113
#
# Velocity S-wave (km/s) = 2.62945 3.44909 3.06677
# Velocity P-wave (km/s) = 5.70025 6.61603 6.17514
#
# Compressibility (1/GPa) = 0.02389558
#
# Stress axis : x y z
#
# Youngs Moduli (GPa) = 38.38335 38.38335 94.42752
#
# Poissons Ratio (x) = 0.37179 0.45864
# Poissons Ratio (y) = 0.37179 0.45864
# Poissons Ratio (z) = 0.18643 0.18643
#
# Static dielectric constant tensor:
#      x y z
#    x 1.682440 0.000000 0.000000 
#    y 0.000000 1.682440 0.000000 
#    z 0.000000 0.000000 1.756930 
# 
# From -- ./inp_files/2136.got.cif
#   From: 2010.05.17/outbox.cif.g08.bks.cpg/sg84_2_cif.got.tgz:2136.got - 2010.06.03 18:57:40.
