data_PCOD9543363
_publ_section_title
;
Structure prediction by ZEFSAII (Michael W. Deem and Ramdas Pophale) SiO2 
 PCOD9543363
Probable space group: P 4/M
;
_chemical_formula_sum "Si O2"
_cell_formula_units_Z 36
_cell_length_a 13.761972
_cell_length_b 13.761972
_cell_length_c 7.664240
_cell_angle_alpha 90.000000
_cell_angle_beta 90.000000
_cell_angle_gamma 90.000000
_cell_volume 1451.544771
_symmetry_space_group_name_H-M "P 4/M"
_symmetry_group_IT_number 83
_symmetry_cell_setting 'tetragonal'
loop_
_space_group_symop_operation_xyz
x,y,z
-y,x,z
-x,-y,z
y,-x,z
-x,-y,-z
y,-x,-z
x,y,-z
-y,x,-z
loop_
_atom_site_type_symbol
_atom_site_label
_atom_site_fract_x
_atom_site_fract_y
_atom_site_fract_z
Si Si1 0.695313 0.199759 0.212478
Si Si2 0.490868 0.336042 0.000000
Si Si3 0.106141 0.109092 0.211193
Si Si4 0.615285 0.991679 0.196191
Si Si5 0.229345 0.601159 0.692447
O O1 0.806462 0.175662 0.259978
O O2 0.694884 0.308549 0.287964
O O3 0.645002 0.098164 0.269988
O O4 0.684060 0.205850 0.000000
O O5 0.585844 0.402680 0.000000
O O6 0.476694 0.264418 0.835622
O O7 0.997548 0.132663 0.272484
O O8 0.103452 0.106135 0.000000
O O9 0.630486 0.884190 0.276429
O O10 0.500000 0.000000 0.183798
O O11 0.659750 0.987112 0.000000
O O12 0.236489 0.559783 0.500000
#
# Coordination Sequence:
#
# PCOD9543363 Si02
#       5
#     8   4   8   8   8
#     4  10  19  35  61  91 135 189 237 288 349 427
#     4  11  28  54  81 105 141 186 245 317 377 443
#     4   8  13  22  42  74 111 157 217 275 326 390
#     4  10  22  40  68 102 142 194 247 302 368 440
#     4  12  26  44  74 111 150 192 243 304 377 454
#
# _framework density 24.801162999999999
#
# number of rings (size 3 to 8) (size 9 to 14) (size 15 to 20)
#    0.000    1.889    2.222    2.000    3.111    5.778 
#    0.000    1.111    0.000    0.000    0.000    4.667 
#    0.000    0.000    0.000    0.000    0.000    0.000 
#
# Total GULP energy -200934.837640 kJ/mol
# GULP energy per Si atom -5581.523268 kJ/mol
# Density = 2.474471 g / cm^3
# Si number density = 24.801163 Si / 1000 Ang^3
#
#
#
# Elastic Constant Matrix: (Units=GPa)
#
#
# Indices 1 2 3 4 5 6 
#
# 1 76.0886 43.6733 17.9594 0.0000 0.0000 -13.0552
# 2 43.6733 76.0886 17.9594 0.0000 0.0000 13.0552
# 3 17.9594 17.9594 112.6182 0.0000 0.0000 0.0000
# 4 0.0000 0.0000 0.0000 -2.1158 0.0000 0.0000
# 5 0.0000 0.0000 0.0000 0.0000 -2.1158 0.0000
# 6 -13.0552 13.0552 0.0000 0.0000 0.0000 49.1878
#
#
#
# Elastic Compliance Matrix: (Units=1/GPa)
#
#
# Indices 1 2 3 4 5 6 
#
# 1 0.024004 -0.015235 -0.001398 0.000000 0.000000 0.010414
# 2 -0.015235 0.024004 -0.001398 0.000000 0.000000 -0.010414
# 3 -0.001398 -0.001398 0.009326 0.000000 0.000000 0.000000
# 4 0.000000 0.000000 0.000000 -0.472645 0.000000 0.000000
# 5 0.000000 0.000000 0.000000 0.000000 -0.472645 0.000000
# 6 0.010414 -0.010414 0.000000 0.000000 0.000000 0.025859
#
#
# Mechanical properties :
#
#
# Convention : Reuss Voigt Hill
#
# Bulk Modulus (GPa) = 47.01369 47.10886 47.06127
# Shear Modulus (GPa) = -6.10542 21.33814 7.61636
#
# Velocity S-wave (km/s) = -1.57070 2.93639 1.75432
# Velocity P-wave (km/s) = 3.96332 5.52561 4.80834
#
# Compressibility (1/GPa) = 0.02127040
#
# Stress axis : x y z
#
# Youngs Moduli (GPa) = 41.65990 41.65990 107.23183
#
# Poissons Ratio (x) = 0.63467 0.14996
# Poissons Ratio (y) = 0.63467 0.14996
# Poissons Ratio (z) = 0.05826 0.05826
#
# Static dielectric constant tensor:
#      x y z
#    x 1.984020 0.000000 0.000000 
#    y 0.000000 1.984020 0.000000 
#    z 0.000000 0.000000 2.070410 
# 
# From -- ./inp_files/550.got.cif
#   From: 2010.05.17/outbox.cif.g08.bks.cpg/sg83_1_cif.got.tgz:550.got - 2010.06.03 18:55:12.
