data_PCOD9543076
_publ_section_title
;
Structure prediction by ZEFSAII (Michael W. Deem and Ramdas Pophale) SiO2 
 PCOD9543076
Probable space group: I -4 
;
_chemical_formula_sum "Si O2"
_cell_formula_units_Z 52
_cell_length_a 16.591361
_cell_length_b 16.591361
_cell_length_c 9.981232
_cell_angle_alpha 90.000000
_cell_angle_beta 90.000000
_cell_angle_gamma 90.000000
_cell_volume 2747.566270
_symmetry_space_group_name_H-M "I -4 "
_symmetry_group_IT_number 82
_symmetry_cell_setting 'tetragonal'
loop_
_space_group_symop_operation_xyz
x,y,z
y,-x,-z
-x,-y,z
-y,x,-z
1/2+x,1/2+y,1/2+z
1/2+y,1/2-x,1/2-z
1/2-x,1/2-y,1/2+z
1/2-y,1/2+x,1/2-z
loop_
_atom_site_type_symbol
_atom_site_label
_atom_site_fract_x
_atom_site_fract_y
_atom_site_fract_z
Si Si1 0.242439 0.407035 0.681126
Si Si2 0.752710 0.162776 0.380629
Si Si3 0.415563 0.223176 0.396258
Si Si4 0.144855 0.918757 0.875355
Si Si5 0.123612 0.721391 0.509242
Si Si6 0.500000 0.500000 0.500000
Si Si7 0.500000 0.500000 0.000000
Si Si8 0.528394 0.683808 0.913776
O O1 0.184501 0.341781 0.611014
O O2 0.208288 0.496343 0.664076
O O3 0.331787 0.397872 0.622811
O O4 0.253301 0.386506 0.838516
O O5 0.760077 0.137944 0.225045
O O6 0.801044 0.241042 0.429577
O O7 0.787978 0.092001 0.473346
O O8 0.423086 0.289363 0.509998
O O9 0.371430 0.145685 0.460774
O O10 0.186304 0.933372 0.732791
O O11 0.076434 0.984266 0.906209
O O12 0.046436 0.755315 0.431184
O O13 0.589368 0.496609 0.067655
#
# Coordination Sequence:
#
# PCOD9543076 Si02
#       8
#     8   8   8   8   8   2   2   8
#     4  11  22  43  65  96 133 175 225 282 338 409
#     4  11  23  40  69  91 131 175 222 278 339 411
#     4  11  25  43  63  97 132 177 223 284 337 407
#     4  12  24  37  61  96 135 169 213 270 349 411
#     4  11  23  42  68  97 130 177 236 269 343 418
#     4  12  26  36  56 106 142 172 200 282 366 424
#     4  12  22  36  68  94 138 168 212 282 338 420
#     4  12  24  41  64 100 129 176 223 281 337 423
#
# _framework density 18.925839
#
# number of rings (size 3 to 8) (size 9 to 14) (size 15 to 20)
#    0.000    0.615    7.692    0.462    2.154    0.000 
#    2.769    0.769    0.000    0.000    0.000    0.000 
#    0.000    0.000    0.000    0.000    0.000    0.000 
#
# Total GULP energy -145014.946418 kJ/mol
# GULP energy per Si atom -5577.497939 kJ/mol
# Density = 1.888276 g / cm^3
# Si number density = 18.925839 Si / 1000 Ang^3
#
#
#
# Elastic Constant Matrix: (Units=GPa)
#
#
# Indices 1 2 3 4 5 6 
#
# 1 73.0803 31.6647 42.8253 0.0000 0.0000 1.6356
# 2 31.6647 73.0803 42.8253 0.0000 0.0000 -1.6356
# 3 42.8253 42.8253 87.1680 0.0000 0.0000 0.0000
# 4 0.0000 0.0000 0.0000 20.4055 0.0000 0.0000
# 5 0.0000 0.0000 0.0000 0.0000 20.4055 0.0000
# 6 1.6356 -1.6356 0.0000 0.0000 0.0000 38.3316
#
#
#
# Elastic Compliance Matrix: (Units=1/GPa)
#
#
# Indices 1 2 3 4 5 6 
#
# 1 0.020092 -0.004135 -0.007840 0.000000 0.000000 -0.001034
# 2 -0.004135 0.020092 -0.007840 0.000000 0.000000 0.001034
# 3 -0.007840 -0.007840 0.019176 0.000000 0.000000 0.000000
# 4 0.000000 0.000000 0.000000 0.049006 0.000000 0.000000
# 5 0.000000 0.000000 0.000000 0.000000 0.049006 0.000000
# 6 -0.001034 0.001034 0.000000 0.000000 0.000000 0.026176
#
#
# Mechanical properties :
#
#
# Convention : Reuss Voigt Hill
#
# Bulk Modulus (GPa) = 50.68112 51.99548 51.33830
# Shear Modulus (GPa) = 21.76218 23.56273 22.66245
#
# Velocity S-wave (km/s) = 3.39465 3.53229 3.46415
# Velocity P-wave (km/s) = 6.49629 6.64598 6.57156
#
# Compressibility (1/GPa) = 0.01973122
#
# Stress axis : x y z
#
# Youngs Moduli (GPa) = 49.76986 49.76986 52.14943
#
# Poissons Ratio (x) = 0.20578 0.40885
# Poissons Ratio (y) = 0.20578 0.40885
# Poissons Ratio (z) = 0.39020 0.39020
#
# Static dielectric constant tensor:
#      x y z
#    x 1.673830 0.000000 0.000000 
#    y 0.000000 1.673830 0.000000 
#    z 0.000000 0.000000 1.637070 
# 
# From -- ./inp_files/1168.got.cif
#   From: 2010.05.17/outbox.cif.g08.bks.cpg/sg82_1_cif.got.tgz:1168.got - 2010.06.03 18:52:26.
