data_PCOD9543768
_publ_section_title
;
Structure prediction by ZEFSAII (Michael W. Deem and Ramdas Pophale) SiO2 
 PCOD9543768
Probable space group: P 4/M
;
_chemical_formula_sum "Si O2"
_cell_formula_units_Z 48
_cell_length_a 8.209412
_cell_length_b 8.209412
_cell_length_c 32.075641
_cell_angle_alpha 90.000000
_cell_angle_beta 90.000000
_cell_angle_gamma 90.000000
_cell_volume 2161.720036
_symmetry_space_group_name_H-M "P 4/M"
_symmetry_group_IT_number 83
_symmetry_cell_setting 'tetragonal'
loop_
_space_group_symop_operation_xyz
x,y,z
-y,x,z
-x,-y,z
y,-x,z
-x,-y,-z
y,-x,-z
x,y,-z
-y,x,-z
loop_
_atom_site_type_symbol
_atom_site_label
_atom_site_fract_x
_atom_site_fract_y
_atom_site_fract_z
Si Si1 0.762507 0.418258 0.545794
Si Si2 0.738443 0.918586 0.874020
Si Si3 0.419375 0.237983 0.795297
Si Si4 0.261276 0.088915 0.283697
Si Si5 0.240849 0.592957 0.046990
Si Si6 0.261469 0.083953 0.376384
O O1 0.695450 0.601674 0.547742
O O2 0.838859 0.391049 0.500000
O O3 0.870820 0.373265 0.585037
O O4 0.627743 0.868998 0.835105
O O5 0.647851 0.879816 0.917069
O O6 0.898427 0.803706 0.871993
O O7 0.602238 0.304002 0.796529
O O8 0.378736 0.142693 0.753044
O O9 0.332322 0.111892 0.330149
O O10 0.096603 0.197953 0.280204
O O11 0.300434 0.406577 0.051170
O O12 0.176751 0.616687 0.000000
O O13 0.099992 0.196363 0.378832
#
# Coordination Sequence:
#
# PCOD9543768 Si02
#       6
#     8   8   8   8   8   8
#     4   9  19  35  52  72 102 139 177 218 263 310
#     4  11  24  39  56  81 112 145 182 224 268 315
#     4  11  24  39  56  81 110 139 176 221 266 315
#     4   9  19  37  58  79 106 139 174 213 260 315
#     4   9  19  37  60  85 113 145 182 224 268 315
#     4   9  19  35  54  78 107 137 171 214 262 312
#
# _framework density 22.204539
#
# number of rings (size 3 to 8) (size 9 to 14) (size 15 to 20)
#    0.000    2.333    0.000    4.000    0.000   10.667 
#    0.000   10.000    0.000    0.000    0.000    0.000 
#    0.000    0.000    0.000    0.000    0.000    0.000 
#
# Total GULP energy -268796.510358 kJ/mol
# GULP energy per Si atom -5599.927299 kJ/mol
# Density = 2.215400 g / cm^3
# Si number density = 22.204539 Si / 1000 Ang^3
#
#
#
# Elastic Constant Matrix: (Units=GPa)
#
#
# Indices 1 2 3 4 5 6 
#
# 1 72.5037 51.5525 71.2963 0.0000 0.0000 0.1708
# 2 51.5525 72.5037 71.2963 0.0000 0.0000 -0.1708
# 3 71.2963 71.2963 208.7081 0.0000 0.0000 0.0000
# 4 0.0000 0.0000 0.0000 305.9446 0.0000 0.0000
# 5 0.0000 0.0000 0.0000 0.0000 305.9446 0.0000
# 6 0.1708 -0.1708 0.0000 0.0000 0.0000 44.7886
#
#
#
# Elastic Compliance Matrix: (Units=1/GPa)
#
#
# Indices 1 2 3 4 5 6 
#
# 1 0.030502 -0.017230 -0.004534 0.000000 0.000000 -0.000182
# 2 -0.017230 0.030502 -0.004534 0.000000 0.000000 0.000182
# 3 -0.004534 -0.004534 0.007889 0.000000 0.000000 0.000000
# 4 0.000000 0.000000 0.000000 0.003269 0.000000 0.000000
# 5 0.000000 0.000000 0.000000 0.000000 0.003269 0.000000
# 6 -0.000182 0.000182 0.000000 0.000000 0.000000 0.022328
#
#
# Mechanical properties :
#
#
# Convention : Reuss Voigt Hill
#
# Bulk Modulus (GPa) = 61.35776 82.44506 71.90141
# Shear Modulus (GPa) = 32.09484 141.97361 87.03422
#
# Velocity S-wave (km/s) = 3.80599 8.00486 6.26751
# Velocity P-wave (km/s) = 6.85617 11.07463 9.21017
#
# Compressibility (1/GPa) = 0.01629786
#
# Stress axis : x y z
#
# Youngs Moduli (GPa) = 32.78423 32.78423 126.75882
#
# Poissons Ratio (x) = 0.56488 0.57471
# Poissons Ratio (y) = 0.56488 0.57471
# Poissons Ratio (z) = 0.14864 0.14864
#
# Static dielectric constant tensor:
#      x y z
#    x 1.797860 0.000000 0.000000 
#    y 0.000000 1.797860 0.000000 
#    z 0.000000 0.000000 1.779240 
# 
# From -- ./inp_files/3410.got.cif
#   From: 2010.05.17/outbox.cif.g08.bks.cpg/sg83_2_cif.got.tgz:3410.got - 2010.06.03 18:55:12.
