data_PCOD9543445
_publ_section_title
;
Structure prediction by ZEFSAII (Michael W. Deem and Ramdas Pophale) SiO2 
 PCOD9543445
Probable space group: P 4/M
;
_chemical_formula_sum "Si O2"
_cell_formula_units_Z 36
_cell_length_a 15.173831
_cell_length_b 15.173831
_cell_length_c 8.694937
_cell_angle_alpha 90.000000
_cell_angle_beta 90.000000
_cell_angle_gamma 90.000000
_cell_volume 2001.967050
_symmetry_space_group_name_H-M "P 4/M"
_symmetry_group_IT_number 83
_symmetry_cell_setting 'tetragonal'
loop_
_space_group_symop_operation_xyz
x,y,z
-y,x,z
-x,-y,z
y,-x,z
-x,-y,-z
y,-x,-z
x,y,-z
-y,x,-z
loop_
_atom_site_type_symbol
_atom_site_label
_atom_site_fract_x
_atom_site_fract_y
_atom_site_fract_z
Si Si1 0.930017 0.753503 0.185649
Si Si2 0.123761 0.776168 0.314366
Si Si3 0.448619 0.912418 0.184320
Si Si4 0.204272 0.590670 0.324925
Si Si5 0.429693 0.370539 0.500000
O O1 0.854423 0.817145 0.248139
O O2 0.911804 0.652448 0.236784
O O3 0.024760 0.780775 0.251864
O O4 0.932225 0.756367 0.000000
O O5 0.124891 0.779325 0.500000
O O6 0.165052 0.681944 0.264186
O O7 0.506808 0.829175 0.232922
O O8 0.500000 0.000000 0.240417
O O9 0.446520 0.916809 0.000000
O O10 0.169106 0.579280 0.500000
O O11 0.309097 0.595422 0.354449
O O12 0.534832 0.384732 0.500000
#
# Coordination Sequence:
#
# PCOD9543445 Si02
#       5
#     8   8   8   8   4
#     4  11  24  40  62  86 120 163 200 247 304 368
#     4  11  23  40  59  90 119 155 203 254 301 353
#     4  10  20  36  58  86 119 153 192 244 301 356
#     4   9  21  34  59  87 115 152 196 246 295 348
#     4   9  20  38  59  86 122 159 196 237 299 362
#
# _framework density 17.982315
#
# number of rings (size 3 to 8) (size 9 to 14) (size 15 to 20)
#    0.667    1.222    2.222    1.333    3.111    3.556 
#    0.000    2.222    0.000    0.000    0.000    1.556 
#    0.000    0.000    0.000    0.000    0.000    0.000 
#
# Total GULP energy -200729.804832 kJ/mol
# GULP energy per Si atom -5575.827912 kJ/mol
# Density = 1.794139 g / cm^3
# Si number density = 17.982315 Si / 1000 Ang^3
#
#
#
# Elastic Constant Matrix: (Units=GPa)
#
#
# Indices 1 2 3 4 5 6 
#
# 1 121.5588 73.0788 27.2054 0.0000 0.0000 -7.1002
# 2 73.0788 121.5588 27.2054 0.0000 0.0000 7.1002
# 3 27.2054 27.2054 34.9322 0.0000 0.0000 0.0000
# 4 0.0000 0.0000 0.0000 19.4149 0.0000 0.0000
# 5 0.0000 0.0000 0.0000 0.0000 19.4149 0.0000
# 6 -7.1002 7.1002 0.0000 0.0000 0.0000 31.1440
#
#
#
# Elastic Compliance Matrix: (Units=1/GPa)
#
#
# Indices 1 2 3 4 5 6 
#
# 1 0.014335 -0.007768 -0.005115 0.000000 0.000000 0.005039
# 2 -0.007768 0.014335 -0.005115 0.000000 0.000000 -0.005039
# 3 -0.005115 -0.005115 0.036594 0.000000 0.000000 0.000000
# 4 0.000000 0.000000 0.000000 0.051507 0.000000 0.000000
# 5 0.000000 0.000000 0.000000 0.000000 0.051507 0.000000
# 6 0.005039 -0.005039 0.000000 0.000000 0.000000 0.034407
#
#
# Mechanical properties :
#
#
# Convention : Reuss Voigt Hill
#
# Bulk Modulus (GPa) = 34.16516 59.22544 46.69530
# Shear Modulus (GPa) = 20.12589 24.03212 22.07901
#
# Velocity S-wave (km/s) = 3.34908 3.65969 3.50782
# Velocity P-wave (km/s) = 5.83058 7.13195 6.51384
#
# Compressibility (1/GPa) = 0.02926958
#
# Stress axis : x y z
#
# Youngs Moduli (GPa) = 69.75772 69.75772 27.32692
#
# Poissons Ratio (x) = 0.54186 0.13977
# Poissons Ratio (y) = 0.54186 0.13977
# Poissons Ratio (z) = 0.35680 0.35680
#
# Static dielectric constant tensor:
#      x y z
#    x 1.605270 0.000000 0.000000 
#    y 0.000000 1.605270 0.000000 
#    z 0.000000 0.000000 1.612010 
# 
# From -- ./inp_files/513.got.cif
#   From: 2010.05.17/outbox.cif.g08.bks.cpg/sg83_1_cif.got.tgz:513.got - 2010.06.03 18:55:12.
