data_PCOD9543819
_publ_section_title
;
Structure prediction by ZEFSAII (Michael W. Deem and Ramdas Pophale) SiO2 
 PCOD9543819
Probable space group: P 4/M
;
_chemical_formula_sum "Si O2"
_cell_formula_units_Z 56
_cell_length_a 9.950238
_cell_length_b 9.950238
_cell_length_c 22.876336
_cell_angle_alpha 90.000000
_cell_angle_beta 90.000000
_cell_angle_gamma 90.000000
_cell_volume 2264.922803
_symmetry_space_group_name_H-M "P 4/M"
_symmetry_group_IT_number 83
_symmetry_cell_setting 'tetragonal'
loop_
_space_group_symop_operation_xyz
x,y,z
-y,x,z
-x,-y,z
y,-x,z
-x,-y,-z
y,-x,-z
x,y,-z
-y,x,-z
loop_
_atom_site_type_symbol
_atom_site_label
_atom_site_fract_x
_atom_site_fract_y
_atom_site_fract_z
Si Si1 0.929411 0.281550 0.436191
Si Si2 0.254604 0.753471 0.662094
Si Si3 0.372273 0.069806 0.142798
Si Si4 0.782563 0.058635 0.239977
Si Si5 0.213067 0.432756 0.563299
Si Si6 0.443479 0.280829 0.757937
Si Si7 0.620816 0.685986 0.070033
O O1 0.911119 0.214788 0.500000
O O2 0.872614 0.207600 0.379188
O O3 0.839172 0.416566 0.435727
O O4 0.078699 0.339994 0.434283
O O5 0.296628 0.877779 0.705089
O O6 0.379023 0.713960 0.620156
O O7 0.221496 0.618896 0.698455
O O8 0.424779 0.164048 0.195459
O O9 0.313573 0.182547 0.099323
O O10 0.500000 0.000000 0.113120
O O11 0.287467 0.954660 0.176597
O O12 0.910132 0.156993 0.244051
O O13 0.279098 0.409730 0.500000
O O14 0.590485 0.344026 0.764562
O O15 0.461088 0.679021 0.086458
O O16 0.628612 0.695101 0.000000
#
# Coordination Sequence:
#
# PCOD9543819 Si02
#       7
#     8   8   8   8   8   8   8
#     4   9  19  35  55  81 112 152 201 262 336 406
#     4  12  20  37  59  87 115 169 218 265 338 407
#     4  12  25  40  68  99 135 181 228 267 321 388
#     4  11  25  43  57  84 133 181 227 277 331 388
#     4   9  19  34  55  84 117 152 200 268 342 417
#     4  11  24  41  61  91 128 164 212 274 338 396
#     4   9  20  42  75 112 146 178 218 276 334 378
#
# _framework density 24.724902
#
# number of rings (size 3 to 8) (size 9 to 14) (size 15 to 20)
#    0.000    1.571    1.429    5.143    2.000    1.429 
#    0.000    0.000    0.000    0.000    0.000   13.000 
#    0.000    0.000    0.000    0.000    0.000    0.000 
#
# Total GULP energy -312554.300680 kJ/mol
# GULP energy per Si atom -5581.326798 kJ/mol
# Density = 2.466863 g / cm^3
# Si number density = 24.724902 Si / 1000 Ang^3
#
#
#
# Elastic Constant Matrix: (Units=GPa)
#
#
# Indices 1 2 3 4 5 6 
#
# 1 80.8890 11.5493 14.7666 0.0000 0.0000 11.3151
# 2 11.5493 80.8890 14.7666 0.0000 0.0000 -11.3151
# 3 14.7666 14.7666 94.9948 0.0000 0.0000 0.0000
# 4 0.0000 0.0000 0.0000 36.4446 0.0000 0.0000
# 5 0.0000 0.0000 0.0000 0.0000 36.4446 0.0000
# 6 11.3151 -11.3151 0.0000 0.0000 0.0000 35.7040
#
#
#
# Elastic Compliance Matrix: (Units=1/GPa)
#
#
# Indices 1 2 3 4 5 6 
#
# 1 0.013734 -0.002351 -0.001770 0.000000 0.000000 -0.005098
# 2 -0.002351 0.013734 -0.001770 0.000000 0.000000 0.005098
# 3 -0.001770 -0.001770 0.011077 0.000000 0.000000 0.000000
# 4 0.000000 0.000000 0.000000 0.027439 0.000000 0.000000
# 5 0.000000 0.000000 0.000000 0.000000 0.027439 0.000000
# 6 -0.005098 0.005098 0.000000 0.000000 0.000000 0.031239
#
#
# Mechanical properties :
#
#
# Convention : Reuss Voigt Hill
#
# Bulk Modulus (GPa) = 37.36118 37.65974 37.51046
# Shear Modulus (GPa) = 34.39620 36.09799 35.24710
#
# Velocity S-wave (km/s) = 3.73387 3.82512 3.77977
# Velocity P-wave (km/s) = 5.80797 5.89689 5.85260
#
# Compressibility (1/GPa) = 0.02676575
#
# Stress axis : x y z
#
# Youngs Moduli (GPa) = 72.80973 72.80973 90.27701
#
# Poissons Ratio (x) = 0.17118 0.15975
# Poissons Ratio (y) = 0.17118 0.15975
# Poissons Ratio (z) = 0.12884 0.12884
#
# Static dielectric constant tensor:
#      x y z
#    x 2.019850 0.000000 0.000000 
#    y 0.000000 2.019850 0.000000 
#    z 0.000000 0.000000 2.064580 
# 
# From -- ./inp_files/2988.got.cif
#   From: 2010.05.17/outbox.cif.g08.bks.cpg/sg83_2_cif.got.tgz:2988.got - 2010.06.03 18:55:12.
