data_PCOD9543241
_publ_section_title
;
Structure prediction by ZEFSAII (Michael W. Deem and Ramdas Pophale) SiO2 
 PCOD9543241
Probable space group: P 4/M
;
_chemical_formula_sum "Si O2"
_cell_formula_units_Z 64
_cell_length_a 21.153707
_cell_length_b 21.153707
_cell_length_c 9.232950
_cell_angle_alpha 90.000000
_cell_angle_beta 90.000000
_cell_angle_gamma 90.000000
_cell_volume 4131.554186
_symmetry_space_group_name_H-M "P 4/M"
_symmetry_group_IT_number 83
_symmetry_cell_setting 'tetragonal'
loop_
_space_group_symop_operation_xyz
x,y,z
-y,x,z
-x,-y,z
y,-x,z
-x,-y,-z
y,-x,-z
x,y,-z
-y,x,-z
loop_
_atom_site_type_symbol
_atom_site_label
_atom_site_fract_x
_atom_site_fract_y
_atom_site_fract_z
Si Si1 0.749181 0.990646 0.159393
Si Si2 0.134669 0.567914 0.172302
Si Si3 0.211914 0.677197 0.669246
Si Si4 0.118640 0.797818 0.664851
Si Si5 0.314284 0.776364 0.674076
Si Si6 0.577772 0.148675 0.827264
Si Si7 0.783426 0.136190 0.163907
Si Si8 0.995583 0.599143 0.168185
O O1 0.779526 0.950696 0.285951
O O2 0.673692 0.991337 0.172236
O O3 0.771134 0.062354 0.162793
O O4 0.764423 0.963057 0.000000
O O5 0.180842 0.619224 0.244622
O O6 0.159706 0.496837 0.190335
O O7 0.061138 0.569709 0.227707
O O8 0.131114 0.581838 0.000000
O O9 0.223040 0.318988 0.500000
O O10 0.161281 0.734483 0.678870
O O11 0.278694 0.710164 0.715302
O O12 0.122713 0.819465 0.500000
O O13 0.148271 0.847467 0.774884
O O14 0.217897 0.659806 0.500000
O O15 0.379549 0.799167 0.746844
O O16 0.265763 0.829801 0.730033
O O17 0.589312 0.075818 0.773829
O O18 0.593610 0.149790 0.000000
O O19 0.774732 0.160568 0.000000
O O20 0.991152 0.577642 0.000000
#
# Coordination Sequence:
#
# PCOD9543241 Si02
#       8
#     8   8   8   8   8   8   8   8
#     4  10  18  30  50  70  90 121 159 195 237 285
#     4  10  19  30  49  71  95 129 165 198 234 277
#     4   9  19  33  46  64  93 124 158 197 236 277
#     4  10  20  32  47  69  94 121 153 196 246 291
#     4  10  20  33  48  68  94 127 162 200 243 281
#     4  10  19  32  48  70  98 130 165 199 234 277
#     4  10  19  32  50  70  91 118 156 201 243 287
#     4   9  16  29  45  67  96 128 163 194 227 273
#
# _framework density 15.490538000000001
#
# number of rings (size 3 to 8) (size 9 to 14) (size 15 to 20)
#    0.000    2.250    2.500    2.250    0.000    5.500 
#    0.000    0.625    0.000    1.875    0.000    2.625 
#    0.000    0.500    0.000    5.500    0.000    4.000 
#
# Total GULP energy -356326.538873 kJ/mol
# GULP energy per Si atom -5567.602170 kJ/mol
# Density = 1.545528 g / cm^3
# Si number density = 15.490538 Si / 1000 Ang^3
#
#
#
# Elastic Constant Matrix: (Units=GPa)
#
#
# Indices 1 2 3 4 5 6 
#
# 1 44.4620 20.5472 19.7684 0.0000 0.0000 -1.6188
# 2 20.5472 44.4620 19.7684 0.0000 0.0000 1.6188
# 3 19.7684 19.7684 38.4064 0.0000 0.0000 0.0000
# 4 0.0000 0.0000 0.0000 17.7930 0.0000 0.0000
# 5 0.0000 0.0000 0.0000 0.0000 17.7930 0.0000
# 6 -1.6188 1.6188 0.0000 0.0000 0.0000 6.6209
#
#
#
# Elastic Compliance Matrix: (Units=1/GPa)
#
#
# Indices 1 2 3 4 5 6 
#
# 1 0.032819 -0.010427 -0.011525 0.000000 0.000000 0.010574
# 2 -0.010427 0.032819 -0.011525 0.000000 0.000000 -0.010574
# 3 -0.011525 -0.011525 0.037902 0.000000 0.000000 0.000000
# 4 0.000000 0.000000 0.000000 0.056202 0.000000 0.000000
# 5 0.000000 0.000000 0.000000 0.000000 0.056202 0.000000
# 6 0.010574 -0.010574 0.000000 0.000000 0.000000 0.156207
#
#
# Mechanical properties :
#
#
# Convention : Reuss Voigt Hill
#
# Bulk Modulus (GPa) = 27.33438 27.49980 27.41709
# Shear Modulus (GPa) = 11.07903 12.92446 12.00175
#
# Velocity S-wave (km/s) = 2.67725 2.89164 2.78651
# Velocity P-wave (km/s) = 5.21929 5.37959 5.30005
#
# Compressibility (1/GPa) = 0.03658396
#
# Stress axis : x y z
#
# Youngs Moduli (GPa) = 30.46989 30.46989 26.38385
#
# Poissons Ratio (x) = 0.31772 0.30409
# Poissons Ratio (y) = 0.31772 0.30409
# Poissons Ratio (z) = 0.35118 0.35118
#
# Static dielectric constant tensor:
#      x y z
#    x 1.526550 0.000000 0.000000 
#    y 0.000000 1.526550 0.000000 
#    z 0.000000 0.000000 1.535910 
# 
# From -- ./inp_files/1257.got.cif
#   From: 2010.05.17/outbox.cif.g08.bks.cpg/sg83_1_cif.got.tgz:1257.got - 2010.06.03 18:55:12.
