data_PCOD9543991
_publ_section_title
;
Structure prediction by ZEFSAII (Michael W. Deem and Ramdas Pophale) SiO2 
 PCOD9543991
Probable space group: P 42/M
;
_chemical_formula_sum "Si O2"
_cell_formula_units_Z 32
_cell_length_a 14.322221
_cell_length_b 14.322221
_cell_length_c 8.822227
_cell_angle_alpha 90.000000
_cell_angle_beta 90.000000
_cell_angle_gamma 90.000000
_cell_volume 1809.668262
_symmetry_space_group_name_H-M "P 42/M"
_symmetry_group_IT_number 84
_symmetry_cell_setting 'tetragonal'
loop_
_space_group_symop_operation_xyz
x,y,z
-y,x,1/2+z
-x,-y,z
y,-x,1/2+z
-x,-y,-z
y,-x,1/2-z
x,y,-z
-y,x,1/2-z
loop_
_atom_site_type_symbol
_atom_site_label
_atom_site_fract_x
_atom_site_fract_y
_atom_site_fract_z
Si Si1 0.238965 0.252043 0.175022
Si Si2 0.112117 0.931623 0.329980
Si Si3 0.886599 0.601007 0.681777
Si Si4 0.617543 0.903871 0.815824
O O1 0.145136 0.190539 0.177931
O O2 0.203752 0.345102 0.256996
O O3 0.317562 0.181339 0.239188
O O4 0.263199 0.273261 0.000000
O O5 0.109858 0.970730 0.500000
O O6 0.014489 0.881317 0.290223
O O7 0.887159 0.609266 0.500000
O O8 0.885059 0.490977 0.719097
O O9 0.989298 0.638115 0.735989
O O10 0.627620 0.905130 0.000000
#
# Coordination Sequence:
#
# PCOD9543991 Si02
#       4
#     8   8   8   8
#     4  10  19  30  46  69  95 120 148 190 240 277
#     4  10  19  29  42  62  91 124 153 182 220 268
#     4   9  17  32  53  71  89 122 164 194 222 274
#     4   8  16  32  51  69  93 125 157 190 231 278
#
# _framework density 17.682798999999999
#
# number of rings (size 3 to 8) (size 9 to 14) (size 15 to 20)
#    0.000    2.750    0.000    4.500    0.000    4.000 
#    0.000    5.000    0.000    0.750    0.000    5.250 
#    0.000    0.000    0.000    0.000    0.000    0.000 
#
# Total GULP energy -178142.530727 kJ/mol
# GULP energy per Si atom -5566.954085 kJ/mol
# Density = 1.764255 g / cm^3
# Si number density = 17.682799 Si / 1000 Ang^3
#
#
#
# Elastic Constant Matrix: (Units=GPa)
#
#
# Indices 1 2 3 4 5 6 
#
# 1 64.9725 56.7050 13.3933 0.0000 0.0000 0.0976
# 2 56.7050 64.9725 13.3933 0.0000 0.0000 -0.0976
# 3 13.3933 13.3933 16.3387 0.0000 0.0000 0.0000
# 4 0.0000 0.0000 0.0000 20.8551 0.0000 0.0000
# 5 0.0000 0.0000 0.0000 0.0000 20.8551 0.0000
# 6 0.0976 -0.0976 0.0000 0.0000 0.0000 37.2573
#
#
#
# Elastic Compliance Matrix: (Units=1/GPa)
#
#
# Indices 1 2 3 4 5 6 
#
# 1 0.065496 -0.055467 -0.008220 0.000000 0.000000 -0.000317
# 2 -0.055467 0.065496 -0.008220 0.000000 0.000000 0.000317
# 3 -0.008220 -0.008220 0.074681 0.000000 0.000000 0.000000
# 4 0.000000 0.000000 0.000000 0.047950 0.000000 0.000000
# 5 0.000000 0.000000 0.000000 0.000000 0.047950 0.000000
# 6 -0.000317 0.000317 0.000000 0.000000 0.000000 0.026842
#
#
# Mechanical properties :
#
#
# Convention : Reuss Voigt Hill
#
# Bulk Modulus (GPa) = 16.16654 34.80740 25.48697
# Shear Modulus (GPa) = 10.14510 19.97965 15.06237
#
# Velocity S-wave (km/s) = 2.39786 3.36503 2.92174
# Velocity P-wave (km/s) = 4.10228 5.90127 5.08201
#
# Compressibility (1/GPa) = 0.06185615
#
# Stress axis : x y z
#
# Youngs Moduli (GPa) = 15.26821 15.26821 13.39026
#
# Poissons Ratio (x) = 0.84689 0.11007
# Poissons Ratio (y) = 0.84689 0.11007
# Poissons Ratio (z) = 0.12551 0.12551
#
# Static dielectric constant tensor:
#      x y z
#    x 1.630870 0.000000 0.000000 
#    y 0.000000 1.630870 0.000000 
#    z 0.000000 0.000000 1.628630 
# 
# From -- ./inp_files/584.got.cif
#   From: 2010.05.17/outbox.cif.g08.bks.cpg/sg84_1_cif.got.tgz:584.got - 2010.06.03 18:57:40.
