data_PCOD9543261
_publ_section_title
;
Structure prediction by ZEFSAII (Michael W. Deem and Ramdas Pophale) SiO2 
 PCOD9543261
Probable space group: P 4/M
;
_chemical_formula_sum "Si O2"
_cell_formula_units_Z 48
_cell_length_a 17.519280
_cell_length_b 17.519280
_cell_length_c 8.045320
_cell_angle_alpha 90.000000
_cell_angle_beta 90.000000
_cell_angle_gamma 90.000000
_cell_volume 2469.311223
_symmetry_space_group_name_H-M "P 4/M"
_symmetry_group_IT_number 83
_symmetry_cell_setting 'tetragonal'
loop_
_space_group_symop_operation_xyz
x,y,z
-y,x,z
-x,-y,z
y,-x,z
-x,-y,-z
y,-x,-z
x,y,-z
-y,x,-z
loop_
_atom_site_type_symbol
_atom_site_label
_atom_site_fract_x
_atom_site_fract_y
_atom_site_fract_z
Si Si1 0.004063 0.384296 0.299885
Si Si2 0.000115 0.786402 0.700772
Si Si3 0.289581 0.739207 0.191949
Si Si4 0.158165 0.846173 0.702263
Si Si5 0.173145 0.605637 0.695574
Si Si6 0.169918 0.438048 0.800860
O O1 0.001294 0.394196 0.500000
O O2 0.079077 0.430788 0.243957
O O3 0.025380 0.297821 0.253945
O O4 0.915584 0.390729 0.237841
O O5 0.006187 0.787171 0.500000
O O6 0.083337 0.804135 0.763849
O O7 0.934923 0.845429 0.745237
O O8 0.231037 0.808371 0.217367
O O9 0.238137 0.666777 0.251931
O O10 0.369011 0.775031 0.263416
O O11 0.305161 0.723410 0.000000
O O12 0.165040 0.839027 0.500000
O O13 0.164519 0.618666 0.500000
O O14 0.197886 0.519529 0.734441
O O15 0.173410 0.437248 0.000000
#
# Coordination Sequence:
#
# PCOD9543261 Si02
#       6
#     8   8   8   8   8   8
#     4  10  19  34  56  85 115 148 190 236 284 332
#     4   9  17  29  51  78 107 144 193 245 284 324
#     4  11  23  38  57  82 113 149 185 227 279 339
#     4  10  18  33  53  76 107 149 196 240 284 329
#     4  11  23  39  61  87 115 149 190 234 282 334
#     4  11  24  39  57  86 120 152 187 228 282 341
#
# _framework density 19.438618000000002
#
# number of rings (size 3 to 8) (size 9 to 14) (size 15 to 20)
#    0.000    1.667    3.333    2.000    0.000    5.667 
#    0.000    2.500    0.000    0.500    0.000    4.667 
#    0.000    0.000    0.000    0.000    0.000    0.000 
#
# Total GULP energy -267258.783210 kJ/mol
# GULP energy per Si atom -5567.891317 kJ/mol
# Density = 1.939437 g / cm^3
# Si number density = 19.438618 Si / 1000 Ang^3
#
#
#
# Elastic Constant Matrix: (Units=GPa)
#
#
# Indices 1 2 3 4 5 6 
#
# 1 107.0171 51.2243 4.4098 0.0000 0.0000 -9.4344
# 2 51.2243 107.0171 4.4098 0.0000 0.0000 9.4344
# 3 4.4098 4.4098 18.8116 0.0000 0.0000 0.0000
# 4 0.0000 0.0000 0.0000 -22.3764 0.0000 0.0000
# 5 0.0000 0.0000 0.0000 0.0000 -22.3764 0.0000
# 6 -9.4344 9.4344 0.0000 0.0000 0.0000 112.8357
#
#
#
# Elastic Compliance Matrix: (Units=1/GPa)
#
#
# Indices 1 2 3 4 5 6 
#
# 1 0.012424 -0.006021 -0.001501 0.000000 0.000000 0.001542
# 2 -0.006021 0.012424 -0.001501 0.000000 0.000000 -0.001542
# 3 -0.001501 -0.001501 0.053862 0.000000 0.000000 0.000000
# 4 0.000000 0.000000 0.000000 -0.044690 0.000000 0.000000
# 5 0.000000 0.000000 0.000000 0.000000 -0.044690 0.000000
# 6 0.001542 -0.001542 0.000000 0.000000 0.000000 0.009120
#
#
# Mechanical properties :
#
#
# Convention : Reuss Voigt Hill
#
# Bulk Modulus (GPa) = 16.48408 39.21485 27.84946
# Shear Modulus (GPa) = 136.17076 25.13671 80.65373
#
# Velocity S-wave (km/s) = 8.37877 3.59992 6.44838
# Velocity P-wave (km/s) = 10.10463 6.12345 8.35464
#
# Compressibility (1/GPa) = 0.06066460
#
# Stress axis : x y z
#
# Youngs Moduli (GPa) = 80.48890 80.48890 18.56580
#
# Poissons Ratio (x) = 0.48462 0.02787
# Poissons Ratio (y) = 0.48462 0.02787
# Poissons Ratio (z) = 0.12082 0.12082
#
# Static dielectric constant tensor:
#      x y z
#    x 1.695470 0.000000 0.000000 
#    y 0.000000 1.695470 0.000000 
#    z 0.000000 0.000000 1.711230 
# 
# From -- ./inp_files/928.got.cif
#   From: 2010.05.17/outbox.cif.g08.bks.cpg/sg83_1_cif.got.tgz:928.got - 2010.06.03 18:55:12.
