data_PCOD9543210
_publ_section_title
;
Structure prediction by ZEFSAII (Michael W. Deem and Ramdas Pophale) SiO2 
 PCOD9543210
Probable space group: I -4 
;
_chemical_formula_sum "Si O2"
_cell_formula_units_Z 26
_cell_length_a 12.587018
_cell_length_b 12.587018
_cell_length_c 5.518767
_cell_angle_alpha 90.000000
_cell_angle_beta 90.000000
_cell_angle_gamma 90.000000
_cell_volume 874.354934
_symmetry_space_group_name_H-M "I -4 "
_symmetry_group_IT_number 82
_symmetry_cell_setting 'tetragonal'
loop_
_space_group_symop_operation_xyz
x,y,z
y,-x,-z
-x,-y,z
-y,x,-z
1/2+x,1/2+y,1/2+z
1/2+y,1/2-x,1/2-z
1/2-x,1/2-y,1/2+z
1/2-y,1/2+x,1/2-z
loop_
_atom_site_type_symbol
_atom_site_label
_atom_site_fract_x
_atom_site_fract_y
_atom_site_fract_z
Si Si1 0.500000 0.000000 0.250000
Si Si2 0.253933 0.311241 0.372534
Si Si3 0.212981 0.490679 0.048064
Si Si4 0.910284 0.094250 0.783858
O O1 0.607248 0.014822 0.403072
O O2 0.182293 0.400832 0.244945
O O3 0.279303 0.237571 0.135691
O O4 0.197587 0.051519 0.360727
O O5 0.359185 0.379144 0.451059
O O6 0.291303 0.569403 0.190363
O O7 0.000000 0.000000 0.756031
#
# Coordination Sequence:
#
# PCOD9543210 Si02
#       4
#     2   8   8   8
#     4  12  36  64 110 154 220 302 344 434 544 650
#     4  12  30  59 101 147 214 270 333 437 533 632
#     4  12  29  61 104 154 211 277 355 427 532 628
#     4  12  28  57 110 162 204 268 361 451 524 620
#
# _framework density 29.736208999999999
#
# number of rings (size 3 to 8) (size 9 to 14) (size 15 to 20)
#    0.000    0.000    6.154    0.000   12.923    1.231 
#    0.000    4.615    0.000    0.000    0.000    0.000 
#    0.000    0.000    0.000    0.000    0.000    0.000 
#
# Total GULP energy -72670.723074 kJ/mol
# GULP energy per Si atom -5590.055621 kJ/mol
# Density = 2.966853 g / cm^3
# Si number density = 29.736209 Si / 1000 Ang^3
#
#
#
# Elastic Constant Matrix: (Units=GPa)
#
#
# Indices 1 2 3 4 5 6 
#
# 1 198.7106 92.8352 109.2022 0.0000 0.0000 -12.8226
# 2 92.8352 198.7106 109.2022 0.0000 0.0000 12.8226
# 3 109.2022 109.2022 240.6217 0.0000 0.0000 0.0000
# 4 0.0000 0.0000 0.0000 89.1025 0.0000 0.0000
# 5 0.0000 0.0000 0.0000 0.0000 89.1025 0.0000
# 6 -12.8226 12.8226 0.0000 0.0000 0.0000 60.4637
#
#
#
# Elastic Compliance Matrix: (Units=1/GPa)
#
#
# Indices 1 2 3 4 5 6 
#
# 1 0.007577 -0.002380 -0.002358 0.000000 0.000000 0.002111
# 2 -0.002380 0.007577 -0.002358 0.000000 0.000000 -0.002111
# 3 -0.002358 -0.002358 0.006297 0.000000 0.000000 0.000000
# 4 0.000000 0.000000 0.000000 0.011223 0.000000 0.000000
# 5 0.000000 0.000000 0.000000 0.000000 0.011223 0.000000
# 6 0.002111 -0.002111 0.000000 0.000000 0.000000 0.017434
#
#
# Mechanical properties :
#
#
# Convention : Reuss Voigt Hill
#
# Bulk Modulus (GPa) = 137.81164 140.05802 138.93483
# Shear Modulus (GPa) = 64.14962 69.52063 66.83513
#
# Velocity S-wave (km/s) = 4.64970 4.84044 4.74603
# Velocity P-wave (km/s) = 8.67592 8.85676 8.76681
#
# Compressibility (1/GPa) = 0.00725628
#
# Stress axis : x y z
#
# Youngs Moduli (GPa) = 131.98443 131.98443 158.81556
#
# Poissons Ratio (x) = 0.31411 0.37456
# Poissons Ratio (y) = 0.31411 0.37456
# Poissons Ratio (z) = 0.31128 0.31128
#
# Static dielectric constant tensor:
#      x y z
#    x 2.667450 0.000000 0.000000 
#    y 0.000000 2.667450 0.000000 
#    z 0.000000 0.000000 2.360790 
# 
# From -- ./inp_files/623.got.cif
#   From: 2010.05.17/outbox.cif.g08.bks.cpg/sg82_1_cif.got.tgz:623.got - 2010.06.03 18:52:26.
