data_PCOD9543798
_publ_section_title
;
Structure prediction by ZEFSAII (Michael W. Deem and Ramdas Pophale) SiO2 
 PCOD9543798
Probable space group: P 4/M
;
_chemical_formula_sum "Si O2"
_cell_formula_units_Z 48
_cell_length_a 7.859903
_cell_length_b 7.859903
_cell_length_c 34.064100
_cell_angle_alpha 90.000000
_cell_angle_beta 90.000000
_cell_angle_gamma 90.000000
_cell_volume 2104.414530
_symmetry_space_group_name_H-M "P 4/M"
_symmetry_group_IT_number 83
_symmetry_cell_setting 'tetragonal'
loop_
_space_group_symop_operation_xyz
x,y,z
-y,x,z
-x,-y,z
y,-x,z
-x,-y,-z
y,-x,-z
x,y,-z
-y,x,-z
loop_
_atom_site_type_symbol
_atom_site_label
_atom_site_fract_x
_atom_site_fract_y
_atom_site_fract_z
Si Si1 0.767837 0.392653 0.085334
Si Si2 0.407191 0.768427 0.293033
Si Si3 0.731510 0.091892 0.213880
Si Si4 0.732606 0.111263 0.458057
Si Si5 0.000000 0.500000 0.149267
Si Si6 0.268354 0.895772 0.373352
Si Si7 0.233795 0.611456 0.000000
O O1 0.711429 0.592002 0.087657
O O2 0.848312 0.355948 0.042334
O O3 0.898312 0.372606 0.120711
O O4 0.291778 0.599928 0.290292
O O5 0.350955 0.880437 0.256296
O O6 0.374117 0.850511 0.335225
O O7 0.600825 0.123811 0.178681
O O8 0.897589 0.207639 0.210540
O O9 0.645416 0.148220 0.500000
O O10 0.648021 0.143285 0.415870
O O11 0.912479 0.212061 0.458039
O O12 0.092161 0.789444 0.371861
O O13 0.287833 0.412936 0.000000
#
# Coordination Sequence:
#
# PCOD9543798 Si02
#       7
#     8   8   8   8   4   8   4
#     4   9  18  33  54  80 112 149 186 224 266 312
#     4  11  24  40  57  77 102 135 179 229 277 327
#     4  11  24  41  59  79 106 140 177 220 274 334
#     4   7  10  19  39  70 106 138 168 207 256 311
#     4  12  22  35  56  84 112 140 179 226 274 322
#     4   9  17  30  52  82 110 137 173 218 270 326
#     4   7  12  27  50  76 108 146 186 224 260 303
#
# _framework density 22.809191999999999
#
# number of rings (size 3 to 8) (size 9 to 14) (size 15 to 20)
#    0.000    2.583    0.000    5.500    0.000    3.667 
#    0.000    1.667    0.000    1.000    0.000    5.833 
#    0.000   10.667    0.000    0.000    0.000    0.000 
#
# Total GULP energy -268229.523922 kJ/mol
# GULP energy per Si atom -5588.115082 kJ/mol
# Density = 2.275728 g / cm^3
# Si number density = 22.809192 Si / 1000 Ang^3
#
#
#
# Elastic Constant Matrix: (Units=GPa)
#
#
# Indices 1 2 3 4 5 6 
#
# 1 49.4452 11.8897 33.9677 0.0000 0.0000 7.3905
# 2 11.8897 49.4452 33.9677 0.0000 0.0000 -7.3905
# 3 33.9677 33.9677 232.2995 0.0000 0.0000 0.0000
# 4 0.0000 0.0000 0.0000 -24.4517 0.0000 0.0000
# 5 0.0000 0.0000 0.0000 0.0000 -24.4517 0.0000
# 6 7.3905 -7.3905 0.0000 0.0000 0.0000 22.5094
#
#
#
# Elastic Compliance Matrix: (Units=1/GPa)
#
#
# Indices 1 2 3 4 5 6 
#
# 1 0.025017 -0.005562 -0.002845 0.000000 0.000000 -0.010040
# 2 -0.005562 0.025017 -0.002845 0.000000 0.000000 0.010040
# 3 -0.002845 -0.002845 0.005137 0.000000 0.000000 0.000000
# 4 0.000000 0.000000 0.000000 -0.040897 0.000000 0.000000
# 5 0.000000 0.000000 0.000000 0.000000 -0.040897 0.000000
# 6 -0.010040 0.010040 0.000000 0.000000 0.000000 0.051019
#
#
# Mechanical properties :
#
#
# Convention : Reuss Voigt Hill
#
# Bulk Modulus (GPa) = 30.61164 54.53781 42.57472
# Shear Modulus (GPa) = 86.52471 11.47886 49.00179
#
# Velocity S-wave (km/s) = 6.16575 2.24577 4.64004
# Velocity P-wave (km/s) = 8.00865 5.53959 6.88569
#
# Compressibility (1/GPa) = 0.03266731
#
# Stress axis : x y z
#
# Youngs Moduli (GPa) = 39.97320 39.97320 194.67647
#
# Poissons Ratio (x) = 0.22233 0.55381
# Poissons Ratio (y) = 0.22233 0.55381
# Poissons Ratio (z) = 0.11371 0.11371
#
# Static dielectric constant tensor:
#      x y z
#    x 1.850560 0.000000 0.000000 
#    y 0.000000 1.850560 0.000000 
#    z 0.000000 0.000000 1.880680 
# 
# From -- ./inp_files/3485.got.cif
#   From: 2010.05.17/outbox.cif.g08.bks.cpg/sg83_2_cif.got.tgz:3485.got - 2010.06.03 18:55:12.
