data_PCOD9543964
_publ_section_title
;
Structure prediction by ZEFSAII (Michael W. Deem and Ramdas Pophale) SiO2 
 PCOD9543964
Probable space group: P 42/M
;
_chemical_formula_sum "Si O2"
_cell_formula_units_Z 64
_cell_length_a 12.258624
_cell_length_b 12.258624
_cell_length_c 22.418409
_cell_angle_alpha 90.000000
_cell_angle_beta 90.000000
_cell_angle_gamma 90.000000
_cell_volume 3368.900909
_symmetry_space_group_name_H-M "P 42/M"
_symmetry_group_IT_number 84
_symmetry_cell_setting 'tetragonal'
loop_
_space_group_symop_operation_xyz
x,y,z
-y,x,1/2+z
-x,-y,z
y,-x,1/2+z
-x,-y,-z
y,-x,1/2-z
x,y,-z
-y,x,1/2-z
loop_
_atom_site_type_symbol
_atom_site_label
_atom_site_fract_x
_atom_site_fract_y
_atom_site_fract_z
Si Si1 0.106286 0.074323 0.563275
Si Si2 0.460766 0.778797 0.572236
Si Si3 0.562873 0.664339 0.928380
Si Si4 0.096218 0.278099 0.360447
Si Si5 0.680006 0.678895 0.572040
Si Si6 0.936186 0.827695 0.241118
Si Si7 0.107336 0.250829 0.892752
Si Si8 0.117430 0.674438 0.570649
O O1 0.113535 0.135354 0.500000
O O2 0.087374 0.153387 0.617469
O O3 0.210320 0.998489 0.571789
O O4 0.000000 0.000000 0.561162
O O5 0.453111 0.785196 0.500000
O O6 0.406912 0.664069 0.593298
O O7 0.588859 0.769873 0.586719
O O8 0.378391 0.868086 0.598232
O O9 0.440695 0.631717 0.913248
O O10 0.585219 0.790974 0.913382
O O11 0.569956 0.657420 0.000000
O O12 0.209406 0.312885 0.390628
O O13 0.091582 0.265753 0.289588
O O14 0.991146 0.334851 0.390116
O O15 0.698883 0.681487 0.500000
O O16 0.912082 0.783596 0.175270
O O17 0.062395 0.864699 0.248690
O O18 0.210255 0.179931 0.917559
O O19 0.092236 0.667800 0.500000
#
# Coordination Sequence:
#
# PCOD9543964 Si02
#       8
#     8   8   8   8   8   8   8   8
#     4  11  19  29  48  78 111 140 172 219 278 333
#     4   9  18  34  59  86 109 141 189 234 278 336
#     4   8  16  31  55  84 113 143 176 222 282 340
#     4  12  22  33  51  80 117 149 184 227 276 342
#     4  10  20  35  55  83 117 148 180 229 289 344
#     4  11  21  37  56  78 104 143 187 230 272 332
#     4  11  19  33  55  79 107 142 189 238 271 325
#     4  10  18  30  52  87 118 141 178 231 289 343
#
# _framework density 18.997294
#
# number of rings (size 3 to 8) (size 9 to 14) (size 15 to 20)
#    0.000    1.750    3.750    3.375    0.000    2.000 
#    0.000    2.500    5.500    2.250    0.000    0.000 
#    0.000    0.000    0.000    0.000    0.000    0.000 
#
# Total GULP energy -356916.631975 kJ/mol
# GULP energy per Si atom -5576.822375 kJ/mol
# Density = 1.895406 g / cm^3
# Si number density = 18.997294 Si / 1000 Ang^3
#
#
#
# Elastic Constant Matrix: (Units=GPa)
#
#
# Indices 1 2 3 4 5 6 
#
# 1 39.3811 9.1461 12.6919 0.0000 0.0000 -2.5281
# 2 9.1461 39.3811 12.6919 0.0000 0.0000 2.5281
# 3 12.6919 12.6919 74.3574 0.0000 0.0000 0.0000
# 4 0.0000 0.0000 0.0000 0.4250 0.0000 0.0000
# 5 0.0000 0.0000 0.0000 0.0000 0.4250 0.0000
# 6 -2.5281 2.5281 0.0000 0.0000 0.0000 30.3946
#
#
#
# Elastic Compliance Matrix: (Units=1/GPa)
#
#
# Indices 1 2 3 4 5 6 
#
# 1 0.028084 -0.005457 -0.003862 0.000000 0.000000 0.002790
# 2 -0.005457 0.028084 -0.003862 0.000000 0.000000 -0.002790
# 3 -0.003862 -0.003862 0.014767 0.000000 0.000000 0.000000
# 4 0.000000 0.000000 0.000000 2.352746 0.000000 0.000000
# 5 0.000000 0.000000 0.000000 0.000000 2.352746 0.000000
# 6 0.002790 -0.002790 0.000000 0.000000 0.000000 0.033365
#
#
# Mechanical properties :
#
#
# Convention : Reuss Voigt Hill
#
# Bulk Modulus (GPa) = 22.43524 24.68660 23.56092
# Shear Modulus (GPa) = 1.03071 14.15491 7.59281
#
# Velocity S-wave (km/s) = 0.73738 2.73262 2.00137
# Velocity P-wave (km/s) = 3.54405 4.79367 4.21542
#
# Compressibility (1/GPa) = 0.04457274
#
# Stress axis : x y z
#
# Youngs Moduli (GPa) = 35.60737 35.60737 67.71846
#
# Poissons Ratio (x) = 0.19430 0.26154
# Poissons Ratio (y) = 0.19430 0.26154
# Poissons Ratio (z) = 0.13752 0.13752
#
# Static dielectric constant tensor:
#      x y z
#    x 1.714100 0.000000 0.000000 
#    y 0.000000 1.714100 0.000000 
#    z 0.000000 0.000000 1.641180 
# 
# From -- ./inp_files/5090.got.cif
#   From: 2010.05.17/outbox.cif.g08.bks.cpg/sg84_3_cif.got.tgz:5090.got - 2010.06.03 18:57:40.
