data_PCOD9543487
_publ_section_title
;
Structure prediction by ZEFSAII (Michael W. Deem and Ramdas Pophale) SiO2 
 PCOD9543487
Probable space group: P 4/M
;
_chemical_formula_sum "Si O2"
_cell_formula_units_Z 40
_cell_length_a 15.774487
_cell_length_b 15.774487
_cell_length_c 7.338705
_cell_angle_alpha 90.000000
_cell_angle_beta 90.000000
_cell_angle_gamma 90.000000
_cell_volume 1826.122550
_symmetry_space_group_name_H-M "P 4/M"
_symmetry_group_IT_number 83
_symmetry_cell_setting 'tetragonal'
loop_
_space_group_symop_operation_xyz
x,y,z
-y,x,z
-x,-y,z
y,-x,z
-x,-y,-z
y,-x,-z
x,y,-z
-y,x,-z
loop_
_atom_site_type_symbol
_atom_site_label
_atom_site_fract_x
_atom_site_fract_y
_atom_site_fract_z
Si Si1 0.870571 0.640611 0.779828
Si Si2 0.935211 0.328887 0.220556
Si Si3 0.947158 0.871594 0.500000
Si Si4 0.826782 0.819216 0.783953
Si Si5 0.536355 0.788265 0.779880
Si Si6 0.638690 0.459936 0.500000
O O1 0.810328 0.721016 0.737619
O O2 0.824772 0.555161 0.723916
O O3 0.968756 0.651454 0.715121
O O4 0.876878 0.637238 0.000000
O O5 0.887524 0.242316 0.277679
O O6 0.865443 0.399940 0.265016
O O7 0.940607 0.325253 0.000000
O O8 0.916345 0.829828 0.684977
O O9 0.042198 0.895429 0.500000
O O10 0.835769 0.827387 0.000000
O O11 0.553673 0.701458 0.672608
O O12 0.539657 0.775499 0.000000
O O13 0.601302 0.556372 0.500000
#
# Coordination Sequence:
#
# PCOD9543487 Si02
#       6
#     8   8   4   8   8   4
#     4   9  18  35  61  94 129 164 206 257 313 369
#     4   9  18  35  61  94 129 164 206 257 313 369
#     4  11  24  38  54  80 112 156 213 258 300 358
#     4  10  21  37  59  86 122 164 203 251 308 366
#     4  10  22  41  69  95 125 165 207 255 312 372
#     4  11  28  48  65  94 132 166 205 256 310 373
#
# _framework density 21.904337000000002
#
# number of rings (size 3 to 8) (size 9 to 14) (size 15 to 20)
#    0.000    2.200    0.000    1.800    2.800    7.200 
#    0.000    6.000    0.000    0.000    0.000    0.000 
#    0.000    0.000    0.000    0.000    0.000    0.000 
#
# Total GULP energy -223137.330453 kJ/mol
# GULP energy per Si atom -5578.433261 kJ/mol
# Density = 2.185448 g / cm^3
# Si number density = 21.904337 Si / 1000 Ang^3
#
#
#
# Elastic Constant Matrix: (Units=GPa)
#
#
# Indices 1 2 3 4 5 6 
#
# 1 67.5776 -37.0375 6.1146 0.0000 0.0000 28.7389
# 2 -37.0375 67.5776 6.1146 0.0000 0.0000 -28.7389
# 3 6.1146 6.1146 79.4638 0.0000 0.0000 0.0000
# 4 0.0000 0.0000 0.0000 23.7310 0.0000 0.0000
# 5 0.0000 0.0000 0.0000 0.0000 23.7310 0.0000
# 6 28.7389 -28.7389 0.0000 0.0000 0.0000 110.4224
#
#
#
# Elastic Compliance Matrix: (Units=1/GPa)
#
#
# Indices 1 2 3 4 5 6 
#
# 1 0.022469 0.011316 -0.002600 0.000000 0.000000 -0.002903
# 2 0.011316 0.022469 -0.002600 0.000000 0.000000 0.002903
# 3 -0.002600 -0.002600 0.012984 0.000000 0.000000 0.000000
# 4 0.000000 0.000000 0.000000 0.042139 0.000000 0.000000
# 5 0.000000 0.000000 0.000000 0.000000 0.042139 0.000000
# 6 -0.002903 0.002903 0.000000 0.000000 0.000000 0.010567
#
#
# Mechanical properties :
#
#
# Convention : Reuss Voigt Hill
#
# Bulk Modulus (GPa) = 14.25409 18.33361 16.29385
# Shear Modulus (GPa) = 30.50249 47.53870 39.02060
#
# Velocity S-wave (km/s) = 3.73571 4.66369 4.22525
# Velocity P-wave (km/s) = 5.01288 6.11457 5.59093
#
# Compressibility (1/GPa) = 0.07015530
#
# Stress axis : x y z
#
# Youngs Moduli (GPa) = 44.50519 44.50519 77.01534
#
# Poissons Ratio (x) = -0.50360 0.20022
# Poissons Ratio (y) = -0.50360 0.20022
# Poissons Ratio (z) = 0.11570 0.11570
#
# Static dielectric constant tensor:
#      x y z
#    x 1.785040 0.000000 0.000000 
#    y 0.000000 1.785040 0.000000 
#    z 0.000000 0.000000 1.983440 
# 
# From -- ./inp_files/735.got.cif
#   From: 2010.05.17/outbox.cif.g08.bks.cpg/sg83_1_cif.got.tgz:735.got - 2010.06.03 18:55:12.
