data_PCOD9543625
_publ_section_title
;
Structure prediction by ZEFSAII (Michael W. Deem and Ramdas Pophale) SiO2 
 PCOD9543625
Probable space group: P 4/M
;
_chemical_formula_sum "Si O2"
_cell_formula_units_Z 35
_cell_length_a 8.725757
_cell_length_b 8.725757
_cell_length_c 21.210306
_cell_angle_alpha 90.000000
_cell_angle_beta 90.000000
_cell_angle_gamma 90.000000
_cell_volume 1614.927994
_symmetry_space_group_name_H-M "P 4/M"
_symmetry_group_IT_number 83
_symmetry_cell_setting 'tetragonal'
loop_
_space_group_symop_operation_xyz
x,y,z
-y,x,z
-x,-y,z
y,-x,z
-x,-y,-z
y,-x,-z
x,y,-z
-y,x,-z
loop_
_atom_site_type_symbol
_atom_site_label
_atom_site_fract_x
_atom_site_fract_y
_atom_site_fract_z
Si Si1 0.163037 0.415034 0.500000
Si Si2 0.000000 0.000000 0.849679
Si Si3 0.656298 0.098095 0.132622
Si Si4 0.890299 0.767866 0.372833
Si Si5 0.500000 0.500000 0.500000
Si Si6 0.609023 0.271155 0.739365
Si Si7 0.133899 0.224889 0.000000
O O1 0.159396 0.317987 0.435822
O O2 0.312267 0.522528 0.500000
O O3 0.000000 0.500000 0.500000
O O4 0.809890 0.999066 0.852569
O O5 0.634915 0.214329 0.189990
O O6 0.500000 0.000000 0.128913
O O7 0.688256 0.172082 0.064154
O O8 0.848256 0.672219 0.311062
O O9 0.069893 0.803959 0.371988
O O10 0.696660 0.430516 0.728711
O O11 0.947888 0.200244 0.000000
#
# Coordination Sequence:
#
# PCOD9543625 Si02
#       7
#     4   2   8   8   1   8   4
#     4  12  28  49  78 119 156 201 251 314 386 456
#     4  12  24  45  76 104 152 185 252 314 364 461
#     4  12  25  44  75 110 146 200 249 311 391 449
#     4  11  27  47  77 111 150 196 251 314 380 454
#     4  12  28  44  84 112 156 204 252 302 388 448
#     4  11  29  49  70 107 151 195 257 317 374 457
#     4  11  21  42  72 108 146 189 246 317 374 461
#
# _framework density 21.672795000000001
#
# number of rings (size 3 to 8) (size 9 to 14) (size 15 to 20)
#    0.000    0.571    2.286    3.771   12.800    0.914 
#    0.000    0.000    0.000    1.371    0.000    0.000 
#    0.000    0.000    0.000    0.000    0.000    0.000 
#
# Total GULP energy -195209.534349 kJ/mol
# GULP energy per Si atom -5577.415267 kJ/mol
# Density = 2.162347 g / cm^3
# Si number density = 21.672795 Si / 1000 Ang^3
#
#
#
# Elastic Constant Matrix: (Units=GPa)
#
#
# Indices 1 2 3 4 5 6 
#
# 1 80.0618 46.7259 35.9631 0.0000 0.0000 3.5411
# 2 46.7259 80.0618 35.9631 0.0000 0.0000 -3.5411
# 3 35.9631 35.9631 128.0276 0.0000 0.0000 0.0000
# 4 0.0000 0.0000 0.0000 38.2331 0.0000 0.0000
# 5 0.0000 0.0000 0.0000 0.0000 38.2331 0.0000
# 6 3.5411 -3.5411 0.0000 0.0000 0.0000 21.8253
#
#
#
# Elastic Compliance Matrix: (Units=1/GPa)
#
#
# Indices 1 2 3 4 5 6 
#
# 1 0.020225 -0.010843 -0.002636 0.000000 0.000000 -0.005041
# 2 -0.010843 0.020225 -0.002636 0.000000 0.000000 0.005041
# 3 -0.002636 -0.002636 0.009291 0.000000 0.000000 0.000000
# 4 0.000000 0.000000 0.000000 0.026155 0.000000 0.000000
# 5 0.000000 0.000000 0.000000 0.000000 0.026155 0.000000
# 6 -0.005041 0.005041 0.000000 0.000000 0.000000 0.047454
#
#
# Mechanical properties :
#
#
# Convention : Reuss Voigt Hill
#
# Bulk Modulus (GPa) = 57.09700 58.38396 57.74048
# Shear Modulus (GPa) = 26.65621 30.95823 28.80722
#
# Velocity S-wave (km/s) = 3.51085 3.78357 3.64976
# Velocity P-wave (km/s) = 6.54500 6.78856 6.66789
#
# Compressibility (1/GPa) = 0.01751405
#
# Stress axis : x y z
#
# Youngs Moduli (GPa) = 49.44262 49.44262 107.62581
#
# Poissons Ratio (x) = 0.53611 0.28365
# Poissons Ratio (y) = 0.53611 0.28365
# Poissons Ratio (z) = 0.13031 0.13031
#
# Static dielectric constant tensor:
#      x y z
#    x 1.781470 0.000000 0.000000 
#    y 0.000000 1.781470 0.000000 
#    z 0.000000 0.000000 1.775250 
# 
# From -- ./inp_files/2900.got.cif
#   From: 2010.05.17/outbox.cif.g08.bks.cpg/sg83_2_cif.got.tgz:2900.got - 2010.06.03 18:55:12.
