data_PCOD9543360
_publ_section_title
;
Structure prediction by ZEFSAII (Michael W. Deem and Ramdas Pophale) SiO2 
 PCOD9543360
Probable space group: P 4/M
;
_chemical_formula_sum "Si O2"
_cell_formula_units_Z 52
_cell_length_a 17.659115
_cell_length_b 17.659115
_cell_length_c 8.849037
_cell_angle_alpha 90.000000
_cell_angle_beta 90.000000
_cell_angle_gamma 90.000000
_cell_volume 2759.522126
_symmetry_space_group_name_H-M "P 4/M"
_symmetry_group_IT_number 83
_symmetry_cell_setting 'tetragonal'
loop_
_space_group_symop_operation_xyz
x,y,z
-y,x,z
-x,-y,z
y,-x,z
-x,-y,-z
y,-x,-z
x,y,-z
-y,x,-z
loop_
_atom_site_type_symbol
_atom_site_label
_atom_site_fract_x
_atom_site_fract_y
_atom_site_fract_z
Si Si1 0.201006 0.994779 0.324286
Si Si2 0.337824 0.949485 0.168078
Si Si3 0.142953 0.842759 0.821868
Si Si4 0.500000 0.000000 0.246846
Si Si5 0.301875 0.224975 0.317854
Si Si6 0.827852 0.465215 0.673714
Si Si7 0.370157 0.790631 0.317914
O O1 0.186797 0.008110 0.500000
O O2 0.289943 0.999314 0.284649
O O3 0.178428 0.911145 0.272841
O O4 0.158705 0.054868 0.221081
O O5 0.423243 0.978682 0.162672
O O6 0.338805 0.863985 0.230251
O O7 0.304587 0.953753 0.000000
O O8 0.177979 0.764098 0.763233
O O9 0.154441 0.851108 0.000000
O O10 0.520485 0.918896 0.323834
O O11 0.296489 0.211659 0.500000
O O12 0.384474 0.198226 0.260822
O O13 0.279468 0.313458 0.292559
O O14 0.804156 0.460469 0.500000
O O15 0.787637 0.541937 0.732781
O O16 0.369249 0.806262 0.500000
#
# Coordination Sequence:
#
# PCOD9543360 Si02
#       7
#     8   8   8   4   8   8   8
#     4  12  25  42  61  83 112 151 197 240 290 347
#     4  11  21  35  55  81 114 150 188 237 292 347
#     4  12  25  41  61  86 114 148 193 245 296 344
#     4  10  20  32  50  80 119 154 187 238 303 360
#     4  10  19  35  58  83 114 153 198 242 293 355
#     4   9  18  31  51  81 112 149 196 246 292 352
#     4   9  18  33  54  78 109 150 193 235 288 349
#
# _framework density 18.843843
#
# number of rings (size 3 to 8) (size 9 to 14) (size 15 to 20)
#    0.000    1.538    1.538    4.615    0.000    3.385 
#    0.000    4.615    0.000    0.462    0.000    3.231 
#    0.000    0.000    0.000    6.923    0.000    5.846 
#
# Total GULP energy -289915.584805 kJ/mol
# GULP energy per Si atom -5575.299708 kJ/mol
# Density = 1.880095 g / cm^3
# Si number density = 18.843843 Si / 1000 Ang^3
#
#
#
# Elastic Constant Matrix: (Units=GPa)
#
#
# Indices 1 2 3 4 5 6 
#
# 1 90.1473 29.4925 2.3253 0.0000 0.0000 -0.8397
# 2 29.4925 90.1473 2.3253 0.0000 0.0000 0.8397
# 3 2.3253 2.3253 46.8200 0.0000 0.0000 0.0000
# 4 0.0000 0.0000 0.0000 1.2603 0.0000 0.0000
# 5 0.0000 0.0000 0.0000 0.0000 1.2603 0.0000
# 6 -0.8397 0.8397 0.0000 0.0000 0.0000 32.9864
#
#
#
# Elastic Compliance Matrix: (Units=1/GPa)
#
#
# Indices 1 2 3 4 5 6 
#
# 1 0.012436 -0.004062 -0.000416 0.000000 0.000000 0.000420
# 2 -0.004062 0.012436 -0.000416 0.000000 0.000000 -0.000420
# 3 -0.000416 -0.000416 0.021400 0.000000 0.000000 0.000000
# 4 0.000000 0.000000 0.000000 0.793475 0.000000 0.000000
# 5 0.000000 0.000000 0.000000 0.000000 0.793475 0.000000
# 6 0.000420 -0.000420 0.000000 0.000000 0.000000 0.030337
#
#
# Mechanical properties :
#
#
# Convention : Reuss Voigt Hill
#
# Bulk Modulus (GPa) = 27.40836 32.82230 30.11533
# Shear Modulus (GPa) = 2.96646 19.96615 11.46631
#
# Velocity S-wave (km/s) = 1.25605 3.25862 2.46944
# Velocity P-wave (km/s) = 4.08413 5.62263 4.91396
#
# Compressibility (1/GPa) = 0.03648521
#
# Stress axis : x y z
#
# Youngs Moduli (GPa) = 80.40852 80.40852 46.72966
#
# Poissons Ratio (x) = 0.32661 0.01944
# Poissons Ratio (y) = 0.32661 0.01944
# Poissons Ratio (z) = 0.03344 0.03344
#
# Static dielectric constant tensor:
#      x y z
#    x 1.696880 0.000000 0.000000 
#    y 0.000000 1.696880 0.000000 
#    z 0.000000 0.000000 1.641930 
# 
# From -- ./inp_files/1049.got.cif
#   From: 2010.05.17/outbox.cif.g08.bks.cpg/sg83_1_cif.got.tgz:1049.got - 2010.06.03 18:55:12.
