data_PCOD9543698
_publ_section_title
;
Structure prediction by ZEFSAII (Michael W. Deem and Ramdas Pophale) SiO2 
 PCOD9543698
Probable space group: P 4/M
;
_chemical_formula_sum "Si O2"
_cell_formula_units_Z 48
_cell_length_a 8.153727
_cell_length_b 8.153727
_cell_length_c 32.784636
_cell_angle_alpha 90.000000
_cell_angle_beta 90.000000
_cell_angle_gamma 90.000000
_cell_volume 2179.629610
_symmetry_space_group_name_H-M "P 4/M"
_symmetry_group_IT_number 83
_symmetry_cell_setting 'tetragonal'
loop_
_space_group_symop_operation_xyz
x,y,z
-y,x,z
-x,-y,z
y,-x,z
-x,-y,-z
y,-x,-z
x,y,-z
-y,x,-z
loop_
_atom_site_type_symbol
_atom_site_label
_atom_site_fract_x
_atom_site_fract_y
_atom_site_fract_z
Si Si1 0.913001 0.736416 0.788111
Si Si2 0.096606 0.261644 0.543582
Si Si3 0.262880 0.908591 0.367766
Si Si4 0.579966 0.236756 0.289531
Si Si5 0.084098 0.263448 0.878188
Si Si6 0.764038 0.582923 0.044699
O O1 0.863439 0.622330 0.751003
O O2 0.887418 0.662243 0.833233
O O3 0.099005 0.801743 0.785342
O O4 0.129386 0.347069 0.500000
O O5 0.124489 0.341814 0.587604
O O6 0.907434 0.201008 0.543565
O O7 0.375551 0.862055 0.330145
O O8 0.095941 0.800136 0.365400
O O9 0.697215 0.396250 0.289514
O O10 0.128492 0.372869 0.916567
O O11 0.898999 0.197484 0.880197
O O12 0.601905 0.696997 0.046450
O O13 0.841650 0.611128 0.000000
#
# Coordination Sequence:
#
# PCOD9543698 Si02
#       6
#     8   8   8   8   8   8
#     4   9  19  37  58  77  98 125 159 200 247 299
#     4   7  10  19  39  69 100 123 147 188 240 287
#     4   9  17  30  51  77 100 125 160 200 243 291
#     4  11  24  37  48  68  99 132 166 203 242 287
#     4   9  19  35  54  78 105 129 157 199 249 297
#     4   9  19  35  52  72 102 139 175 208 241 280
#
# _framework density 22.022093000000002
#
# number of rings (size 3 to 8) (size 9 to 14) (size 15 to 20)
#    0.000    3.000    0.000    4.000    0.000    6.667 
#    0.000    7.500    0.000    1.000    0.000    5.833 
#    0.000    0.000    0.000    0.000    0.000    0.000 
#
# Total GULP energy -268278.392052 kJ/mol
# GULP energy per Si atom -5589.133168 kJ/mol
# Density = 2.197197 g / cm^3
# Si number density = 22.022093 Si / 1000 Ang^3
#
#
#
# Elastic Constant Matrix: (Units=GPa)
#
#
# Indices 1 2 3 4 5 6 
#
# 1 53.7716 38.6911 66.9235 0.0000 0.0000 1.8986
# 2 38.6911 53.7716 66.9235 0.0000 0.0000 -1.8986
# 3 66.9235 66.9235 261.5299 0.0000 0.0000 0.0000
# 4 0.0000 0.0000 0.0000 335.9350 0.0000 0.0000
# 5 0.0000 0.0000 0.0000 0.0000 335.9350 0.0000
# 6 1.8986 -1.8986 0.0000 0.0000 0.0000 35.8437
#
#
#
# Elastic Compliance Matrix: (Units=1/GPa)
#
#
# Indices 1 2 3 4 5 6 
#
# 1 0.042193 -0.025014 -0.004396 0.000000 0.000000 -0.003560
# 2 -0.025014 0.042193 -0.004396 0.000000 0.000000 0.003560
# 3 -0.004396 -0.004396 0.006073 0.000000 0.000000 0.000000
# 4 0.000000 0.000000 0.000000 0.002977 0.000000 0.000000
# 5 0.000000 0.000000 0.000000 0.000000 0.002977 0.000000
# 6 -0.003560 0.003560 0.000000 0.000000 0.000000 0.028276
#
#
# Mechanical properties :
#
#
# Convention : Reuss Voigt Hill
#
# Bulk Modulus (GPa) = 43.76942 79.34992 61.55967
# Shear Modulus (GPa) = 25.01054 154.64507 89.82781
#
# Velocity S-wave (km/s) = 3.37367 8.38899 6.39362
# Velocity P-wave (km/s) = 5.92401 11.39929 9.08399
#
# Compressibility (1/GPa) = 0.02284700
#
# Stress axis : x y z
#
# Youngs Moduli (GPa) = 23.70079 23.70079 164.65296
#
# Poissons Ratio (x) = 0.59286 0.72379
# Poissons Ratio (y) = 0.59286 0.72379
# Poissons Ratio (z) = 0.10419 0.10419
#
# Static dielectric constant tensor:
#      x y z
#    x 1.789870 0.000000 0.000000 
#    y 0.000000 1.789870 0.000000 
#    z 0.000000 0.000000 1.822520 
# 
# From -- ./inp_files/3412.got.cif
#   From: 2010.05.17/outbox.cif.g08.bks.cpg/sg83_2_cif.got.tgz:3412.got - 2010.06.03 18:55:12.
