data_PCOD9543715
_publ_section_title
;
Structure prediction by ZEFSAII (Michael W. Deem and Ramdas Pophale) SiO2 
 PCOD9543715
Probable space group: P 4/M
;
_chemical_formula_sum "Si O2"
_cell_formula_units_Z 44
_cell_length_a 8.196862
_cell_length_b 8.196862
_cell_length_c 29.239338
_cell_angle_alpha 90.000000
_cell_angle_beta 90.000000
_cell_angle_gamma 90.000000
_cell_volume 1964.548625
_symmetry_space_group_name_H-M "P 4/M"
_symmetry_group_IT_number 83
_symmetry_cell_setting 'tetragonal'
loop_
_space_group_symop_operation_xyz
x,y,z
-y,x,z
-x,-y,z
y,-x,z
-x,-y,-z
y,-x,-z
x,y,-z
-y,x,-z
loop_
_atom_site_type_symbol
_atom_site_label
_atom_site_fract_x
_atom_site_fract_y
_atom_site_fract_z
Si Si1 0.760769 0.410832 0.777074
Si Si2 0.762474 0.417430 0.500000
Si Si3 0.407339 0.240043 0.325558
Si Si4 0.916370 0.261489 0.587239
Si Si5 0.761791 0.413382 0.051068
Si Si6 0.922457 0.262392 0.136926
O O1 0.698308 0.596418 0.781086
O O2 0.826801 0.384712 0.725785
O O3 0.879651 0.360602 0.817398
O O4 0.696813 0.601169 0.500000
O O5 0.864207 0.373279 0.544949
O O6 0.593957 0.300324 0.329884
O O7 0.351496 0.120987 0.365327
O O8 0.100272 0.197442 0.584717
O O9 0.697317 0.598346 0.054766
O O10 0.879047 0.363307 0.091777
O O11 0.830683 0.388595 0.000000
O O12 0.104563 0.195292 0.136684
#
# Coordination Sequence:
#
# PCOD9543715 Si02
#       6
#     8   4   8   8   8   8
#     4   9  19  37  60  83 107 139 183 232 274 317
#     4  11  24  41  62  86 110 141 186 235 276 320
#     4   9  19  37  60  85 111 141 182 229 274 322
#     4  11  24  39  56  83 118 151 183 222 270 325
#     4   9  19  37  60  83 105 133 175 225 272 321
#     4  11  24  37  50  76 114 149 180 219 268 322
#
# _framework density 22.397005
#
# number of rings (size 3 to 8) (size 9 to 14) (size 15 to 20)
#    0.000    2.091    0.000    4.364    0.000   12.364 
#    0.000    8.182    0.000    0.000    0.000    0.000 
#    0.000    0.000    0.000    0.000    0.000    0.000 
#
# Total GULP energy -246558.624627 kJ/mol
# GULP energy per Si atom -5603.605105 kJ/mol
# Density = 2.234603 g / cm^3
# Si number density = 22.397005 Si / 1000 Ang^3
#
#
#
# Elastic Constant Matrix: (Units=GPa)
#
#
# Indices 1 2 3 4 5 6 
#
# 1 78.9750 57.2425 71.1576 0.0000 0.0000 -0.0494
# 2 57.2425 78.9750 71.1576 0.0000 0.0000 0.0494
# 3 71.1576 71.1576 197.4345 0.0000 0.0000 0.0000
# 4 0.0000 0.0000 0.0000 -282.7874 0.0000 0.0000
# 5 0.0000 0.0000 0.0000 0.0000 -282.7874 0.0000
# 6 -0.0494 0.0494 0.0000 0.0000 0.0000 46.8179
#
#
#
# Elastic Compliance Matrix: (Units=1/GPa)
#
#
# Indices 1 2 3 4 5 6 
#
# 1 0.028895 -0.017120 -0.004244 0.000000 0.000000 0.000049
# 2 -0.017120 0.028895 -0.004244 0.000000 0.000000 -0.000049
# 3 -0.004244 -0.004244 0.008124 0.000000 0.000000 0.000000
# 4 0.000000 0.000000 0.000000 -0.003536 0.000000 0.000000
# 5 0.000000 0.000000 0.000000 0.000000 -0.003536 0.000000
# 6 0.000049 -0.000049 0.000000 0.000000 0.000000 0.021359
#
#
# Mechanical properties :
#
#
# Convention : Reuss Voigt Hill
#
# Bulk Modulus (GPa) = 68.03333 83.83332 75.93332
# Shear Modulus (GPa) = 36.67989 -93.36291 -28.34151
#
# Velocity S-wave (km/s) = 4.05126 -6.46343 -3.56113
# Velocity P-wave (km/s) = 7.23365 4.26490 4.13136
#
# Compressibility (1/GPa) = 0.01469868
#
# Stress axis : x y z
#
# Youngs Moduli (GPa) = 34.60850 34.60850 123.09160
#
# Poissons Ratio (x) = 0.59248 0.52238
# Poissons Ratio (y) = 0.59248 0.52238
# Poissons Ratio (z) = 0.14687 0.14687
#
# Static dielectric constant tensor:
#      x y z
#    x 1.800390 0.000000 0.000000 
#    y 0.000000 1.800390 0.000000 
#    z 0.000000 0.000000 1.775840 
# 
# From -- ./inp_files/3358.got.cif
#   From: 2010.05.17/outbox.cif.g08.bks.cpg/sg83_2_cif.got.tgz:3358.got - 2010.06.03 18:55:12.
