data_PCOD9543496
_publ_section_title
;
Structure prediction by ZEFSAII (Michael W. Deem and Ramdas Pophale) SiO2 
 PCOD9543496
Probable space group: P 4/M
;
_chemical_formula_sum "Si O2"
_cell_formula_units_Z 48
_cell_length_a 11.708098
_cell_length_b 11.708098
_cell_length_c 17.959178
_cell_angle_alpha 90.000000
_cell_angle_beta 90.000000
_cell_angle_gamma 90.000000
_cell_volume 2461.836196
_symmetry_space_group_name_H-M "P 4/M"
_symmetry_group_IT_number 83
_symmetry_cell_setting 'tetragonal'
loop_
_space_group_symop_operation_xyz
x,y,z
-y,x,z
-x,-y,z
y,-x,z
-x,-y,-z
y,-x,-z
x,y,-z
-y,x,-z
loop_
_atom_site_type_symbol
_atom_site_label
_atom_site_fract_x
_atom_site_fract_y
_atom_site_fract_z
Si Si1 0.758420 0.645333 0.167762
Si Si2 0.873347 0.855490 0.414322
Si Si3 0.782556 0.309666 0.698931
Si Si4 0.200880 0.589324 0.086100
Si Si5 0.459403 0.311646 0.416223
Si Si6 0.369267 0.013878 0.804195
O O1 0.693895 0.676364 0.244131
O O2 0.760778 0.515946 0.138819
O O3 0.695776 0.718196 0.104453
O O4 0.888810 0.681162 0.184748
O O5 0.846283 0.824135 0.500000
O O6 0.798382 0.786013 0.356031
O O7 0.009667 0.844704 0.404869
O O8 0.774994 0.421878 0.647538
O O9 0.896579 0.309301 0.749415
O O10 0.075743 0.621785 0.115764
O O11 0.203504 0.557937 0.000000
O O12 0.583203 0.369357 0.409546
O O13 0.449941 0.263904 0.500000
O O14 0.500000 0.000000 0.777107
#
# Coordination Sequence:
#
# PCOD9543496 Si02
#       6
#     8   8   8   8   8   8
#     4  10  22  36  55  84 116 143 187 230 275 339
#     4   9  18  33  53  78 107 144 192 238 283 334
#     4  11  20  33  59  80 110 150 183 236 285 329
#     4  10  21  38  60  83 111 150 182 227 282 333
#     4   9  20  36  53  77 112 153 192 229 276 337
#     4   9  21  37  52  81 114 145 186 227 273 341
#
# _framework density 19.497643
#
# number of rings (size 3 to 8) (size 9 to 14) (size 15 to 20)
#    0.000    2.333    0.000    3.000    7.000    4.000 
#    0.000    0.833    0.000    5.500    0.000    4.667 
#    0.000    0.000    0.000    0.000    0.000    0.000 
#
# Total GULP energy -267747.741234 kJ/mol
# GULP energy per Si atom -5578.077942 kJ/mol
# Density = 1.945327 g / cm^3
# Si number density = 19.497643 Si / 1000 Ang^3
#
#
#
# Elastic Constant Matrix: (Units=GPa)
#
#
# Indices 1 2 3 4 5 6 
#
# 1 42.4000 9.6768 28.2417 0.0000 0.0000 -2.1275
# 2 9.6768 42.4000 28.2417 0.0000 0.0000 2.1275
# 3 28.2417 28.2417 125.9431 0.0000 0.0000 0.0000
# 4 0.0000 0.0000 0.0000 20.8920 0.0000 0.0000
# 5 0.0000 0.0000 0.0000 0.0000 20.8920 0.0000
# 6 -2.1275 2.1275 0.0000 0.0000 0.0000 26.3583
#
#
#
# Elastic Compliance Matrix: (Units=1/GPa)
#
#
# Indices 1 2 3 4 5 6 
#
# 1 0.028129 -0.002755 -0.005690 0.000000 0.000000 0.002493
# 2 -0.002755 0.028129 -0.005690 0.000000 0.000000 -0.002493
# 3 -0.005690 -0.005690 0.010492 0.000000 0.000000 0.000000
# 4 0.000000 0.000000 0.000000 0.047865 0.000000 0.000000
# 5 0.000000 0.000000 0.000000 0.000000 0.047865 0.000000
# 6 0.002493 -0.002493 0.000000 0.000000 0.000000 0.038341
#
#
# Mechanical properties :
#
#
# Convention : Reuss Voigt Hill
#
# Bulk Modulus (GPa) = 25.98759 38.11817 32.05288
# Shear Modulus (GPa) = 20.66831 23.26734 21.96783
#
# Velocity S-wave (km/s) = 3.25936 3.45822 3.36026
# Velocity P-wave (km/s) = 5.24615 5.96140 5.61518
#
# Compressibility (1/GPa) = 0.03847991
#
# Stress axis : x y z
#
# Youngs Moduli (GPa) = 35.55102 35.55102 95.31170
#
# Poissons Ratio (x) = 0.09794 0.54231
# Poissons Ratio (y) = 0.09794 0.54231
# Poissons Ratio (z) = 0.20228 0.20228
#
# Static dielectric constant tensor:
#      x y z
#    x 1.698750 0.000000 0.000000 
#    y 0.000000 1.698750 0.000000 
#    z 0.000000 0.000000 1.687410 
# 
# From -- ./inp_files/2653.got.cif
#   From: 2010.05.17/outbox.cif.g08.bks.cpg/sg83_2_cif.got.tgz:2653.got - 2010.06.03 18:55:12.
