data_PCOD9543770
_publ_section_title
;
Structure prediction by ZEFSAII (Michael W. Deem and Ramdas Pophale) SiO2 
 PCOD9543770
Probable space group: P 4/M
;
_chemical_formula_sum "Si O2"
_cell_formula_units_Z 48
_cell_length_a 8.156642
_cell_length_b 8.156642
_cell_length_c 33.118444
_cell_angle_alpha 90.000000
_cell_angle_beta 90.000000
_cell_angle_gamma 90.000000
_cell_volume 2203.396863
_symmetry_space_group_name_H-M "P 4/M"
_symmetry_group_IT_number 83
_symmetry_cell_setting 'tetragonal'
loop_
_space_group_symop_operation_xyz
x,y,z
-y,x,z
-x,-y,z
y,-x,z
-x,-y,-z
y,-x,-z
x,y,-z
-y,x,-z
loop_
_atom_site_type_symbol
_atom_site_label
_atom_site_fract_x
_atom_site_fract_y
_atom_site_fract_z
Si Si1 0.760282 0.404847 0.745331
Si Si2 0.083358 0.737402 0.577205
Si Si3 0.581448 0.763808 0.500000
Si Si4 0.500000 0.000000 0.890011
Si Si5 0.091951 0.260865 0.045456
Si Si6 0.405106 0.239501 0.345201
Si Si7 0.262184 0.082493 0.177080
O O1 0.701719 0.592995 0.748820
O O2 0.827404 0.379552 0.700062
O O3 0.879148 0.350529 0.780835
O O4 0.134878 0.625045 0.539844
O O5 0.120754 0.649056 0.619339
O O6 0.898838 0.801857 0.574864
O O7 0.397346 0.697151 0.500000
O O8 0.391870 0.887158 0.919552
O O9 0.615861 0.896741 0.860253
O O10 0.903062 0.199588 0.049270
O O11 0.115867 0.326209 0.000000
O O12 0.593037 0.298733 0.348872
O O13 0.103286 0.197402 0.174612
#
# Coordination Sequence:
#
# PCOD9543770 Si02
#       7
#     8   8   4   4   8   8   8
#     4   9  19  38  62  87 117 153 194 243 298 355
#     4  11  24  39  56  84 120 154 191 237 287 342
#     4  11  24  41  62  86 112 145 190 241 294 356
#     4  12  21  34  58  86 116 154 198 243 294 352
#     4   9  19  37  61  89 120 154 195 244 297 354
#     4   9  19  37  61  87 115 150 193 236 282 344
#     4  11  24  39  56  82 116 154 199 249 300 357
#
# _framework density 21.784544
#
# number of rings (size 3 to 8) (size 9 to 14) (size 15 to 20)
#    0.000    1.917    0.000    5.250    0.000    8.000 
#    0.000    5.000    0.000    4.500    0.000    9.333 
#    0.000    0.000    0.000    0.000    0.000    0.000 
#
# Total GULP energy -268734.311382 kJ/mol
# GULP energy per Si atom -5598.631487 kJ/mol
# Density = 2.173496 g / cm^3
# Si number density = 21.784544 Si / 1000 Ang^3
#
#
#
# Elastic Constant Matrix: (Units=GPa)
#
#
# Indices 1 2 3 4 5 6 
#
# 1 85.7170 39.6244 70.7093 0.0000 0.0000 -0.8527
# 2 39.6244 85.7170 70.7093 0.0000 0.0000 0.8527
# 3 70.7093 70.7093 204.3975 0.0000 0.0000 0.0000
# 4 0.0000 0.0000 0.0000 381.1581 0.0000 0.0000
# 5 0.0000 0.0000 0.0000 0.0000 381.1581 0.0000
# 6 -0.8527 0.8527 0.0000 0.0000 0.0000 33.1224
#
#
#
# Elastic Compliance Matrix: (Units=1/GPa)
#
#
# Indices 1 2 3 4 5 6 
#
# 1 0.017401 -0.004315 -0.004527 0.000000 0.000000 0.000559
# 2 -0.004315 0.017401 -0.004527 0.000000 0.000000 -0.000559
# 3 -0.004527 -0.004527 0.008024 0.000000 0.000000 0.000000
# 4 0.000000 0.000000 0.000000 0.002624 0.000000 0.000000
# 5 0.000000 0.000000 0.000000 0.000000 0.002624 0.000000
# 6 0.000559 -0.000559 0.000000 0.000000 0.000000 0.030220
#
#
# Mechanical properties :
#
#
# Convention : Reuss Voigt Hill
#
# Bulk Modulus (GPa) = 62.15643 81.99083 72.07363
# Shear Modulus (GPa) = 45.29227 172.07363 108.68295
#
# Velocity S-wave (km/s) = 4.56466 8.89721 7.07094
# Velocity P-wave (km/s) = 7.50838 11.96938 9.99104
#
# Compressibility (1/GPa) = 0.01608844
#
# Stress axis : x y z
#
# Youngs Moduli (GPa) = 57.46817 57.46817 124.61856
#
# Poissons Ratio (x) = 0.24799 0.56413
# Poissons Ratio (y) = 0.24799 0.56413
# Poissons Ratio (z) = 0.26015 0.26015
#
# Static dielectric constant tensor:
#      x y z
#    x 1.797190 0.000000 0.000000 
#    y 0.000000 1.797190 0.000000 
#    z 0.000000 0.000000 1.767320 
# 
# From -- ./inp_files/3429.got.cif
#   From: 2010.05.17/outbox.cif.g08.bks.cpg/sg83_2_cif.got.tgz:3429.got - 2010.06.03 18:55:12.
