data_PCOD9543849
_publ_section_title
;
Structure prediction by ZEFSAII (Michael W. Deem and Ramdas Pophale) SiO2 
 PCOD9543849
Probable space group: P 4/M
;
_chemical_formula_sum "Si O2"
_cell_formula_units_Z 37
_cell_length_a 8.618506
_cell_length_b 8.618506
_cell_length_c 23.860877
_cell_angle_alpha 90.000000
_cell_angle_beta 90.000000
_cell_angle_gamma 90.000000
_cell_volume 1772.353628
_symmetry_space_group_name_H-M "P 4/M"
_symmetry_group_IT_number 83
_symmetry_cell_setting 'tetragonal'
loop_
_space_group_symop_operation_xyz
x,y,z
-y,x,z
-x,-y,z
y,-x,z
-x,-y,-z
y,-x,-z
x,y,-z
-y,x,-z
loop_
_atom_site_type_symbol
_atom_site_label
_atom_site_fract_x
_atom_site_fract_y
_atom_site_fract_z
Si Si1 0.601636 0.738243 0.882199
Si Si2 0.918280 0.249461 0.658619
Si Si3 0.749390 0.419786 0.436615
Si Si4 0.247247 0.085446 0.215917
Si Si5 0.655439 0.899861 0.000000
Si Si6 0.000000 0.000000 0.000000
O O1 0.421677 0.695873 0.875903
O O2 0.646276 0.860621 0.834477
O O3 0.645127 0.801538 0.943174
O O4 0.868223 0.366929 0.610584
O O5 0.893674 0.313666 0.721495
O O6 0.094218 0.187882 0.653776
O O7 0.687482 0.595267 0.431049
O O8 0.810429 0.399525 0.500000
O O9 0.090967 0.189035 0.211618
O O10 0.500000 0.000000 0.000000
O O11 0.994920 0.808927 0.000000
#
# Coordination Sequence:
#
# PCOD9543849 Si02
#       6
#     8   8   8   8   4   1
#     4  11  25  43  63  92 130 165 201 259 324 374
#     4   9  19  37  56  82 117 153 194 249 307 359
#     4   9  19  35  54  78 111 152 198 248 301 363
#     4   9  21  39  62  87 118 158 207 255 300 377
#     4  12  28  47  70 103 132 167 219 268 316 388
#     4  12  28  44  76 104 124 180 228 252 326 408
#
# _framework density 20.876196
#
# number of rings (size 3 to 8) (size 9 to 14) (size 15 to 20)
#    0.000    2.162    0.000    3.892    6.054    4.324 
#    0.000    9.730    0.000    0.000    0.000    0.000 
#    0.000    0.000    0.000    0.000    0.000    0.000 
#
# Total GULP energy -206676.033839 kJ/mol
# GULP energy per Si atom -5585.838752 kJ/mol
# Density = 2.082868 g / cm^3
# Si number density = 20.876196 Si / 1000 Ang^3
#
#
#
# Elastic Constant Matrix: (Units=GPa)
#
#
# Indices 1 2 3 4 5 6 
#
# 1 48.8634 36.0756 44.6482 0.0000 0.0000 -3.5089
# 2 36.0756 48.8634 44.6482 0.0000 0.0000 3.5089
# 3 44.6482 44.6482 149.1669 0.0000 0.0000 0.0000
# 4 0.0000 0.0000 0.0000 85.4446 0.0000 0.0000
# 5 0.0000 0.0000 0.0000 0.0000 85.4446 0.0000
# 6 -3.5089 3.5089 0.0000 0.0000 0.0000 35.7475
#
#
#
# Elastic Compliance Matrix: (Units=1/GPa)
#
#
# Indices 1 2 3 4 5 6 
#
# 1 0.049915 -0.032736 -0.005142 0.000000 0.000000 0.008113
# 2 -0.032736 0.049915 -0.005142 0.000000 0.000000 -0.008113
# 3 -0.005142 -0.005142 0.009782 0.000000 0.000000 0.000000
# 4 0.000000 0.000000 0.000000 0.011703 0.000000 0.000000
# 5 0.000000 0.000000 0.000000 0.000000 0.011703 0.000000
# 6 0.008113 -0.008113 0.000000 0.000000 0.000000 0.029567
#
#
# Mechanical properties :
#
#
# Convention : Reuss Voigt Hill
#
# Bulk Modulus (GPa) = 42.42312 55.29308 48.85810
# Shear Modulus (GPa) = 19.49445 49.42879 34.46162
#
# Velocity S-wave (km/s) = 3.05915 4.87119 4.06736
# Velocity P-wave (km/s) = 5.73090 7.62769 6.74629
#
# Compressibility (1/GPa) = 0.02357205
#
# Stress axis : x y z
#
# Youngs Moduli (GPa) = 20.03403 20.03403 102.22824
#
# Poissons Ratio (x) = 0.65584 0.52565
# Poissons Ratio (y) = 0.65584 0.52565
# Poissons Ratio (z) = 0.10301 0.10301
#
# Static dielectric constant tensor:
#      x y z
#    x 1.743030 0.000000 0.000000 
#    y 0.000000 1.743030 0.000000 
#    z 0.000000 0.000000 1.727590 
# 
# From -- ./inp_files/3125.got.cif
#   From: 2010.05.17/outbox.cif.g08.bks.cpg/sg83_2_cif.got.tgz:3125.got - 2010.06.03 18:55:12.
