data_PCOD9543032
_publ_section_title
;
Structure prediction by ZEFSAII (Michael W. Deem and Ramdas Pophale) SiO2 
 PCOD9543032
Probable space group: I -4 
;
_chemical_formula_sum "Si O2"
_cell_formula_units_Z 48
_cell_length_a 10.189955
_cell_length_b 10.189955
_cell_length_c 25.581587
_cell_angle_alpha 90.000000
_cell_angle_beta 90.000000
_cell_angle_gamma 90.000000
_cell_volume 2656.268765
_symmetry_space_group_name_H-M "I -4 "
_symmetry_group_IT_number 82
_symmetry_cell_setting 'tetragonal'
loop_
_space_group_symop_operation_xyz
x,y,z
y,-x,-z
-x,-y,z
-y,x,-z
1/2+x,1/2+y,1/2+z
1/2+y,1/2-x,1/2-z
1/2-x,1/2-y,1/2+z
1/2-y,1/2+x,1/2-z
loop_
_atom_site_type_symbol
_atom_site_label
_atom_site_fract_x
_atom_site_fract_y
_atom_site_fract_z
Si Si1 0.000000 0.500000 0.017278
Si Si2 0.233571 0.133529 0.363389
Si Si3 0.862876 0.327566 0.750524
Si Si4 0.235111 0.018876 0.578546
Si Si5 0.000000 0.000000 0.000000
Si Si6 0.181822 0.278976 0.634627
Si Si7 0.000000 0.000000 0.500000
Si Si8 0.033854 0.264486 0.935509
O O1 0.871074 0.477450 0.052132
O O2 0.973459 0.624455 0.980195
O O3 0.251646 0.168560 0.302547
O O4 0.340992 0.205514 0.399316
O O5 0.092692 0.175008 0.384494
O O6 0.258112 0.976549 0.368386
O O7 0.825608 0.479915 0.741831
O O8 0.798704 0.283357 0.804616
O O9 0.250423 0.153169 0.609949
O O10 0.124676 0.040733 0.534336
O O11 0.035613 0.124046 0.963598
O O12 0.218665 0.406448 0.601134
#
# Coordination Sequence:
#
# PCOD9543032 Si02
#       8
#     4   8   8   8   2   8   2   8
#     4  12  24  40  60  88 118 166 202 236 292 356
#     4  11  20  39  63  91 115 152 201 247 292 347
#     4   9  18  34  64  91 110 144 198 247 290 344
#     4  12  24  38  60  89 125 153 197 246 294 347
#     4  12  28  40  56  86 136 152 196 244 304 358
#     4  11  20  39  63  91 115 152 201 247 292 347
#     4  12  20  40  56  90 112 168 200 244 280 346
#     4  12  22  42  60  87 115 165 197 242 288 353
#
# _framework density 18.070461000000002
#
# number of rings (size 3 to 8) (size 9 to 14) (size 15 to 20)
#    0.000    0.833    5.000    4.000    0.000    0.000 
#    0.000    3.333    0.000    0.000    0.000    0.000 
#    0.000    0.000    0.000    0.000    0.000    0.000 
#
# Total GULP energy -134169.312170 kJ/mol
# GULP energy per Si atom -5590.388007 kJ/mol
# Density = 1.802933 g / cm^3
# Si number density = 18.070461 Si / 1000 Ang^3
#
#
#
# Elastic Constant Matrix: (Units=GPa)
#
#
# Indices 1 2 3 4 5 6 
#
# 1 53.1451 -34.5896 10.7645 0.0000 0.0000 4.7431
# 2 -34.5896 53.1451 10.7645 0.0000 0.0000 -4.7431
# 3 10.7645 10.7645 102.6063 0.0000 0.0000 0.0000
# 4 0.0000 0.0000 0.0000 -82.6481 0.0000 0.0000
# 5 0.0000 0.0000 0.0000 0.0000 -82.6480 0.0000
# 6 4.7431 -4.7431 0.0000 0.0000 0.0000 3.8186
#
#
#
# Elastic Compliance Matrix: (Units=1/GPa)
#
#
# Indices 1 2 3 4 5 6 
#
# 1 0.037264 0.024098 -0.006437 0.000000 0.000000 -0.016354
# 2 0.024098 0.037264 -0.006437 0.000000 0.000000 0.016354
# 3 -0.006437 -0.006437 0.011097 0.000000 0.000000 0.000000
# 4 0.000000 0.000000 0.000000 -0.012099 0.000000 0.000000
# 5 0.000000 0.000000 0.000000 0.000000 -0.012100 0.000000
# 6 -0.016354 0.016354 0.000000 0.000000 0.000000 0.302505
#
#
# Mechanical properties :
#
#
# Convention : Reuss Voigt Hill
#
# Bulk Modulus (GPa) = 9.25328 20.30835 14.78081
# Shear Modulus (GPa) = 13.24474 -17.49836 -2.12681
#
# Velocity S-wave (km/s) = 2.71024 -3.11519 -1.08605
# Velocity P-wave (km/s) = 3.86337 1.29476 2.57383
#
# Compressibility (1/GPa) = 0.10806983
#
# Stress axis : x y z
#
# Youngs Moduli (GPa) = 26.83566 26.83565 90.11684
#
# Poissons Ratio (x) = -0.64668 0.58012
# Poissons Ratio (y) = -0.64668 0.58012
# Poissons Ratio (z) = 0.17275 0.17275
#
# Static dielectric constant tensor:
#      x y z
#    x 1.604880 0.000000 0.000000 
#    y 0.000000 1.604880 0.000000 
#    z 0.000000 0.000000 1.614870 
# 
# From -- ./inp_files/4113.got.cif
#   From: 2010.05.17/outbox.cif.g08.bks.cpg/sg82_3_cif.got.tgz:4113.got - 2010.06.03 18:52:26.
