data_PCOD9543351
_publ_section_title
;
Structure prediction by ZEFSAII (Michael W. Deem and Ramdas Pophale) SiO2 
 PCOD9543351
Probable space group: P 4/M
;
_chemical_formula_sum "Si O2"
_cell_formula_units_Z 40
_cell_length_a 15.136097
_cell_length_b 15.136097
_cell_length_c 7.922714
_cell_angle_alpha 90.000000
_cell_angle_beta 90.000000
_cell_angle_gamma 90.000000
_cell_volume 1815.105126
_symmetry_space_group_name_H-M "P 4/M"
_symmetry_group_IT_number 83
_symmetry_cell_setting 'tetragonal'
loop_
_space_group_symop_operation_xyz
x,y,z
-y,x,z
-x,-y,z
y,-x,z
-x,-y,-z
y,-x,-z
x,y,-z
-y,x,-z
loop_
_atom_site_type_symbol
_atom_site_label
_atom_site_fract_x
_atom_site_fract_y
_atom_site_fract_z
Si Si1 0.944770 0.414001 0.295169
Si Si2 0.305294 0.889211 0.296512
Si Si3 0.081305 0.115856 0.705906
Si Si4 0.255744 0.597470 0.692279
Si Si5 0.589562 0.277111 0.189108
O O1 0.937544 0.423076 0.500000
O O2 0.844287 0.403085 0.234205
O O3 0.000000 0.500000 0.236387
O O4 0.010074 0.332752 0.259639
O O5 0.311391 0.878505 0.500000
O O6 0.205197 0.871557 0.240271
O O7 0.372267 0.820770 0.216399
O O8 0.082417 0.115935 0.500000
O O9 0.978522 0.118503 0.758755
O O10 0.249435 0.630543 0.500000
O O11 0.329123 0.657457 0.779102
O O12 0.287441 0.495940 0.694937
O O13 0.556460 0.288465 0.000000
#
# Coordination Sequence:
#
# PCOD9543351 Si02
#       5
#     8   8   8   8   8
#     4   9  17  33  60  93 120 145 193 259 304 341
#     4  10  19  34  59  88 119 159 207 255 303 358
#     4   8  15  27  47  80 118 154 201 259 307 345
#     4  11  23  43  70  95 120 159 210 259 307 361
#     4  12  26  43  61  90 130 164 201 251 313 377
#
# _framework density 22.037292000000001
#
# number of rings (size 3 to 8) (size 9 to 14) (size 15 to 20)
#    0.000    2.000    2.000    3.000    2.800    0.400 
#    0.000    5.000    0.000    0.000    0.000    1.400 
#    0.000    0.000    0.000    0.000    0.000    0.000 
#
# Total GULP energy -223367.608521 kJ/mol
# GULP energy per Si atom -5584.190213 kJ/mol
# Density = 2.198713 g / cm^3
# Si number density = 22.037292 Si / 1000 Ang^3
#
#
#
# Elastic Constant Matrix: (Units=GPa)
#
#
# Indices 1 2 3 4 5 6 
#
# 1 80.5385 21.5764 0.6470 0.0000 0.0000 -12.7601
# 2 21.5764 80.5385 0.6470 0.0000 0.0000 12.7601
# 3 0.6470 0.6470 32.0253 0.0000 0.0000 0.0000
# 4 0.0000 0.0000 0.0000 113.3772 0.0000 0.0000
# 5 0.0000 0.0000 0.0000 0.0000 113.3772 0.0000
# 6 -12.7601 12.7601 0.0000 0.0000 0.0000 30.6590
#
#
#
# Elastic Compliance Matrix: (Units=1/GPa)
#
#
# Indices 1 2 3 4 5 6 
#
# 1 0.015241 -0.005446 -0.000198 0.000000 0.000000 0.008610
# 2 -0.005446 0.015241 -0.000198 0.000000 0.000000 -0.008610
# 3 -0.000198 -0.000198 0.031233 0.000000 0.000000 0.000000
# 4 0.000000 0.000000 0.000000 0.008820 0.000000 0.000000
# 5 0.000000 0.000000 0.000000 0.000000 0.008820 0.000000
# 6 0.008610 -0.008610 0.000000 0.000000 0.000000 0.039783
#
#
# Mechanical properties :
#
#
# Convention : Reuss Voigt Hill
#
# Bulk Modulus (GPa) = 19.98700 26.53813 23.26256
# Shear Modulus (GPa) = 33.89854 62.83146 48.36500
#
# Velocity S-wave (km/s) = 3.92629 5.34540 4.68983
# Velocity P-wave (km/s) = 5.44460 7.08282 6.31704
#
# Compressibility (1/GPa) = 0.05003251
#
# Stress axis : x y z
#
# Youngs Moduli (GPa) = 65.61280 65.61280 32.01706
#
# Poissons Ratio (x) = 0.35730 0.00634
# Poissons Ratio (y) = 0.35730 0.00634
# Poissons Ratio (z) = 0.01299 0.01299
#
# Static dielectric constant tensor:
#      x y z
#    x 1.790550 0.000000 0.000000 
#    y 0.000000 1.790550 0.000000 
#    z 0.000000 0.000000 1.813260 
# 
# From -- ./inp_files/687.got.cif
#   From: 2010.05.17/outbox.cif.g08.bks.cpg/sg83_1_cif.got.tgz:687.got - 2010.06.03 18:55:12.
