data_PCOD9543047
_publ_section_title
;
Structure prediction by ZEFSAII (Michael W. Deem and Ramdas Pophale) SiO2 
 PCOD9543047
Probable space group: I -4 
;
_chemical_formula_sum "Si O2"
_cell_formula_units_Z 60
_cell_length_a 14.832894
_cell_length_b 14.832894
_cell_length_c 13.222871
_cell_angle_alpha 90.000000
_cell_angle_beta 90.000000
_cell_angle_gamma 90.000000
_cell_volume 2909.226584
_symmetry_space_group_name_H-M "I -4 "
_symmetry_group_IT_number 82
_symmetry_cell_setting 'tetragonal'
loop_
_space_group_symop_operation_xyz
x,y,z
y,-x,-z
-x,-y,z
-y,x,-z
1/2+x,1/2+y,1/2+z
1/2+y,1/2-x,1/2-z
1/2-x,1/2-y,1/2+z
1/2-y,1/2+x,1/2-z
loop_
_atom_site_type_symbol
_atom_site_label
_atom_site_fract_x
_atom_site_fract_y
_atom_site_fract_z
Si Si1 0.409350 0.274677 0.053794
Si Si2 0.626227 0.914886 0.746940
Si Si3 0.331108 0.098853 0.968825
Si Si4 0.360797 0.471933 0.537875
Si Si5 0.640034 0.878340 0.347083
Si Si6 0.746076 0.905151 0.548092
Si Si7 0.496592 0.736502 0.268155
Si Si8 0.000000 0.500000 0.941097
O O1 0.342322 0.357836 0.048022
O O2 0.461360 0.283674 0.159481
O O3 0.348810 0.185595 0.038539
O O4 0.488644 0.261590 0.971865
O O5 0.523558 0.879921 0.739859
O O6 0.667362 0.876657 0.850716
O O7 0.686267 0.893248 0.648746
O O8 0.237330 0.052735 0.995713
O O9 0.416333 0.033155 0.991697
O O10 0.397756 0.566072 0.494517
O O11 0.346740 0.478343 0.658540
O O12 0.693116 0.864393 0.451455
O O13 0.570701 0.799968 0.321912
O O14 0.580893 0.967364 0.370861
O O15 0.706867 0.906146 0.257005
#
# Coordination Sequence:
#
# PCOD9543047 Si02
#       8
#     8   8   8   8   8   8   8   4
#     4  11  26  46  68 102 137 182 241 292 351 427
#     4  11  22  40  70 106 140 181 222 290 374 422
#     4  12  23  43  74 102 142 181 234 298 359 420
#     4  11  28  49  67 102 145 190 240 287 349 437
#     4  11  21  39  67 103 137 170 225 292 351 416
#     4  11  25  45  64 102 144 177 235 291 344 431
#     4  11  22  43  69  99 135 184 230 287 357 415
#     4  12  18  39  71 108 142 168 222 310 360 402
#
# _framework density 20.624040000000001
#
# number of rings (size 3 to 8) (size 9 to 14) (size 15 to 20)
#    0.000    0.800    5.333    3.200    3.733    0.267 
#    4.800    0.000    0.000    0.000    0.000    0.000 
#    0.000    0.000    0.000    0.000    0.000    0.000 
#
# Total GULP energy -167750.715448 kJ/mol
# GULP energy per Si atom -5591.690515 kJ/mol
# Density = 2.057710 g / cm^3
# Si number density = 20.624040 Si / 1000 Ang^3
#
#
#
# Elastic Constant Matrix: (Units=GPa)
#
#
# Indices 1 2 3 4 5 6 
#
# 1 63.2566 25.4049 21.7081 0.0000 0.0000 -0.6156
# 2 25.4049 63.2566 21.7081 0.0000 0.0000 0.6156
# 3 21.7081 21.7081 115.6234 0.0000 0.0000 0.0000
# 4 0.0000 0.0000 0.0000 23.2861 0.0000 0.0000
# 5 0.0000 0.0000 0.0000 0.0000 23.2861 0.0000
# 6 -0.6156 0.6156 0.0000 0.0000 0.0000 31.6993
#
#
#
# Elastic Compliance Matrix: (Units=1/GPa)
#
#
# Indices 1 2 3 4 5 6 
#
# 1 0.019428 -0.007007 -0.002332 0.000000 0.000000 0.000513
# 2 -0.007007 0.019428 -0.002332 0.000000 0.000000 -0.000513
# 3 -0.002332 -0.002332 0.009524 0.000000 0.000000 0.000000
# 4 0.000000 0.000000 0.000000 0.042944 0.000000 0.000000
# 5 0.000000 0.000000 0.000000 0.000000 0.042944 0.000000
# 6 0.000513 -0.000513 0.000000 0.000000 0.000000 0.031566
#
#
# Mechanical properties :
#
#
# Convention : Reuss Voigt Hill
#
# Bulk Modulus (GPa) = 39.93918 42.19765 41.06842
# Shear Modulus (GPa) = 25.31338 27.20867 26.26103
#
# Velocity S-wave (km/s) = 3.50719 3.63612 3.57223
# Velocity P-wave (km/s) = 5.98397 6.17522 6.08034
#
# Compressibility (1/GPa) = 0.02503807
#
# Stress axis : x y z
#
# Youngs Moduli (GPa) = 51.47161 51.47161 104.99323
#
# Poissons Ratio (x) = 0.36068 0.24484
# Poissons Ratio (y) = 0.36068 0.24484
# Poissons Ratio (z) = 0.12003 0.12003
#
# Static dielectric constant tensor:
#      x y z
#    x 1.757510 0.000000 0.000000 
#    y 0.000000 1.757510 0.000000 
#    z 0.000000 0.000000 1.780180 
# 
# From -- ./inp_files/2344.got.cif
#   From: 2010.05.17/outbox.cif.g08.bks.cpg/sg82_2_cif.got.tgz:2344.got - 2010.06.03 18:52:26.
