data_PCOD9543097
_publ_section_title
;
Structure prediction by ZEFSAII (Michael W. Deem and Ramdas Pophale) SiO2 
 PCOD9543097
Probable space group: I -4 
;
_chemical_formula_sum "Si O2"
_cell_formula_units_Z 48
_cell_length_a 19.567334
_cell_length_b 19.567334
_cell_length_c 5.378128
_cell_angle_alpha 90.000000
_cell_angle_beta 90.000000
_cell_angle_gamma 90.000000
_cell_volume 2059.180660
_symmetry_space_group_name_H-M "I -4 "
_symmetry_group_IT_number 82
_symmetry_cell_setting 'tetragonal'
loop_
_space_group_symop_operation_xyz
x,y,z
y,-x,-z
-x,-y,z
-y,x,-z
1/2+x,1/2+y,1/2+z
1/2+y,1/2-x,1/2-z
1/2-x,1/2-y,1/2+z
1/2-y,1/2+x,1/2-z
loop_
_atom_site_type_symbol
_atom_site_label
_atom_site_fract_x
_atom_site_fract_y
_atom_site_fract_z
Si Si1 0.157331 0.389718 0.646101
Si Si2 0.149453 0.265404 0.266039
Si Si3 0.040417 0.308663 0.897215
Si Si4 0.930759 0.145805 0.198402
Si Si5 0.336992 0.734635 0.983023
Si Si6 0.335459 0.515988 0.802572
O O1 0.156866 0.330902 0.441148
O O2 0.160623 0.466431 0.547332
O O3 0.090422 0.368979 0.805829
O O4 0.222674 0.381382 0.824207
O O5 0.078522 0.272289 0.126177
O O6 0.212997 0.275563 0.076032
O O7 0.166435 0.195666 0.402913
O O8 0.035119 0.245291 0.704763
O O9 0.882155 0.210828 0.252795
O O10 0.883820 0.079232 0.230454
O O11 0.984352 0.146346 0.428850
O O12 0.963429 0.152112 0.926834
#
# Coordination Sequence:
#
# PCOD9543097 Si02
#       6
#     8   8   8   8   8   8
#     4  11  24  48  71 108 154 196 260 317 397 465
#     4  11  24  41  74 107 147 196 265 321 396 455
#     4  11  27  44  74 109 151 202 256 325 393 477
#     4  12  28  47  76 107 160 202 263 316 394 468
#     4  11  23  42  73 108 145 201 256 338 383 457
#     4  12  28  48  76 112 152 212 258 322 392 469
#
# _framework density 23.310244000000001
#
# number of rings (size 3 to 8) (size 9 to 14) (size 15 to 20)
#    0.000    0.667    3.333    3.000    9.333    5.000 
#    0.000    0.000    0.000    0.000    0.000    0.000 
#    0.000    0.000    0.000    0.000    0.000    0.000 
#
# Total GULP energy -134407.819099 kJ/mol
# GULP energy per Si atom -5600.325796 kJ/mol
# Density = 2.325719 g / cm^3
# Si number density = 23.310244 Si / 1000 Ang^3
#
#
#
# Elastic Constant Matrix: (Units=GPa)
#
#
# Indices 1 2 3 4 5 6 
#
# 1 120.7035 41.4946 24.7002 0.0000 0.0000 -11.2711
# 2 41.4946 120.7035 24.7002 0.0000 0.0000 11.2711
# 3 24.7002 24.7002 70.5977 0.0000 0.0000 0.0000
# 4 0.0000 0.0000 0.0000 40.6750 0.0000 0.0000
# 5 0.0000 0.0000 0.0000 0.0000 40.6750 0.0000
# 6 -11.2711 11.2711 0.0000 0.0000 0.0000 35.8717
#
#
#
# Elastic Compliance Matrix: (Units=1/GPa)
#
#
# Indices 1 2 3 4 5 6 
#
# 1 0.010383 -0.003482 -0.002414 0.000000 0.000000 0.004356
# 2 -0.003482 0.010383 -0.002414 0.000000 0.000000 -0.004356
# 3 -0.002414 -0.002414 0.015854 0.000000 0.000000 0.000000
# 4 0.000000 0.000000 0.000000 0.024585 0.000000 0.000000
# 5 0.000000 0.000000 0.000000 0.000000 0.024585 0.000000
# 6 0.004356 -0.004356 0.000000 0.000000 0.000000 0.030615
#
#
# Mechanical properties :
#
#
# Convention : Reuss Voigt Hill
#
# Bulk Modulus (GPa) = 50.00478 54.86608 52.43543
# Shear Modulus (GPa) = 35.79309 38.18499 36.98904
#
# Velocity S-wave (km/s) = 3.92281 4.05176 3.98781
# Velocity P-wave (km/s) = 6.48200 6.74370 6.61414
#
# Compressibility (1/GPa) = 0.01999809
#
# Stress axis : x y z
#
# Youngs Moduli (GPa) = 96.31472 96.31472 63.07486
#
# Poissons Ratio (x) = 0.33537 0.15228
# Poissons Ratio (y) = 0.33537 0.15228
# Poissons Ratio (z) = 0.23254 0.23254
#
# Static dielectric constant tensor:
#      x y z
#    x 1.879850 0.000000 0.000000 
#    y 0.000000 1.879850 0.000000 
#    z 0.000000 0.000000 1.944650 
# 
# From -- ./inp_files/339.got.cif
#   From: 2010.05.17/outbox.cif.g08.bks.cpg/sg82_1_cif.got.tgz:339.got - 2010.06.03 18:52:26.
