data_PCOD9543591
_publ_section_title
;
Structure prediction by ZEFSAII (Michael W. Deem and Ramdas Pophale) SiO2 
 PCOD9543591
Probable space group: P 4/M
;
_chemical_formula_sum "Si O2"
_cell_formula_units_Z 36
_cell_length_a 14.549766
_cell_length_b 14.549766
_cell_length_c 7.651939
_cell_angle_alpha 90.000000
_cell_angle_beta 90.000000
_cell_angle_gamma 90.000000
_cell_volume 1619.882511
_symmetry_space_group_name_H-M "P 4/M"
_symmetry_group_IT_number 83
_symmetry_cell_setting 'tetragonal'
loop_
_space_group_symop_operation_xyz
x,y,z
-y,x,z
-x,-y,z
y,-x,z
-x,-y,-z
y,-x,-z
x,y,-z
-y,x,-z
loop_
_atom_site_type_symbol
_atom_site_label
_atom_site_fract_x
_atom_site_fract_y
_atom_site_fract_z
Si Si1 0.248187 0.344204 0.202852
Si Si2 0.492481 0.897604 0.792879
Si Si3 0.852117 0.301963 0.709973
Si Si4 0.975210 0.145845 0.287157
Si Si5 0.404888 0.618634 0.500000
O O1 0.163130 0.406357 0.269366
O O2 0.243966 0.234538 0.221061
O O3 0.332339 0.369016 0.327359
O O4 0.264322 0.367331 0.000000
O O5 0.591984 0.850904 0.766376
O O6 0.500000 0.000000 0.715853
O O7 0.477541 0.906907 0.000000
O O8 0.847743 0.300855 0.500000
O O9 0.943865 0.247245 0.767872
O O10 0.977317 0.146118 0.500000
O O11 0.071943 0.102648 0.232079
O O12 0.375317 0.514012 0.500000
#
# Coordination Sequence:
#
# PCOD9543591 Si02
#       5
#     8   8   8   8   4
#     4  11  24  43  66  91 130 174 215 268 329 393
#     4  10  24  44  64  92 131 175 222 273 334 398
#     4  11  22  36  64  97 128 169 218 270 328 391
#     4   8  16  32  54  85 126 166 208 258 315 385
#     4  11  24  42  67  96 126 159 213 274 324 392
#
# _framework density 22.223832999999999
#
# number of rings (size 3 to 8) (size 9 to 14) (size 15 to 20)
#    0.000    1.889    1.111    2.667    4.667    3.111 
#    0.000    1.111    0.000    0.000    0.000    6.222 
#    0.000    0.000    0.000    0.000    0.000    0.000 
#
# Total GULP energy -201078.121351 kJ/mol
# GULP energy per Si atom -5585.503371 kJ/mol
# Density = 2.217325 g / cm^3
# Si number density = 22.223833 Si / 1000 Ang^3
#
#
#
# Elastic Constant Matrix: (Units=GPa)
#
#
# Indices 1 2 3 4 5 6 
#
# 1 92.1015 -4.4551 -17.0678 0.0000 0.0000 -1.5502
# 2 -4.4551 92.1015 -17.0678 0.0000 0.0000 1.5502
# 3 -17.0678 -17.0678 54.5272 0.0000 0.0000 0.0000
# 4 0.0000 0.0000 0.0000 20.3338 0.0000 0.0000
# 5 0.0000 0.0000 0.0000 0.0000 20.3338 0.0000
# 6 -1.5502 1.5502 0.0000 0.0000 0.0000 41.6654
#
#
#
# Elastic Compliance Matrix: (Units=1/GPa)
#
#
# Indices 1 2 3 4 5 6 
#
# 1 0.011681 0.001312 0.004067 0.000000 0.000000 0.000386
# 2 0.001312 0.011681 0.004067 0.000000 0.000000 -0.000386
# 3 0.004067 0.004067 0.020886 0.000000 0.000000 0.000000
# 4 0.000000 0.000000 0.000000 0.049179 0.000000 0.000000
# 5 0.000000 0.000000 0.000000 0.000000 0.049179 0.000000
# 6 0.000386 -0.000386 0.000000 0.000000 0.000000 0.024029
#
#
# Mechanical properties :
#
#
# Convention : Reuss Voigt Hill
#
# Bulk Modulus (GPa) = 15.83752 17.94988 16.89370
# Shear Modulus (GPa) = 29.62259 34.95464 32.28861
#
# Velocity S-wave (km/s) = 3.65488 3.97021 3.81580
# Velocity P-wave (km/s) = 4.99527 5.39548 5.19922
#
# Compressibility (1/GPa) = 0.06314120
#
# Stress axis : x y z
#
# Youngs Moduli (GPa) = 85.60719 85.60719 47.87987
#
# Poissons Ratio (x) = -0.11234 -0.19473
# Poissons Ratio (y) = -0.11234 -0.19473
# Poissons Ratio (z) = -0.34818 -0.34818
#
# Static dielectric constant tensor:
#      x y z
#    x 1.829670 0.000000 0.000000 
#    y 0.000000 1.829670 0.000000 
#    z 0.000000 0.000000 1.792770 
# 
# From -- ./inp_files/544.got.cif
#   From: 2010.05.17/outbox.cif.g08.bks.cpg/sg83_1_cif.got.tgz:544.got - 2010.06.03 18:55:12.
