data_PCOD9543091
_publ_section_title
;
Structure prediction by ZEFSAII (Michael W. Deem and Ramdas Pophale) SiO2 
 PCOD9543091
Probable space group: I -4 
;
_chemical_formula_sum "Si O2"
_cell_formula_units_Z 40
_cell_length_a 8.987478
_cell_length_b 8.987478
_cell_length_c 22.742528
_cell_angle_alpha 90.000000
_cell_angle_beta 90.000000
_cell_angle_gamma 90.000000
_cell_volume 1837.022259
_symmetry_space_group_name_H-M "I -4 "
_symmetry_group_IT_number 82
_symmetry_cell_setting 'tetragonal'
loop_
_space_group_symop_operation_xyz
x,y,z
y,-x,-z
-x,-y,z
-y,x,-z
1/2+x,1/2+y,1/2+z
1/2+y,1/2-x,1/2-z
1/2-x,1/2-y,1/2+z
1/2-y,1/2+x,1/2-z
loop_
_atom_site_type_symbol
_atom_site_label
_atom_site_fract_x
_atom_site_fract_y
_atom_site_fract_z
Si Si1 0.144387 0.344629 0.484097
Si Si2 0.951750 0.825796 0.929606
Si Si3 0.659298 0.587231 0.079272
Si Si4 0.908513 0.654246 0.816675
Si Si5 0.949704 0.838755 0.699200
O O1 0.276791 0.320782 0.438786
O O2 0.208803 0.484343 0.521874
O O3 0.138425 0.223513 0.535517
O O4 0.999537 0.304553 0.445302
O O5 0.980481 0.759607 0.865464
O O6 0.000000 0.000000 0.935574
O O7 0.500000 0.500000 0.076028
O O8 0.668674 0.640076 0.146843
O O9 0.903771 0.739735 0.754773
O O10 0.743486 0.593031 0.829395
O O11 0.000000 0.500000 0.816269
O O12 0.000000 0.000000 0.720315
#
# Coordination Sequence:
#
# PCOD9543091 Si02
#       5
#     8   8   8   8   8
#     4  12  22  43  66  99 139 187 229 286 361 425
#     4  12  26  45  62 104 151 181 229 299 364 418
#     4  11  23  41  67  98 137 180 237 290 347 423
#     4  12  24  44  76 103 132 189 248 290 352 441
#     4  11  23  44  69 106 135 177 235 300 352 419
#
# _framework density 21.774366000000001
#
# number of rings (size 3 to 8) (size 9 to 14) (size 15 to 20)
#    0.000    0.400    6.000    4.200    2.800    0.000 
#    0.000    0.000    0.000    0.600    0.000    0.000 
#    0.000    0.000    0.000    0.000    0.000    0.000 
#
# Total GULP energy -111530.913865 kJ/mol
# GULP energy per Si atom -5576.545693 kJ/mol
# Density = 2.172481 g / cm^3
# Si number density = 21.774366 Si / 1000 Ang^3
#
#
#
# Elastic Constant Matrix: (Units=GPa)
#
#
# Indices 1 2 3 4 5 6 
#
# 1 65.2501 53.0605 40.4345 0.0000 0.0000 2.3858
# 2 53.0605 65.2501 40.4345 0.0000 0.0000 -2.3858
# 3 40.4345 40.4345 153.8465 0.0000 0.0000 0.0000
# 4 0.0000 0.0000 0.0000 19.3410 0.0000 0.0000
# 5 0.0000 0.0000 0.0000 0.0000 19.3410 0.0000
# 6 2.3858 -2.3858 0.0000 0.0000 0.0000 26.4072
#
#
#
# Elastic Compliance Matrix: (Units=1/GPa)
#
#
# Indices 1 2 3 4 5 6 
#
# 1 0.047674 -0.037371 -0.002708 0.000000 0.000000 -0.007683
# 2 -0.037371 0.047674 -0.002708 0.000000 0.000000 0.007683
# 3 -0.002708 -0.002708 0.007923 0.000000 0.000000 0.000000
# 4 0.000000 0.000000 0.000000 0.051704 0.000000 0.000000
# 5 0.000000 0.000000 0.000000 0.000000 0.051704 0.000000
# 6 -0.007683 0.007683 0.000000 0.000000 0.000000 0.039257
#
#
# Mechanical properties :
#
#
# Convention : Reuss Voigt Hill
#
# Bulk Modulus (GPa) = 56.50290 61.35618 58.92954
# Shear Modulus (GPa) = 14.81880 23.04564 18.93222
#
# Velocity S-wave (km/s) = 2.61159 3.25681 2.95188
# Velocity P-wave (km/s) = 5.92448 6.51013 6.22420
#
# Compressibility (1/GPa) = 0.01769821
#
# Stress axis : x y z
#
# Youngs Moduli (GPa) = 20.97567 20.97567 126.20834
#
# Poissons Ratio (x) = 0.78388 0.34177
# Poissons Ratio (y) = 0.78388 0.34177
# Poissons Ratio (z) = 0.05680 0.05680
#
# Static dielectric constant tensor:
#      x y z
#    x 1.940260 0.000000 0.000000 
#    y 0.000000 1.940260 0.000000 
#    z 0.000000 0.000000 1.822080 
# 
# From -- ./inp_files/3351.got.cif
#   From: 2010.05.17/outbox.cif.g08.bks.cpg/sg82_2_cif.got.tgz:3351.got - 2010.06.03 18:52:26.
