data_PCOD9543058
_publ_section_title
;
Structure prediction by ZEFSAII (Michael W. Deem and Ramdas Pophale) SiO2 
 PCOD9543058
Probable space group: I -4 
;
_chemical_formula_sum "Si O2"
_cell_formula_units_Z 34
_cell_length_a 11.677064
_cell_length_b 11.677064
_cell_length_c 10.603928
_cell_angle_alpha 90.000000
_cell_angle_beta 90.000000
_cell_angle_gamma 90.000000
_cell_volume 1445.886129
_symmetry_space_group_name_H-M "I -4 "
_symmetry_group_IT_number 82
_symmetry_cell_setting 'tetragonal'
loop_
_space_group_symop_operation_xyz
x,y,z
y,-x,-z
-x,-y,z
-y,x,-z
1/2+x,1/2+y,1/2+z
1/2+y,1/2-x,1/2-z
1/2-x,1/2-y,1/2+z
1/2-y,1/2+x,1/2-z
loop_
_atom_site_type_symbol
_atom_site_label
_atom_site_fract_x
_atom_site_fract_y
_atom_site_fract_z
Si Si1 0.397622 0.921182 0.927396
Si Si2 0.500000 0.500000 0.500000
Si Si3 0.634188 0.668970 0.690033
Si Si4 0.563836 0.335166 0.033658
Si Si5 0.422840 0.868137 0.327226
O O1 0.293551 0.916758 0.830264
O O2 0.500000 0.000000 0.880618
O O3 0.424965 0.790730 0.971369
O O4 0.363923 0.994826 0.052138
O O5 0.569147 0.584228 0.593785
O O6 0.642100 0.626570 0.833035
O O7 0.767784 0.665734 0.653984
O O8 0.432576 0.375056 0.051417
O O9 0.359538 0.985783 0.288930
#
# Coordination Sequence:
#
# PCOD9543058 Si02
#       5
#     8   2   8   8   8
#     4  12  26  46  80 121 163 211 274 341 410 473
#     4  12  24  40  74 116 164 208 280 338 416 452
#     4  12  26  46  74 115 161 210 273 342 399 484
#     4  11  27  51  77 107 158 221 278 329 414 500
#     4  11  21  43  79 111 159 220 271 309 402 492
#
# _framework density 23.514994000000002
#
# number of rings (size 3 to 8) (size 9 to 14) (size 15 to 20)
#    0.000    0.471    7.059    1.412    6.588    0.000 
#    8.471    0.000    0.000    0.000    0.000    0.000 
#    0.000    0.000    0.000    0.000    0.000    0.000 
#
# Total GULP energy -94974.016670 kJ/mol
# GULP energy per Si atom -5586.706863 kJ/mol
# Density = 2.346147 g / cm^3
# Si number density = 23.514994 Si / 1000 Ang^3
#
#
#
# Elastic Constant Matrix: (Units=GPa)
#
#
# Indices 1 2 3 4 5 6 
#
# 1 145.7417 80.1074 65.2903 0.0000 0.0000 0.9122
# 2 80.1074 145.7417 65.2903 0.0000 0.0000 -0.9122
# 3 65.2903 65.2903 106.5143 0.0000 0.0000 0.0000
# 4 0.0000 0.0000 0.0000 37.7977 0.0000 0.0000
# 5 0.0000 0.0000 0.0000 0.0000 37.7977 0.0000
# 6 0.9122 -0.9122 0.0000 0.0000 0.0000 48.4252
#
#
#
# Elastic Compliance Matrix: (Units=1/GPa)
#
#
# Indices 1 2 3 4 5 6 
#
# 1 0.011051 -0.004193 -0.004204 0.000000 0.000000 -0.000287
# 2 -0.004193 0.011051 -0.004204 0.000000 0.000000 0.000287
# 3 -0.004204 -0.004204 0.014542 0.000000 0.000000 0.000000
# 4 0.000000 0.000000 0.000000 0.026457 0.000000 0.000000
# 5 0.000000 0.000000 0.000000 0.000000 0.026457 0.000000
# 6 -0.000287 0.000287 0.000000 0.000000 0.000000 0.020661
#
#
# Mechanical properties :
#
#
# Convention : Reuss Voigt Hill
#
# Bulk Modulus (GPa) = 87.38924 91.04152 89.21538
# Shear Modulus (GPa) = 35.91052 37.29143 36.60098
#
# Velocity S-wave (km/s) = 3.91209 3.98660 3.94952
# Velocity P-wave (km/s) = 7.59275 7.74539 7.66945
#
# Compressibility (1/GPa) = 0.01144306
#
# Stress axis : x y z
#
# Youngs Moduli (GPa) = 90.48833 90.48833 68.76504
#
# Poissons Ratio (x) = 0.37940 0.28909
# Poissons Ratio (y) = 0.37940 0.28909
# Poissons Ratio (z) = 0.38041 0.38041
#
# Static dielectric constant tensor:
#      x y z
#    x 1.916000 0.000000 0.000000 
#    y 0.000000 1.916000 0.000000 
#    z 0.000000 0.000000 1.990840 
# 
# From -- ./inp_files/1539.got.cif
#   From: 2010.05.17/outbox.cif.g08.bks.cpg/sg82_1_cif.got.tgz:1539.got - 2010.06.03 18:52:26.
