data_PCOD9543988
_publ_section_title
;
Structure prediction by ZEFSAII (Michael W. Deem and Ramdas Pophale) SiO2 
 PCOD9543988
Probable space group: P 42/M
;
_chemical_formula_sum "Si O2"
_cell_formula_units_Z 40
_cell_length_a 9.350150
_cell_length_b 9.350150
_cell_length_c 24.436192
_cell_angle_alpha 90.000000
_cell_angle_beta 90.000000
_cell_angle_gamma 90.000000
_cell_volume 2136.341539
_symmetry_space_group_name_H-M "P 42/M"
_symmetry_group_IT_number 84
_symmetry_cell_setting 'tetragonal'
loop_
_space_group_symop_operation_xyz
x,y,z
-y,x,1/2+z
-x,-y,z
y,-x,1/2+z
-x,-y,-z
y,-x,1/2-z
x,y,-z
-y,x,1/2-z
loop_
_atom_site_type_symbol
_atom_site_label
_atom_site_fract_x
_atom_site_fract_y
_atom_site_fract_z
Si Si1 0.284777 0.323117 0.172948
Si Si2 0.082600 0.648602 0.063599
Si Si3 0.581485 0.847655 0.265258
Si Si4 0.548473 0.338450 0.560024
Si Si5 0.985411 0.170846 0.832650
O O1 0.399428 0.238885 0.209096
O O2 0.249475 0.480663 0.196367
O O3 0.316101 0.342643 0.109211
O O4 0.140789 0.233628 0.179252
O O5 0.244342 0.594027 0.067684
O O6 0.051039 0.774493 0.105837
O O7 0.000000 0.500000 0.079297
O O8 0.049585 0.680767 0.000000
O O9 0.736017 0.879828 0.293428
O O10 0.500000 0.000000 0.258468
O O11 0.500000 0.500000 0.559753
O O12 0.607343 0.298032 0.500000
O O13 0.000000 0.000000 0.826371
#
# Coordination Sequence:
#
# PCOD9543988 Si02
#       5
#     8   8   8   8   8
#     4  11  23  40  64  90 122 161 206 260 304 377
#     4  10  18  37  64  88 119 161 209 257 299 364
#     4  10  24  40  59  92 125 162 211 251 314 378
#     4  10  21  38  64  92 120 156 207 262 314 360
#     4  11  23  38  60  92 130 164 202 256 315 371
#
# _framework density 18.723596000000001
#
# number of rings (size 3 to 8) (size 9 to 14) (size 15 to 20)
#    0.000    1.600    4.000    0.600    8.400    0.400 
#    0.000    0.000    0.000    0.600    0.000    0.000 
#    0.000    0.000    0.000    0.000    0.000    0.000 
#
# Total GULP energy -223086.735210 kJ/mol
# GULP energy per Si atom -5577.168380 kJ/mol
# Density = 1.868098 g / cm^3
# Si number density = 18.723596 Si / 1000 Ang^3
#
#
#
# Elastic Constant Matrix: (Units=GPa)
#
#
# Indices 1 2 3 4 5 6 
#
# 1 88.1597 22.3122 36.8140 0.0000 0.0000 -3.4217
# 2 22.3122 88.1597 36.8140 0.0000 0.0000 3.4217
# 3 36.8140 36.8140 142.0715 0.0000 0.0000 0.0000
# 4 0.0000 0.0000 0.0000 25.3900 0.0000 0.0000
# 5 0.0000 0.0000 0.0000 0.0000 25.3900 0.0000
# 6 -3.4217 3.4217 0.0000 0.0000 0.0000 12.0042
#
#
#
# Elastic Compliance Matrix: (Units=1/GPa)
#
#
# Indices 1 2 3 4 5 6 
#
# 1 0.013296 -0.002354 -0.002835 0.000000 0.000000 0.004461
# 2 -0.002354 0.013296 -0.002835 0.000000 0.000000 -0.004461
# 3 -0.002835 -0.002835 0.008508 0.000000 0.000000 0.000000
# 4 0.000000 0.000000 0.000000 0.039386 0.000000 0.000000
# 5 0.000000 0.000000 0.000000 0.000000 0.039386 0.000000
# 6 0.004461 -0.004461 0.000000 0.000000 0.000000 0.085847
#
#
# Mechanical properties :
#
#
# Convention : Reuss Voigt Hill
#
# Bulk Modulus (GPa) = 52.49205 56.69684 54.59444
# Shear Modulus (GPa) = 22.51052 27.38688 24.94870
#
# Velocity S-wave (km/s) = 3.47112 3.82867 3.65427
# Velocity P-wave (km/s) = 6.64537 7.06340 6.85757
#
# Compressibility (1/GPa) = 0.01905051
#
# Stress axis : x y z
#
# Youngs Moduli (GPa) = 75.21071 75.21071 117.53548
#
# Poissons Ratio (x) = 0.17706 0.33324
# Poissons Ratio (y) = 0.17706 0.33324
# Poissons Ratio (z) = 0.21324 0.21324
#
# Static dielectric constant tensor:
#      x y z
#    x 1.677530 0.000000 0.000000 
#    y 0.000000 1.677530 0.000000 
#    z 0.000000 0.000000 1.705090 
# 
# From -- ./inp_files/4789.got.cif
#   From: 2010.05.17/outbox.cif.g08.bks.cpg/sg84_3_cif.got.tgz:4789.got - 2010.06.03 18:57:40.
