data_PCOD9543651
_publ_section_title
;
Structure prediction by ZEFSAII (Michael W. Deem and Ramdas Pophale) SiO2 
 PCOD9543651
Probable space group: P 4/M
;
_chemical_formula_sum "Si O2"
_cell_formula_units_Z 38
_cell_length_a 11.789686
_cell_length_b 11.789686
_cell_length_c 14.004746
_cell_angle_alpha 90.000000
_cell_angle_beta 90.000000
_cell_angle_gamma 90.000000
_cell_volume 1946.613422
_symmetry_space_group_name_H-M "P 4/M"
_symmetry_group_IT_number 83
_symmetry_cell_setting 'tetragonal'
loop_
_space_group_symop_operation_xyz
x,y,z
-y,x,z
-x,-y,z
y,-x,z
-x,-y,-z
y,-x,-z
x,y,-z
-y,x,-z
loop_
_atom_site_type_symbol
_atom_site_label
_atom_site_fract_x
_atom_site_fract_y
_atom_site_fract_z
Si Si1 0.842161 0.306179 0.247775
Si Si2 0.699434 0.092918 0.801130
Si Si3 0.500000 0.500000 0.866951
Si Si4 0.186196 0.962870 0.000000
Si Si5 0.493415 0.226859 0.887655
Si Si6 0.671670 0.426126 0.385930
O O1 0.789562 0.180713 0.242981
O O2 0.808629 0.369506 0.149191
O O3 0.775841 0.375556 0.329045
O O4 0.977217 0.310821 0.258261
O O5 0.743567 0.054762 0.904637
O O6 0.582247 0.157415 0.822919
O O7 0.510690 0.360602 0.872666
O O8 0.085264 0.871555 0.000000
O O9 0.508184 0.202136 0.000000
O O10 0.642685 0.556548 0.360940
O O11 0.686170 0.420190 0.500000
#
# Coordination Sequence:
#
# PCOD9543651 Si02
#       6
#     8   8   2   4   8   8
#     4  12  26  40  61  93 129 169 220 269 320 387
#     4  12  25  40  61  90 130 173 227 274 323 376
#     4  12  25  40  60  88 121 174 213 260 332 388
#     4  11  22  40  61  82 123 187 240 273 308 370
#     4  12  25  39  59  88 128 168 214 268 330 388
#     4   9  20  43  75 104 129 163 210 271 343 410
#
# _framework density 19.521083000000001
#
# number of rings (size 3 to 8) (size 9 to 14) (size 15 to 20)
#    0.000    0.737    5.263    3.474    2.947    1.263 
#    0.000    1.053    0.000    5.053    0.000    1.474 
#    0.000    0.000    0.000    0.000    0.000    0.000 
#
# Total GULP energy -212122.054373 kJ/mol
# GULP energy per Si atom -5582.159326 kJ/mol
# Density = 1.947665 g / cm^3
# Si number density = 19.521083 Si / 1000 Ang^3
#
#
#
# Elastic Constant Matrix: (Units=GPa)
#
#
# Indices 1 2 3 4 5 6 
#
# 1 149.6793 68.3223 34.7730 0.0000 0.0000 -0.2098
# 2 68.3223 149.6793 34.7730 0.0000 0.0000 0.2098
# 3 34.7730 34.7730 53.2179 0.0000 0.0000 0.0000
# 4 0.0000 0.0000 0.0000 17.1588 0.0000 0.0000
# 5 0.0000 0.0000 0.0000 0.0000 17.1588 0.0000
# 6 -0.2098 0.2098 0.0000 0.0000 0.0000 1.4173
#
#
#
# Elastic Compliance Matrix: (Units=1/GPa)
#
#
# Indices 1 2 3 4 5 6 
#
# 1 0.009048 -0.003253 -0.003787 0.000000 0.000000 0.001821
# 2 -0.003253 0.009048 -0.003787 0.000000 0.000000 -0.001821
# 3 -0.003787 -0.003787 0.023739 0.000000 0.000000 0.000000
# 4 0.000000 0.000000 0.000000 0.058279 0.000000 0.000000
# 5 0.000000 0.000000 0.000000 0.000000 0.058279 0.000000
# 6 0.001821 -0.001821 0.000000 0.000000 0.000000 0.706097
#
#
# Mechanical properties :
#
#
# Convention : Reuss Voigt Hill
#
# Bulk Modulus (GPa) = 49.54677 69.81256 59.67966
# Shear Modulus (GPa) = 5.59992 21.46087 13.53039
#
# Velocity S-wave (km/s) = 1.69555 3.31927 2.63557
# Velocity P-wave (km/s) = 5.41012 7.10847 6.31664
#
# Compressibility (1/GPa) = 0.02018295
#
# Stress axis : x y z
#
# Youngs Moduli (GPa) = 110.52177 110.52177 42.12481
#
# Poissons Ratio (x) = 0.35952 0.15951
# Poissons Ratio (y) = 0.35952 0.15951
# Poissons Ratio (z) = 0.41850 0.41850
#
# Static dielectric constant tensor:
#      x y z
#    x 1.690220 0.000000 0.000000 
#    y 0.000000 1.690220 0.000000 
#    z 0.000000 0.000000 1.689090 
# 
# From -- ./inp_files/2288.got.cif
#   From: 2010.05.17/outbox.cif.g08.bks.cpg/sg83_2_cif.got.tgz:2288.got - 2010.06.03 18:55:12.
