data_PCOD9543314
_publ_section_title
;
Structure prediction by ZEFSAII (Michael W. Deem and Ramdas Pophale) SiO2 
 PCOD9543314
Probable space group: P 4/M
;
_chemical_formula_sum "Si O2"
_cell_formula_units_Z 56
_cell_length_a 15.326216
_cell_length_b 15.326216
_cell_length_c 14.318876
_cell_angle_alpha 90.000000
_cell_angle_beta 90.000000
_cell_angle_gamma 90.000000
_cell_volume 3363.402264
_symmetry_space_group_name_H-M "P 4/M"
_symmetry_group_IT_number 83
_symmetry_cell_setting 'tetragonal'
loop_
_space_group_symop_operation_xyz
x,y,z
-y,x,z
-x,-y,z
y,-x,z
-x,-y,-z
y,-x,-z
x,y,-z
-y,x,-z
loop_
_atom_site_type_symbol
_atom_site_label
_atom_site_fract_x
_atom_site_fract_y
_atom_site_fract_z
Si Si1 0.269531 0.840594 0.762389
Si Si2 0.299278 0.316152 0.388218
Si Si3 0.510231 0.761396 0.389142
Si Si4 0.331800 0.686299 0.888861
Si Si5 0.243034 0.510829 0.111269
Si Si6 0.871711 0.072688 0.107739
Si Si7 0.094429 0.459108 0.248433
O O1 0.266425 0.776142 0.671515
O O2 0.293940 0.772280 0.843337
O O3 0.188860 0.892506 0.807921
O O4 0.353835 0.902281 0.746245
O O5 0.285477 0.305228 0.500000
O O6 0.290074 0.419976 0.366355
O O7 0.397364 0.283830 0.366207
O O8 0.510121 0.774554 0.500000
O O9 0.498528 0.851990 0.335258
O O10 0.434304 0.688193 0.866863
O O11 0.280875 0.601987 0.855167
O O12 0.323211 0.689717 0.000000
O O13 0.153020 0.486613 0.159954
O O14 0.231917 0.513551 0.000000
O O15 0.968189 0.114969 0.114721
O O16 0.839800 0.090514 0.000000
O O17 0.000000 0.500000 0.242829
#
# Coordination Sequence:
#
# PCOD9543314 Si02
#       7
#     8   8   8   8   8   8   8
#     4  10  19  32  51  71  99 132 162 203 250 295
#     4   9  18  32  51  76 105 136 170 205 242 286
#     4   9  18  33  52  74 100 129 163 206 248 286
#     4   9  17  29  45  67  95 126 159 193 235 287
#     4   9  18  31  46  66  93 124 158 197 236 281
#     4   9  19  36  57  80 101 122 158 209 261 310
#     4  10  21  34  47  68  97 130 166 199 238 292
#
# _framework density 16.649808
#
# number of rings (size 3 to 8) (size 9 to 14) (size 15 to 20)
#    0.000    2.714    0.000    1.714    0.000    4.000 
#    0.000    4.286    0.000    6.000    0.000    1.000 
#    0.000    0.000    0.000    0.000    0.000    0.000 
#
# Total GULP energy -311748.918052 kJ/mol
# GULP energy per Si atom -5566.944965 kJ/mol
# Density = 1.661191 g / cm^3
# Si number density = 16.649808 Si / 1000 Ang^3
#
#
#
# Elastic Constant Matrix: (Units=GPa)
#
#
# Indices 1 2 3 4 5 6 
#
# 1 91.5544 40.7629 41.6303 0.0000 0.0000 -17.9275
# 2 40.7629 91.5544 41.6303 0.0000 0.0000 17.9275
# 3 41.6303 41.6303 92.8734 0.0000 0.0000 0.0000
# 4 0.0000 0.0000 0.0000 25.0386 0.0000 0.0000
# 5 0.0000 0.0000 0.0000 0.0000 25.0386 0.0000
# 6 -17.9275 17.9275 0.0000 0.0000 0.0000 28.0521
#
#
#
# Elastic Compliance Matrix: (Units=1/GPa)
#
#
# Indices 1 2 3 4 5 6 
#
# 1 0.023199 -0.012672 -0.004719 0.000000 0.000000 0.022925
# 2 -0.012672 0.023199 -0.004719 0.000000 0.000000 -0.022925
# 3 -0.004719 -0.004719 0.014998 0.000000 0.000000 0.000000
# 4 0.000000 0.000000 0.000000 0.039938 0.000000 0.000000
# 5 0.000000 0.000000 0.000000 0.000000 0.039938 0.000000
# 6 0.022925 -0.022925 0.000000 0.000000 0.000000 0.064949
#
#
# Mechanical properties :
#
#
# Convention : Reuss Voigt Hill
#
# Bulk Modulus (GPa) = 58.21847 58.22548 58.22197
# Shear Modulus (GPa) = 19.51859 25.75643 22.63751
#
# Velocity S-wave (km/s) = 3.42760 3.93740 3.69131
# Velocity P-wave (km/s) = 7.12088 7.46441 7.29467
#
# Compressibility (1/GPa) = 0.01717668
#
# Stress axis : x y z
#
# Youngs Moduli (GPa) = 43.10523 43.10523 66.67747
#
# Poissons Ratio (x) = 0.54624 0.31463
# Poissons Ratio (y) = 0.54624 0.31463
# Poissons Ratio (z) = 0.20340 0.20340
#
# Static dielectric constant tensor:
#      x y z
#    x 1.554320 0.000000 0.000000 
#    y 0.000000 1.554320 0.000000 
#    z 0.000000 0.000000 1.595840 
# 
# From -- ./inp_files/2419.got.cif
#   From: 2010.05.17/outbox.cif.g08.bks.cpg/sg83_2_cif.got.tgz:2419.got - 2010.06.03 18:55:12.
