data_PCOD9543077
_publ_section_title
;
Structure prediction by ZEFSAII (Michael W. Deem and Ramdas Pophale) SiO2 
 PCOD9543077
Probable space group: I -4 
;
_chemical_formula_sum "Si O2"
_cell_formula_units_Z 34
_cell_length_a 10.837510
_cell_length_b 10.837510
_cell_length_c 12.588854
_cell_angle_alpha 90.000000
_cell_angle_beta 90.000000
_cell_angle_gamma 90.000000
_cell_volume 1478.581334
_symmetry_space_group_name_H-M "I -4 "
_symmetry_group_IT_number 82
_symmetry_cell_setting 'tetragonal'
loop_
_space_group_symop_operation_xyz
x,y,z
y,-x,-z
-x,-y,z
-y,x,-z
1/2+x,1/2+y,1/2+z
1/2+y,1/2-x,1/2-z
1/2-x,1/2-y,1/2+z
1/2-y,1/2+x,1/2-z
loop_
_atom_site_type_symbol
_atom_site_label
_atom_site_fract_x
_atom_site_fract_y
_atom_site_fract_z
Si Si1 0.803877 0.699550 0.801136
Si Si2 0.500000 0.500000 0.500000
Si Si3 0.536760 0.222446 0.410575
Si Si4 0.886582 0.904608 0.651229
Si Si5 0.415084 0.228138 0.952843
O O1 0.783651 0.616208 0.698031
O O2 0.857176 0.828079 0.755844
O O3 0.683640 0.719301 0.869358
O O4 0.909214 0.655351 0.881298
O O5 0.521603 0.366362 0.443018
O O6 0.603228 0.144355 0.503001
O O7 0.926878 0.813449 0.557038
O O8 0.755780 0.960305 0.611047
O O9 0.000000 0.000000 0.665164
#
# Coordination Sequence:
#
# PCOD9543077 Si02
#       5
#     8   2   8   8   8
#     4  11  26  42  68 107 135 180 230 283 339 409
#     4  12  24  52  72  96 138 196 236 280 340 444
#     4  11  26  43  69 102 140 179 231 286 346 404
#     4  11  22  43  75  96 132 185 232 269 333 415
#     4  11  22  43  70 103 133 179 232 282 328 411
#
# _framework density 22.995014999999999
#
# number of rings (size 3 to 8) (size 9 to 14) (size 15 to 20)
#    0.000    0.941    4.706    1.412    8.235    0.471 
#    0.000    0.000    0.000    0.000    0.000    0.000 
#    0.000    0.000    0.000    0.000    0.000    0.000 
#
# Total GULP energy -95012.710520 kJ/mol
# GULP energy per Si atom -5588.982972 kJ/mol
# Density = 2.294268 g / cm^3
# Si number density = 22.995015 Si / 1000 Ang^3
#
#
#
# Elastic Constant Matrix: (Units=GPa)
#
#
# Indices 1 2 3 4 5 6 
#
# 1 57.6554 31.5895 17.1665 0.0000 0.0000 3.8508
# 2 31.5895 57.6554 17.1665 0.0000 0.0000 -3.8508
# 3 17.1665 17.1665 36.8470 0.0000 0.0000 0.0000
# 4 0.0000 0.0000 0.0000 33.0089 0.0000 0.0000
# 5 0.0000 0.0000 0.0000 0.0000 33.0089 0.0000
# 6 3.8508 -3.8508 0.0000 0.0000 0.0000 42.9509
#
#
#
# Elastic Compliance Matrix: (Units=1/GPa)
#
#
# Indices 1 2 3 4 5 6 
#
# 1 0.026530 -0.012878 -0.006360 0.000000 0.000000 -0.003533
# 2 -0.012878 0.026530 -0.006360 0.000000 0.000000 0.003533
# 3 -0.006360 -0.006360 0.033066 0.000000 0.000000 0.000000
# 4 0.000000 0.000000 0.000000 0.030295 0.000000 0.000000
# 5 0.000000 0.000000 0.000000 0.000000 0.030295 0.000000
# 6 -0.003533 0.003533 0.000000 0.000000 0.000000 0.023916
#
#
# Mechanical properties :
#
#
# Convention : Reuss Voigt Hill
#
# Bulk Modulus (GPa) = 28.62995 31.55586 30.09291
# Shear Modulus (GPa) = 21.41588 27.54276 24.47932
#
# Velocity S-wave (km/s) = 3.05508 3.46464 3.26628
# Velocity P-wave (km/s) = 4.99221 5.45506 5.22876
#
# Compressibility (1/GPa) = 0.03492845
#
# Stress axis : x y z
#
# Youngs Moduli (GPa) = 37.69302 37.69302 30.24297
#
# Poissons Ratio (x) = 0.48542 0.19235
# Poissons Ratio (y) = 0.48542 0.19235
# Poissons Ratio (z) = 0.23974 0.23974
#
# Static dielectric constant tensor:
#      x y z
#    x 2.053070 0.000000 0.000000 
#    y 0.000000 2.053070 0.000000 
#    z 0.000000 0.000000 1.807170 
# 
# From -- ./inp_files/1562.got.cif
#   From: 2010.05.17/outbox.cif.g08.bks.cpg/sg82_1_cif.got.tgz:1562.got - 2010.06.03 18:52:26.
