data_PCOD9543012
_publ_section_title
;
Structure prediction by ZEFSAII (Michael W. Deem and Ramdas Pophale) SiO2 
 PCOD9543012
Probable space group: I -4 
;
_chemical_formula_sum "Si O2"
_cell_formula_units_Z 42
_cell_length_a 15.286450
_cell_length_b 15.286450
_cell_length_c 9.268228
_cell_angle_alpha 90.000000
_cell_angle_beta 90.000000
_cell_angle_gamma 90.000000
_cell_volume 2165.758309
_symmetry_space_group_name_H-M "I -4 "
_symmetry_group_IT_number 82
_symmetry_cell_setting 'tetragonal'
loop_
_space_group_symop_operation_xyz
x,y,z
y,-x,-z
-x,-y,z
-y,x,-z
1/2+x,1/2+y,1/2+z
1/2+y,1/2-x,1/2-z
1/2-x,1/2-y,1/2+z
1/2-y,1/2+x,1/2-z
loop_
_atom_site_type_symbol
_atom_site_label
_atom_site_fract_x
_atom_site_fract_y
_atom_site_fract_z
Si Si1 0.203432 0.556264 0.850030
Si Si2 0.664491 0.397512 0.107461
Si Si3 0.584960 0.804266 0.663900
Si Si4 0.848199 0.309846 0.612437
Si Si5 0.500000 0.500000 0.000000
Si Si6 0.586839 0.940248 0.928192
O O1 0.205081 0.620372 0.711474
O O2 0.189258 0.451240 0.843121
O O3 0.281965 0.573478 0.963849
O O4 0.116437 0.586616 0.930778
O O5 0.713319 0.425933 0.254035
O O6 0.672504 0.292733 0.120129
O O7 0.568908 0.440448 0.090164
O O8 0.662099 0.826213 0.552470
O O9 0.587282 0.875723 0.792230
O O10 0.498794 0.827886 0.575961
O O11 0.500000 0.000000 0.925382
#
# Coordination Sequence:
#
# PCOD9543012 Si02
#       6
#     8   8   8   8   2   8
#     4  11  24  38  64  98 130 169 205 271 336 393
#     4  11  25  44  65  89 121 179 230 263 315 380
#     4  11  20  36  63  91 129 164 207 264 320 395
#     4  12  23  40  63  99 135 162 212 270 334 392
#     4  12  24  48  72  82 124 180 244 270 304 380
#     4  11  18  34  58  97 128 161 200 249 336 398
#
# _framework density 19.392745999999999
#
# number of rings (size 3 to 8) (size 9 to 14) (size 15 to 20)
#    0.000    0.762    5.714    3.429    0.000    0.000 
#    0.000    0.000    0.000    1.143    0.000    0.000 
#    0.000    0.000    0.000    0.000    0.000    0.000 
#
# Total GULP energy -117026.957746 kJ/mol
# GULP energy per Si atom -5572.712274 kJ/mol
# Density = 1.934861 g / cm^3
# Si number density = 19.392746 Si / 1000 Ang^3
#
#
#
# Elastic Constant Matrix: (Units=GPa)
#
#
# Indices 1 2 3 4 5 6 
#
# 1 76.7571 3.2858 19.7587 0.0000 0.0000 -8.7608
# 2 3.2858 76.7571 19.7587 0.0000 0.0000 8.7608
# 3 19.7587 19.7587 69.8779 0.0000 0.0000 0.0000
# 4 0.0000 0.0000 0.0000 7.6670 0.0000 0.0000
# 5 0.0000 0.0000 0.0000 0.0000 7.6670 0.0000
# 6 -8.7608 8.7608 0.0000 0.0000 0.0000 27.1452
#
#
#
# Elastic Compliance Matrix: (Units=1/GPa)
#
#
# Indices 1 2 3 4 5 6 
#
# 1 0.014633 -0.000113 -0.004106 0.000000 0.000000 0.004759
# 2 -0.000113 0.014633 -0.004106 0.000000 0.000000 -0.004759
# 3 -0.004106 -0.004106 0.016633 0.000000 0.000000 0.000000
# 4 0.000000 0.000000 0.000000 0.130430 0.000000 0.000000
# 5 0.000000 0.000000 0.000000 0.000000 0.130430 0.000000
# 6 0.004759 -0.004759 0.000000 0.000000 0.000000 0.039911
#
#
# Mechanical properties :
#
#
# Convention : Reuss Voigt Hill
#
# Bulk Modulus (GPa) = 34.18784 34.33314 34.26049
# Shear Modulus (GPa) = 13.40239 20.53507 16.96873
#
# Velocity S-wave (km/s) = 2.63174 3.25761 2.96126
# Velocity P-wave (km/s) = 5.18673 5.64729 5.42191
#
# Compressibility (1/GPa) = 0.02925016
#
# Stress axis : x y z
#
# Youngs Moduli (GPa) = 68.33856 68.33856 60.12294
#
# Poissons Ratio (x) = 0.00770 0.24685
# Poissons Ratio (y) = 0.00770 0.24685
# Poissons Ratio (z) = 0.28058 0.28058
#
# Static dielectric constant tensor:
#      x y z
#    x 1.743820 0.000000 0.000000 
#    y 0.000000 1.743820 0.000000 
#    z 0.000000 0.000000 1.725460 
# 
# From -- ./inp_files/972.got.cif
#   From: 2010.05.17/outbox.cif.g08.bks.cpg/sg82_1_cif.got.tgz:972.got - 2010.06.03 18:52:26.
