data_PCOD9543405
_publ_section_title
;
Structure prediction by ZEFSAII (Michael W. Deem and Ramdas Pophale) SiO2 
 PCOD9543405
Probable space group: P 4/M
;
_chemical_formula_sum "Si O2"
_cell_formula_units_Z 64
_cell_length_a 22.082117
_cell_length_b 22.082117
_cell_length_c 8.998164
_cell_angle_alpha 90.000000
_cell_angle_beta 90.000000
_cell_angle_gamma 90.000000
_cell_volume 4387.683751
_symmetry_space_group_name_H-M "P 4/M"
_symmetry_group_IT_number 83
_symmetry_cell_setting 'tetragonal'
loop_
_space_group_symop_operation_xyz
x,y,z
-y,x,z
-x,-y,z
y,-x,z
-x,-y,-z
y,-x,-z
x,y,-z
-y,x,-z
loop_
_atom_site_type_symbol
_atom_site_label
_atom_site_fract_x
_atom_site_fract_y
_atom_site_fract_z
Si Si1 0.570515 0.668840 0.320263
Si Si2 0.653434 0.239831 0.169273
Si Si3 0.152327 0.262929 0.330295
Si Si4 0.840520 0.929418 0.178625
Si Si5 0.844803 0.252757 0.671253
Si Si6 0.061870 0.161818 0.319571
Si Si7 0.568583 0.331673 0.321398
Si Si8 0.240189 0.658246 0.171495
O O1 0.572945 0.673087 0.500000
O O2 0.611802 0.611143 0.275657
O O3 0.500902 0.661943 0.273788
O O4 0.601647 0.728109 0.250856
O O5 0.682631 0.178889 0.234266
O O6 0.599918 0.270852 0.261363
O O7 0.707857 0.289455 0.172998
O O8 0.634678 0.231485 0.000000
O O9 0.145151 0.283281 0.500000
O O10 0.203601 0.210073 0.329858
O O11 0.092336 0.226960 0.282439
O O12 0.778586 0.896677 0.231260
O O13 0.894587 0.889054 0.248583
O O14 0.843327 0.995750 0.250121
O O15 0.844810 0.930840 0.000000
O O16 0.863791 0.260926 0.500000
O O17 0.816358 0.313095 0.741450
O O18 0.061570 0.156105 0.500000
O O19 0.569518 0.329987 0.500000
O O20 0.225504 0.645743 0.000000
#
# Coordination Sequence:
#
# PCOD9543405 Si02
#       8
#     8   8   8   8   8   8   8   8
#     4   9  17  28  41  58  81 113 148 183 218 256
#     4   9  16  25  40  60  81 104 133 171 218 262
#     4   8  15  27  44  62  80 104 136 173 213 254
#     4  11  21  32  46  66  90 116 148 185 219 252
#     4   9  16  28  45  63  83 109 139 173 215 262
#     4  10  20  34  48  63  86 119 153 182 214 255
#     4   9  17  28  41  57  81 112 148 183 216 254
#     4   9  16  26  41  61  82 105 135 176 220 261
#
# _framework density 14.586283999999999
#
# number of rings (size 3 to 8) (size 9 to 14) (size 15 to 20)
#    0.000    2.750    0.000    3.375    0.000    7.500 
#    0.000    2.500    0.000    0.000    0.000    3.500 
#    0.000    1.000    0.000   10.500    0.000    5.750 
#
# Total GULP energy -356379.954424 kJ/mol
# GULP energy per Si atom -5568.436788 kJ/mol
# Density = 1.455308 g / cm^3
# Si number density = 14.586284 Si / 1000 Ang^3
#
#
#
# Elastic Constant Matrix: (Units=GPa)
#
#
# Indices 1 2 3 4 5 6 
#
# 1 68.0984 69.8136 41.8457 0.0000 0.0000 0.3828
# 2 69.8136 68.0984 41.8457 0.0000 0.0000 -0.3828
# 3 41.8457 41.8457 71.5553 0.0000 0.0000 0.0000
# 4 0.0000 0.0000 0.0000 15.2260 0.0000 0.0000
# 5 0.0000 0.0000 0.0000 0.0000 15.2260 0.0000
# 6 0.3828 -0.3828 0.0000 0.0000 0.0000 13.7626
#
#
#
# Elastic Compliance Matrix: (Units=1/GPa)
#
#
# Indices 1 2 3 4 5 6 
#
# 1 -0.282312 0.293552 -0.006573 0.000000 0.000000 0.016019
# 2 0.293552 -0.282312 -0.006573 0.000000 0.000000 -0.016019
# 3 -0.006573 -0.006573 0.021663 0.000000 0.000000 0.000000
# 4 0.000000 0.000000 0.000000 0.065677 0.000000 0.000000
# 5 0.000000 0.000000 0.000000 0.000000 0.065677 0.000000
# 6 0.016019 -0.016019 0.000000 0.000000 0.000000 0.071770
#
#
# Mechanical properties :
#
#
# Convention : Reuss Voigt Hill
#
# Bulk Modulus (GPa) = 56.02094 57.19579 56.60836
# Shear Modulus (GPa) = -5.58848 12.45938 3.43545
#
# Velocity S-wave (km/s) = -1.95950 2.92581 1.53635
# Velocity P-wave (km/s) = 5.77672 7.12117 6.48388
#
# Compressibility (1/GPa) = 0.01785047
#
# Stress axis : x y z
#
# Youngs Moduli (GPa) = -3.54218 -3.54218 46.16147
#
# Poissons Ratio (x) = 1.03981 0.30342
# Poissons Ratio (y) = 1.03981 0.30342
# Poissons Ratio (z) = -0.02328 -0.02328
#
# Static dielectric constant tensor:
#      x y z
#    x 1.471890 0.000000 0.000000 
#    y 0.000000 1.471890 0.000000 
#    z 0.000000 0.000000 1.489810 
# 
# From -- ./inp_files/1255.got.cif
#   From: 2010.05.17/outbox.cif.g08.bks.cpg/sg83_1_cif.got.tgz:1255.got - 2010.06.03 18:55:12.
