data_PCOD9543725
_publ_section_title
;
Structure prediction by ZEFSAII (Michael W. Deem and Ramdas Pophale) SiO2 
 PCOD9543725
Probable space group: P 4/M
;
_chemical_formula_sum "Si O2"
_cell_formula_units_Z 32
_cell_length_a 8.080344
_cell_length_b 8.080344
_cell_length_c 22.659189
_cell_angle_alpha 90.000000
_cell_angle_beta 90.000000
_cell_angle_gamma 90.000000
_cell_volume 1479.462843
_symmetry_space_group_name_H-M "P 4/M"
_symmetry_group_IT_number 83
_symmetry_cell_setting 'tetragonal'
loop_
_space_group_symop_operation_xyz
x,y,z
-y,x,z
-x,-y,z
y,-x,z
-x,-y,-z
y,-x,-z
x,y,-z
-y,x,-z
loop_
_atom_site_type_symbol
_atom_site_label
_atom_site_fract_x
_atom_site_fract_y
_atom_site_fract_z
Si Si1 0.764467 0.410167 0.113243
Si Si2 0.000000 0.500000 0.339625
Si Si3 0.593864 0.763336 0.244838
Si Si4 0.904046 0.737821 0.566350
Si Si5 0.265473 0.078047 0.000000
O O1 0.700756 0.598165 0.109117
O O2 0.834330 0.381581 0.178949
O O3 0.879627 0.363463 0.059265
O O4 0.104815 0.617662 0.296271
O O5 0.881146 0.604197 0.382780
O O6 0.402565 0.702615 0.249525
O O7 0.878404 0.671129 0.500000
O O8 0.796621 0.904253 0.571459
O O9 0.106387 0.197967 0.000000
#
# Coordination Sequence:
#
# PCOD9543725 Si02
#       5
#     8   4   8   8   4
#     4   9  19  37  58  77 100 136 179 214 254 316
#     4  12  19  30  56  83 102 134 180 218 262 307
#     4   9  20  36  52  76 109 138 170 216 262 309
#     4   9  19  35  52  74 107 142 176 215 257 307
#     4  11  24  37  52  80 112 135 166 219 270 304
#
# _framework density 21.629470000000001
#
# number of rings (size 3 to 8) (size 9 to 14) (size 15 to 20)
#    0.000    2.375    0.000    4.875    0.000    7.000 
#    0.000    0.000    0.000    3.000    0.000   10.500 
#    0.000    0.000    0.000    0.000    0.000    0.000 
#
# Total GULP energy -178880.500515 kJ/mol
# GULP energy per Si atom -5590.015641 kJ/mol
# Density = 2.158024 g / cm^3
# Si number density = 21.629470 Si / 1000 Ang^3
#
#
#
# Elastic Constant Matrix: (Units=GPa)
#
#
# Indices 1 2 3 4 5 6 
#
# 1 39.4771 8.6385 39.7469 0.0000 0.0000 6.2736
# 2 8.6385 39.4771 39.7469 0.0000 0.0000 -6.2736
# 3 39.7469 39.7469 190.8514 0.0000 0.0000 0.0000
# 4 0.0000 0.0000 0.0000 -4.2642 0.0000 0.0000
# 5 0.0000 0.0000 0.0000 0.0000 -4.2642 0.0000
# 6 6.2736 -6.2736 0.0000 0.0000 0.0000 24.1482
#
#
#
# Elastic Compliance Matrix: (Units=1/GPa)
#
#
# Indices 1 2 3 4 5 6 
#
# 1 0.033973 -0.002287 -0.006599 0.000000 0.000000 -0.009420
# 2 -0.002287 0.033973 -0.006599 0.000000 0.000000 0.009420
# 3 -0.006599 -0.006599 0.007988 0.000000 0.000000 0.000000
# 4 0.000000 0.000000 0.000000 -0.234511 0.000000 0.000000
# 5 0.000000 0.000000 0.000000 0.000000 -0.234511 0.000000
# 6 -0.009420 0.009420 0.000000 0.000000 0.000000 0.046306
#
#
# Mechanical properties :
#
#
# Convention : Reuss Voigt Hill
#
# Bulk Modulus (GPa) = 22.24003 49.56334 35.90169
# Shear Modulus (GPa) = -16.62094 15.23551 -0.69272
#
# Velocity S-wave (km/s) = -2.77508 2.65691 -0.56653
# Velocity P-wave (km/s) = 0.19106 5.69005 4.02574
#
# Compressibility (1/GPa) = 0.04496396
#
# Stress axis : x y z
#
# Youngs Moduli (GPa) = 29.43550 29.43550 125.18381
#
# Poissons Ratio (x) = 0.06732 0.82607
# Poissons Ratio (y) = 0.06732 0.82607
# Poissons Ratio (z) = 0.19424 0.19424
#
# Static dielectric constant tensor:
#      x y z
#    x 1.782150 0.000000 0.000000 
#    y 0.000000 1.782150 0.000000 
#    z 0.000000 0.000000 1.784030 
# 
# From -- ./inp_files/2804.got.cif
#   From: 2010.05.17/outbox.cif.g08.bks.cpg/sg83_2_cif.got.tgz:2804.got - 2010.06.03 18:55:12.
