data_PCOD9543329
_publ_section_title
;
Structure prediction by ZEFSAII (Michael W. Deem and Ramdas Pophale) SiO2 
 PCOD9543329
Probable space group: P 4/M
;
_chemical_formula_sum "Si O2"
_cell_formula_units_Z 48
_cell_length_a 18.160993
_cell_length_b 18.160993
_cell_length_c 8.865084
_cell_angle_alpha 90.000000
_cell_angle_beta 90.000000
_cell_angle_gamma 90.000000
_cell_volume 2923.896781
_symmetry_space_group_name_H-M "P 4/M"
_symmetry_group_IT_number 83
_symmetry_cell_setting 'tetragonal'
loop_
_space_group_symop_operation_xyz
x,y,z
-y,x,z
-x,-y,z
y,-x,z
-x,-y,-z
y,-x,-z
x,y,-z
-y,x,-z
loop_
_atom_site_type_symbol
_atom_site_label
_atom_site_fract_x
_atom_site_fract_y
_atom_site_fract_z
Si Si1 0.306686 0.187366 0.672167
Si Si2 0.920876 0.576117 0.680122
Si Si3 0.077872 0.174799 0.174100
Si Si4 0.067463 0.823718 0.669473
Si Si5 0.585598 0.925186 0.179336
Si Si6 0.707752 0.184290 0.680732
O O1 0.334586 0.193777 0.500000
O O2 0.238210 0.130384 0.670836
O O3 0.366705 0.145761 0.772436
O O4 0.267514 0.264842 0.716560
O O5 0.928767 0.566127 0.500000
O O6 0.914095 0.497715 0.761701
O O7 0.848982 0.626729 0.706425
O O8 0.997861 0.610847 0.741451
O O9 0.101521 0.105944 0.276883
O O10 0.130808 0.240608 0.223218
O O11 0.995364 0.196078 0.213452
O O12 0.087834 0.156561 0.000000
O O13 0.037661 0.827975 0.500000
O O14 0.587125 0.935026 0.000000
O O15 0.722513 0.175176 0.500000
#
# Coordination Sequence:
#
# PCOD9543329 Si02
#       6
#     8   8   8   8   8   8
#     4   9  18  33  50  67  89 119 155 191 226 274
#     4  10  19  33  52  71  94 128 165 199 236 279
#     4  11  21  31  45  65  86 108 142 189 237 277
#     4  10  20  34  48  60  80 113 151 187 227 275
#     4  11  21  31  46  72 102 129 158 195 240 286
#     4   9  19  34  51  69  90 121 158 191 229 279
#
# _framework density 16.416449
#
# number of rings (size 3 to 8) (size 9 to 14) (size 15 to 20)
#    0.000    2.000    0.000    7.000    0.000    9.000 
#    0.000    1.667    0.000    0.000    0.000    0.000 
#    0.000    0.667    0.000    7.667    0.000    3.000 
#
# Total GULP energy -267500.672648 kJ/mol
# GULP energy per Si atom -5572.930680 kJ/mol
# Density = 1.637908 g / cm^3
# Si number density = 16.416449 Si / 1000 Ang^3
#
#
#
# Elastic Constant Matrix: (Units=GPa)
#
#
# Indices 1 2 3 4 5 6 
#
# 1 56.5252 23.8636 21.5474 0.0000 0.0000 0.0919
# 2 23.8636 56.5252 21.5474 0.0000 0.0000 -0.0919
# 3 21.5474 21.5474 63.2739 0.0000 0.0000 0.0000
# 4 0.0000 0.0000 0.0000 -5.8203 0.0000 0.0000
# 5 0.0000 0.0000 0.0000 0.0000 -5.8203 0.0000
# 6 0.0919 -0.0919 0.0000 0.0000 0.0000 27.7047
#
#
#
# Elastic Compliance Matrix: (Units=1/GPa)
#
#
# Indices 1 2 3 4 5 6 
#
# 1 0.022918 -0.007700 -0.005182 0.000000 0.000000 -0.000102
# 2 -0.007700 0.022918 -0.005182 0.000000 0.000000 0.000102
# 3 -0.005182 -0.005182 0.019334 0.000000 0.000000 0.000000
# 4 0.000000 0.000000 0.000000 -0.171812 0.000000 0.000000
# 5 0.000000 0.000000 0.000000 0.000000 -0.171812 0.000000
# 6 -0.000102 0.000102 0.000000 0.000000 0.000000 0.036096
#
#
# Mechanical properties :
#
#
# Convention : Reuss Voigt Hill
#
# Bulk Modulus (GPa) = 34.43509 34.47124 34.45316
# Shear Modulus (GPa) = -25.43874 10.50387 -7.46743
#
# Velocity S-wave (km/s) = -3.94075 2.53225 -2.13509
# Velocity P-wave (km/s) = 0.56167 5.43997 3.86709
#
# Compressibility (1/GPa) = 0.02904015
#
# Stress axis : x y z
#
# Youngs Moduli (GPa) = 43.63450 43.63450 51.72276
#
# Poissons Ratio (x) = 0.33599 0.26804
# Poissons Ratio (y) = 0.33599 0.26804
# Poissons Ratio (z) = 0.22612 0.22612
#
# Static dielectric constant tensor:
#      x y z
#    x 1.578330 0.000000 0.000000 
#    y 0.000000 1.578330 0.000000 
#    z 0.000000 0.000000 1.545000 
# 
# From -- ./inp_files/935.got.cif
#   From: 2010.05.17/outbox.cif.g08.bks.cpg/sg83_1_cif.got.tgz:935.got - 2010.06.03 18:55:12.
