data_PCOD9543727
_publ_section_title
;
Structure prediction by ZEFSAII (Michael W. Deem and Ramdas Pophale) SiO2 
 PCOD9543727
Probable space group: P 4/M
;
_chemical_formula_sum "Si O2"
_cell_formula_units_Z 40
_cell_length_a 7.803475
_cell_length_b 7.803475
_cell_length_c 28.680140
_cell_angle_alpha 90.000000
_cell_angle_beta 90.000000
_cell_angle_gamma 90.000000
_cell_volume 1746.454814
_symmetry_space_group_name_H-M "P 4/M"
_symmetry_group_IT_number 83
_symmetry_cell_setting 'tetragonal'
loop_
_space_group_symop_operation_xyz
x,y,z
-y,x,z
-x,-y,z
y,-x,z
-x,-y,-z
y,-x,-z
x,y,-z
-y,x,-z
loop_
_atom_site_type_symbol
_atom_site_label
_atom_site_fract_x
_atom_site_fract_y
_atom_site_fract_z
Si Si1 0.768605 0.389133 0.348840
Si Si2 0.582639 0.227598 0.000000
Si Si3 0.382965 0.233034 0.549767
Si Si4 0.500000 0.000000 0.272910
Si Si5 0.095709 0.272006 0.094096
Si Si6 0.895364 0.729650 0.803717
O O1 0.713774 0.590466 0.346168
O O2 0.849040 0.350432 0.399873
O O3 0.899836 0.369244 0.306731
O O4 0.706094 0.391320 0.000000
O O5 0.623225 0.134003 0.048072
O O6 0.584172 0.284776 0.549740
O O7 0.344495 0.145251 0.500000
O O8 0.599948 0.128845 0.238555
O O9 0.132932 0.350639 0.144970
O O10 0.900604 0.208679 0.092759
O O11 0.095139 0.788222 0.800865
#
# Coordination Sequence:
#
# PCOD9543727 Si02
#       6
#     8   4   8   4   8   8
#     4   9  18  31  46  69  99 127 161 204 248 299
#     4  11  24  37  52  82 118 139 156 193 246 298
#     4   7  10  20  40  62  86 121 160 196 238 288
#     4  12  20  30  51  75  98 130 164 202 258 300
#     4   9  19  37  59  79  99 130 173 210 239 282
#     4   9  20  37  54  74 100 130 169 210 241 283
#
# _framework density 22.903542000000002
#
# number of rings (size 3 to 8) (size 9 to 14) (size 15 to 20)
#    0.000    2.900    0.000    4.800    0.000    5.600 
#    0.000    0.500    0.000    2.400    0.000    0.000 
#    0.000    0.000    0.000   24.400    0.000    1.600 
#
# Total GULP energy -223358.742180 kJ/mol
# GULP energy per Si atom -5583.968554 kJ/mol
# Density = 2.285141 g / cm^3
# Si number density = 22.903542 Si / 1000 Ang^3
#
#
#
# Elastic Constant Matrix: (Units=GPa)
#
#
# Indices 1 2 3 4 5 6 
#
# 1 -72.3932 108.4034 31.3538 0.0000 0.0000 111.3802
# 2 108.4034 -72.3932 31.3538 0.0000 0.0000 -111.3802
# 3 31.3538 31.3538 240.1371 0.0000 0.0000 0.0000
# 4 0.0000 0.0000 0.0000 -110.8574 0.0000 0.0000
# 5 0.0000 0.0000 0.0000 0.0000 -110.8574 0.0000
# 6 111.3802 -111.3802 0.0000 0.0000 0.0000 -79.0072
#
#
#
# Elastic Compliance Matrix: (Units=1/GPa)
#
#
# Indices 1 2 3 4 5 6 
#
# 1 0.021724 0.014218 -0.004693 0.000000 0.000000 0.010581
# 2 0.014218 0.021724 -0.004693 0.000000 0.000000 -0.010581
# 3 -0.004693 -0.004693 0.005390 0.000000 0.000000 0.000000
# 4 0.000000 0.000000 0.000000 -0.009021 0.000000 0.000000
# 5 0.000000 0.000000 0.000000 0.000000 -0.009021 0.000000
# 6 0.010581 -0.010581 0.000000 0.000000 0.000000 0.017175
#
#
# Mechanical properties :
#
#
# Convention : Reuss Voigt Hill
#
# Bulk Modulus (GPa) = 17.09334 48.61918 32.85626
# Shear Modulus (GPa) = 86.49646 -65.19509 10.65068
#
# Velocity S-wave (km/s) = 6.15203 -5.34105 2.15878
# Velocity P-wave (km/s) = 7.61201 4.09413 4.53767
#
# Compressibility (1/GPa) = 0.05850232
#
# Stress axis : x y z
#
# Youngs Moduli (GPa) = 46.03291 46.03291 185.53808
#
# Poissons Ratio (x) = -0.65451 0.87069
# Poissons Ratio (y) = -0.65451 0.87069
# Poissons Ratio (z) = 0.21602 0.21602
#
# Static dielectric constant tensor:
#      x y z
#    x 1.849460 0.000000 0.000000 
#    y 0.000000 1.849460 0.000000 
#    z 0.000000 0.000000 1.910450 
# 
# From -- ./inp_files/3286.got.cif
#   From: 2010.05.17/outbox.cif.g08.bks.cpg/sg83_2_cif.got.tgz:3286.got - 2010.06.03 18:55:12.
