data_PCOD9543566
_publ_section_title
;
Structure prediction by ZEFSAII (Michael W. Deem and Ramdas Pophale) SiO2 
 PCOD9543566
Probable space group: P 4/M
;
_chemical_formula_sum "Si O2"
_cell_formula_units_Z 48
_cell_length_a 15.386035
_cell_length_b 15.386035
_cell_length_c 11.530508
_cell_angle_alpha 90.000000
_cell_angle_beta 90.000000
_cell_angle_gamma 90.000000
_cell_volume 2729.618001
_symmetry_space_group_name_H-M "P 4/M"
_symmetry_group_IT_number 83
_symmetry_cell_setting 'tetragonal'
loop_
_space_group_symop_operation_xyz
x,y,z
-y,x,z
-x,-y,z
y,-x,z
-x,-y,-z
y,-x,-z
x,y,-z
-y,x,-z
loop_
_atom_site_type_symbol
_atom_site_label
_atom_site_fract_x
_atom_site_fract_y
_atom_site_fract_z
Si Si1 0.089311 0.447986 0.135392
Si Si2 0.939839 0.873307 0.638728
Si Si3 0.874752 0.074207 0.000000
Si Si4 0.681010 0.671292 0.860928
Si Si5 0.257505 0.869870 0.803469
Si Si6 0.736966 0.495413 0.250173
Si Si7 0.648146 0.499367 0.500000
O O1 0.080069 0.345977 0.163971
O O2 0.162442 0.484807 0.221656
O O3 0.000000 0.500000 0.145791
O O4 0.119228 0.454721 0.000000
O O5 0.940231 0.874624 0.500000
O O6 0.897735 0.784724 0.682752
O O7 0.039871 0.887813 0.677889
O O8 0.818666 0.105100 0.891441
O O9 0.970565 0.114277 0.000000
O O10 0.768929 0.717801 0.816431
O O11 0.686625 0.571882 0.818234
O O12 0.596860 0.713722 0.804595
O O13 0.679178 0.676093 0.000000
O O14 0.706483 0.498877 0.383726
O O15 0.584431 0.583676 0.500000
#
# Coordination Sequence:
#
# PCOD9543566 Si02
#       7
#     8   8   4   8   8   8   4
#     4  10  22  42  63  86 121 165 203 246 300 364
#     4   9  19  37  59  82 111 150 196 248 299 345
#     4  11  22  34  55  90 124 153 189 246 302 350
#     4  11  22  39  60  90 121 155 193 250 298 358
#     4  11  20  38  57  85 122 152 198 238 294 359
#     4  11  22  40  63  90 122 156 203 246 301 369
#     4  11  22  42  65  92 126 162 195 248 330 377
#
# _framework density 17.584879000000001
#
# number of rings (size 3 to 8) (size 9 to 14) (size 15 to 20)
#    0.000    1.500    3.333    4.000    0.000    4.333 
#    7.500    1.250    0.000    0.000    0.000    0.000 
#    0.000    0.000    0.000    0.000    0.000    0.000 
#
# Total GULP energy -267903.161802 kJ/mol
# GULP energy per Si atom -5581.315871 kJ/mol
# Density = 1.754486 g / cm^3
# Si number density = 17.584879 Si / 1000 Ang^3
#
#
#
# Elastic Constant Matrix: (Units=GPa)
#
#
# Indices 1 2 3 4 5 6 
#
# 1 98.9094 65.2593 49.9418 0.0000 0.0000 -12.0376
# 2 65.2593 98.9094 49.9418 0.0000 0.0000 12.0376
# 3 49.9418 49.9418 109.2101 0.0000 0.0000 0.0000
# 4 0.0000 0.0000 0.0000 29.8989 0.0000 0.0000
# 5 0.0000 0.0000 0.0000 0.0000 29.8989 0.0000
# 6 -12.0376 12.0376 0.0000 0.0000 0.0000 24.2182
#
#
#
# Elastic Compliance Matrix: (Units=1/GPa)
#
#
# Indices 1 2 3 4 5 6 
#
# 1 0.027279 -0.018839 -0.003859 0.000000 0.000000 0.022923
# 2 -0.018839 0.027279 -0.003859 0.000000 0.000000 -0.022923
# 3 -0.003859 -0.003859 0.012686 0.000000 0.000000 0.000000
# 4 0.000000 0.000000 0.000000 0.033446 0.000000 0.000000
# 5 0.000000 0.000000 0.000000 0.000000 0.033446 0.000000
# 6 0.022923 -0.022923 0.000000 0.000000 0.000000 0.064079
#
#
# Mechanical properties :
#
#
# Convention : Reuss Voigt Hill
#
# Bulk Modulus (GPa) = 70.78214 70.81274 70.79744
# Shear Modulus (GPa) = 19.52824 26.26228 22.89526
#
# Velocity S-wave (km/s) = 3.33605 3.86872 3.61222
# Velocity P-wave (km/s) = 7.42819 7.76611 7.59903
#
# Compressibility (1/GPa) = 0.01412786
#
# Stress axis : x y z
#
# Youngs Moduli (GPa) = 36.65875 36.65875 78.82458
#
# Poissons Ratio (x) = 0.69062 0.30421
# Poissons Ratio (y) = 0.69062 0.30421
# Poissons Ratio (z) = 0.14148 0.14148
#
# Static dielectric constant tensor:
#      x y z
#    x 1.585070 0.000000 0.000000 
#    y 0.000000 1.585070 0.000000 
#    z 0.000000 0.000000 1.648470 
# 
# From -- ./inp_files/1871.got.cif
#   From: 2010.05.17/outbox.cif.g08.bks.cpg/sg83_1_cif.got.tgz:1871.got - 2010.06.03 18:55:12.
