data_PCOD9543812
_publ_section_title
;
Structure prediction by ZEFSAII (Michael W. Deem and Ramdas Pophale) SiO2 
 PCOD9543812
Probable space group: P 4/M
;
_chemical_formula_sum "Si O2"
_cell_formula_units_Z 40
_cell_length_a 7.624862
_cell_length_b 7.624862
_cell_length_c 28.490572
_cell_angle_alpha 90.000000
_cell_angle_beta 90.000000
_cell_angle_gamma 90.000000
_cell_volume 1656.399705
_symmetry_space_group_name_H-M "P 4/M"
_symmetry_group_IT_number 83
_symmetry_cell_setting 'tetragonal'
loop_
_space_group_symop_operation_xyz
x,y,z
-y,x,z
-x,-y,z
y,-x,z
-x,-y,-z
y,-x,-z
x,y,-z
-y,x,-z
loop_
_atom_site_type_symbol
_atom_site_label
_atom_site_fract_x
_atom_site_fract_y
_atom_site_fract_z
Si Si1 0.394789 0.226692 0.500000
Si Si2 0.403633 0.227107 0.303498
Si Si3 0.500000 0.000000 0.770166
Si Si4 0.269733 0.126085 0.950013
Si Si5 0.727770 0.894215 0.400190
Si Si6 0.882348 0.275546 0.846721
O O1 0.595741 0.282124 0.500000
O O2 0.348989 0.131524 0.451824
O O3 0.602336 0.287837 0.293481
O O4 0.358711 0.065433 0.269662
O O5 0.390039 0.172469 0.357592
O O6 0.573262 0.857270 0.808350
O O7 0.348760 0.158084 0.898885
O O8 0.080922 0.222302 0.950177
O O9 0.359591 0.167751 0.000000
O O10 0.905212 0.782492 0.395505
O O11 0.089360 0.218321 0.841592
#
# Coordination Sequence:
#
# PCOD9543812 Si02
#       6
#     4   8   4   8   8   8
#     4  11  24  41  64  96 132 167 200 234 278 334
#     4  11  24  41  60  82 111 150 194 237 288 348
#     4  12  22  36  55  79 108 142 184 238 290 336
#     4   7  10  20  41  68  98 133 172 215 267 329
#     4  11  24  42  65  94 124 155 195 242 288 334
#     4   9  18  32  51  76 105 139 180 226 279 338
#
# _framework density 24.148761
#
# number of rings (size 3 to 8) (size 9 to 14) (size 15 to 20)
#    0.000    2.100    0.000    6.000    0.000    5.600 
#    0.000    2.500    0.000    0.000    0.000    0.000 
#    0.000    0.000    0.000   24.400    0.000    1.600 
#
# Total GULP energy -222838.397773 kJ/mol
# GULP energy per Si atom -5570.959944 kJ/mol
# Density = 2.409380 g / cm^3
# Si number density = 24.148761 Si / 1000 Ang^3
#
#
#
# Elastic Constant Matrix: (Units=GPa)
#
#
# Indices 1 2 3 4 5 6 
#
# 1 81.3953 27.9784 20.3649 0.0000 0.0000 -3.8274
# 2 27.9784 81.3953 20.3649 0.0000 0.0000 3.8274
# 3 20.3649 20.3649 171.1545 0.0000 0.0000 0.0000
# 4 0.0000 0.0000 0.0000 10.0280 0.0000 0.0000
# 5 0.0000 0.0000 0.0000 0.0000 10.0280 0.0000
# 6 -3.8274 3.8274 0.0000 0.0000 0.0000 22.8728
#
#
#
# Elastic Compliance Matrix: (Units=1/GPa)
#
#
# Indices 1 2 3 4 5 6 
#
# 1 0.014374 -0.004807 -0.001138 0.000000 0.000000 0.003210
# 2 -0.004807 0.014374 -0.001138 0.000000 0.000000 -0.003210
# 3 -0.001138 -0.001138 0.006114 0.000000 0.000000 0.000000
# 4 0.000000 0.000000 0.000000 0.099721 0.000000 0.000000
# 5 0.000000 0.000000 0.000000 0.000000 0.099721 0.000000
# 6 0.003210 -0.003210 0.000000 0.000000 0.000000 0.044794
#
#
# Mechanical properties :
#
#
# Convention : Reuss Voigt Hill
#
# Bulk Modulus (GPa) = 48.32313 52.37351 50.34832
# Shear Modulus (GPa) = 16.65763 26.26818 21.46291
#
# Velocity S-wave (km/s) = 2.62924 3.30171 2.98447
# Velocity P-wave (km/s) = 5.41029 6.02246 5.72456
#
# Compressibility (1/GPa) = 0.02069402
#
# Stress axis : x y z
#
# Youngs Moduli (GPa) = 69.57130 69.57130 163.57076
#
# Poissons Ratio (x) = 0.33442 0.18620
# Poissons Ratio (y) = 0.33442 0.18620
# Poissons Ratio (z) = 0.07919 0.07919
#
# Static dielectric constant tensor:
#      x y z
#    x 1.992630 0.000000 0.000000 
#    y 0.000000 1.992630 0.000000 
#    z 0.000000 0.000000 1.940720 
# 
# From -- ./inp_files/3289.got.cif
#   From: 2010.05.17/outbox.cif.g08.bks.cpg/sg83_2_cif.got.tgz:3289.got - 2010.06.03 18:55:12.
