data_PCOD9543783
_publ_section_title
;
Structure prediction by ZEFSAII (Michael W. Deem and Ramdas Pophale) SiO2 
 PCOD9543783
Probable space group: P 4/M
;
_chemical_formula_sum "Si O2"
_cell_formula_units_Z 40
_cell_length_a 8.078121
_cell_length_b 8.078121
_cell_length_c 27.874385
_cell_angle_alpha 90.000000
_cell_angle_beta 90.000000
_cell_angle_gamma 90.000000
_cell_volume 1818.971952
_symmetry_space_group_name_H-M "P 4/M"
_symmetry_group_IT_number 83
_symmetry_cell_setting 'tetragonal'
loop_
_space_group_symop_operation_xyz
x,y,z
-y,x,z
-x,-y,z
y,-x,z
-x,-y,-z
y,-x,-z
x,y,-z
-y,x,-z
loop_
_atom_site_type_symbol
_atom_site_label
_atom_site_fract_x
_atom_site_fract_y
_atom_site_fract_z
Si Si1 0.762642 0.595501 0.706973
Si Si2 0.737788 0.903880 0.446044
Si Si3 0.917573 0.734901 0.092418
Si Si4 0.763048 0.595049 0.814429
Si Si5 0.500000 0.000000 0.630342
Si Si6 0.580207 0.233687 0.000000
O O1 0.596182 0.703274 0.702966
O O2 0.831039 0.621403 0.760730
O O3 0.895852 0.618769 0.665488
O O4 0.671279 0.878270 0.500000
O O5 0.603849 0.880801 0.404763
O O6 0.904330 0.796511 0.441858
O O7 0.880772 0.647299 0.142729
O O8 0.867029 0.622895 0.047660
O O9 0.103278 0.800641 0.089664
O O10 0.594430 0.702809 0.818467
O O11 0.698221 0.395040 0.000000
#
# Coordination Sequence:
#
# PCOD9543783 Si02
#       6
#     8   8   8   8   4   4
#     4   9  20  36  52  76 110 142 177 226 278 328
#     4   9  19  35  52  74 108 146 183 225 273 328
#     4  11  24  39  57  85 118 146 179 228 279 323
#     4   9  19  37  58  78 104 143 187 223 265 330
#     4  12  19  30  56  84 104 137 186 230 276 326
#     4  11  24  41  62  88 114 145 188 229 270 330
#
# _framework density 21.990445999999999
#
# number of rings (size 3 to 8) (size 9 to 14) (size 15 to 20)
#    0.000    2.100    0.000    5.100    0.000    9.600 
#    0.000    0.000    0.000    2.400    0.000    8.400 
#    0.000    0.000    0.000    0.000    0.000    0.000 
#
# Total GULP energy -223825.442674 kJ/mol
# GULP energy per Si atom -5595.636067 kJ/mol
# Density = 2.194039 g / cm^3
# Si number density = 21.990446 Si / 1000 Ang^3
#
#
#
# Elastic Constant Matrix: (Units=GPa)
#
#
# Indices 1 2 3 4 5 6 
#
# 1 58.2844 22.1527 44.0208 0.0000 0.0000 -3.7462
# 2 22.1527 58.2844 44.0208 0.0000 0.0000 3.7462
# 3 44.0208 44.0208 183.2631 0.0000 0.0000 0.0000
# 4 0.0000 0.0000 0.0000 124.7366 0.0000 0.0000
# 5 0.0000 0.0000 0.0000 0.0000 124.7366 0.0000
# 6 -3.7462 3.7462 0.0000 0.0000 0.0000 29.9835
#
#
#
# Elastic Compliance Matrix: (Units=1/GPa)
#
#
# Indices 1 2 3 4 5 6 
#
# 1 0.022640 -0.005773 -0.004051 0.000000 0.000000 0.003550
# 2 -0.005773 0.022640 -0.004051 0.000000 0.000000 -0.003550
# 3 -0.004051 -0.004051 0.007403 0.000000 0.000000 0.000000
# 4 0.000000 0.000000 0.000000 0.008017 0.000000 0.000000
# 5 0.000000 0.000000 0.000000 0.000000 0.008017 0.000000
# 6 0.003550 -0.003550 0.000000 0.000000 0.000000 0.034239
#
#
# Mechanical properties :
#
#
# Convention : Reuss Voigt Hill
#
# Bulk Modulus (GPa) = 40.11183 57.80227 48.95705
# Shear Modulus (GPa) = 35.96695 68.53386 52.25041
#
# Velocity S-wave (km/s) = 4.04861 5.58864 4.87976
# Velocity P-wave (km/s) = 6.33523 8.24537 7.35259
#
# Compressibility (1/GPa) = 0.02493030
#
# Stress axis : x y z
#
# Youngs Moduli (GPa) = 44.17046 44.17046 135.08068
#
# Poissons Ratio (x) = 0.25500 0.54727
# Poissons Ratio (y) = 0.25500 0.54727
# Poissons Ratio (z) = 0.17895 0.17895
#
# Static dielectric constant tensor:
#      x y z
#    x 1.801540 0.000000 0.000000 
#    y 0.000000 1.801540 0.000000 
#    z 0.000000 0.000000 1.783300 
# 
# From -- ./inp_files/3275.got.cif
#   From: 2010.05.17/outbox.cif.g08.bks.cpg/sg83_2_cif.got.tgz:3275.got - 2010.06.03 18:55:12.
