data_PCOD9543978
_publ_section_title
;
Structure prediction by ZEFSAII (Michael W. Deem and Ramdas Pophale) SiO2 
 PCOD9543978
Probable space group: P 42/M
;
_chemical_formula_sum "Si O2"
_cell_formula_units_Z 48
_cell_length_a 8.230195
_cell_length_b 8.230195
_cell_length_c 32.682013
_cell_angle_alpha 90.000000
_cell_angle_beta 90.000000
_cell_angle_gamma 90.000000
_cell_volume 2213.752419
_symmetry_space_group_name_H-M "P 42/M"
_symmetry_group_IT_number 84
_symmetry_cell_setting 'tetragonal'
loop_
_space_group_symop_operation_xyz
x,y,z
-y,x,1/2+z
-x,-y,z
y,-x,1/2+z
-x,-y,-z
y,-x,1/2-z
x,y,-z
-y,x,1/2-z
loop_
_atom_site_type_symbol
_atom_site_label
_atom_site_fract_x
_atom_site_fract_y
_atom_site_fract_z
Si Si1 0.805792 0.833328 0.184263
Si Si2 0.472355 0.325966 0.326992
Si Si3 0.310573 0.317689 0.952061
Si Si4 0.678129 0.345409 0.919044
Si Si5 0.915996 0.325723 0.770605
Si Si6 0.991624 0.300285 0.602347
O O1 0.756753 0.650022 0.169751
O O2 0.700349 0.886396 0.223133
O O3 0.979051 0.809045 0.206080
O O4 0.778069 0.951865 0.146279
O O5 0.500000 0.500000 0.308457
O O6 0.396063 0.344453 0.371799
O O7 0.345210 0.243467 0.297145
O O8 0.503788 0.327502 0.941325
O O9 0.240665 0.494682 0.939045
O O10 0.255218 0.161466 0.926268
O O11 0.288314 0.292831 0.000000
O O12 0.752570 0.164773 0.916829
O O13 0.000000 0.500000 0.775194
O O14 0.000000 0.500000 0.606559
#
# Coordination Sequence:
#
# PCOD9543978 Si02
#       6
#     8   8   8   8   8   8
#     4  11  23  43  56  83 132 159 222 272 324 391
#     4  11  21  38  63  87 118 161 216 260 329 393
#     4  10  19  34  55  93 134 160 204 277 341 401
#     4  10  18  33  55  88 117 163 208 258 333 397
#     4  10  26  39  60  91 118 175 220 277 328 388
#     4  10  20  34  60  85 123 173 210 262 331 404
#
# _framework density 21.682641
#
# number of rings (size 3 to 8) (size 9 to 14) (size 15 to 20)
#    0.000    1.667    3.333    2.500    7.000    4.000 
#    0.000    0.000    0.000    0.000    0.000    3.500 
#    0.000   13.333    0.000    0.000    0.000    0.000 
#
# Total GULP energy -267927.783385 kJ/mol
# GULP energy per Si atom -5581.828821 kJ/mol
# Density = 2.163329 g / cm^3
# Si number density = 21.682641 Si / 1000 Ang^3
#
#
#
# Elastic Constant Matrix: (Units=GPa)
#
#
# Indices 1 2 3 4 5 6 
#
# 1 97.0525 2.5078 37.1177 0.0000 0.0000 -4.9048
# 2 2.5078 97.0525 37.1177 0.0000 0.0000 4.9048
# 3 37.1177 37.1177 156.4378 0.0000 0.0000 0.0000
# 4 0.0000 0.0000 0.0000 -0.2970 0.0000 0.0000
# 5 0.0000 0.0000 0.0000 0.0000 -0.2970 0.0000
# 6 -4.9048 4.9048 0.0000 0.0000 0.0000 8.7308
#
#
#
# Elastic Compliance Matrix: (Units=1/GPa)
#
#
# Indices 1 2 3 4 5 6 
#
# 1 0.011717 0.000486 -0.002895 0.000000 0.000000 0.006310
# 2 0.000486 0.011717 -0.002895 0.000000 0.000000 -0.006310
# 3 -0.002895 -0.002895 0.007766 0.000000 0.000000 0.000000
# 4 0.000000 0.000000 0.000000 -3.367011 0.000000 0.000000
# 5 0.000000 0.000000 0.000000 0.000000 -3.367011 0.000000
# 6 0.006310 -0.006310 0.000000 0.000000 0.000000 0.121626
#
#
# Mechanical properties :
#
#
# Convention : Reuss Voigt Hill
#
# Bulk Modulus (GPa) = 48.56530 56.00324 52.28427
# Shear Modulus (GPa) = -0.76176 19.88066 9.55945
#
# Velocity S-wave (km/s) = -0.59337 3.03131 2.10199
# Velocity P-wave (km/s) = 4.68801 6.17547 5.48242
#
# Compressibility (1/GPa) = 0.02059083
#
# Stress axis : x y z
#
# Youngs Moduli (GPa) = 85.34331 85.34331 128.76165
#
# Poissons Ratio (x) = -0.04145 0.37282
# Poissons Ratio (y) = -0.04145 0.37282
# Poissons Ratio (z) = 0.24710 0.24710
#
# Static dielectric constant tensor:
#      x y z
#    x 1.967140 0.000000 0.000000 
#    y 0.000000 1.967140 0.000000 
#    z 0.000000 0.000000 1.718170 
# 
# From -- ./inp_files/5790.got.cif
#   From: 2010.05.17/outbox.cif.g08.bks.cpg/sg84_3_cif.got.tgz:5790.got - 2010.06.03 18:57:40.
