data_PCOD9543267
_publ_section_title
;
Structure prediction by ZEFSAII (Michael W. Deem and Ramdas Pophale) SiO2 
 PCOD9543267
Probable space group: P 4/M
;
_chemical_formula_sum "Si O2"
_cell_formula_units_Z 40
_cell_length_a 14.506372
_cell_length_b 14.506372
_cell_length_c 13.847422
_cell_angle_alpha 90.000000
_cell_angle_beta 90.000000
_cell_angle_gamma 90.000000
_cell_volume 2913.979875
_symmetry_space_group_name_H-M "P 4/M"
_symmetry_group_IT_number 83
_symmetry_cell_setting 'tetragonal'
loop_
_space_group_symop_operation_xyz
x,y,z
-y,x,z
-x,-y,z
y,-x,z
-x,-y,-z
y,-x,-z
x,y,-z
-y,x,-z
loop_
_atom_site_type_symbol
_atom_site_label
_atom_site_fract_x
_atom_site_fract_y
_atom_site_fract_z
Si Si1 0.250319 0.403247 0.615545
Si Si2 0.740055 0.392632 0.301490
Si Si3 0.638975 0.430845 0.111966
Si Si4 0.101125 0.254649 0.616533
Si Si5 0.256060 0.111029 0.617429
O O1 0.247446 0.411629 0.500000
O O2 0.252348 0.503333 0.661730
O O3 0.339232 0.343431 0.645177
O O4 0.161804 0.342604 0.647795
O O5 0.712478 0.395345 0.189032
O O6 0.831098 0.336291 0.330855
O O7 0.618814 0.539915 0.127072
O O8 0.665051 0.417802 0.000000
O O9 0.098567 0.258008 0.500000
O O10 0.160726 0.164024 0.640759
O O11 0.995393 0.254438 0.647835
O O12 0.268891 0.116831 0.500000
#
# Coordination Sequence:
#
# PCOD9543267 Si02
#       5
#     8   8   8   8   8
#     4  10  19  28  39  60  92 122 151 175 205 251
#     4  11  18  28  42  62  87 120 146 178 215 251
#     4   9  17  30  45  62  83 111 150 189 216 251
#     4   8  16  29  42  60  86 116 147 183 214 250
#     4   9  17  29  44  63  88 114 148 183 216 258
#
# _framework density 13.726931
#
# number of rings (size 3 to 8) (size 9 to 14) (size 15 to 20)
#    0.000    2.600    2.000    3.600    0.000    1.600 
#    0.000    6.000    0.000    0.000    0.000    8.400 
#    0.000    0.000    0.000    7.200    0.000    0.800 
#
# Total GULP energy -222733.144154 kJ/mol
# GULP energy per Si atom -5568.328604 kJ/mol
# Density = 1.369569 g / cm^3
# Si number density = 13.726931 Si / 1000 Ang^3
#
#
#
# Elastic Constant Matrix: (Units=GPa)
#
#
# Indices 1 2 3 4 5 6 
#
# 1 117.7966 58.9124 27.2473 0.0000 0.0000 -1.3167
# 2 58.9124 117.7966 27.2473 0.0000 0.0000 1.3167
# 3 27.2473 27.2473 59.3002 0.0000 0.0000 0.0000
# 4 0.0000 0.0000 0.0000 9.3185 0.0000 0.0000
# 5 0.0000 0.0000 0.0000 0.0000 9.3185 0.0000
# 6 -1.3167 1.3167 0.0000 0.0000 0.0000 2.3977
#
#
#
# Elastic Compliance Matrix: (Units=1/GPa)
#
#
# Indices 1 2 3 4 5 6 
#
# 1 0.012002 -0.005408 -0.003029 0.000000 0.000000 0.009561
# 2 -0.005408 0.012002 -0.003029 0.000000 0.000000 -0.009561
# 3 -0.003029 -0.003029 0.019647 0.000000 0.000000 0.000000
# 4 0.000000 0.000000 0.000000 0.107313 0.000000 0.000000
# 5 0.000000 0.000000 0.000000 0.000000 0.107313 0.000000
# 6 0.009561 -0.009561 0.000000 0.000000 0.000000 0.427562
#
#
# Mechanical properties :
#
#
# Convention : Reuss Voigt Hill
#
# Bulk Modulus (GPa) = 48.27202 57.96751 53.11976
# Shear Modulus (GPa) = 6.98637 16.30603 11.64620
#
# Velocity S-wave (km/s) = 2.25845 3.45031 2.91592
# Velocity P-wave (km/s) = 6.48406 7.62847 7.07943
#
# Compressibility (1/GPa) = 0.02071593
#
# Stress axis : x y z
#
# Youngs Moduli (GPa) = 83.32168 83.32168 50.89749
#
# Poissons Ratio (x) = 0.45064 0.15419
# Poissons Ratio (y) = 0.45064 0.15419
# Poissons Ratio (z) = 0.25242 0.25242
#
# Static dielectric constant tensor:
#      x y z
#    x 1.449630 0.000000 0.000000 
#    y 0.000000 1.449630 0.000000 
#    z 0.000000 0.000000 1.432780 
# 
# From -- ./inp_files/1663.got.cif
#   From: 2010.05.17/outbox.cif.g08.bks.cpg/sg83_1_cif.got.tgz:1663.got - 2010.06.03 18:55:12.
