data_PCOD9543400
_publ_section_title
;
Structure prediction by ZEFSAII (Michael W. Deem and Ramdas Pophale) SiO2 
 PCOD9543400
Probable space group: P 4/M
;
_chemical_formula_sum "Si O2"
_cell_formula_units_Z 52
_cell_length_a 18.059873
_cell_length_b 18.059873
_cell_length_c 7.481869
_cell_angle_alpha 90.000000
_cell_angle_beta 90.000000
_cell_angle_gamma 90.000000
_cell_volume 2440.279007
_symmetry_space_group_name_H-M "P 4/M"
_symmetry_group_IT_number 83
_symmetry_cell_setting 'tetragonal'
loop_
_space_group_symop_operation_xyz
x,y,z
-y,x,z
-x,-y,z
y,-x,z
-x,-y,-z
y,-x,-z
x,y,-z
-y,x,-z
loop_
_atom_site_type_symbol
_atom_site_label
_atom_site_fract_x
_atom_site_fract_y
_atom_site_fract_z
Si Si1 0.568758 0.600929 0.000000
Si Si2 0.787965 0.518090 0.707195
Si Si3 0.986428 0.119032 0.218244
Si Si4 0.049252 0.429814 0.217117
Si Si5 0.323825 0.354345 0.286249
Si Si6 0.965400 0.285278 0.791716
Si Si7 0.349240 0.194110 0.285059
O O1 0.482127 0.598075 0.000000
O O2 0.600102 0.636036 0.179930
O O3 0.766861 0.507438 0.500000
O O4 0.867978 0.555712 0.720456
O O5 0.730770 0.580245 0.776645
O O6 0.796736 0.434519 0.782163
O O7 0.976896 0.202982 0.283142
O O8 0.063302 0.079672 0.272007
O O9 0.985144 0.119961 0.000000
O O10 0.000000 0.500000 0.274053
O O11 0.014148 0.352938 0.282887
O O12 0.049048 0.429339 0.000000
O O13 0.333066 0.359599 0.500000
O O14 0.303440 0.269046 0.244701
O O15 0.880295 0.311380 0.782124
O O16 0.986108 0.280097 0.000000
O O17 0.353102 0.187042 0.500000
#
# Coordination Sequence:
#
# PCOD9543400 Si02
#       7
#     4   8   8   8   8   8   8
#     4  11  24  40  62  92 115 153 205 246 306 372
#     4  10  21  37  59  81 109 156 199 237 295 361
#     4   8  15  30  52  78 109 145 186 235 285 339
#     4  10  20  34  51  81 118 150 186 238 294 347
#     4  10  23  42  60  88 122 156 202 256 306 360
#     4  10  20  33  54  84 114 148 191 240 294 355
#     4  10  21  37  57  80 112 152 193 239 297 355
#
# _framework density 21.30904
#
# number of rings (size 3 to 8) (size 9 to 14) (size 15 to 20)
#    0.000    2.231    1.538    1.385    2.154    4.000 
#    0.000    2.308    0.000    0.923    0.000    1.077 
#    0.000    0.000    0.000    0.000    0.000    0.000 
#
# Total GULP energy -290182.441506 kJ/mol
# GULP energy per Si atom -5580.431567 kJ/mol
# Density = 2.126054 g / cm^3
# Si number density = 21.309040 Si / 1000 Ang^3
#
#
#
# Elastic Constant Matrix: (Units=GPa)
#
#
# Indices 1 2 3 4 5 6 
#
# 1 142.3238 60.8978 5.2403 0.0000 0.0000 8.4447
# 2 60.8978 142.3238 5.2403 0.0000 0.0000 -8.4447
# 3 5.2403 5.2403 50.5840 0.0000 0.0000 0.0000
# 4 0.0000 0.0000 0.0000 26.6275 0.0000 0.0000
# 5 0.0000 0.0000 0.0000 0.0000 26.6275 0.0000
# 6 8.4447 -8.4447 0.0000 0.0000 0.0000 27.3906
#
#
#
# Elastic Compliance Matrix: (Units=1/GPa)
#
#
# Indices 1 2 3 4 5 6 
#
# 1 0.009034 -0.004086 -0.000513 0.000000 0.000000 -0.004045
# 2 -0.004086 0.009034 -0.000513 0.000000 0.000000 0.004045
# 3 -0.000513 -0.000513 0.019875 0.000000 0.000000 0.000000
# 4 0.000000 0.000000 0.000000 0.037555 0.000000 0.000000
# 5 0.000000 0.000000 0.000000 0.000000 0.037555 0.000000
# 6 -0.004045 0.004045 0.000000 0.000000 0.000000 0.039003
#
#
# Mechanical properties :
#
#
# Convention : Reuss Voigt Hill
#
# Bulk Modulus (GPa) = 36.07557 53.10983 44.59270
# Shear Modulus (GPa) = 29.15130 33.71931 31.43530
#
# Velocity S-wave (km/s) = 3.70269 3.98225 3.84501
# Velocity P-wave (km/s) = 5.93687 6.79133 6.37842
#
# Compressibility (1/GPa) = 0.02771959
#
# Stress axis : x y z
#
# Youngs Moduli (GPa) = 110.69742 110.69742 50.31372
#
# Poissons Ratio (x) = 0.45236 0.02579
# Poissons Ratio (y) = 0.45236 0.02579
# Poissons Ratio (z) = 0.05673 0.05673
#
# Static dielectric constant tensor:
#      x y z
#    x 1.757790 0.000000 0.000000 
#    y 0.000000 1.757790 0.000000 
#    z 0.000000 0.000000 1.881610 
# 
# From -- ./inp_files/989.got.cif
#   From: 2010.05.17/outbox.cif.g08.bks.cpg/sg83_1_cif.got.tgz:989.got - 2010.06.03 18:55:12.
