data_PCOD9543316
_publ_section_title
;
Structure prediction by ZEFSAII (Michael W. Deem and Ramdas Pophale) SiO2 
 PCOD9543316
Probable space group: P 4/M
;
_chemical_formula_sum "Si O2"
_cell_formula_units_Z 48
_cell_length_a 15.905214
_cell_length_b 15.905214
_cell_length_c 11.331896
_cell_angle_alpha 90.000000
_cell_angle_beta 90.000000
_cell_angle_gamma 90.000000
_cell_volume 2866.695823
_symmetry_space_group_name_H-M "P 4/M"
_symmetry_group_IT_number 83
_symmetry_cell_setting 'tetragonal'
loop_
_space_group_symop_operation_xyz
x,y,z
-y,x,z
-x,-y,z
y,-x,z
-x,-y,-z
y,-x,-z
x,y,-z
-y,x,-z
loop_
_atom_site_type_symbol
_atom_site_label
_atom_site_fract_x
_atom_site_fract_y
_atom_site_fract_z
Si Si1 0.762788 0.982688 0.860013
Si Si2 0.049124 0.419435 0.857535
Si Si3 0.620042 0.576878 0.238511
Si Si4 0.341366 0.779087 0.138018
Si Si5 0.150353 0.176777 0.250254
Si Si6 0.884309 0.084992 0.500000
Si Si7 0.423896 0.619505 0.500000
O O1 0.797828 0.903378 0.791779
O O2 0.667246 0.003987 0.823561
O O3 0.815239 0.065527 0.827101
O O4 0.765076 0.968029 0.000000
O O5 0.147661 0.408405 0.829395
O O6 0.000000 0.500000 0.809757
O O7 0.045225 0.423537 0.000000
O O8 0.524527 0.611464 0.225670
O O9 0.687655 0.618489 0.153298
O O10 0.653575 0.597850 0.371252
O O11 0.260272 0.796468 0.219212
O O12 0.317402 0.792410 0.000000
O O13 0.120556 0.161935 0.384037
O O14 0.982784 0.113472 0.500000
O O15 0.389262 0.524567 0.500000
#
# Coordination Sequence:
#
# PCOD9543316 Si02
#       7
#     8   8   8   8   8   4   4
#     4  10  19  32  52  78 108 138 173 217 268 327
#     4   8  16  32  51  70  98 140 181 215 260 319
#     4   9  18  33  54  80 112 150 187 232 288 335
#     4  10  21  34  50  79 112 141 188 236 272 334
#     4  11  21  36  53  77 106 140 178 224 271 323
#     4  11  22  39  58  82 110 142 182 225 275 340
#     4   7  12  27  50  72  95 129 178 220 254 317
#
# _framework density 16.744015999999998
#
# number of rings (size 3 to 8) (size 9 to 14) (size 15 to 20)
#    0.000    2.500    1.667    3.500    0.000    3.000 
#    0.000    3.333    0.000    0.000    0.000   15.167 
#    0.000    0.000    0.000    0.000    0.000    0.000 
#
# Total GULP energy -267259.405772 kJ/mol
# GULP energy per Si atom -5567.904287 kJ/mol
# Density = 1.670591 g / cm^3
# Si number density = 16.744016 Si / 1000 Ang^3
#
#
#
# Elastic Constant Matrix: (Units=GPa)
#
#
# Indices 1 2 3 4 5 6 
#
# 1 73.9202 44.9034 20.8167 0.0000 0.0000 10.5056
# 2 44.9034 73.9202 20.8167 0.0000 0.0000 -10.5056
# 3 20.8167 20.8167 64.3736 0.0000 0.0000 0.0000
# 4 0.0000 0.0000 0.0000 19.8972 0.0000 0.0000
# 5 0.0000 0.0000 0.0000 0.0000 19.8972 0.0000
# 6 10.5056 -10.5056 0.0000 0.0000 0.0000 24.4747
#
#
#
# Elastic Compliance Matrix: (Units=1/GPa)
#
#
# Indices 1 2 3 4 5 6 
#
# 1 0.029748 -0.020257 -0.003069 0.000000 0.000000 -0.021464
# 2 -0.020257 0.029748 -0.003069 0.000000 0.000000 0.021464
# 3 -0.003069 -0.003069 0.017519 0.000000 0.000000 0.000000
# 4 0.000000 0.000000 0.000000 0.050258 0.000000 0.000000
# 5 0.000000 0.000000 0.000000 0.000000 0.050258 0.000000
# 6 -0.021464 0.021464 0.000000 0.000000 0.000000 0.059285
#
#
# Mechanical properties :
#
#
# Convention : Reuss Voigt Hill
#
# Bulk Modulus (GPa) = 41.27976 42.80971 42.04473
# Shear Modulus (GPa) = 16.79634 21.23229 19.01432
#
# Velocity S-wave (km/s) = 3.17065 3.56484 3.37351
# Velocity P-wave (km/s) = 6.17341 6.52432 6.35129
#
# Compressibility (1/GPa) = 0.02422495
#
# Stress axis : x y z
#
# Youngs Moduli (GPa) = 33.61542 33.61542 57.07989
#
# Poissons Ratio (x) = 0.68095 0.17519
# Poissons Ratio (y) = 0.68095 0.17519
# Poissons Ratio (z) = 0.10317 0.10317
#
# Static dielectric constant tensor:
#      x y z
#    x 1.561310 0.000000 0.000000 
#    y 0.000000 1.561310 0.000000 
#    z 0.000000 0.000000 1.583740 
# 
# From -- ./inp_files/1864.got.cif
#   From: 2010.05.17/outbox.cif.g08.bks.cpg/sg83_1_cif.got.tgz:1864.got - 2010.06.03 18:55:12.
