data_PCOD9543759
_publ_section_title
;
Structure prediction by ZEFSAII (Michael W. Deem and Ramdas Pophale) SiO2 
 PCOD9543759
Probable space group: P 4/M
;
_chemical_formula_sum "Si O2"
_cell_formula_units_Z 36
_cell_length_a 8.130503
_cell_length_b 8.130503
_cell_length_c 24.235008
_cell_angle_alpha 90.000000
_cell_angle_beta 90.000000
_cell_angle_gamma 90.000000
_cell_volume 1602.057119
_symmetry_space_group_name_H-M "P 4/M"
_symmetry_group_IT_number 83
_symmetry_cell_setting 'tetragonal'
loop_
_space_group_symop_operation_xyz
x,y,z
-y,x,z
-x,-y,z
y,-x,z
-x,-y,-z
y,-x,-z
x,y,-z
-y,x,-z
loop_
_atom_site_type_symbol
_atom_site_label
_atom_site_fract_x
_atom_site_fract_y
_atom_site_fract_z
Si Si1 0.763862 0.582067 0.226872
Si Si2 0.096503 0.261724 0.000000
Si Si3 0.081099 0.263967 0.667601
Si Si4 0.237601 0.407967 0.438354
Si Si5 0.906147 0.736912 0.119886
O O1 0.602671 0.698218 0.228502
O O2 0.870722 0.627847 0.279913
O O3 0.857330 0.623827 0.170548
O O4 0.125962 0.342277 0.940542
O O5 0.907122 0.201464 0.000000
O O6 0.120039 0.355846 0.610759
O O7 0.896720 0.197781 0.669779
O O8 0.404318 0.299312 0.433763
O O9 0.168800 0.382267 0.500000
O O10 0.094656 0.798757 0.123251
#
# Coordination Sequence:
#
# PCOD9543759 Si02
#       5
#     8   4   8   8   8
#     4  11  24  39  54  75 105 141 180 221 267 319
#     4   7  12  26  50  79 108 136 168 211 260 309
#     4  11  24  39  56  81 110 139 176 223 270 315
#     4   9  19  37  60  85 113 145 180 216 256 307
#     4   9  17  32  56  83 108 136 174 218 263 313
#
# _framework density 22.471111000000001
#
# number of rings (size 3 to 8) (size 9 to 14) (size 15 to 20)
#    0.000    2.333    0.000    4.667    0.000   10.667 
#    0.000    4.444    0.000    5.333    0.000    0.000 
#    0.000    0.000    0.000    0.000    0.000    0.000 
#
# Total GULP energy -201565.027821 kJ/mol
# GULP energy per Si atom -5599.028551 kJ/mol
# Density = 2.241997 g / cm^3
# Si number density = 22.471111 Si / 1000 Ang^3
#
#
#
# Elastic Constant Matrix: (Units=GPa)
#
#
# Indices 1 2 3 4 5 6 
#
# 1 75.5118 55.4875 67.5043 0.0000 0.0000 1.0390
# 2 55.4875 75.5118 67.5043 0.0000 0.0000 -1.0390
# 3 67.5043 67.5043 228.7240 0.0000 0.0000 0.0000
# 4 0.0000 0.0000 0.0000 192.8097 0.0000 0.0000
# 5 0.0000 0.0000 0.0000 0.0000 192.8097 0.0000
# 6 1.0390 -1.0390 0.0000 0.0000 0.0000 41.3908
#
#
#
# Elastic Compliance Matrix: (Units=1/GPa)
#
#
# Indices 1 2 3 4 5 6 
#
# 1 0.030520 -0.019550 -0.003238 0.000000 0.000000 -0.001257
# 2 -0.019550 0.030520 -0.003238 0.000000 0.000000 0.001257
# 3 -0.003238 -0.003238 0.006283 0.000000 0.000000 0.000000
# 4 0.000000 0.000000 0.000000 0.005186 0.000000 0.000000
# 5 0.000000 0.000000 0.000000 0.000000 0.005186 0.000000
# 6 -0.001257 0.001257 0.000000 0.000000 0.000000 0.024223
#
#
# Mechanical properties :
#
#
# Convention : Reuss Voigt Hill
#
# Bulk Modulus (GPa) = 65.47440 84.52663 75.00051
# Shear Modulus (GPa) = 31.43454 98.01882 64.72668
#
# Velocity S-wave (km/s) = 3.74423 6.61170 5.37280
# Velocity P-wave (km/s) = 6.92046 9.79712 8.48163
#
# Compressibility (1/GPa) = 0.01527315
#
# Stress axis : x y z
#
# Youngs Moduli (GPa) = 32.76531 32.76531 159.15375
#
# Poissons Ratio (x) = 0.64055 0.51530
# Poissons Ratio (y) = 0.64055 0.51530
# Poissons Ratio (z) = 0.10609 0.10609
#
# Static dielectric constant tensor:
#      x y z
#    x 1.811240 0.000000 0.000000 
#    y 0.000000 1.811240 0.000000 
#    z 0.000000 0.000000 1.805990 
# 
# From -- ./inp_files/2845.got.cif
#   From: 2010.05.17/outbox.cif.g08.bks.cpg/sg83_2_cif.got.tgz:2845.got - 2010.06.03 18:55:12.
