data_PCOD9543036
_publ_section_title
;
Structure prediction by ZEFSAII (Michael W. Deem and Ramdas Pophale) SiO2 
 PCOD9543036
Probable space group: I -4 
;
_chemical_formula_sum "Si O2"
_cell_formula_units_Z 36
_cell_length_a 7.440286
_cell_length_b 7.440286
_cell_length_c 23.361137
_cell_angle_alpha 90.000000
_cell_angle_beta 90.000000
_cell_angle_gamma 90.000000
_cell_volume 1293.222452
_symmetry_space_group_name_H-M "I -4 "
_symmetry_group_IT_number 82
_symmetry_cell_setting 'tetragonal'
loop_
_space_group_symop_operation_xyz
x,y,z
y,-x,-z
-x,-y,z
-y,x,-z
1/2+x,1/2+y,1/2+z
1/2+y,1/2-x,1/2-z
1/2-x,1/2-y,1/2+z
1/2-y,1/2+x,1/2-z
loop_
_atom_site_type_symbol
_atom_site_label
_atom_site_fract_x
_atom_site_fract_y
_atom_site_fract_z
Si Si1 0.995200 0.808548 0.619412
Si Si2 0.500000 0.000000 0.046610
Si Si3 0.251657 0.393727 0.469284
Si Si4 0.700486 0.419401 0.356327
Si Si5 0.366250 0.732326 0.241720
O O1 0.788841 0.740710 0.626947
O O2 0.092146 0.637745 0.592283
O O3 0.103730 0.841425 0.678616
O O4 0.000000 0.000000 0.589286
O O5 0.577566 0.844416 0.004552
O O6 0.286920 0.578357 0.506814
O O7 0.208897 0.455948 0.404938
O O8 0.500000 0.500000 0.363394
O O9 0.726559 0.400021 0.287628
O O10 0.571632 0.774317 0.262078
#
# Coordination Sequence:
#
# PCOD9543036 Si02
#       5
#     8   4   8   8   8
#     4  11  23  41  66 106 146 192 256 321 395 469
#     4  12  24  42  69  98 146 199 242 328 388 460
#     4  11  22  41  64  94 132 188 251 298 378 467
#     4  11  20  40  67  97 141 196 252 315 379 475
#     4   9  19  35  66 101 141 195 249 316 388 469
#
# _framework density 27.837434999999999
#
# number of rings (size 3 to 8) (size 9 to 14) (size 15 to 20)
#    0.000    1.333    4.444    3.333    0.000    1.778 
#    0.000    0.000    0.000    5.333    0.000    0.000 
#    0.000    0.000    0.000    0.000    0.000    0.000 
#
# Total GULP energy -100270.299858 kJ/mol
# GULP energy per Si atom -5570.572214 kJ/mol
# Density = 2.777408 g / cm^3
# Si number density = 27.837435 Si / 1000 Ang^3
#
#
#
# Elastic Constant Matrix: (Units=GPa)
#
#
# Indices 1 2 3 4 5 6 
#
# 1 102.9510 -13.5849 24.3515 0.0000 0.0000 -2.2155
# 2 -13.5849 102.9510 24.3515 0.0000 0.0000 2.2155
# 3 24.3515 24.3515 148.4583 0.0000 0.0000 0.0000
# 4 0.0000 0.0000 0.0000 35.7797 0.0000 0.0000
# 5 0.0000 0.0000 0.0000 0.0000 35.7797 0.0000
# 6 -2.2155 2.2155 0.0000 0.0000 0.0000 17.3998
#
#
#
# Elastic Compliance Matrix: (Units=1/GPa)
#
#
# Indices 1 2 3 4 5 6 
#
# 1 0.010456 0.001833 -0.002016 0.000000 0.000000 0.001098
# 2 0.001833 0.010456 -0.002016 0.000000 0.000000 -0.001098
# 3 -0.002016 -0.002016 0.007397 0.000000 0.000000 0.000000
# 4 0.000000 0.000000 0.000000 0.027949 0.000000 0.000000
# 5 0.000000 0.000000 0.000000 0.000000 0.027949 0.000000
# 6 0.001098 -0.001098 0.000000 0.000000 0.000000 0.057751
#
#
# Mechanical properties :
#
#
# Convention : Reuss Voigt Hill
#
# Bulk Modulus (GPa) = 41.82114 47.17740 44.49927
# Shear Modulus (GPa) = 32.39919 39.07467 35.73693
#
# Velocity S-wave (km/s) = 3.41526 3.75063 3.58686
# Velocity P-wave (km/s) = 5.53244 5.97834 5.75971
#
# Compressibility (1/GPa) = 0.02391135
#
# Stress axis : x y z
#
# Youngs Moduli (GPa) = 95.64248 95.64247 135.18717
#
# Poissons Ratio (x) = -0.17530 0.27249
# Poissons Ratio (y) = -0.17530 0.27249
# Poissons Ratio (z) = 0.19278 0.19278
#
# Static dielectric constant tensor:
#      x y z
#    x 2.633440 0.000000 0.000000 
#    y 0.000000 2.633440 0.000000 
#    z 0.000000 0.000000 2.313830 
# 
# From -- ./inp_files/2980.got.cif
#   From: 2010.05.17/outbox.cif.g08.bks.cpg/sg82_2_cif.got.tgz:2980.got - 2010.06.03 18:52:26.
