data_PCOD9543609
_publ_section_title
;
Structure prediction by ZEFSAII (Michael W. Deem and Ramdas Pophale) SiO2 
 PCOD9543609
Probable space group: P 4/M
;
_chemical_formula_sum "Si O2"
_cell_formula_units_Z 36
_cell_length_a 14.027104
_cell_length_b 14.027104
_cell_length_c 10.443759
_cell_angle_alpha 90.000000
_cell_angle_beta 90.000000
_cell_angle_gamma 90.000000
_cell_volume 2054.910330
_symmetry_space_group_name_H-M "P 4/M"
_symmetry_group_IT_number 83
_symmetry_cell_setting 'tetragonal'
loop_
_space_group_symop_operation_xyz
x,y,z
-y,x,z
-x,-y,z
y,-x,z
-x,-y,-z
y,-x,-z
x,y,-z
-y,x,-z
loop_
_atom_site_type_symbol
_atom_site_label
_atom_site_fract_x
_atom_site_fract_y
_atom_site_fract_z
Si Si1 0.401998 0.253166 0.230240
Si Si2 0.616198 0.231100 0.143188
Si Si3 0.731860 0.117173 0.648676
Si Si4 0.558734 0.648607 0.500000
Si Si5 0.105933 0.728315 0.649863
O O1 0.503754 0.245641 0.163427
O O2 0.329952 0.325861 0.160999
O O3 0.418056 0.294822 0.372181
O O4 0.348933 0.152908 0.255563
O O5 0.656592 0.162443 0.253694
O O6 0.634410 0.194410 0.000000
O O7 0.701187 0.129852 0.500000
O O8 0.829416 0.177099 0.663698
O O9 0.744916 0.005319 0.673239
O O10 0.448337 0.619374 0.500000
O O11 0.115001 0.698227 0.500000
#
# Coordination Sequence:
#
# PCOD9543609 Si02
#       5
#     8   8   8   4   8
#     4  11  21  35  57  80 116 149 185 227 276 322
#     4  11  24  39  54  79 113 151 189 229 273 325
#     4   9  20  37  59  85 110 142 182 229 279 336
#     4  11  20  32  54  87 111 150 188 233 267 322
#     4   9  18  34  58  86 112 140 180 230 284 329
#
# _framework density 17.519013999999999
#
# number of rings (size 3 to 8) (size 9 to 14) (size 15 to 20)
#    0.000    1.889    3.333    0.667    3.111    1.778 
#    0.000   12.222    0.000    0.000    0.000    6.222 
#    0.000    0.000    0.000    0.000    0.000    0.000 
#
# Total GULP energy -200894.024931 kJ/mol
# GULP energy per Si atom -5580.389581 kJ/mol
# Density = 1.747914 g / cm^3
# Si number density = 17.519014 Si / 1000 Ang^3
#
#
#
# Elastic Constant Matrix: (Units=GPa)
#
#
# Indices 1 2 3 4 5 6 
#
# 1 107.2724 40.9155 41.4162 0.0000 0.0000 -0.3780
# 2 40.9155 107.2724 41.4162 0.0000 0.0000 0.3780
# 3 41.4162 41.4162 96.4192 0.0000 0.0000 0.0000
# 4 0.0000 0.0000 0.0000 -9.8442 0.0000 0.0000
# 5 0.0000 0.0000 0.0000 0.0000 -9.8442 0.0000
# 6 -0.3780 0.3780 0.0000 0.0000 0.0000 10.0274
#
#
#
# Elastic Compliance Matrix: (Units=1/GPa)
#
#
# Indices 1 2 3 4 5 6 
#
# 1 0.011978 -0.003098 -0.003815 0.000000 0.000000 0.000568
# 2 -0.003098 0.011978 -0.003815 0.000000 0.000000 -0.000568
# 3 -0.003815 -0.003815 0.013648 0.000000 0.000000 0.000000
# 4 0.000000 0.000000 0.000000 -0.101583 0.000000 0.000000
# 5 0.000000 0.000000 0.000000 0.000000 -0.101583 0.000000
# 6 0.000568 -0.000568 0.000000 0.000000 0.000000 0.099769
#
#
# Mechanical properties :
#
#
# Convention : Reuss Voigt Hill
#
# Bulk Modulus (GPa) = 61.91530 62.05112 61.98321
# Shear Modulus (GPa) = -128.35721 10.54890 -58.90415
#
# Velocity S-wave (km/s) = -8.56892 2.45652 -5.80482
# Velocity P-wave (km/s) = 7.90464 6.59865 3.07744
#
# Compressibility (1/GPa) = 0.01615110
#
# Stress axis : x y z
#
# Youngs Moduli (GPa) = 83.48336 83.48336 73.26881
#
# Poissons Ratio (x) = 0.25864 0.27948
# Poissons Ratio (y) = 0.25864 0.27948
# Poissons Ratio (z) = 0.31845 0.31845
#
# Static dielectric constant tensor:
#      x y z
#    x 1.586650 0.000000 0.000000 
#    y 0.000000 1.586650 0.000000 
#    z 0.000000 0.000000 1.585030 
# 
# From -- ./inp_files/535.got.cif
#   From: 2010.05.17/outbox.cif.g08.bks.cpg/sg83_1_cif.got.tgz:535.got - 2010.06.03 18:55:12.
