data_PCOD9543043
_publ_section_title
;
Structure prediction by ZEFSAII (Michael W. Deem and Ramdas Pophale) SiO2 
 PCOD9543043
Probable space group: I -4 
;
_chemical_formula_sum "Si O2"
_cell_formula_units_Z 36
_cell_length_a 13.532120
_cell_length_b 13.532120
_cell_length_c 7.270906
_cell_angle_alpha 90.000000
_cell_angle_beta 90.000000
_cell_angle_gamma 90.000000
_cell_volume 1331.435740
_symmetry_space_group_name_H-M "I -4 "
_symmetry_group_IT_number 82
_symmetry_cell_setting 'tetragonal'
loop_
_space_group_symop_operation_xyz
x,y,z
y,-x,-z
-x,-y,z
-y,x,-z
1/2+x,1/2+y,1/2+z
1/2+y,1/2-x,1/2-z
1/2-x,1/2-y,1/2+z
1/2-y,1/2+x,1/2-z
loop_
_atom_site_type_symbol
_atom_site_label
_atom_site_fract_x
_atom_site_fract_y
_atom_site_fract_z
Si Si1 0.142981 0.119467 0.229946
Si Si2 0.444529 0.851749 0.704867
Si Si3 0.000000 0.500000 0.750000
Si Si4 0.500000 0.500000 0.500000
Si Si5 0.202771 0.535293 0.692410
Si Si6 0.295028 0.764095 0.986802
O O1 0.198103 0.015120 0.261241
O O2 0.159228 0.182080 0.417186
O O3 0.204560 0.188847 0.090744
O O4 0.041592 0.088205 0.130406
O O5 0.547721 0.881573 0.798931
O O6 0.482432 0.818803 0.504819
O O7 0.377093 0.780251 0.828227
O O8 0.111276 0.507884 0.823681
O O9 0.198442 0.650379 0.644563
#
# Coordination Sequence:
#
# PCOD9543043 Si02
#       6
#     8   8   2   2   8   8
#     4  12  25  46  74 107 150 206 268 315 410 477
#     4   9  19  36  63 103 145 185 230 314 392 451
#     4  12  20  36  70 120 140 176 242 328 388 454
#     4  12  28  52  80 110 168 224 254 340 412 482
#     4  11  21  37  68 101 143 183 242 313 387 456
#     4  11  23  42  72 104 143 201 261 317 378 489
#
# _framework density 27.03848
#
# number of rings (size 3 to 8) (size 9 to 14) (size 15 to 20)
#    0.000    1.111    4.444    4.000    0.000    0.000 
#    0.000    0.000    0.000    5.333    0.000    0.000 
#    0.000    0.000    0.000    0.000    0.000    0.000 
#
# Total GULP energy -100463.142668 kJ/mol
# GULP energy per Si atom -5581.285704 kJ/mol
# Density = 2.697694 g / cm^3
# Si number density = 27.038480 Si / 1000 Ang^3
#
#
#
# Elastic Constant Matrix: (Units=GPa)
#
#
# Indices 1 2 3 4 5 6 
#
# 1 88.7663 36.7105 33.0645 0.0000 0.0000 1.7321
# 2 36.7105 88.7663 33.0645 0.0000 0.0000 -1.7321
# 3 33.0645 33.0645 100.9705 0.0000 0.0000 0.0000
# 4 0.0000 0.0000 0.0000 37.2181 0.0000 0.0000
# 5 0.0000 0.0000 0.0000 0.0000 37.2181 0.0000
# 6 1.7321 -1.7321 0.0000 0.0000 0.0000 30.8686
#
#
#
# Elastic Compliance Matrix: (Units=1/GPa)
#
#
# Indices 1 2 3 4 5 6 
#
# 1 0.014457 -0.004825 -0.003154 0.000000 0.000000 -0.001082
# 2 -0.004825 0.014457 -0.003154 0.000000 0.000000 0.001082
# 3 -0.003154 -0.003154 0.011970 0.000000 0.000000 0.000000
# 4 0.000000 0.000000 0.000000 0.026869 0.000000 0.000000
# 5 0.000000 0.000000 0.000000 0.000000 0.026869 0.000000
# 6 -0.001082 0.001082 0.000000 0.000000 0.000000 0.032517
#
#
# Mechanical properties :
#
#
# Convention : Reuss Voigt Hill
#
# Bulk Modulus (GPa) = 53.71460 53.79800 53.75630
# Shear Modulus (GPa) = 32.13156 32.77185 32.45170
#
# Velocity S-wave (km/s) = 3.45101 3.48522 3.46816
# Velocity P-wave (km/s) = 5.98234 6.01130 5.99684
#
# Compressibility (1/GPa) = 0.01861691
#
# Stress axis : x y z
#
# Youngs Moduli (GPa) = 69.17048 69.17048 83.54476
#
# Poissons Ratio (x) = 0.33376 0.26351
# Poissons Ratio (y) = 0.33376 0.26351
# Poissons Ratio (z) = 0.21817 0.21817
#
# Static dielectric constant tensor:
#      x y z
#    x 2.107010 0.000000 0.000000 
#    y 0.000000 2.107010 0.000000 
#    z 0.000000 0.000000 2.214140 
# 
# From -- ./inp_files/899.got.cif
#   From: 2010.05.17/outbox.cif.g08.bks.cpg/sg82_1_cif.got.tgz:899.got - 2010.06.03 18:52:26.
