data_PCOD9543569
_publ_section_title
;
Structure prediction by ZEFSAII (Michael W. Deem and Ramdas Pophale) SiO2 
 PCOD9543569
Probable space group: P 4/M
;
_chemical_formula_sum "Si O2"
_cell_formula_units_Z 38
_cell_length_a 8.534336
_cell_length_b 8.534336
_cell_length_c 24.714141
_cell_angle_alpha 90.000000
_cell_angle_beta 90.000000
_cell_angle_gamma 90.000000
_cell_volume 1800.051765
_symmetry_space_group_name_H-M "P 4/M"
_symmetry_group_IT_number 83
_symmetry_cell_setting 'tetragonal'
loop_
_space_group_symop_operation_xyz
x,y,z
-y,x,z
-x,-y,z
y,-x,z
-x,-y,-z
y,-x,-z
x,y,-z
-y,x,-z
loop_
_atom_site_type_symbol
_atom_site_label
_atom_site_fract_x
_atom_site_fract_y
_atom_site_fract_z
Si Si1 0.724039 0.361741 0.891317
Si Si2 0.931744 0.742334 0.500000
Si Si3 0.500000 0.000000 0.590075
Si Si4 0.000000 0.000000 0.765356
Si Si5 0.254169 0.582788 0.671167
Si Si6 0.867129 0.226909 0.000000
Si Si7 0.092770 0.659540 0.783417
O O1 0.707393 0.549193 0.890369
O O2 0.814167 0.303697 0.838347
O O3 0.810587 0.312478 0.945995
O O4 0.915172 0.626243 0.551252
O O5 0.109162 0.814810 0.500000
O O6 0.400089 0.114161 0.628732
O O7 0.013995 0.192967 0.767132
O O8 0.309102 0.404197 0.662880
O O9 0.197928 0.614364 0.731885
O O10 0.053443 0.206790 0.000000
O O11 0.000000 0.500000 0.795464
#
# Coordination Sequence:
#
# PCOD9543569 Si02
#       7
#     8   4   4   2   8   4   8
#     4  11  25  45  70  99 134 182 232 293 366 441
#     4  10  22  42  64  96 138 186 240 305 362 426
#     4  11  22  40  68  98 136 187 244 296 368 439
#     4  12  28  44  76 105 148 201 256 296 368 458
#     4  11  23  42  66 100 143 185 234 299 369 442
#     4  11  28  45  68  98 133 172 230 301 360 434
#     4  12  26  46  70 108 145 187 238 301 363 445
#
# _framework density 21.110503000000001
#
# number of rings (size 3 to 8) (size 9 to 14) (size 15 to 20)
#    0.000    0.842    1.053    5.684    5.895    3.368 
#    0.000    0.000    0.000    5.053    0.000    0.000 
#    0.000    0.000    0.000    0.000    0.000    0.000 
#
# Total GULP energy -212110.695427 kJ/mol
# GULP energy per Si atom -5581.860406 kJ/mol
# Density = 2.106246 g / cm^3
# Si number density = 21.110503 Si / 1000 Ang^3
#
#
#
# Elastic Constant Matrix: (Units=GPa)
#
#
# Indices 1 2 3 4 5 6 
#
# 1 42.9008 -1.6324 -2.2813 0.0000 0.0000 -17.0480
# 2 -1.6324 42.9008 -2.2813 0.0000 0.0000 17.0480
# 3 -2.2813 -2.2813 115.5153 0.0000 0.0000 0.0000
# 4 0.0000 0.0000 0.0000 12.9406 0.0000 0.0000
# 5 0.0000 0.0000 0.0000 0.0000 12.9406 0.0000
# 6 -17.0480 17.0480 0.0000 0.0000 0.0000 13.5801
#
#
#
# Elastic Compliance Matrix: (Units=1/GPa)
#
#
# Indices 1 2 3 4 5 6 
#
# 1 0.301100 -0.276816 0.000480 0.000000 0.000000 0.725496
# 2 -0.276816 0.301100 0.000480 0.000000 0.000000 -0.725496
# 3 0.000480 0.000480 0.008676 0.000000 0.000000 0.000000
# 4 0.000000 0.000000 0.000000 0.077276 0.000000 0.000000
# 5 0.000000 0.000000 0.000000 0.000000 0.077276 0.000000
# 6 0.725496 -0.725496 0.000000 0.000000 0.000000 1.895162
#
#
# Mechanical properties :
#
#
# Convention : Reuss Voigt Hill
#
# Bulk Modulus (GPa) = 16.90231 20.99187 18.94709
# Shear Modulus (GPa) = 1.54702 21.72636 11.63669
#
# Velocity S-wave (km/s) = 0.85698 3.21155 2.35037
# Velocity P-wave (km/s) = 3.00053 4.87006 4.04479
#
# Compressibility (1/GPa) = 0.05916352
#
# Stress axis : x y z
#
# Youngs Moduli (GPa) = 3.32115 3.32115 115.26313
#
# Poissons Ratio (x) = 0.91935 -0.05528
# Poissons Ratio (y) = 0.91935 -0.05528
# Poissons Ratio (z) = -0.00159 -0.00159
#
# Static dielectric constant tensor:
#      x y z
#    x 1.760890 0.000000 0.000000 
#    y 0.000000 1.760890 0.000000 
#    z 0.000000 0.000000 1.754320 
# 
# From -- ./inp_files/3142.got.cif
#   From: 2010.05.17/outbox.cif.g08.bks.cpg/sg83_2_cif.got.tgz:3142.got - 2010.06.03 18:55:12.
