data_PCOD9543676
_publ_section_title
;
Structure prediction by ZEFSAII (Michael W. Deem and Ramdas Pophale) SiO2 
 PCOD9543676
Probable space group: P 4/M
;
_chemical_formula_sum "Si O2"
_cell_formula_units_Z 34
_cell_length_a 8.768466
_cell_length_b 8.768466
_cell_length_c 21.239885
_cell_angle_alpha 90.000000
_cell_angle_beta 90.000000
_cell_angle_gamma 90.000000
_cell_volume 1633.049713
_symmetry_space_group_name_H-M "P 4/M"
_symmetry_group_IT_number 83
_symmetry_cell_setting 'tetragonal'
loop_
_space_group_symop_operation_xyz
x,y,z
-y,x,z
-x,-y,z
y,-x,z
-x,-y,-z
y,-x,-z
x,y,-z
-y,x,-z
loop_
_atom_site_type_symbol
_atom_site_label
_atom_site_fract_x
_atom_site_fract_y
_atom_site_fract_z
Si Si1 0.904282 0.238515 0.000000
Si Si2 0.734568 0.393248 0.888460
Si Si3 0.922123 0.333635 0.377196
Si Si4 0.000000 0.000000 0.380306
Si Si5 0.277426 0.624447 0.500000
Si Si6 0.269807 0.613041 0.255042
O O1 0.854114 0.333793 0.938945
O O2 0.080587 0.191538 0.000000
O O3 0.693959 0.572100 0.896610
O O4 0.785814 0.364924 0.816567
O O5 0.811704 0.331403 0.437386
O O6 0.840104 0.332689 0.309453
O O7 0.000000 0.500000 0.380954
O O8 0.029312 0.185846 0.380663
O O9 0.300266 0.442946 0.500000
O O10 0.304112 0.432925 0.261806
#
# Coordination Sequence:
#
# PCOD9543676 Si02
#       6
#     4   8   8   2   4   8
#     4  11  24  41  54  86 128 167 200 257 330 394
#     4   9  19  38  65  91 117 158 214 265 316 388
#     4  12  25  44  65  98 142 183 229 284 345 412
#     4  12  28  45  68 104 132 181 236 286 348 405
#     4  11  23  41  70 102 135 185 238 287 346 408
#     4   9  18  38  65  92 126 170 219 275 335 401
#
# _framework density 20.819942999999999
#
# number of rings (size 3 to 8) (size 9 to 14) (size 15 to 20)
#    0.000    1.647    0.000    6.706    0.000    6.118 
#   12.706    0.000    0.000    0.000    0.000    0.000 
#    0.000    0.000    0.000    0.000    0.000    0.000 
#
# Total GULP energy -189645.260528 kJ/mol
# GULP energy per Si atom -5577.801780 kJ/mol
# Density = 2.077256 g / cm^3
# Si number density = 20.819943 Si / 1000 Ang^3
#
#
#
# Elastic Constant Matrix: (Units=GPa)
#
#
# Indices 1 2 3 4 5 6 
#
# 1 66.2083 42.5412 49.9982 0.0000 0.0000 -16.4099
# 2 42.5412 66.2083 49.9982 0.0000 0.0000 16.4099
# 3 49.9982 49.9982 127.3581 0.0000 0.0000 0.0000
# 4 0.0000 0.0000 0.0000 23.3623 0.0000 0.0000
# 5 0.0000 0.0000 0.0000 0.0000 23.3623 0.0000
# 6 -16.4099 16.4099 0.0000 0.0000 0.0000 15.8060
#
#
#
# Elastic Compliance Matrix: (Units=1/GPa)
#
#
# Indices 1 2 3 4 5 6 
#
# 1 -0.040851 0.055241 -0.005649 0.000000 0.000000 -0.099763
# 2 0.055241 -0.040851 -0.005649 0.000000 0.000000 0.099763
# 3 -0.005649 -0.005649 0.012287 0.000000 0.000000 0.000000
# 4 0.000000 0.000000 0.000000 0.042804 0.000000 0.000000
# 5 0.000000 0.000000 0.000000 0.000000 0.042804 0.000000
# 6 -0.099763 0.099763 0.000000 0.000000 0.000000 -0.143882
#
#
# Mechanical properties :
#
#
# Convention : Reuss Voigt Hill
#
# Bulk Modulus (GPa) = 54.14042 60.53888 57.33965
# Shear Modulus (GPa) = -23.87599 20.32193 -1.77703
#
# Velocity S-wave (km/s) = -3.39009 3.12762 -0.92486
# Velocity P-wave (km/s) = 3.27672 6.49485 5.14393
#
# Compressibility (1/GPa) = 0.01847049
#
# Stress axis : x y z
#
# Youngs Moduli (GPa) = -24.47947 -24.47947 81.38417
#
# Poissons Ratio (x) = 1.35226 0.45976
# Poissons Ratio (y) = 1.35226 0.45976
# Poissons Ratio (z) = -0.13829 -0.13829
#
# Static dielectric constant tensor:
#      x y z
#    x 1.744410 0.000000 0.000000 
#    y 0.000000 1.744410 0.000000 
#    z 0.000000 0.000000 1.705060 
# 
# From -- ./inp_files/2862.got.cif
#   From: 2010.05.17/outbox.cif.g08.bks.cpg/sg83_2_cif.got.tgz:2862.got - 2010.06.03 18:55:12.
