data_PCOD9543590
_publ_section_title
;
Structure prediction by ZEFSAII (Michael W. Deem and Ramdas Pophale) SiO2 
 PCOD9543590
Probable space group: P 4/M
;
_chemical_formula_sum "Si O2"
_cell_formula_units_Z 32
_cell_length_a 12.609915
_cell_length_b 12.609915
_cell_length_c 10.481774
_cell_angle_alpha 90.000000
_cell_angle_beta 90.000000
_cell_angle_gamma 90.000000
_cell_volume 1666.706426
_symmetry_space_group_name_H-M "P 4/M"
_symmetry_group_IT_number 83
_symmetry_cell_setting 'tetragonal'
loop_
_space_group_symop_operation_xyz
x,y,z
-y,x,z
-x,-y,z
y,-x,z
-x,-y,-z
y,-x,-z
x,y,-z
-y,x,-z
loop_
_atom_site_type_symbol
_atom_site_label
_atom_site_fract_x
_atom_site_fract_y
_atom_site_fract_z
Si Si1 0.085211 0.844615 0.000000
Si Si2 0.863615 0.309826 0.770554
Si Si3 0.303914 0.229807 0.500000
Si Si4 0.575570 0.649777 0.846291
Si Si5 0.500000 0.000000 0.706115
Si Si6 0.453664 0.820186 0.500000
O O1 0.117555 0.781125 0.126952
O O2 0.959260 0.861102 0.000000
O O3 0.840709 0.275545 0.624700
O O4 0.755729 0.369897 0.805172
O O5 0.956628 0.397387 0.779122
O O6 0.247186 0.345019 0.500000
O O7 0.433222 0.241913 0.500000
O O8 0.454636 0.637913 0.801274
O O9 0.573770 0.646702 0.000000
O O10 0.538686 0.098752 0.619457
#
# Coordination Sequence:
#
# PCOD9543590 Si02
#       6
#     4   8   4   8   4   4
#     4  11  28  49  66  93 128 159 220 295 326 364
#     4  11  23  43  65  97 124 175 213 259 331 377
#     4  10  24  37  66  96 133 178 205 259 321 398
#     4   9  19  36  58  90 133 169 206 255 316 399
#     4   9  22  39  64  92 130 164 218 272 294 388
#     4   9  20  43  58  95 136 164 218 262 315 373
#
# _framework density 19.199542000000001
#
# number of rings (size 3 to 8) (size 9 to 14) (size 15 to 20)
#    0.000    2.125    1.250    1.500   10.500    0.750 
#    0.000    0.000    0.000    1.500    0.000    0.000 
#    0.000    0.000    0.000    0.000    0.000    0.000 
#
# Total GULP energy -178605.887473 kJ/mol
# GULP energy per Si atom -5581.433984 kJ/mol
# Density = 1.915584 g / cm^3
# Si number density = 19.199542 Si / 1000 Ang^3
#
#
#
# Elastic Constant Matrix: (Units=GPa)
#
#
# Indices 1 2 3 4 5 6 
#
# 1 100.5324 89.2222 43.2969 0.0000 0.0000 5.9971
# 2 89.2222 100.5324 43.2969 0.0000 0.0000 -5.9971
# 3 43.2969 43.2969 94.8320 0.0000 0.0000 0.0000
# 4 0.0000 0.0000 0.0000 -797.9533 0.0000 0.0000
# 5 0.0000 0.0000 0.0000 0.0000 -797.9533 0.0000
# 6 5.9971 -5.9971 0.0000 0.0000 0.0000 13.1908
#
#
#
# Elastic Compliance Matrix: (Units=1/GPa)
#
#
# Indices 1 2 3 4 5 6 
#
# 1 0.088693 -0.082036 -0.003039 0.000000 0.000000 -0.077620
# 2 -0.082036 0.088693 -0.003039 0.000000 0.000000 0.077620
# 3 -0.003039 -0.003039 0.013320 0.000000 0.000000 0.000000
# 4 0.000000 0.000000 0.000000 -0.001253 0.000000 0.000000
# 5 0.000000 0.000000 0.000000 0.000000 -0.001253 0.000000
# 6 -0.077620 0.077620 0.000000 0.000000 0.000000 0.146389
#
#
# Mechanical properties :
#
#
# Convention : Reuss Voigt Hill
#
# Bulk Modulus (GPa) = 69.07576 71.94764 70.51170
# Shear Modulus (GPa) = 9.69660 -308.53777 -149.42058
#
# Velocity S-wave (km/s) = 2.24976 -12.69053 -8.83142
# Velocity P-wave (km/s) = 6.54251 13.31081 8.19674
#
# Compressibility (1/GPa) = 0.01447686
#
# Stress axis : x y z
#
# Youngs Moduli (GPa) = 11.27484 11.27484 75.07359
#
# Poissons Ratio (x) = 0.92494 0.22817
# Poissons Ratio (y) = 0.92494 0.22817
# Poissons Ratio (z) = 0.03427 0.03427
#
# Static dielectric constant tensor:
#      x y z
#    x 1.651930 0.000000 0.000000 
#    y 0.000000 1.651930 0.000000 
#    z 0.000000 0.000000 1.728210 
# 
# From -- ./inp_files/1594.got.cif
#   From: 2010.05.17/outbox.cif.g08.bks.cpg/sg83_1_cif.got.tgz:1594.got - 2010.06.03 18:55:12.
