data_PCOD9543789
_publ_section_title
;
Structure prediction by ZEFSAII (Michael W. Deem and Ramdas Pophale) SiO2 
 PCOD9543789
Probable space group: P 4/M
;
_chemical_formula_sum "Si O2"
_cell_formula_units_Z 22
_cell_length_a 8.246746
_cell_length_b 8.246746
_cell_length_c 14.579150
_cell_angle_alpha 90.000000
_cell_angle_beta 90.000000
_cell_angle_gamma 90.000000
_cell_volume 991.510782
_symmetry_space_group_name_H-M "P 4/M"
_symmetry_group_IT_number 83
_symmetry_cell_setting 'tetragonal'
loop_
_space_group_symop_operation_xyz
x,y,z
-y,x,z
-x,-y,z
y,-x,z
-x,-y,-z
y,-x,-z
x,y,-z
-y,x,-z
loop_
_atom_site_type_symbol
_atom_site_label
_atom_site_fract_x
_atom_site_fract_y
_atom_site_fract_z
Si Si1 0.500000 0.500000 0.500000
Si Si2 0.190901 0.691447 0.500000
Si Si3 0.000000 0.000000 0.500000
Si Si4 0.500000 0.000000 0.347278
Si Si5 0.239680 0.410194 0.799725
Si Si6 0.407531 0.758664 0.000000
O O1 0.382498 0.659193 0.500000
O O2 0.113112 0.610605 0.409928
O O3 0.159974 0.882736 0.500000
O O4 0.390420 0.887940 0.280838
O O5 0.402940 0.303225 0.793039
O O6 0.163146 0.380186 0.900787
O O7 0.302307 0.593566 0.000000
#
# Coordination Sequence:
#
# PCOD9543789 Si02
#       6
#     1   4   1   4   8   4
#     4  12  28  56  76 100 124 202 236 276 324 432
#     4  11  28  45  72  94 142 172 228 278 346 406
#     4  12  28  56  68 108 140 186 204 300 364 392
#     4  11  24  39  58 102 124 183 224 283 340 416
#     4   9  19  34  59  86 126 171 226 280 340 411
#     4   7  12  29  52  84 118 166 220 280 332 396
#
# _framework density 22.188362000000001
#
# number of rings (size 3 to 8) (size 9 to 14) (size 15 to 20)
#    0.000    2.364    0.000    4.364   10.182    0.727 
#    0.000    0.000    0.000    0.000    0.000    0.000 
#    0.000   11.636    0.000    0.000    0.000    0.000 
#
# Total GULP energy -122471.364217 kJ/mol
# GULP energy per Si atom -5566.880192 kJ/mol
# Density = 2.213786 g / cm^3
# Si number density = 22.188362 Si / 1000 Ang^3
#
#
#
# Elastic Constant Matrix: (Units=GPa)
#
#
# Indices 1 2 3 4 5 6 
#
# 1 72.1997 8.9676 24.7695 0.0000 0.0000 -1.8743
# 2 8.9676 72.1997 24.7695 0.0000 0.0000 1.8743
# 3 24.7695 24.7695 169.4228 0.0000 0.0000 0.0000
# 4 0.0000 0.0000 0.0000 -96.7613 0.0000 0.0000
# 5 0.0000 0.0000 0.0000 0.0000 -96.7613 0.0000
# 6 -1.8743 1.8743 0.0000 0.0000 0.0000 35.2279
#
#
#
# Elastic Compliance Matrix: (Units=1/GPa)
#
#
# Indices 1 2 3 4 5 6 
#
# 1 0.014696 -0.001169 -0.001978 0.000000 0.000000 0.000844
# 2 -0.001169 0.014696 -0.001978 0.000000 0.000000 -0.000844
# 3 -0.001978 -0.001978 0.006481 0.000000 0.000000 0.000000
# 4 0.000000 0.000000 0.000000 -0.010335 0.000000 0.000000
# 5 0.000000 0.000000 0.000000 0.000000 -0.010335 0.000000
# 6 0.000844 -0.000844 0.000000 0.000000 0.000000 0.028476
#
#
# Mechanical properties :
#
#
# Convention : Reuss Voigt Hill
#
# Bulk Modulus (GPa) = 39.02514 47.87058 43.44786
# Shear Modulus (GPa) = 80.03908 -14.63791 32.70059
#
# Velocity S-wave (km/s) = 6.01256 -2.57127 3.84314
# Velocity P-wave (km/s) = 8.11341 3.57858 6.27031
#
# Compressibility (1/GPa) = 0.02562451
#
# Stress axis : x y z
#
# Youngs Moduli (GPa) = 68.04558 68.04558 154.30517
#
# Poissons Ratio (x) = 0.07953 0.30517
# Poissons Ratio (y) = 0.07953 0.30517
# Poissons Ratio (z) = 0.13457 0.13457
#
# Static dielectric constant tensor:
#      x y z
#    x 1.792680 0.000000 0.000000 
#    y 0.000000 1.792680 0.000000 
#    z 0.000000 0.000000 1.893540 
# 
# From -- ./inp_files/2171.got.cif
#   From: 2010.05.17/outbox.cif.g08.bks.cpg/sg83_2_cif.got.tgz:2171.got - 2010.06.03 18:55:12.
