data_PCOD9543939
_publ_section_title
;
Structure prediction by ZEFSAII (Michael W. Deem and Ramdas Pophale) SiO2 
 PCOD9543939
Probable space group: P 42/M
;
_chemical_formula_sum "Si O2"
_cell_formula_units_Z 28
_cell_length_a 9.274100
_cell_length_b 9.274100
_cell_length_c 19.053028
_cell_angle_alpha 90.000000
_cell_angle_beta 90.000000
_cell_angle_gamma 90.000000
_cell_volume 1638.730567
_symmetry_space_group_name_H-M "P 42/M"
_symmetry_group_IT_number 84
_symmetry_cell_setting 'tetragonal'
loop_
_space_group_symop_operation_xyz
x,y,z
-y,x,1/2+z
-x,-y,z
y,-x,1/2+z
-x,-y,-z
y,-x,1/2-z
x,y,-z
-y,x,1/2-z
loop_
_atom_site_type_symbol
_atom_site_label
_atom_site_fract_x
_atom_site_fract_y
_atom_site_fract_z
Si Si1 0.000000 0.000000 0.250000
Si Si2 0.500000 0.500000 0.750000
Si Si3 0.946332 0.734988 0.155036
Si Si4 0.013932 0.171015 0.000000
Si Si5 0.430300 0.166184 0.500000
Si Si6 0.769285 0.455219 0.844553
O O1 0.875967 0.065542 0.298517
O O2 0.625506 0.436386 0.800006
O O3 0.841668 0.606559 0.177426
O O4 0.107996 0.668286 0.162293
O O5 0.917907 0.777786 0.073683
O O6 0.863390 0.258761 0.000000
O O7 0.000000 0.000000 0.000000
O O8 0.468971 0.247121 0.428859
O O9 0.500000 0.000000 0.500000
#
# Coordination Sequence:
#
# PCOD9543939 Si02
#       6
#     2   2   8   4   4   8
#     4  12  20  26  48  84 104 134 168 224 264 322
#     4  12  24  34  52  80 120 138 172 232 268 314
#     4  10  19  33  53  75 105 136 180 212 265 316
#     4  10  16  30  52  82 100 124 172 236 252 294
#     4  10  16  35  62  73  97 143 187 219 252 321
#     4  10  20  37  53  76 104 148 178 218 263 316
#
# _framework density 17.086397999999999
#
# number of rings (size 3 to 8) (size 9 to 14) (size 15 to 20)
#    0.000    1.714    7.143    1.714    0.000    0.571 
#    0.000    0.000    0.000    0.000    0.000    4.000 
#    0.000    0.000    0.000    0.000    0.000    0.000 
#
# Total GULP energy -155897.963821 kJ/mol
# GULP energy per Si atom -5567.784422 kJ/mol
# Density = 1.704751 g / cm^3
# Si number density = 17.086398 Si / 1000 Ang^3
#
#
#
# Elastic Constant Matrix: (Units=GPa)
#
#
# Indices 1 2 3 4 5 6 
#
# 1 57.1926 -4.8208 18.9531 0.0000 0.0000 1.6077
# 2 -4.8208 57.1926 18.9531 0.0000 0.0000 -1.6077
# 3 18.9531 18.9531 103.7261 0.0000 0.0000 0.0000
# 4 0.0000 0.0000 0.0000 17.4981 0.0000 0.0000
# 5 0.0000 0.0000 0.0000 0.0000 17.4981 0.0000
# 6 1.6077 -1.6077 0.0000 0.0000 0.0000 8.4807
#
#
#
# Elastic Compliance Matrix: (Units=1/GPa)
#
#
# Indices 1 2 3 4 5 6 
#
# 1 0.019145 0.002859 -0.004021 0.000000 0.000000 -0.003087
# 2 0.002859 0.019145 -0.004021 0.000000 0.000000 0.003087
# 3 -0.004021 -0.004021 0.011110 0.000000 0.000000 0.000000
# 4 0.000000 0.000000 0.000000 0.057149 0.000000 0.000000
# 5 0.000000 0.000000 0.000000 0.000000 0.057149 0.000000
# 6 -0.003087 0.003087 0.000000 0.000000 0.000000 0.119086
#
#
# Mechanical properties :
#
#
# Convention : Reuss Voigt Hill
#
# Bulk Modulus (GPa) = 25.61733 31.58691 28.60212
# Shear Modulus (GPa) = 16.33133 21.03043 18.68088
#
# Velocity S-wave (km/s) = 3.09497 3.51212 3.31012
# Velocity P-wave (km/s) = 5.27230 5.91383 5.60226
#
# Compressibility (1/GPa) = 0.03903607
#
# Stress axis : x y z
#
# Youngs Moduli (GPa) = 52.23297 52.23297 90.00798
#
# Poissons Ratio (x) = -0.14935 0.36190
# Poissons Ratio (y) = -0.14935 0.36190
# Poissons Ratio (z) = 0.21001 0.21001
#
# Static dielectric constant tensor:
#      x y z
#    x 1.577020 0.000000 0.000000 
#    y 0.000000 1.577020 0.000000 
#    z 0.000000 0.000000 1.609750 
# 
# From -- ./inp_files/4070.got.cif
#   From: 2010.05.17/outbox.cif.g08.bks.cpg/sg84_3_cif.got.tgz:4070.got - 2010.06.03 18:57:40.
