data_PCOD9543559
_publ_section_title
;
Structure prediction by ZEFSAII (Michael W. Deem and Ramdas Pophale) SiO2 
 PCOD9543559
Probable space group: P 4/M
;
_chemical_formula_sum "Si O2"
_cell_formula_units_Z 48
_cell_length_a 7.849435
_cell_length_b 7.849435
_cell_length_c 34.245817
_cell_angle_alpha 90.000000
_cell_angle_beta 90.000000
_cell_angle_gamma 90.000000
_cell_volume 2110.009091
_symmetry_space_group_name_H-M "P 4/M"
_symmetry_group_IT_number 83
_symmetry_cell_setting 'tetragonal'
loop_
_space_group_symop_operation_xyz
x,y,z
-y,x,z
-x,-y,z
y,-x,z
-x,-y,-z
y,-x,-z
x,y,-z
-y,x,-z
loop_
_atom_site_type_symbol
_atom_site_label
_atom_site_fract_x
_atom_site_fract_y
_atom_site_fract_z
Si Si1 0.768651 0.604378 0.209474
Si Si2 0.270096 0.097591 0.500000
Si Si3 0.769090 0.590787 0.631894
Si Si4 0.386440 0.766875 0.874729
Si Si5 0.383130 0.765918 0.041778
Si Si6 0.908476 0.730875 0.289380
Si Si7 0.500000 0.000000 0.433336
O O1 0.592249 0.710804 0.210900
O O2 0.852092 0.644896 0.167216
O O3 0.874449 0.648375 0.247493
O O4 0.387841 0.117476 0.461937
O O5 0.100866 0.209950 0.500000
O O6 0.603415 0.707466 0.629105
O O7 0.854163 0.619977 0.673739
O O8 0.894861 0.620220 0.595895
O O9 0.286943 0.585954 0.874711
O O10 0.347229 0.853188 0.916453
O O11 0.285786 0.583502 0.041780
O O12 0.345413 0.852312 0.000000
O O13 0.101116 0.791979 0.291893
#
# Coordination Sequence:
#
# PCOD9543559 Si02
#       7
#     8   4   8   8   8   8   4
#     4   9  17  30  49  72  98 131 171 214 263 322
#     4  10  22  40  64  94 128 166 202 235 276 322
#     4  11  23  39  61  88 117 151 191 233 278 327
#     4   7  10  17  30  51  81 116 154 196 243 301
#     4   7   8  10  19  39  71 111 149 184 230 293
#     4  11  24  39  54  75 105 140 179 227 282 335
#     4  11  22  40  64  92 126 160 198 240 277 316
#
# _framework density 22.748715000000001
#
# number of rings (size 3 to 8) (size 9 to 14) (size 15 to 20)
#    0.000    2.750    0.000    5.500    0.000    3.333 
#    0.000    1.667    0.000    4.000    0.000    0.000 
#    0.000    1.333    0.000   14.833    0.000   13.333 
#
# Total GULP energy -268159.542369 kJ/mol
# GULP energy per Si atom -5586.657133 kJ/mol
# Density = 2.269694 g / cm^3
# Si number density = 22.748715 Si / 1000 Ang^3
#
#
#
# Elastic Constant Matrix: (Units=GPa)
#
#
# Indices 1 2 3 4 5 6 
#
# 1 47.0522 12.3117 36.4152 0.0000 0.0000 -7.2543
# 2 12.3117 47.0522 36.4152 0.0000 0.0000 7.2543
# 3 36.4152 36.4152 244.2858 0.0000 0.0000 0.0000
# 4 0.0000 0.0000 0.0000 -48.2686 0.0000 0.0000
# 5 0.0000 0.0000 0.0000 0.0000 -48.2686 0.0000
# 6 -7.2543 7.2543 0.0000 0.0000 0.0000 21.4626
#
#
#
# Elastic Compliance Matrix: (Units=1/GPa)
#
#
# Indices 1 2 3 4 5 6 
#
# 1 0.027066 -0.006450 -0.003073 0.000000 0.000000 0.011328
# 2 -0.006450 0.027066 -0.003073 0.000000 0.000000 -0.011328
# 3 -0.003073 -0.003073 0.005010 0.000000 0.000000 0.000000
# 4 0.000000 0.000000 0.000000 -0.020717 0.000000 0.000000
# 5 0.000000 0.000000 0.000000 0.000000 -0.020717 0.000000
# 6 0.011328 -0.011328 0.000000 0.000000 0.000000 0.054250
#
#
# Mechanical properties :
#
#
# Convention : Reuss Voigt Hill
#
# Bulk Modulus (GPa) = 29.45657 56.51937 42.98797
# Shear Modulus (GPa) = 46.09754 1.86828 23.98291
#
# Velocity S-wave (km/s) = 4.50642 0.90722 3.25045
# Velocity P-wave (km/s) = 6.32881 5.09867 5.74675
#
# Compressibility (1/GPa) = 0.03394829
#
# Stress axis : x y z
#
# Youngs Moduli (GPa) = 36.94720 36.94720 199.61006
#
# Poissons Ratio (x) = 0.23832 0.61342
# Poissons Ratio (y) = 0.23832 0.61342
# Poissons Ratio (z) = 0.11354 0.11354
#
# Static dielectric constant tensor:
#      x y z
#    x 1.860780 0.000000 0.000000 
#    y 0.000000 1.860780 0.000000 
#    z 0.000000 0.000000 1.880710 
# 
# From -- ./inp_files/3477.got.cif
#   From: 2010.05.17/outbox.cif.g08.bks.cpg/sg83_2_cif.got.tgz:3477.got - 2010.06.03 18:55:12.
