data_PCOD9543776
_publ_section_title
;
Structure prediction by ZEFSAII (Michael W. Deem and Ramdas Pophale) SiO2 
 PCOD9543776
Probable space group: P 4/M
;
_chemical_formula_sum "Si O2"
_cell_formula_units_Z 28
_cell_length_a 8.154920
_cell_length_b 8.154920
_cell_length_c 19.870352
_cell_angle_alpha 90.000000
_cell_angle_beta 90.000000
_cell_angle_gamma 90.000000
_cell_volume 1321.432459
_symmetry_space_group_name_H-M "P 4/M"
_symmetry_group_IT_number 83
_symmetry_cell_setting 'tetragonal'
loop_
_space_group_symop_operation_xyz
x,y,z
-y,x,z
-x,-y,z
y,-x,z
-x,-y,-z
y,-x,-z
x,y,-z
-y,x,-z
loop_
_atom_site_type_symbol
_atom_site_label
_atom_site_fract_x
_atom_site_fract_y
_atom_site_fract_z
Si Si1 0.500000 0.000000 0.183354
Si Si2 0.239083 0.591985 0.075750
Si Si3 0.762190 0.582663 0.295164
Si Si4 0.095492 0.260287 0.575359
O O1 0.612848 0.891845 0.134112
O O2 0.396612 0.884192 0.232945
O O3 0.300368 0.403053 0.082085
O O4 0.173647 0.615943 0.000000
O O5 0.603197 0.697504 0.291043
O O6 0.850413 0.621117 0.365326
O O7 0.121339 0.327950 0.500000
O O8 0.907214 0.201866 0.581081
#
# Coordination Sequence:
#
# PCOD9543776 Si02
#       4
#     4   8   8   8
#     4  12  21  34  57  84 114 152 190 236 289 340
#     4   9  19  37  61  88 116 147 187 235 287 347
#     4  11  24  39  56  83 117 154 199 246 291 344
#     4   9  19  38  63  89 118 152 190 235 290 350
#
# _framework density 21.189129999999999
#
# number of rings (size 3 to 8) (size 9 to 14) (size 15 to 20)
#    0.000    2.000    0.000    5.571    0.000    3.429 
#    0.000    5.000    0.000    7.714    0.000   16.000 
#    0.000    0.000    0.000    0.000    0.000    0.000 
#
# Total GULP energy -156589.033757 kJ/mol
# GULP energy per Si atom -5592.465491 kJ/mol
# Density = 2.114090 g / cm^3
# Si number density = 21.189130 Si / 1000 Ang^3
#
#
#
# Elastic Constant Matrix: (Units=GPa)
#
#
# Indices 1 2 3 4 5 6 
#
# 1 82.6366 24.7319 72.5519 0.0000 0.0000 -1.2715
# 2 24.7319 82.6366 72.5519 0.0000 0.0000 1.2715
# 3 72.5519 72.5519 214.3171 0.0000 0.0000 0.0000
# 4 0.0000 0.0000 0.0000 23.8503 0.0000 0.0000
# 5 0.0000 0.0000 0.0000 0.0000 23.8503 0.0000
# 6 -1.2715 1.2715 0.0000 0.0000 0.0000 23.2725
#
#
#
# Elastic Compliance Matrix: (Units=1/GPa)
#
#
# Indices 1 2 3 4 5 6 
#
# 1 0.017240 -0.000072 -0.005812 0.000000 0.000000 0.000946
# 2 -0.000072 0.017240 -0.005812 0.000000 0.000000 -0.000946
# 3 -0.005812 -0.005812 0.008601 0.000000 0.000000 0.000000
# 4 0.000000 0.000000 0.000000 0.041928 0.000000 0.000000
# 5 0.000000 0.000000 0.000000 0.000000 0.041928 0.000000
# 6 0.000946 -0.000946 0.000000 0.000000 0.000000 0.043073
#
#
# Mechanical properties :
#
#
# Convention : Reuss Voigt Hill
#
# Bulk Modulus (GPa) = 50.78766 79.91798 65.35282
# Shear Modulus (GPa) = 25.00458 28.17825 26.59141
#
# Velocity S-wave (km/s) = 3.43894 3.65066 3.54638
# Velocity P-wave (km/s) = 6.30786 7.45440 6.90497
#
# Compressibility (1/GPa) = 0.01968982
#
# Stress axis : x y z
#
# Youngs Moduli (GPa) = 58.00545 58.00545 116.26641
#
# Poissons Ratio (x) = 0.00415 0.67573
# Poissons Ratio (y) = 0.00415 0.67573
# Poissons Ratio (z) = 0.33712 0.33712
#
# Static dielectric constant tensor:
#      x y z
#    x 1.773410 0.000000 0.000000 
#    y 0.000000 1.773410 0.000000 
#    z 0.000000 0.000000 1.760100 
# 
# From -- ./inp_files/2517.got.cif
#   From: 2010.05.17/outbox.cif.g08.bks.cpg/sg83_2_cif.got.tgz:2517.got - 2010.06.03 18:55:12.
