data_PCOD9543028
_publ_section_title
;
Structure prediction by ZEFSAII (Michael W. Deem and Ramdas Pophale) SiO2 
 PCOD9543028
Probable space group: I -4 
;
_chemical_formula_sum "Si O2"
_cell_formula_units_Z 32
_cell_length_a 12.730158
_cell_length_b 12.730158
_cell_length_c 7.161254
_cell_angle_alpha 90.000000
_cell_angle_beta 90.000000
_cell_angle_gamma 90.000000
_cell_volume 1160.530786
_symmetry_space_group_name_H-M "I -4 "
_symmetry_group_IT_number 82
_symmetry_cell_setting 'tetragonal'
loop_
_space_group_symop_operation_xyz
x,y,z
y,-x,-z
-x,-y,z
-y,x,-z
1/2+x,1/2+y,1/2+z
1/2+y,1/2-x,1/2-z
1/2-x,1/2-y,1/2+z
1/2-y,1/2+x,1/2-z
loop_
_atom_site_type_symbol
_atom_site_label
_atom_site_fract_x
_atom_site_fract_y
_atom_site_fract_z
Si Si1 0.878315 0.791255 0.661086
Si Si2 0.644720 0.798873 0.657476
Si Si3 0.992414 0.620576 0.484639
Si Si4 0.397782 0.424266 0.767885
O O1 0.762866 0.802897 0.744700
O O2 0.898348 0.673547 0.596033
O O3 0.890703 0.867565 0.474442
O O4 0.987159 0.811620 0.766291
O O5 0.548063 0.845434 0.777811
O O6 0.615534 0.676709 0.635681
O O7 0.658535 0.886967 0.498146
O O8 0.000000 0.500000 0.522115
O O9 0.500000 0.500000 0.749468
#
# Coordination Sequence:
#
# PCOD9543028 Si02
#       4
#     8   8   8   8
#     4  11  20  39  61  93 124 162 209 256 320 377
#     4  11  21  37  64  98 119 161 217 265 303 378
#     4  11  21  38  63  87 122 167 211 255 313 380
#     4  11  20  36  66  92 122 162 214 259 307 377
#
# _framework density 27.573589999999999
#
# number of rings (size 3 to 8) (size 9 to 14) (size 15 to 20)
#    0.000    1.000    7.500    1.500    0.000    0.000 
#    4.500    0.000    0.000    0.000    0.000    0.000 
#    0.000    0.000    0.000    0.000    0.000    0.000 
#
# Total GULP energy -89244.565232 kJ/mol
# GULP energy per Si atom -5577.785327 kJ/mol
# Density = 2.751083 g / cm^3
# Si number density = 27.573590 Si / 1000 Ang^3
#
#
#
# Elastic Constant Matrix: (Units=GPa)
#
#
# Indices 1 2 3 4 5 6 
#
# 1 229.5245 56.2123 21.4497 0.0000 0.0000 2.2218
# 2 56.2123 229.5245 21.4497 0.0000 0.0000 -2.2218
# 3 21.4497 21.4497 83.1066 0.0000 0.0000 0.0000
# 4 0.0000 0.0000 0.0000 11.0463 0.0000 0.0000
# 5 0.0000 0.0000 0.0000 0.0000 11.0463 0.0000
# 6 2.2218 -2.2218 0.0000 0.0000 0.0000 54.8401
#
#
#
# Elastic Compliance Matrix: (Units=1/GPa)
#
#
# Indices 1 2 3 4 5 6 
#
# 1 0.004708 -0.001068 -0.000940 0.000000 0.000000 -0.000234
# 2 -0.001068 0.004708 -0.000940 0.000000 0.000000 0.000234
# 3 -0.000940 -0.000940 0.012518 0.000000 0.000000 0.000000
# 4 0.000000 0.000000 0.000000 0.090528 0.000000 0.000000
# 5 0.000000 0.000000 0.000000 0.000000 0.090528 0.000000
# 6 -0.000234 0.000234 0.000000 0.000000 0.000000 0.018254
#
#
# Mechanical properties :
#
#
# Convention : Reuss Voigt Hill
#
# Bulk Modulus (GPa) = 62.34152 82.26432 72.30292
# Shear Modulus (GPa) = 21.50675 44.92280 33.21477
#
# Velocity S-wave (km/s) = 2.79584 4.04071 3.47448
# Velocity P-wave (km/s) = 5.75156 7.18812 6.50959
#
# Compressibility (1/GPa) = 0.01604067
#
# Stress axis : x y z
#
# Youngs Moduli (GPa) = 212.38779 212.38779 79.88620
#
# Poissons Ratio (x) = 0.22674 0.07507
# Poissons Ratio (y) = 0.22674 0.07507
# Poissons Ratio (z) = 0.19958 0.19958
#
# Static dielectric constant tensor:
#      x y z
#    x 2.150470 0.000000 0.000000 
#    y 0.000000 2.150470 0.000000 
#    z 0.000000 0.000000 2.415170 
# 
# From -- ./inp_files/1503.got.cif
#   From: 2010.05.17/outbox.cif.g08.bks.cpg/sg82_1_cif.got.tgz:1503.got - 2010.06.03 18:52:26.
