data_PCOD9543251
_publ_section_title
;
Structure prediction by ZEFSAII (Michael W. Deem and Ramdas Pophale) SiO2 
 PCOD9543251
Probable space group: P 4/M
;
_chemical_formula_sum "Si O2"
_cell_formula_units_Z 48
_cell_length_a 17.597440
_cell_length_b 17.597440
_cell_length_c 7.689923
_cell_angle_alpha 90.000000
_cell_angle_beta 90.000000
_cell_angle_gamma 90.000000
_cell_volume 2381.337645
_symmetry_space_group_name_H-M "P 4/M"
_symmetry_group_IT_number 83
_symmetry_cell_setting 'tetragonal'
loop_
_space_group_symop_operation_xyz
x,y,z
-y,x,z
-x,-y,z
y,-x,z
-x,-y,-z
y,-x,-z
x,y,-z
-y,x,-z
loop_
_atom_site_type_symbol
_atom_site_label
_atom_site_fract_x
_atom_site_fract_y
_atom_site_fract_z
Si Si1 0.998741 0.385715 0.196464
Si Si2 0.002177 0.781548 0.711478
Si Si3 0.256832 0.714135 0.712268
Si Si4 0.149721 0.849372 0.710518
Si Si5 0.169148 0.563678 0.707784
Si Si6 0.177416 0.396017 0.707450
O O1 0.974435 0.298309 0.212278
O O2 0.922893 0.427552 0.267220
O O3 0.085498 0.384681 0.270190
O O4 0.007458 0.410940 0.000000
O O5 0.002194 0.773211 0.500000
O O6 0.062347 0.845762 0.758451
O O7 0.920111 0.804089 0.777041
O O8 0.262023 0.709809 0.500000
O O9 0.189648 0.771828 0.758989
O O10 0.224372 0.631966 0.772445
O O11 0.332373 0.761680 0.771585
O O12 0.153190 0.854134 0.500000
O O13 0.178843 0.563452 0.500000
O O14 0.192399 0.480799 0.776694
O O15 0.187928 0.395780 0.500000
#
# Coordination Sequence:
#
# PCOD9543251 Si02
#       6
#     8   8   8   8   8   8
#     4  12  23  33  49  76 108 136 166 212 257 296
#     4  10  18  32  51  72  97 131 172 211 252 298
#     4   9  16  30  53  79 100 126 169 212 246 293
#     4   9  16  27  50  73  95 126 168 218 251 288
#     4  10  20  35  56  78 102 135 171 206 250 304
#     4  10  20  35  56  78 102 135 171 206 250 304
#
# _framework density 20.156738000000001
#
# number of rings (size 3 to 8) (size 9 to 14) (size 15 to 20)
#    0.000    2.000    3.333    2.000    0.000    3.000 
#    0.000    5.000    0.000    0.500    0.000    4.667 
#    0.000    0.000    0.000    3.000    0.000    3.333 
#
# Total GULP energy -267204.784125 kJ/mol
# GULP energy per Si atom -5566.766336 kJ/mol
# Density = 2.011086 g / cm^3
# Si number density = 20.156738 Si / 1000 Ang^3
#
#
#
# Elastic Constant Matrix: (Units=GPa)
#
#
# Indices 1 2 3 4 5 6 
#
# 1 112.0933 63.1080 3.9402 0.0000 0.0000 -14.2273
# 2 63.1080 112.0933 3.9402 0.0000 0.0000 14.2273
# 3 3.9402 3.9402 33.9743 0.0000 0.0000 0.0000
# 4 0.0000 0.0000 0.0000 -24.3134 0.0000 0.0000
# 5 0.0000 0.0000 0.0000 0.0000 -24.3134 0.0000
# 6 -14.2273 14.2273 0.0000 0.0000 0.0000 3.4053
#
#
#
# Elastic Compliance Matrix: (Units=1/GPa)
#
#
# Indices 1 2 3 4 5 6 
#
# 1 -0.004285 0.010022 -0.000665 0.000000 0.000000 -0.059773
# 2 0.010022 -0.004285 -0.000665 0.000000 0.000000 0.059773
# 3 -0.000665 -0.000665 0.029588 0.000000 0.000000 0.000000
# 4 0.000000 0.000000 0.000000 -0.041130 0.000000 0.000000
# 5 0.000000 0.000000 0.000000 0.000000 -0.041130 0.000000
# 6 -0.059773 0.059773 0.000000 0.000000 0.000000 -0.205802
#
#
# Mechanical properties :
#
#
# Convention : Reuss Voigt Hill
#
# Bulk Modulus (GPa) = 26.04035 44.45975 35.25005
# Shear Modulus (GPa) = -18.40780 3.43388 -7.48696
#
# Velocity S-wave (km/s) = -3.02525 1.30663 -1.92936
# Velocity P-wave (km/s) = 0.86261 4.93774 3.54439
#
# Compressibility (1/GPa) = 0.03840195
#
# Stress axis : x y z
#
# Youngs Moduli (GPa) = -233.39732 -233.39732 33.79708
#
# Poissons Ratio (x) = 2.33915 0.02249
# Poissons Ratio (y) = 2.33915 0.02249
# Poissons Ratio (z) = -0.15531 -0.15531
#
# Static dielectric constant tensor:
#      x y z
#    x 1.725320 0.000000 0.000000 
#    y 0.000000 1.725320 0.000000 
#    z 0.000000 0.000000 1.762770 
# 
# From -- ./inp_files/929.got.cif
#   From: 2010.05.17/outbox.cif.g08.bks.cpg/sg83_1_cif.got.tgz:929.got - 2010.06.03 18:55:12.
