data_PCOD9543661
_publ_section_title
;
Structure prediction by ZEFSAII (Michael W. Deem and Ramdas Pophale) SiO2 
 PCOD9543661
Probable space group: P 4/M
;
_chemical_formula_sum "Si O2"
_cell_formula_units_Z 17
_cell_length_a 8.500954
_cell_length_b 8.500954
_cell_length_c 10.931788
_cell_angle_alpha 90.000000
_cell_angle_beta 90.000000
_cell_angle_gamma 90.000000
_cell_volume 789.998985
_symmetry_space_group_name_H-M "P 4/M"
_symmetry_group_IT_number 83
_symmetry_cell_setting 'tetragonal'
loop_
_space_group_symop_operation_xyz
x,y,z
-y,x,z
-x,-y,z
y,-x,z
-x,-y,-z
y,-x,-z
x,y,-z
-y,x,-z
loop_
_atom_site_type_symbol
_atom_site_label
_atom_site_fract_x
_atom_site_fract_y
_atom_site_fract_z
Si Si1 0.766069 0.130365 0.756847
Si Si2 0.379535 0.734658 0.000000
Si Si3 0.901737 0.658873 0.500000
Si Si4 0.000000 0.000000 0.500000
O O1 0.674311 0.176377 0.878195
O O2 0.675072 0.179683 0.632906
O O3 0.941507 0.204496 0.757227
O O4 0.295269 0.565030 0.000000
O O5 0.000000 0.500000 0.500000
O O6 0.018008 0.809861 0.500000
#
# Coordination Sequence:
#
# PCOD9543661 Si02
#       4
#     8   4   4   1
#     4  11  22  44  71 102 137 182 236 295 356 438
#     4  11  28  45  62  98 147 188 240 302 355 432
#     4  12  24  40  76 110 140 190 232 312 378 432
#     4  12  20  52  60 106 164 172 252 302 340 472
#
# _framework density 21.519016000000001
#
# number of rings (size 3 to 8) (size 9 to 14) (size 15 to 20)
#    0.000    0.706    4.706    1.412    6.588    3.765 
#    0.000    0.000    0.000    3.529    0.000    0.000 
#    0.000    0.000    0.000    0.000    0.000    0.000 
#
# Total GULP energy -94730.488485 kJ/mol
# GULP energy per Si atom -5572.381676 kJ/mol
# Density = 2.147004 g / cm^3
# Si number density = 21.519016 Si / 1000 Ang^3
#
#
#
# Elastic Constant Matrix: (Units=GPa)
#
#
# Indices 1 2 3 4 5 6 
#
# 1 78.0930 45.2618 58.3150 0.0000 0.0000 6.3564
# 2 45.2618 78.0930 58.3150 0.0000 0.0000 -6.3564
# 3 58.3150 58.3150 258.4819 0.0000 0.0000 0.0000
# 4 0.0000 0.0000 0.0000 14.0165 0.0000 0.0000
# 5 0.0000 0.0000 0.0000 0.0000 14.0165 0.0000
# 6 6.3564 -6.3564 0.0000 0.0000 0.0000 24.8168
#
#
#
# Elastic Compliance Matrix: (Units=1/GPa)
#
#
# Indices 1 2 3 4 5 6 
#
# 1 0.022059 -0.011754 -0.002325 0.000000 0.000000 -0.008660
# 2 -0.011754 0.022059 -0.002325 0.000000 0.000000 0.008660
# 3 -0.002325 -0.002325 0.004918 0.000000 0.000000 0.000000
# 4 0.000000 0.000000 0.000000 0.071344 0.000000 0.000000
# 5 0.000000 0.000000 0.000000 0.000000 0.071344 0.000000
# 6 -0.008660 0.008660 0.000000 0.000000 0.000000 0.044732
#
#
# Mechanical properties :
#
#
# Convention : Reuss Voigt Hill
#
# Bulk Modulus (GPa) = 61.62188 82.05020 71.83604
# Shear Modulus (GPa) = 18.20358 27.42172 22.81265
#
# Velocity S-wave (km/s) = 2.91164 3.57361 3.25947
# Velocity P-wave (km/s) = 6.32469 7.43233 6.90077
#
# Compressibility (1/GPa) = 0.01622800
#
# Stress axis : x y z
#
# Youngs Moduli (GPa) = 45.33392 45.33392 203.34596
#
# Poissons Ratio (x) = 0.53284 0.47274
# Poissons Ratio (y) = 0.53284 0.47274
# Poissons Ratio (z) = 0.10539 0.10539
#
# Static dielectric constant tensor:
#      x y z
#    x 1.775220 0.000000 0.000000 
#    y 0.000000 1.775220 0.000000 
#    z 0.000000 0.000000 1.890690 
# 
# From -- ./inp_files/1352.got.cif
#   From: 2010.05.17/outbox.cif.g08.bks.cpg/sg83_1_cif.got.tgz:1352.got - 2010.06.03 18:55:12.
