data_PCOD9543912
_publ_section_title
;
Structure prediction by ZEFSAII (Michael W. Deem and Ramdas Pophale) SiO2 
 PCOD9543912
Probable space group: P 4/M
;
_chemical_formula_sum "Si O2"
_cell_formula_units_Z 40
_cell_length_a 16.423878
_cell_length_b 16.423878
_cell_length_c 7.432256
_cell_angle_alpha 90.000000
_cell_angle_beta 90.000000
_cell_angle_gamma 90.000000
_cell_volume 2004.804742
_symmetry_space_group_name_H-M "P 4/M"
_symmetry_group_IT_number 83
_symmetry_cell_setting 'tetragonal'
loop_
_space_group_symop_operation_xyz
x,y,z
-y,x,z
-x,-y,z
y,-x,z
-x,-y,-z
y,-x,-z
x,y,-z
-y,x,-z
loop_
_atom_site_type_symbol
_atom_site_label
_atom_site_fract_x
_atom_site_fract_y
_atom_site_fract_z
Si Si1 0.962610 0.124293 0.216145
Si Si2 0.457914 0.375879 0.280790
Si Si3 0.193106 0.562764 0.278976
Si Si4 0.057398 0.688210 0.286380
Si Si5 0.071376 0.431339 0.706553
O O1 0.901554 0.053129 0.279198
O O2 0.939381 0.215806 0.262238
O O3 0.963435 0.120204 0.000000
O O4 0.549640 0.399985 0.225489
O O5 0.457157 0.375397 0.500000
O O6 0.432988 0.286228 0.220813
O O7 0.192527 0.561700 0.500000
O O8 0.135877 0.637865 0.220674
O O9 0.148676 0.479346 0.217377
O O10 0.054548 0.672434 0.500000
O O11 0.974230 0.646847 0.212605
O O12 0.093449 0.411440 0.500000
O O13 0.000000 0.500000 0.704115
#
# Coordination Sequence:
#
# PCOD9543912 Si02
#       5
#     8   8   8   8   8
#     4   9  19  36  52  62  81 119 154 176 215 275
#     4   8  13  21  32  48  78 121 158 180 202 243
#     4   8  13  23  38  58  89 122 148 176 217 266
#     4   9  16  27  45  70  93 111 141 186 227 259
#     4   7  11  21  37  56  84 120 142 161 210 269
#
# _framework density 19.952068000000001
#
# number of rings (size 3 to 8) (size 9 to 14) (size 15 to 20)
#    0.000    3.800    0.000    3.600    0.000    0.800 
#    3.600    1.000    0.000    5.400    0.000    0.000 
#    0.000    0.000    0.000    2.200    0.000    2.000 
#
# Total GULP energy -222696.970054 kJ/mol
# GULP energy per Si atom -5567.424251 kJ/mol
# Density = 1.990666 g / cm^3
# Si number density = 19.952068 Si / 1000 Ang^3
#
#
#
# Elastic Constant Matrix: (Units=GPa)
#
#
# Indices 1 2 3 4 5 6 
#
# 1 147.6227 80.1625 1.8952 0.0000 0.0000 -0.4928
# 2 80.1625 147.6227 1.8952 0.0000 0.0000 0.4928
# 3 1.8952 1.8952 58.9557 0.0000 0.0000 0.0000
# 4 0.0000 0.0000 0.0000 11.9813 0.0000 0.0000
# 5 0.0000 0.0000 0.0000 0.0000 11.9813 0.0000
# 6 -0.4928 0.4928 0.0000 0.0000 0.0000 13.4500
#
#
#
# Elastic Compliance Matrix: (Units=1/GPa)
#
#
# Indices 1 2 3 4 5 6 
#
# 1 0.009612 -0.005220 -0.000141 0.000000 0.000000 0.000543
# 2 -0.005220 0.009612 -0.000141 0.000000 0.000000 -0.000543
# 3 -0.000141 -0.000141 0.016971 0.000000 0.000000 0.000000
# 4 0.000000 0.000000 0.000000 0.083464 0.000000 0.000000
# 5 0.000000 0.000000 0.000000 0.000000 0.083464 0.000000
# 6 0.000543 -0.000543 0.000000 0.000000 0.000000 0.074389
#
#
# Mechanical properties :
#
#
# Convention : Reuss Voigt Hill
#
# Bulk Modulus (GPa) = 39.69660 58.01186 48.85423
# Shear Modulus (GPa) = 16.84001 25.49907 21.16954
#
# Velocity S-wave (km/s) = 2.90836 3.57881 3.26086
# Velocity P-wave (km/s) = 5.58724 6.79823 6.22227
#
# Compressibility (1/GPa) = 0.02519108
#
# Stress axis : x y z
#
# Youngs Moduli (GPa) = 104.03700 104.03700 58.92414
#
# Poissons Ratio (x) = 0.54302 0.00832
# Poissons Ratio (y) = 0.54302 0.00832
# Poissons Ratio (z) = 0.01469 0.01469
#
# Static dielectric constant tensor:
#      x y z
#    x 1.700030 0.000000 0.000000 
#    y 0.000000 1.700030 0.000000 
#    z 0.000000 0.000000 1.774390 
# 
# From -- ./inp_files/825.got.cif
#   From: 2010.05.17/outbox.cif.g08.bks.cpg/sg83_1_cif.got.tgz:825.got - 2010.06.03 18:55:12.
