data_PCOD9543638
_publ_section_title
;
Structure prediction by ZEFSAII (Michael W. Deem and Ramdas Pophale) SiO2 
 PCOD9543638
Probable space group: P 4/M
;
_chemical_formula_sum "Si O2"
_cell_formula_units_Z 36
_cell_length_a 10.211348
_cell_length_b 10.211348
_cell_length_c 16.666952
_cell_angle_alpha 90.000000
_cell_angle_beta 90.000000
_cell_angle_gamma 90.000000
_cell_volume 1737.890218
_symmetry_space_group_name_H-M "P 4/M"
_symmetry_group_IT_number 83
_symmetry_cell_setting 'tetragonal'
loop_
_space_group_symop_operation_xyz
x,y,z
-y,x,z
-x,-y,z
y,-x,z
-x,-y,-z
y,-x,-z
x,y,-z
-y,x,-z
loop_
_atom_site_type_symbol
_atom_site_label
_atom_site_fract_x
_atom_site_fract_y
_atom_site_fract_z
Si Si1 0.606257 0.178803 0.500000
Si Si2 0.551113 0.282912 0.000000
Si Si3 0.449032 0.714728 0.172508
Si Si4 0.846205 0.477923 0.669457
Si Si5 0.899230 0.246691 0.500000
Si Si6 0.902048 0.182268 0.680069
O O1 0.527336 0.204754 0.582677
O O2 0.740065 0.263718 0.500000
O O3 0.349733 0.977629 0.500000
O O4 0.650476 0.406918 0.000000
O O5 0.567581 0.213842 0.913708
O O6 0.350098 0.593223 0.172535
O O7 0.442923 0.791748 0.255178
O O8 0.834298 0.323026 0.688794
O O9 0.000000 0.500000 0.664756
O O10 0.914986 0.174966 0.583827
O O11 0.052591 0.172429 0.710104
#
# Coordination Sequence:
#
# PCOD9543638 Si02
#       6
#     4   4   8   8   4   8
#     4  12  26  37  54  82 111 158 191 235 281 318
#     4   7  12  32  59  84 108 141 184 228 272 329
#     4   9  20  36  60  86 114 147 184 227 282 342
#     4  12  24  37  54  83 116 149 184 233 288 327
#     4  12  19  36  55  71 103 143 196 234 267 322
#     4  11  22  37  58  78 100 143 200 245 272 311
#
# _framework density 20.714772
#
# number of rings (size 3 to 8) (size 9 to 14) (size 15 to 20)
#    0.000    1.444    4.444    2.333    6.222    1.111 
#    0.000    0.556    0.000    1.333    0.000    0.000 
#    0.000    1.778    0.000    0.000    0.000    0.000 
#
# Total GULP energy -200463.868499 kJ/mol
# GULP energy per Si atom -5568.440792 kJ/mol
# Density = 2.066762 g / cm^3
# Si number density = 20.714772 Si / 1000 Ang^3
#
#
#
# Elastic Constant Matrix: (Units=GPa)
#
#
# Indices 1 2 3 4 5 6 
#
# 1 70.8391 13.8145 30.0159 0.0000 0.0000 -0.0006
# 2 13.8145 70.8391 30.0159 0.0000 0.0000 0.0006
# 3 30.0159 30.0159 153.5566 0.0000 0.0000 0.0000
# 4 0.0000 0.0000 0.0000 -38.5526 0.0000 0.0000
# 5 0.0000 0.0000 0.0000 0.0000 -38.5526 0.0000
# 6 -0.0006 0.0006 0.0000 0.0000 0.0000 15.7302
#
#
#
# Elastic Compliance Matrix: (Units=1/GPa)
#
#
# Indices 1 2 3 4 5 6 
#
# 1 0.015625 -0.001911 -0.002681 0.000000 0.000000 0.000001
# 2 -0.001911 0.015625 -0.002681 0.000000 0.000000 -0.000001
# 3 -0.002681 -0.002681 0.007560 0.000000 0.000000 0.000000
# 4 0.000000 0.000000 0.000000 -0.025939 0.000000 0.000000
# 5 0.000000 0.000000 0.000000 0.000000 -0.025939 0.000000
# 6 0.000001 -0.000001 0.000000 0.000000 0.000000 0.063572
#
#
# Mechanical properties :
#
#
# Convention : Reuss Voigt Hill
#
# Bulk Modulus (GPa) = 41.21121 49.21419 45.21270
# Shear Modulus (GPa) = 68.36325 2.48423 35.42374
#
# Velocity S-wave (km/s) = 5.75098 1.09629 4.13979
# Velocity P-wave (km/s) = 8.00226 5.04104 6.68761
#
# Compressibility (1/GPa) = 0.02426524
#
# Stress axis : x y z
#
# Youngs Moduli (GPa) = 63.99978 63.99978 132.27087
#
# Poissons Ratio (x) = 0.12232 0.35457
# Poissons Ratio (y) = 0.12232 0.35457
# Poissons Ratio (z) = 0.17156 0.17156
#
# Static dielectric constant tensor:
#      x y z
#    x 1.819730 0.000000 0.000000 
#    y 0.000000 1.819730 0.000000 
#    z 0.000000 0.000000 1.786530 
# 
# From -- ./inp_files/2576.got.cif
#   From: 2010.05.17/outbox.cif.g08.bks.cpg/sg83_2_cif.got.tgz:2576.got - 2010.06.03 18:55:12.
