data_PCOD9543913
_publ_section_title
;
Structure prediction by ZEFSAII (Michael W. Deem and Ramdas Pophale) SiO2 
 PCOD9543913
Probable space group: P 4/M
;
_chemical_formula_sum "Si O2"
_cell_formula_units_Z 44
_cell_length_a 8.068155
_cell_length_b 8.068155
_cell_length_c 30.613152
_cell_angle_alpha 90.000000
_cell_angle_beta 90.000000
_cell_angle_gamma 90.000000
_cell_volume 1992.766959
_symmetry_space_group_name_H-M "P 4/M"
_symmetry_group_IT_number 83
_symmetry_cell_setting 'tetragonal'
loop_
_space_group_symop_operation_xyz
x,y,z
-y,x,z
-x,-y,z
y,-x,z
-x,-y,-z
y,-x,-z
x,y,-z
-y,x,-z
loop_
_atom_site_type_symbol
_atom_site_label
_atom_site_fract_x
_atom_site_fract_y
_atom_site_fract_z
Si Si1 0.234599 0.589297 0.405816
Si Si2 0.265328 0.094653 0.773472
Si Si3 0.734570 0.910806 0.679288
Si Si4 0.586391 0.765884 0.047645
Si Si5 0.595028 0.765212 0.500000
Si Si6 0.911704 0.265748 0.132330
O O1 0.298853 0.400964 0.404489
O O2 0.130966 0.631000 0.363267
O O3 0.151122 0.624328 0.453095
O O4 0.348967 0.124058 0.726567
O O5 0.349066 0.123558 0.820380
O O6 0.095737 0.201957 0.773470
O O7 0.900887 0.798889 0.677963
O O8 0.398927 0.700072 0.049194
O O9 0.629852 0.870698 0.089868
O O10 0.616528 0.845829 0.000000
O O11 0.404545 0.702089 0.500000
O O12 0.099767 0.200723 0.130984
#
# Coordination Sequence:
#
# PCOD9543913 Si02
#       6
#     8   8   8   8   4   8
#     4   9  17  30  48  68  89 115 150 190 228 266
#     4   7  12  26  46  65  88 119 150 179 216 264
#     4   9  17  30  48  68  91 121 153 182 218 267
#     4   9  19  35  50  64  89 126 159 183 216 267
#     4   7  12  26  46  63  82 114 152 185 220 265
#     4   9  17  30  50  74  94 113 146 192 231 262
#
# _framework density 22.079853
#
# number of rings (size 3 to 8) (size 9 to 14) (size 15 to 20)
#    0.000    3.545    0.000    3.818    0.000    2.182 
#    0.000    5.455    0.000   13.091    0.000    0.000 
#    0.000    0.000    0.000    0.000    0.000    0.000 
#
# Total GULP energy -245523.454653 kJ/mol
# GULP energy per Si atom -5580.078515 kJ/mol
# Density = 2.202960 g / cm^3
# Si number density = 22.079853 Si / 1000 Ang^3
#
#
#
# Elastic Constant Matrix: (Units=GPa)
#
#
# Indices 1 2 3 4 5 6 
#
# 1 36.7730 22.1685 57.4257 0.0000 0.0000 -0.5774
# 2 22.1685 36.7730 57.4257 0.0000 0.0000 0.5774
# 3 57.4257 57.4257 300.4668 0.0000 0.0000 0.0000
# 4 0.0000 0.0000 0.0000 93.5369 0.0000 0.0000
# 5 0.0000 0.0000 0.0000 0.0000 93.5369 0.0000
# 6 -0.5774 0.5774 0.0000 0.0000 0.0000 28.5704
#
#
#
# Elastic Compliance Matrix: (Units=1/GPa)
#
#
# Indices 1 2 3 4 5 6 
#
# 1 0.047808 -0.020774 -0.005167 0.000000 0.000000 0.001386
# 2 -0.020774 0.047808 -0.005167 0.000000 0.000000 -0.001386
# 3 -0.005167 -0.005167 0.005303 0.000000 0.000000 0.000000
# 4 0.000000 0.000000 0.000000 0.010691 0.000000 0.000000
# 5 0.000000 0.000000 0.000000 0.000000 0.010691 0.000000
# 6 0.001386 -0.001386 0.000000 0.000000 0.000000 0.035057
#
#
# Mechanical properties :
#
#
# Convention : Reuss Voigt Hill
#
# Bulk Modulus (GPa) = 25.83741 72.00585 48.92163
# Shear Modulus (GPa) = 21.50784 58.92839 40.21812
#
# Velocity S-wave (km/s) = 3.12443 5.17172 4.27252
# Velocity P-wave (km/s) = 4.97427 8.26708 6.82231
#
# Compressibility (1/GPa) = 0.03870357
#
# Stress axis : x y z
#
# Youngs Moduli (GPa) = 20.91718 20.91718 188.56899
#
# Poissons Ratio (x) = 0.43453 0.97428
# Poissons Ratio (y) = 0.43453 0.97428
# Poissons Ratio (z) = 0.10807 0.10807
#
# Static dielectric constant tensor:
#      x y z
#    x 1.803010 0.000000 0.000000 
#    y 0.000000 1.803010 0.000000 
#    z 0.000000 0.000000 1.871900 
# 
# From -- ./inp_files/3373.got.cif
#   From: 2010.05.17/outbox.cif.g08.bks.cpg/sg83_2_cif.got.tgz:3373.got - 2010.06.03 18:55:12.
