data_PCOD9543163
_publ_section_title
;
Structure prediction by ZEFSAII (Michael W. Deem and Ramdas Pophale) SiO2 
 PCOD9543163
Probable space group: I -4 
;
_chemical_formula_sum "Si O2"
_cell_formula_units_Z 26
_cell_length_a 10.928750
_cell_length_b 10.928750
_cell_length_c 9.264847
_cell_angle_alpha 90.000000
_cell_angle_beta 90.000000
_cell_angle_gamma 90.000000
_cell_volume 1106.570873
_symmetry_space_group_name_H-M "I -4 "
_symmetry_group_IT_number 82
_symmetry_cell_setting 'tetragonal'
loop_
_space_group_symop_operation_xyz
x,y,z
y,-x,-z
-x,-y,z
-y,x,-z
1/2+x,1/2+y,1/2+z
1/2+y,1/2-x,1/2-z
1/2-x,1/2-y,1/2+z
1/2-y,1/2+x,1/2-z
loop_
_atom_site_type_symbol
_atom_site_label
_atom_site_fract_x
_atom_site_fract_y
_atom_site_fract_z
Si Si1 0.071580 0.611483 0.640201
Si Si2 0.000000 0.000000 0.500000
Si Si3 0.690778 0.695681 0.063395
Si Si4 0.130603 0.351776 0.295657
O O1 0.159735 0.531592 0.746660
O O2 0.128940 0.706967 0.536289
O O3 0.000000 0.500000 0.560140
O O4 0.095217 0.915520 0.412563
O O5 0.770708 0.726052 0.203183
O O6 0.642256 0.802483 0.958632
O O7 0.164669 0.493822 0.267430
#
# Coordination Sequence:
#
# PCOD9543163 Si02
#       4
#     8   2   8   8
#     4   6  18  33  64 102 124 183 235 263 348 409
#     4  12  28  40  68 102 144 188 212 314 364 396
#     4  12  24  46  69 104 147 178 238 298 346 416
#     4  11  28  47  72 104 141 190 238 284 353 425
#
# _framework density 23.496009999999998
#
# number of rings (size 3 to 8) (size 9 to 14) (size 15 to 20)
#    1.846    0.308    3.077    0.000    8.615    2.462 
#    0.000    0.000    0.000    0.000    0.000    0.000 
#    0.000    0.000    0.000    0.000    0.000    0.000 
#
# Total GULP energy -72525.935131 kJ/mol
# GULP energy per Si atom -5578.918087 kJ/mol
# Density = 2.344253 g / cm^3
# Si number density = 23.496010 Si / 1000 Ang^3
#
#
#
# Elastic Constant Matrix: (Units=GPa)
#
#
# Indices 1 2 3 4 5 6 
#
# 1 100.6442 29.4932 40.2571 0.0000 0.0000 -7.0438
# 2 29.4932 100.6442 40.2571 0.0000 0.0000 7.0438
# 3 40.2571 40.2571 111.8464 0.0000 0.0000 0.0000
# 4 0.0000 0.0000 0.0000 36.4897 0.0000 0.0000
# 5 0.0000 0.0000 0.0000 0.0000 36.4897 0.0000
# 6 -7.0438 7.0438 0.0000 0.0000 0.0000 43.4708
#
#
#
# Elastic Compliance Matrix: (Units=1/GPa)
#
#
# Indices 1 2 3 4 5 6 
#
# 1 0.012203 -0.002317 -0.003558 0.000000 0.000000 0.002353
# 2 -0.002317 0.012203 -0.003558 0.000000 0.000000 -0.002353
# 3 -0.003558 -0.003558 0.011502 0.000000 0.000000 0.000000
# 4 0.000000 0.000000 0.000000 0.027405 0.000000 0.000000
# 5 0.000000 0.000000 0.000000 0.000000 0.027405 0.000000
# 6 0.002353 -0.002353 0.000000 0.000000 0.000000 0.023766
#
#
# Mechanical properties :
#
#
# Convention : Reuss Voigt Hill
#
# Bulk Modulus (GPa) = 58.68271 59.23885 58.96078
# Shear Modulus (GPa) = 35.96287 36.83187 36.39737
#
# Velocity S-wave (km/s) = 3.91653 3.96356 3.94011
# Velocity P-wave (km/s) = 6.74404 6.79805 6.77110
#
# Compressibility (1/GPa) = 0.01704079
#
# Stress axis : x y z
#
# Youngs Moduli (GPa) = 81.94707 81.94707 86.93993
#
# Poissons Ratio (x) = 0.18991 0.30934
# Poissons Ratio (y) = 0.18991 0.30934
# Poissons Ratio (z) = 0.29158 0.29158
#
# Static dielectric constant tensor:
#      x y z
#    x 1.957810 0.000000 0.000000 
#    y 0.000000 1.957810 0.000000 
#    z 0.000000 0.000000 1.959400 
# 
# From -- ./inp_files/618.got.cif
#   From: 2010.05.17/outbox.cif.g08.bks.cpg/sg82_1_cif.got.tgz:618.got - 2010.06.03 18:52:26.
