data_PCOD9543371
_publ_section_title
;
Structure prediction by ZEFSAII (Michael W. Deem and Ramdas Pophale) SiO2 
 PCOD9543371
Probable space group: P 4/M
;
_chemical_formula_sum "Si O2"
_cell_formula_units_Z 38
_cell_length_a 11.139061
_cell_length_b 11.139061
_cell_length_c 15.807553
_cell_angle_alpha 90.000000
_cell_angle_beta 90.000000
_cell_angle_gamma 90.000000
_cell_volume 1961.380310
_symmetry_space_group_name_H-M "P 4/M"
_symmetry_group_IT_number 83
_symmetry_cell_setting 'tetragonal'
loop_
_space_group_symop_operation_xyz
x,y,z
-y,x,z
-x,-y,z
y,-x,z
-x,-y,-z
y,-x,-z
x,y,-z
-y,x,-z
loop_
_atom_site_type_symbol
_atom_site_label
_atom_site_fract_x
_atom_site_fract_y
_atom_site_fract_z
Si Si1 0.117785 0.691434 0.178996
Si Si2 0.193051 0.064151 0.000000
Si Si3 0.896483 0.749935 0.288691
Si Si4 0.000000 0.000000 0.656673
Si Si5 0.545732 0.696385 0.741699
Si Si6 0.858005 0.530660 0.401842
O O1 0.090406 0.732582 0.084431
O O2 0.190472 0.798559 0.226767
O O3 0.203868 0.576938 0.188222
O O4 0.993532 0.680738 0.230290
O O5 0.072826 0.145676 0.000000
O O6 0.845528 0.660166 0.358163
O O7 0.965544 0.857009 0.335602
O O8 0.414585 0.637291 0.747892
O O9 0.771654 0.446508 0.654221
O O10 0.824699 0.528910 0.500000
O O11 0.000000 0.500000 0.395737
#
# Coordination Sequence:
#
# PCOD9543371 Si02
#       6
#     8   4   8   2   8   8
#     4  11  20  38  64  94 136 172 216 272 340 401
#     4  11  22  34  64 111 142 170 223 288 348 419
#     4  10  19  37  62  92 131 174 206 262 340 399
#     4   8  20  32  57  97 124 168 202 236 328 413
#     4  11  24  42  64  89 124 179 228 272 332 387
#     4  11  23  40  65  95 124 162 219 279 329 394
#
# _framework density 19.374110999999999
#
# number of rings (size 3 to 8) (size 9 to 14) (size 15 to 20)
#    0.000    1.368    6.316    0.000    0.000    0.842 
#    0.000    6.842    0.000    3.789    0.000    0.000 
#    0.000    0.000    0.000    0.000    0.000    0.000 
#
# Total GULP energy -211540.244826 kJ/mol
# GULP energy per Si atom -5566.848548 kJ/mol
# Density = 1.933001 g / cm^3
# Si number density = 19.374111 Si / 1000 Ang^3
#
#
#
# Elastic Constant Matrix: (Units=GPa)
#
#
# Indices 1 2 3 4 5 6 
#
# 1 64.6833 21.1424 20.9728 0.0000 0.0000 -0.7281
# 2 21.1424 64.6833 20.9728 0.0000 0.0000 0.7281
# 3 20.9728 20.9728 107.0246 0.0000 0.0000 0.0000
# 4 0.0000 0.0000 0.0000 24.4474 0.0000 0.0000
# 5 0.0000 0.0000 0.0000 0.0000 24.4474 0.0000
# 6 -0.7281 0.7281 0.0000 0.0000 0.0000 50.7598
#
#
#
# Elastic Compliance Matrix: (Units=1/GPa)
#
#
# Indices 1 2 3 4 5 6 
#
# 1 0.017932 -0.005046 -0.002525 0.000000 0.000000 0.000330
# 2 -0.005046 0.017932 -0.002525 0.000000 0.000000 -0.000330
# 3 -0.002525 -0.002525 0.010333 0.000000 0.000000 0.000000
# 4 0.000000 0.000000 0.000000 0.040904 0.000000 0.000000
# 5 0.000000 0.000000 0.000000 0.000000 0.040904 0.000000
# 6 0.000330 -0.000330 0.000000 0.000000 0.000000 0.019710
#
#
# Mechanical properties :
#
#
# Convention : Reuss Voigt Hill
#
# Bulk Modulus (GPa) = 38.45544 40.28526 39.37035
# Shear Modulus (GPa) = 28.31640 31.48445 29.90042
#
# Velocity S-wave (km/s) = 3.82718 4.03560 3.93277
# Velocity P-wave (km/s) = 6.27867 6.52328 6.40215
#
# Compressibility (1/GPa) = 0.02600412
#
# Stress axis : x y z
#
# Youngs Moduli (GPa) = 55.76693 55.76693 96.77455
#
# Poissons Ratio (x) = 0.28141 0.24436
# Poissons Ratio (y) = 0.28141 0.24436
# Poissons Ratio (z) = 0.14082 0.14082
#
# Static dielectric constant tensor:
#      x y z
#    x 1.710890 0.000000 0.000000 
#    y 0.000000 1.710890 0.000000 
#    z 0.000000 0.000000 1.637010 
# 
# From -- ./inp_files/2290.got.cif
#   From: 2010.05.17/outbox.cif.g08.bks.cpg/sg83_2_cif.got.tgz:2290.got - 2010.06.03 18:55:12.
