data_PCOD9543838
_publ_section_title
;
Structure prediction by ZEFSAII (Michael W. Deem and Ramdas Pophale) SiO2 
 PCOD9543838
Probable space group: P 4/M
;
_chemical_formula_sum "Si O2"
_cell_formula_units_Z 56
_cell_length_a 10.661165
_cell_length_b 10.661165
_cell_length_c 27.277065
_cell_angle_alpha 90.000000
_cell_angle_beta 90.000000
_cell_angle_gamma 90.000000
_cell_volume 3100.323187
_symmetry_space_group_name_H-M "P 4/M"
_symmetry_group_IT_number 83
_symmetry_cell_setting 'tetragonal'
loop_
_space_group_symop_operation_xyz
x,y,z
-y,x,z
-x,-y,z
y,-x,z
-x,-y,-z
y,-x,-z
x,y,-z
-y,x,-z
loop_
_atom_site_type_symbol
_atom_site_label
_atom_site_fract_x
_atom_site_fract_y
_atom_site_fract_z
Si Si1 0.454779 0.141593 0.240655
Si Si2 0.906586 0.184218 0.082724
Si Si3 0.907529 0.184362 0.799098
Si Si4 0.486263 0.287196 0.447233
Si Si5 0.461491 0.145260 0.946635
Si Si6 0.527106 0.292108 0.147959
Si Si7 0.513744 0.711721 0.659600
O O1 0.307547 0.144205 0.226741
O O2 0.528996 0.212290 0.197381
O O3 0.478332 0.201724 0.293314
O O4 0.500000 0.000000 0.240355
O O5 0.900301 0.198796 0.141851
O O6 0.852555 0.310724 0.060048
O O7 0.053910 0.163084 0.069838
O O8 0.054619 0.162889 0.786870
O O9 0.611804 0.372743 0.447238
O O10 0.481780 0.218992 0.500000
O O11 0.481988 0.222911 0.394053
O O12 0.528558 0.210745 0.901098
O O13 0.500000 0.000000 0.945507
O O14 0.495208 0.198587 0.000000
O O15 0.634462 0.395356 0.147807
O O16 0.387985 0.627775 0.661918
#
# Coordination Sequence:
#
# PCOD9543838 Si02
#       7
#     8   8   8   8   8   8   8
#     4  12  24  33  57  81 107 140 174 216 262 317
#     4   9  19  37  61  84 106 133 168 215 264 308
#     4   9  20  36  55  78 102 134 174 218 263 306
#     4   7  10  20  42  70 100 140 184 219 258 308
#     4  11  25  40  59  84 109 136 171 214 258 309
#     4  11  26  44  62  80 104 140 177 212 263 323
#     4   9  18  32  49  76 115 147 177 222 267 312
#
# _framework density 18.062632000000001
#
# number of rings (size 3 to 8) (size 9 to 14) (size 15 to 20)
#    0.000    2.286    1.429    3.429    6.000    2.286 
#    0.000    1.429    0.000    0.429    0.000    0.000 
#    0.000    0.000    0.000    1.571    0.000    0.000 
#
# Total GULP energy -312620.581902 kJ/mol
# GULP energy per Si atom -5582.510391 kJ/mol
# Density = 1.802152 g / cm^3
# Si number density = 18.062632 Si / 1000 Ang^3
#
#
#
# Elastic Constant Matrix: (Units=GPa)
#
#
# Indices 1 2 3 4 5 6 
#
# 1 33.7839 0.8875 27.7775 0.0000 0.0000 -3.5434
# 2 0.8875 33.7839 27.7775 0.0000 0.0000 3.5434
# 3 27.7775 27.7775 160.3196 0.0000 0.0000 0.0000
# 4 0.0000 0.0000 0.0000 24.2576 0.0000 0.0000
# 5 0.0000 0.0000 0.0000 0.0000 24.2576 0.0000
# 6 -3.5434 3.5434 0.0000 0.0000 0.0000 10.7650
#
#
#
# Elastic Compliance Matrix: (Units=1/GPa)
#
#
# Indices 1 2 3 4 5 6 
#
# 1 0.036323 0.003604 -0.006918 0.000000 0.000000 0.010770
# 2 0.003604 0.036323 -0.006918 0.000000 0.000000 -0.010770
# 3 -0.006918 -0.006918 0.008635 0.000000 0.000000 0.000000
# 4 0.000000 0.000000 0.000000 0.041224 0.000000 0.000000
# 5 0.000000 0.000000 0.000000 0.000000 0.041224 0.000000
# 6 0.010770 -0.010770 0.000000 0.000000 0.000000 0.099983
#
#
# Mechanical properties :
#
#
# Convention : Reuss Voigt Hill
#
# Bulk Modulus (GPa) = 16.44269 37.86358 27.15313
# Shear Modulus (GPa) = 16.42319 23.28572 19.85445
#
# Velocity S-wave (km/s) = 3.01862 3.59439 3.31902
# Velocity P-wave (km/s) = 4.61220 6.18337 5.45465
#
# Compressibility (1/GPa) = 0.06081730
#
# Stress axis : x y z
#
# Youngs Moduli (GPa) = 27.53091 27.53091 115.81085
#
# Poissons Ratio (x) = -0.09923 0.80117
# Poissons Ratio (y) = -0.09923 0.80117
# Poissons Ratio (z) = 0.19046 0.19046
#
# Static dielectric constant tensor:
#      x y z
#    x 1.624490 0.000000 0.000000 
#    y 0.000000 1.624490 0.000000 
#    z 0.000000 0.000000 1.649850 
# 
# From -- ./inp_files/3175.got.cif
#   From: 2010.05.17/outbox.cif.g08.bks.cpg/sg83_2_cif.got.tgz:3175.got - 2010.06.03 18:55:12.
