data_PCOD9543334
_publ_section_title
;
Structure prediction by ZEFSAII (Michael W. Deem and Ramdas Pophale) SiO2 
 PCOD9543334
Probable space group: P 4/M
;
_chemical_formula_sum "Si O2"
_cell_formula_units_Z 40
_cell_length_a 15.863211
_cell_length_b 15.863211
_cell_length_c 7.498831
_cell_angle_alpha 90.000000
_cell_angle_beta 90.000000
_cell_angle_gamma 90.000000
_cell_volume 1887.016805
_symmetry_space_group_name_H-M "P 4/M"
_symmetry_group_IT_number 83
_symmetry_cell_setting 'tetragonal'
loop_
_space_group_symop_operation_xyz
x,y,z
-y,x,z
-x,-y,z
y,-x,z
-x,-y,-z
y,-x,-z
x,y,-z
-y,x,-z
loop_
_atom_site_type_symbol
_atom_site_label
_atom_site_fract_x
_atom_site_fract_y
_atom_site_fract_z
Si Si1 0.302136 0.334206 0.784183
Si Si2 0.479239 0.263163 0.206330
Si Si3 0.247630 0.029743 0.281575
Si Si4 0.156077 0.197298 0.287344
Si Si5 0.926435 0.437333 0.284001
O O1 0.285109 0.429032 0.717579
O O2 0.393206 0.302410 0.717147
O O3 0.227169 0.268836 0.740968
O O4 0.304450 0.335624 0.000000
O O5 0.467091 0.163207 0.214696
O O6 0.481922 0.290695 0.000000
O O7 0.246541 0.029017 0.500000
O O8 0.188664 0.106716 0.220962
O O9 0.342640 0.052350 0.228051
O O10 0.222502 0.936416 0.219610
O O11 0.147609 0.188945 0.500000
O O12 0.922019 0.438603 0.500000
O O13 0.000000 0.500000 0.227845
#
# Coordination Sequence:
#
# PCOD9543334 Si02
#       5
#     8   8   8   8   8
#     4  10  21  37  55  79 108 141 181 225 272 321
#     4  10  21  36  55  78 107 141 180 223 270 321
#     4   9  18  31  52  80 107 140 177 219 267 315
#     4  10  19  35  56  79 109 142 180 223 269 321
#     4  10  19  33  53  80 110 139 178 222 270 320
#
# _framework density 21.197479000000001
#
# number of rings (size 3 to 8) (size 9 to 14) (size 15 to 20)
#    0.000    2.200    2.000    1.200    0.000    3.600 
#    0.000    6.000    0.000    0.000    0.000    4.200 
#    0.000    0.000    0.000    0.000    0.000    0.000 
#
# Total GULP energy -223421.428107 kJ/mol
# GULP energy per Si atom -5585.535703 kJ/mol
# Density = 2.114923 g / cm^3
# Si number density = 21.197479 Si / 1000 Ang^3
#
#
#
# Elastic Constant Matrix: (Units=GPa)
#
#
# Indices 1 2 3 4 5 6 
#
# 1 188.5131 94.3878 -6.2607 0.0000 0.0000 1.0331
# 2 94.3878 188.5131 -6.2607 0.0000 0.0000 -1.0331
# 3 -6.2607 -6.2607 54.7381 0.0000 0.0000 0.0000
# 4 0.0000 0.0000 0.0000 18.1437 0.0000 0.0000
# 5 0.0000 0.0000 0.0000 0.0000 18.1437 0.0000
# 6 1.0331 -1.0331 0.0000 0.0000 0.0000 49.2984
#
#
#
# Elastic Compliance Matrix: (Units=1/GPa)
#
#
# Indices 1 2 3 4 5 6 
#
# 1 0.007091 -0.003538 0.000406 0.000000 0.000000 -0.000223
# 2 -0.003538 0.007091 0.000406 0.000000 0.000000 0.000223
# 3 0.000406 0.000406 0.018362 0.000000 0.000000 0.000000
# 4 0.000000 0.000000 0.000000 0.055115 0.000000 0.000000
# 5 0.000000 0.000000 0.000000 0.000000 0.055115 0.000000
# 6 -0.000223 0.000223 0.000000 0.000000 0.000000 0.020294
#
#
# Mechanical properties :
#
#
# Convention : Reuss Voigt Hill
#
# Bulk Modulus (GPa) = 36.91023 66.16633 51.53828
# Shear Modulus (GPa) = 28.16106 40.44371 34.30238
#
# Velocity S-wave (km/s) = 3.64883 4.37275 4.02709
# Velocity P-wave (km/s) = 5.93315 7.53502 6.78155
#
# Compressibility (1/GPa) = 0.02709276
#
# Stress axis : x y z
#
# Youngs Moduli (GPa) = 141.02564 141.02564 54.46102
#
# Poissons Ratio (x) = 0.49897 -0.02213
# Poissons Ratio (y) = 0.49897 -0.02213
# Poissons Ratio (z) = -0.05731 -0.05731
#
# Static dielectric constant tensor:
#      x y z
#    x 1.729390 0.000000 0.000000 
#    y 0.000000 1.729390 0.000000 
#    z 0.000000 0.000000 1.832090 
# 
# From -- ./inp_files/626.got.cif
#   From: 2010.05.17/outbox.cif.g08.bks.cpg/sg83_1_cif.got.tgz:626.got - 2010.06.03 18:55:12.
