data_PCOD9543831
_publ_section_title
;
Structure prediction by ZEFSAII (Michael W. Deem and Ramdas Pophale) SiO2 
 PCOD9543831
Probable space group: P 4/M
;
_chemical_formula_sum "Si O2"
_cell_formula_units_Z 29
_cell_length_a 8.454485
_cell_length_b 8.454485
_cell_length_c 19.664553
_cell_angle_alpha 90.000000
_cell_angle_beta 90.000000
_cell_angle_gamma 90.000000
_cell_volume 1405.589145
_symmetry_space_group_name_H-M "P 4/M"
_symmetry_group_IT_number 83
_symmetry_cell_setting 'tetragonal'
loop_
_space_group_symop_operation_xyz
x,y,z
-y,x,z
-x,-y,z
y,-x,z
-x,-y,-z
y,-x,-z
x,y,-z
-y,x,-z
loop_
_atom_site_type_symbol
_atom_site_label
_atom_site_fract_x
_atom_site_fract_y
_atom_site_fract_z
Si Si1 0.145797 0.618809 0.000000
Si Si2 0.242907 0.095784 0.147270
Si Si3 0.921276 0.743137 0.350987
Si Si4 0.744939 0.081245 0.500000
Si Si5 0.500000 0.500000 0.000000
Si Si6 0.000000 0.500000 0.242112
O O1 0.128799 0.717954 0.931035
O O2 0.000000 0.500000 0.000000
O O3 0.306676 0.520338 0.000000
O O4 0.396611 0.115390 0.194072
O O5 0.086600 0.196044 0.161388
O O6 0.904245 0.615774 0.292277
O O7 0.811192 0.898670 0.345306
O O8 0.894905 0.669072 0.426221
O O9 0.902061 0.189571 0.500000
#
# Coordination Sequence:
#
# PCOD9543831 Si02
#       6
#     4   8   8   4   1   4
#     4  12  24  47  70 104 136 170 222 284 339 389
#     4  11  24  43  65  89 123 171 216 268 335 401
#     4   9  18  35  56  81 114 154 200 256 320 389
#     4   7  12  27  54  80 106 146 198 252 312 383
#     4  12  28  44  84 112 136 180 232 298 336 416
#     4  12  22  32  56  88 122 160 208 258 320 404
#
# _framework density 20.631920000000001
#
# number of rings (size 3 to 8) (size 9 to 14) (size 15 to 20)
#    0.000    1.793    1.379    5.793    0.000    3.862 
#    0.000    0.000    0.000    7.448    0.000    0.000 
#    0.000   26.483    0.000    0.000    0.000    0.000 
#
# Total GULP energy -161624.856238 kJ/mol
# GULP energy per Si atom -5573.270905 kJ/mol
# Density = 2.058496 g / cm^3
# Si number density = 20.631920 Si / 1000 Ang^3
#
#
#
# Elastic Constant Matrix: (Units=GPa)
#
#
# Indices 1 2 3 4 5 6 
#
# 1 83.8729 9.1841 32.8905 0.0000 0.0000 -1.5128
# 2 9.1841 83.8729 32.8905 0.0000 0.0000 1.5128
# 3 32.8905 32.8905 172.3634 0.0000 0.0000 0.0000
# 4 0.0000 0.0000 0.0000 22.3567 0.0000 0.0000
# 5 0.0000 0.0000 0.0000 0.0000 22.3567 0.0000
# 6 -1.5128 1.5128 0.0000 0.0000 0.0000 14.6127
#
#
#
# Elastic Compliance Matrix: (Units=1/GPa)
#
#
# Indices 1 2 3 4 5 6 
#
# 1 0.012933 -0.000512 -0.002370 0.000000 0.000000 0.001392
# 2 -0.000512 0.012933 -0.002370 0.000000 0.000000 -0.001392
# 3 -0.002370 -0.002370 0.006706 0.000000 0.000000 0.000000
# 4 0.000000 0.000000 0.000000 0.044729 0.000000 0.000000
# 5 0.000000 0.000000 0.000000 0.000000 0.044729 0.000000
# 6 0.001392 -0.001392 0.000000 0.000000 0.000000 0.068722
#
#
# Mechanical properties :
#
#
# Convention : Reuss Voigt Hill
#
# Bulk Modulus (GPa) = 45.31371 54.44880 49.88126
# Shear Modulus (GPa) = 23.96767 29.54151 26.75459
#
# Velocity S-wave (km/s) = 3.41204 3.78806 3.60496
# Velocity P-wave (km/s) = 6.12644 6.75133 6.44646
#
# Compressibility (1/GPa) = 0.02206837
#
# Stress axis : x y z
#
# Youngs Moduli (GPa) = 77.31879 77.31879 149.11345
#
# Poissons Ratio (x) = 0.03957 0.35344
# Poissons Ratio (y) = 0.03957 0.35344
# Poissons Ratio (z) = 0.18327 0.18327
#
# Static dielectric constant tensor:
#      x y z
#    x 1.664850 0.000000 0.000000 
#    y 0.000000 1.664850 0.000000 
#    z 0.000000 0.000000 1.829520 
# 
# From -- ./inp_files/2787.got.cif
#   From: 2010.05.17/outbox.cif.g08.bks.cpg/sg83_2_cif.got.tgz:2787.got - 2010.06.03 18:55:12.
