data_PCOD9543666
_publ_section_title
;
Structure prediction by ZEFSAII (Michael W. Deem and Ramdas Pophale) SiO2 
 PCOD9543666
Probable space group: P 4/M
;
_chemical_formula_sum "Si O2"
_cell_formula_units_Z 48
_cell_length_a 17.209720
_cell_length_b 17.209720
_cell_length_c 9.086094
_cell_angle_alpha 90.000000
_cell_angle_beta 90.000000
_cell_angle_gamma 90.000000
_cell_volume 2691.069006
_symmetry_space_group_name_H-M "P 4/M"
_symmetry_group_IT_number 83
_symmetry_cell_setting 'tetragonal'
loop_
_space_group_symop_operation_xyz
x,y,z
-y,x,z
-x,-y,z
y,-x,z
-x,-y,-z
y,-x,-z
x,y,-z
-y,x,-z
loop_
_atom_site_type_symbol
_atom_site_label
_atom_site_fract_x
_atom_site_fract_y
_atom_site_fract_z
Si Si1 0.495984 0.183082 0.174835
Si Si2 0.054285 0.720797 0.323955
Si Si3 0.870757 0.000161 0.826556
Si Si4 0.213149 0.684238 0.824267
Si Si5 0.404660 0.933698 0.671550
Si Si6 0.642360 0.234865 0.328538
O O1 0.407694 0.204709 0.208262
O O2 0.522197 0.098757 0.237992
O O3 0.557590 0.240938 0.252675
O O4 0.507267 0.183963 0.000000
O O5 0.061838 0.719421 0.500000
O O6 0.137784 0.723618 0.247489
O O7 0.005599 0.794954 0.271705
O O8 0.008207 0.642747 0.277916
O O9 0.925059 0.074669 0.799512
O O10 0.849932 0.000186 0.000000
O O11 0.290916 0.719732 0.755544
O O12 0.212711 0.694732 0.000000
O O13 0.426319 0.942333 0.500000
O O14 0.346337 0.858964 0.679427
O O15 0.639784 0.256500 0.500000
#
# Coordination Sequence:
#
# PCOD9543666 Si02
#       6
#     8   8   8   8   8   8
#     4   9  19  36  58  82 112 148 183 228 278 330
#     4  11  23  36  54  80 112 145 185 234 277 327
#     4   9  20  38  55  73 102 141 185 233 284 334
#     4  11  23  37  56  86 115 145 188 229 276 335
#     4   8  19  37  54  77 108 145 181 219 272 327
#     4   9  19  37  59  81 110 147 185 225 276 331
#
# _framework density 17.836777000000001
#
# number of rings (size 3 to 8) (size 9 to 14) (size 15 to 20)
#    1.000    1.500    0.000    2.000    2.333    5.333 
#    0.000    4.167    0.000    0.500    0.000    3.500 
#    0.000    0.000    0.000    0.000    0.000    0.000 
#
# Total GULP energy -267478.169359 kJ/mol
# GULP energy per Si atom -5572.461862 kJ/mol
# Density = 1.779618 g / cm^3
# Si number density = 17.836777 Si / 1000 Ang^3
#
#
#
# Elastic Constant Matrix: (Units=GPa)
#
#
# Indices 1 2 3 4 5 6 
#
# 1 60.3538 13.9540 25.3547 0.0000 0.0000 5.2908
# 2 13.9540 60.3538 25.3547 0.0000 0.0000 -5.2908
# 3 25.3547 25.3547 47.8311 0.0000 0.0000 0.0000
# 4 0.0000 0.0000 0.0000 -17.2667 0.0000 0.0000
# 5 0.0000 0.0000 0.0000 0.0000 -17.2667 0.0000
# 6 5.2908 -5.2908 0.0000 0.0000 0.0000 24.6754
#
#
#
# Elastic Compliance Matrix: (Units=1/GPa)
#
#
# Indices 1 2 3 4 5 6 
#
# 1 0.021872 -0.000788 -0.011177 0.000000 0.000000 -0.004859
# 2 -0.000788 0.021872 -0.011177 0.000000 0.000000 0.004859
# 3 -0.011177 -0.011177 0.032756 0.000000 0.000000 0.000000
# 4 0.000000 0.000000 0.000000 -0.057915 0.000000 0.000000
# 5 0.000000 0.000000 0.000000 0.000000 -0.057915 0.000000
# 6 -0.004859 0.004859 0.000000 0.000000 0.000000 0.042610
#
#
# Mechanical properties :
#
#
# Convention : Reuss Voigt Hill
#
# Bulk Modulus (GPa) = 33.09209 33.09617 33.09413
# Shear Modulus (GPa) = 83.84141 4.95340 44.39741
#
# Velocity S-wave (km/s) = 6.86344 1.66826 4.99449
# Velocity P-wave (km/s) = 9.02231 4.72293 7.20098
#
# Compressibility (1/GPa) = 0.03021870
#
# Stress axis : x y z
#
# Youngs Moduli (GPa) = 45.71975 45.71975 30.52848
#
# Poissons Ratio (x) = 0.03600 0.34121
# Poissons Ratio (y) = 0.03600 0.34121
# Poissons Ratio (z) = 0.51100 0.51100
#
# Static dielectric constant tensor:
#      x y z
#    x 1.609260 0.000000 0.000000 
#    y 0.000000 1.609260 0.000000 
#    z 0.000000 0.000000 1.592320 
# 
# From -- ./inp_files/933.got.cif
#   From: 2010.05.17/outbox.cif.g08.bks.cpg/sg83_1_cif.got.tgz:933.got - 2010.06.03 18:55:12.
