data_PCOD9543088
_publ_section_title
;
Structure prediction by ZEFSAII (Michael W. Deem and Ramdas Pophale) SiO2 
 PCOD9543088
Probable space group: I -4 
;
_chemical_formula_sum "Si O2"
_cell_formula_units_Z 48
_cell_length_a 8.695830
_cell_length_b 8.695830
_cell_length_c 29.983606
_cell_angle_alpha 90.000000
_cell_angle_beta 90.000000
_cell_angle_gamma 90.000000
_cell_volume 2267.284109
_symmetry_space_group_name_H-M "I -4 "
_symmetry_group_IT_number 82
_symmetry_cell_setting 'tetragonal'
loop_
_space_group_symop_operation_xyz
x,y,z
y,-x,-z
-x,-y,z
-y,x,-z
1/2+x,1/2+y,1/2+z
1/2+y,1/2-x,1/2-z
1/2-x,1/2-y,1/2+z
1/2-y,1/2+x,1/2-z
loop_
_atom_site_type_symbol
_atom_site_label
_atom_site_fract_x
_atom_site_fract_y
_atom_site_fract_z
Si Si1 0.569578 0.659486 0.659442
Si Si2 0.671913 0.934262 0.420604
Si Si3 0.659227 0.258883 0.906911
Si Si4 0.616574 0.729845 0.504481
Si Si5 0.843367 0.738419 0.352981
Si Si6 0.915921 0.744122 0.254478
O O1 0.500000 0.500000 0.642730
O O2 0.710862 0.716609 0.630500
O O3 0.437435 0.789353 0.653825
O O4 0.606914 0.647766 0.711875
O O5 0.682511 0.830059 0.464403
O O6 0.710794 0.831383 0.377801
O O7 0.500000 0.000000 0.418703
O O8 0.795280 0.071259 0.422379
O O9 0.685531 0.146333 0.948770
O O10 0.493619 0.247399 0.883988
O O11 0.698477 0.563434 0.504483
O O12 0.876642 0.803277 0.303614
O O13 0.813747 0.592196 0.245036
#
# Coordination Sequence:
#
# PCOD9543088 Si02
#       6
#     8   8   8   8   8   8
#     4  11  23  40  72 103 138 185 238 288 347 425
#     4  12  26  46  66 103 142 182 230 297 352 422
#     4  12  25  43  71 101 140 184 234 286 362 420
#     4  11  26  47  73 100 135 182 233 285 347 425
#     4  11  24  44  71 100 143 187 235 290 351 425
#     4   9  18  40  67 102 136 179 235 285 335 416
#
# _framework density 21.170705000000002
#
# number of rings (size 3 to 8) (size 9 to 14) (size 15 to 20)
#    0.000    1.000    3.333    3.000    4.667    2.667 
#    0.000    0.000    0.000    0.000    0.000    0.000 
#    0.000    0.000    0.000    0.000    0.000    0.000 
#
# Total GULP energy -134303.650222 kJ/mol
# GULP energy per Si atom -5595.985426 kJ/mol
# Density = 2.112252 g / cm^3
# Si number density = 21.170705 Si / 1000 Ang^3
#
#
#
# Elastic Constant Matrix: (Units=GPa)
#
#
# Indices 1 2 3 4 5 6 
#
# 1 65.0239 8.5055 33.1978 0.0000 0.0000 -3.4475
# 2 8.5055 65.0239 33.1978 0.0000 0.0000 3.4475
# 3 33.1978 33.1978 133.0818 0.0000 0.0000 0.0000
# 4 0.0000 0.0000 0.0000 29.6707 0.0000 0.0000
# 5 0.0000 0.0000 0.0000 0.0000 29.6707 0.0000
# 6 -3.4475 3.4475 0.0000 0.0000 0.0000 30.4006
#
#
#
# Elastic Compliance Matrix: (Units=1/GPa)
#
#
# Indices 1 2 3 4 5 6 
#
# 1 0.017748 -0.000194 -0.004379 0.000000 0.000000 0.002035
# 2 -0.000194 0.017748 -0.004379 0.000000 0.000000 -0.002035
# 3 -0.004379 -0.004379 0.009699 0.000000 0.000000 0.000000
# 4 0.000000 0.000000 0.000000 0.033703 0.000000 0.000000
# 5 0.000000 0.000000 0.000000 0.000000 0.033703 0.000000
# 6 0.002035 -0.002035 0.000000 0.000000 0.000000 0.033356
#
#
# Mechanical properties :
#
#
# Convention : Reuss Voigt Hill
#
# Bulk Modulus (GPa) = 36.64170 45.88132 41.26151
# Shear Modulus (GPa) = 28.90892 30.49697 29.70295
#
# Velocity S-wave (km/s) = 3.69930 3.79954 3.74976
# Velocity P-wave (km/s) = 5.96588 6.40061 6.18707
#
# Compressibility (1/GPa) = 0.02729131
#
# Stress axis : x y z
#
# Youngs Moduli (GPa) = 56.34489 56.34489 103.10480
#
# Poissons Ratio (x) = 0.01091 0.45149
# Poissons Ratio (y) = 0.01091 0.45149
# Poissons Ratio (z) = 0.24673 0.24673
#
# Static dielectric constant tensor:
#      x y z
#    x 1.764740 0.000000 0.000000 
#    y 0.000000 1.764740 0.000000 
#    z 0.000000 0.000000 1.758020 
# 
# From -- ./inp_files/4019.got.cif
#   From: 2010.05.17/outbox.cif.g08.bks.cpg/sg82_3_cif.got.tgz:4019.got - 2010.06.03 18:52:26.
