data_PCOD9543846
_publ_section_title
;
Structure prediction by ZEFSAII (Michael W. Deem and Ramdas Pophale) SiO2 
 PCOD9543846
Probable space group: P 4/M
;
_chemical_formula_sum "Si O2"
_cell_formula_units_Z 45
_cell_length_a 8.488388
_cell_length_b 8.488388
_cell_length_c 29.854762
_cell_angle_alpha 90.000000
_cell_angle_beta 90.000000
_cell_angle_gamma 90.000000
_cell_volume 2151.117131
_symmetry_space_group_name_H-M "P 4/M"
_symmetry_group_IT_number 83
_symmetry_cell_setting 'tetragonal'
loop_
_space_group_symop_operation_xyz
x,y,z
-y,x,z
-x,-y,z
y,-x,z
-x,-y,-z
y,-x,-z
x,y,-z
-y,x,-z
loop_
_atom_site_type_symbol
_atom_site_label
_atom_site_fract_x
_atom_site_fract_y
_atom_site_fract_z
Si Si1 0.751704 0.587509 0.823937
Si Si2 0.245581 0.417754 0.370462
Si Si3 0.105285 0.240651 0.905339
Si Si4 0.253258 0.918148 0.449662
Si Si5 0.586009 0.246774 0.727120
Si Si6 0.599196 0.158463 0.000000
Si Si7 0.500000 0.500000 0.000000
O O1 0.592011 0.692101 0.825680
O O2 0.849665 0.636751 0.866795
O O3 0.832041 0.615092 0.775265
O O4 0.403620 0.309678 0.373093
O O5 0.133638 0.370502 0.410905
O O6 0.169394 0.389007 0.321265
O O7 0.149721 0.303168 0.954201
O O8 0.922269 0.199570 0.900262
O O9 0.317962 0.896259 0.500000
O O10 0.096469 0.809556 0.445728
O O11 0.690731 0.406097 0.727202
O O12 0.484252 0.308088 0.000000
O O13 0.500000 0.000000 0.000000
#
# Coordination Sequence:
#
# PCOD9543846 Si02
#       7
#     8   8   8   8   8   4   1
#     4   9  19  34  60  89 114 146 195 244 280 337
#     4   9  17  30  52  78 106 136 173 223 280 338
#     4  11  25  43  61  86 124 164 195 238 308 364
#     4   9  19  35  50  66  95 137 182 226 275 333
#     4   7  12  28  50  77 109 142 177 224 280 330
#     4  12  28  47  70  99 128 161 205 266 304 354
#     4  12  28  44  76 104 124 164 228 252 300 392
#
# _framework density 20.919364000000002
#
# number of rings (size 3 to 8) (size 9 to 14) (size 15 to 20)
#    0.000    2.667    0.000    4.267    4.978    2.133 
#    0.000    4.444    0.000    8.533    0.000    0.000 
#    0.000    0.000    0.000    0.000    0.000    0.000 
#
# Total GULP energy -251026.693865 kJ/mol
# GULP energy per Si atom -5578.370975 kJ/mol
# Density = 2.087175 g / cm^3
# Si number density = 20.919364 Si / 1000 Ang^3
#
#
#
# Elastic Constant Matrix: (Units=GPa)
#
#
# Indices 1 2 3 4 5 6 
#
# 1 42.5310 35.1561 48.0459 0.0000 0.0000 -4.2086
# 2 35.1561 42.5310 48.0459 0.0000 0.0000 4.2086
# 3 48.0459 48.0459 194.9578 0.0000 0.0000 0.0000
# 4 0.0000 0.0000 0.0000 2468.1816 0.0000 0.0000
# 5 0.0000 0.0000 0.0000 0.0000 2468.1816 0.0000
# 6 -4.2086 4.2086 0.0000 0.0000 0.0000 28.1352
#
#
#
# Elastic Compliance Matrix: (Units=1/GPa)
#
#
# Indices 1 2 3 4 5 6 
#
# 1 0.091015 -0.072498 -0.004563 0.000000 0.000000 0.024459
# 2 -0.072498 0.091015 -0.004563 0.000000 0.000000 -0.024459
# 3 -0.004563 -0.004563 0.007378 0.000000 0.000000 0.000000
# 4 0.000000 0.000000 0.000000 0.000405 0.000000 0.000000
# 5 0.000000 0.000000 0.000000 0.000000 0.000405 0.000000
# 6 0.024459 -0.024459 0.000000 0.000000 0.000000 0.042860
#
#
# Mechanical properties :
#
#
# Convention : Reuss Voigt Hill
#
# Bulk Modulus (GPa) = 38.22859 60.27950 49.25405
# Shear Modulus (GPa) = 12.34425 1002.81780 507.58103
#
# Velocity S-wave (km/s) = 2.43181 21.91834 15.59371
# Velocity P-wave (km/s) = 5.11848 25.87333 18.64977
#
# Compressibility (1/GPa) = 0.02615843
#
# Stress axis : x y z
#
# Youngs Moduli (GPa) = 10.98725 10.98725 135.52945
#
# Poissons Ratio (x) = 0.79655 0.61845
# Poissons Ratio (y) = 0.79655 0.61845
# Poissons Ratio (z) = 0.05014 0.05014
#
# Static dielectric constant tensor:
#      x y z
#    x 1.682790 0.000000 0.000000 
#    y 0.000000 1.682790 0.000000 
#    z 0.000000 0.000000 1.782260 
# 
# From -- ./inp_files/3390.got.cif
#   From: 2010.05.17/outbox.cif.g08.bks.cpg/sg83_2_cif.got.tgz:3390.got - 2010.06.03 18:55:12.
