data_PCOD9543874
_publ_section_title
;
Structure prediction by ZEFSAII (Michael W. Deem and Ramdas Pophale) SiO2 
 PCOD9543874
Probable space group: P 4/M
;
_chemical_formula_sum "Si O2"
_cell_formula_units_Z 44
_cell_length_a 7.781297
_cell_length_b 7.781297
_cell_length_c 31.616808
_cell_angle_alpha 90.000000
_cell_angle_beta 90.000000
_cell_angle_gamma 90.000000
_cell_volume 1914.352923
_symmetry_space_group_name_H-M "P 4/M"
_symmetry_group_IT_number 83
_symmetry_cell_setting 'tetragonal'
loop_
_space_group_symop_operation_xyz
x,y,z
-y,x,z
-x,-y,z
y,-x,z
-x,-y,-z
y,-x,-z
x,y,-z
-y,x,-z
loop_
_atom_site_type_symbol
_atom_site_label
_atom_site_fract_x
_atom_site_fract_y
_atom_site_fract_z
Si Si1 0.000000 0.500000 0.115673
Si Si2 0.889028 0.270956 0.454794
Si Si3 0.728338 0.901414 0.364332
Si Si4 0.770974 0.393738 0.814749
Si Si5 0.890544 0.731314 0.952940
Si Si6 0.228744 0.597965 0.277428
O O1 0.900820 0.369914 0.146831
O O2 0.867935 0.598156 0.084804
O O3 0.851595 0.358747 0.500000
O O4 0.857909 0.359831 0.409517
O O5 0.089591 0.213579 0.454832
O O6 0.634530 0.866649 0.320728
O O7 0.902121 0.789233 0.364226
O O8 0.712722 0.594463 0.817273
O O9 0.853161 0.363687 0.768343
O O10 0.091699 0.786065 0.949977
O O11 0.859455 0.658614 0.000000
O O12 0.289411 0.401811 0.277749
#
# Coordination Sequence:
#
# PCOD9543874 Si02
#       6
#     4   8   8   8   8   8
#     4  12  19  30  56  82  96 124 171 210 238 276
#     4   7  10  19  37  62  92 121 145 177 230 288
#     4   9  17  28  46  74  99 117 149 199 243 280
#     4   9  20  36  50  69  98 128 160 202 247 289
#     4   9  19  35  52  74 107 139 164 195 238 288
#     4   9  19  35  50  63  87 127 167 195 232 291
#
# _framework density 22.984269999999999
#
# number of rings (size 3 to 8) (size 9 to 14) (size 15 to 20)
#    0.000    3.091    0.000    4.636    0.000    3.636 
#    0.000    0.000    0.000    3.273    0.000   14.000 
#    0.000    0.000    0.000    0.000    0.000    0.000 
#
# Total GULP energy -245589.513593 kJ/mol
# GULP energy per Si atom -5581.579854 kJ/mol
# Density = 2.293196 g / cm^3
# Si number density = 22.984270 Si / 1000 Ang^3
#
#
#
# Elastic Constant Matrix: (Units=GPa)
#
#
# Indices 1 2 3 4 5 6 
#
# 1 25.5743 0.9628 29.9701 0.0000 0.0000 0.1968
# 2 0.9628 25.5743 29.9701 0.0000 0.0000 -0.1968
# 3 29.9701 29.9701 247.3917 0.0000 0.0000 0.0000
# 4 0.0000 0.0000 0.0000 36.5779 0.0000 0.0000
# 5 0.0000 0.0000 0.0000 0.0000 36.5779 0.0000
# 6 0.1968 -0.1968 0.0000 0.0000 0.0000 13.0856
#
#
#
# Elastic Compliance Matrix: (Units=1/GPa)
#
#
# Indices 1 2 3 4 5 6 
#
# 1 0.046260 0.005619 -0.006285 0.000000 0.000000 -0.000611
# 2 0.005619 0.046260 -0.006285 0.000000 0.000000 0.000611
# 3 -0.006285 -0.006285 0.005565 0.000000 0.000000 0.000000
# 4 0.000000 0.000000 0.000000 0.027339 0.000000 0.000000
# 5 0.000000 0.000000 0.000000 0.000000 0.027339 0.000000
# 6 -0.000611 0.000611 0.000000 0.000000 0.000000 0.076438
#
#
# Mechanical properties :
#
#
# Convention : Reuss Voigt Hill
#
# Bulk Modulus (GPa) = 11.87881 46.70514 29.29197
# Shear Modulus (GPa) = 18.43902 33.09076 25.76489
#
# Velocity S-wave (km/s) = 2.83547 3.79847 3.35174
# Velocity P-wave (km/s) = 3.98739 6.29305 5.26791
#
# Compressibility (1/GPa) = 0.08418351
#
# Stress axis : x y z
#
# Youngs Moduli (GPa) = 21.61691 21.61691 179.69718
#
# Poissons Ratio (x) = -0.12146 1.12937
# Poissons Ratio (y) = -0.12146 1.12937
# Poissons Ratio (z) = 0.13586 0.13586
#
# Static dielectric constant tensor:
#      x y z
#    x 1.896350 0.000000 0.000000 
#    y 0.000000 1.896350 0.000000 
#    z 0.000000 0.000000 1.927340 
# 
# From -- ./inp_files/3353.got.cif
#   From: 2010.05.17/outbox.cif.g08.bks.cpg/sg83_2_cif.got.tgz:3353.got - 2010.06.03 18:55:12.
