data_PCOD9543581
_publ_section_title
;
Structure prediction by ZEFSAII (Michael W. Deem and Ramdas Pophale) SiO2 
 PCOD9543581
Probable space group: P 4/M
;
_chemical_formula_sum "Si O2"
_cell_formula_units_Z 40
_cell_length_a 12.268288
_cell_length_b 12.268288
_cell_length_c 14.075068
_cell_angle_alpha 90.000000
_cell_angle_beta 90.000000
_cell_angle_gamma 90.000000
_cell_volume 2118.451018
_symmetry_space_group_name_H-M "P 4/M"
_symmetry_group_IT_number 83
_symmetry_cell_setting 'tetragonal'
loop_
_space_group_symop_operation_xyz
x,y,z
-y,x,z
-x,-y,z
y,-x,z
-x,-y,-z
y,-x,-z
x,y,-z
-y,x,-z
loop_
_atom_site_type_symbol
_atom_site_label
_atom_site_fract_x
_atom_site_fract_y
_atom_site_fract_z
Si Si1 0.135937 0.739277 0.699235
Si Si2 0.123116 0.492692 0.748080
Si Si3 0.679511 0.529612 0.112199
Si Si4 0.093413 0.292302 0.611091
Si Si5 0.109286 0.851414 0.895475
O O1 0.152387 0.610425 0.705824
O O2 0.215890 0.803492 0.630395
O O3 0.151012 0.786156 0.805406
O O4 0.012717 0.758131 0.662734
O O5 0.213493 0.458682 0.824319
O O6 0.115539 0.405752 0.663801
O O7 0.000000 0.500000 0.789978
O O8 0.587013 0.620813 0.131258
O O9 0.705011 0.533963 0.000000
O O10 0.071863 0.305759 0.500000
O O11 0.977395 0.853716 0.890671
O O12 0.141138 0.808165 0.000000
#
# Coordination Sequence:
#
# PCOD9543581 Si02
#       5
#     8   8   8   8   8
#     4  11  21  38  61  86 117 150 194 244 288 350
#     4  10  23  38  56  81 117 156 188 229 289 356
#     4   9  18  36  62  87 111 144 190 241 287 334
#     4  11  24  40  59  84 112 152 196 246 299 343
#     4   9  17  32  56  85 119 153 183 225 283 346
#
# _framework density 18.881720000000001
#
# number of rings (size 3 to 8) (size 9 to 14) (size 15 to 20)
#    0.000    2.000    2.000    3.000    0.000    6.000 
#    0.000    5.000    0.000    0.000    0.000    4.200 
#    0.000    0.000    0.000    0.000    0.000    0.000 
#
# Total GULP energy -223422.462547 kJ/mol
# GULP energy per Si atom -5585.561564 kJ/mol
# Density = 1.883874 g / cm^3
# Si number density = 18.881720 Si / 1000 Ang^3
#
#
#
# Elastic Constant Matrix: (Units=GPa)
#
#
# Indices 1 2 3 4 5 6 
#
# 1 38.3654 4.4324 22.5044 0.0000 0.0000 -6.5999
# 2 4.4324 38.3654 22.5044 0.0000 0.0000 6.5999
# 3 22.5044 22.5044 108.5764 0.0000 0.0000 0.0000
# 4 0.0000 0.0000 0.0000 9.1937 0.0000 0.0000
# 5 0.0000 0.0000 0.0000 0.0000 9.1937 0.0000
# 6 -6.5999 6.5999 0.0000 0.0000 0.0000 14.2743
#
#
#
# Elastic Compliance Matrix: (Units=1/GPa)
#
#
# Indices 1 2 3 4 5 6 
#
# 1 0.032906 -0.003027 -0.006193 0.000000 0.000000 0.016614
# 2 -0.003027 0.032906 -0.006193 0.000000 0.000000 -0.016614
# 3 -0.006193 -0.006193 0.011777 0.000000 0.000000 0.000000
# 4 0.000000 0.000000 0.000000 0.108771 0.000000 0.000000
# 5 0.000000 0.000000 0.000000 0.000000 0.108771 0.000000
# 6 0.016614 -0.016614 0.000000 0.000000 0.000000 0.085419
#
#
# Mechanical properties :
#
#
# Convention : Reuss Voigt Hill
#
# Bulk Modulus (GPa) = 21.38451 31.57659 26.48055
# Shear Modulus (GPa) = 11.71063 15.59005 13.65034
#
# Velocity S-wave (km/s) = 2.49310 2.87656 2.69167
# Velocity P-wave (km/s) = 4.43142 5.27186 4.86981
#
# Compressibility (1/GPa) = 0.04676282
#
# Stress axis : x y z
#
# Youngs Moduli (GPa) = 30.39000 30.39000 84.90943
#
# Poissons Ratio (x) = 0.09199 0.52583
# Poissons Ratio (y) = 0.09199 0.52583
# Poissons Ratio (z) = 0.18820 0.18820
#
# Static dielectric constant tensor:
#      x y z
#    x 1.657970 0.000000 0.000000 
#    y 0.000000 1.657970 0.000000 
#    z 0.000000 0.000000 1.621680 
# 
# From -- ./inp_files/2264.got.cif
#   From: 2010.05.17/outbox.cif.g08.bks.cpg/sg83_2_cif.got.tgz:2264.got - 2010.06.03 18:55:12.
