data_PCOD9543763
_publ_section_title
;
Structure prediction by ZEFSAII (Michael W. Deem and Ramdas Pophale) SiO2 
 PCOD9543763
Probable space group: P 4/M
;
_chemical_formula_sum "Si O2"
_cell_formula_units_Z 32
_cell_length_a 8.078484
_cell_length_b 8.078484
_cell_length_c 21.522757
_cell_angle_alpha 90.000000
_cell_angle_beta 90.000000
_cell_angle_gamma 90.000000
_cell_volume 1404.616096
_symmetry_space_group_name_H-M "P 4/M"
_symmetry_group_IT_number 83
_symmetry_cell_setting 'tetragonal'
loop_
_space_group_symop_operation_xyz
x,y,z
-y,x,z
-x,-y,z
y,-x,z
-x,-y,-z
y,-x,-z
x,y,-z
-y,x,-z
loop_
_atom_site_type_symbol
_atom_site_label
_atom_site_fract_x
_atom_site_fract_y
_atom_site_fract_z
Si Si1 0.236519 0.597758 0.634853
Si Si2 0.915087 0.265542 0.000000
Si Si3 0.086755 0.735891 0.242682
Si Si4 0.762376 0.399803 0.500000
Si Si5 0.584857 0.765363 0.121499
O O1 0.296280 0.407248 0.638479
O O2 0.124829 0.647533 0.692405
O O3 0.156573 0.630794 0.566914
O O4 0.870900 0.366796 0.938500
O O5 0.101773 0.200178 0.000000
O O6 0.138421 0.624859 0.184540
O O7 0.899752 0.798866 0.239323
O O8 0.703794 0.591134 0.500000
O O9 0.398264 0.700137 0.120010
#
# Coordination Sequence:
#
# PCOD9543763 Si02
#       5
#     8   4   8   4   8
#     4   9  17  32  56  83 108 138 180 228 277 330
#     4  11  24  41  62  90 122 153 184 219 264 320
#     4  11  24  39  54  77 111 149 187 227 275 330
#     4   7  12  26  50  79 108 136 172 223 276 325
#     4  11  24  41  62  88 114 143 185 232 274 321
#
# _framework density 22.782024
#
# number of rings (size 3 to 8) (size 9 to 14) (size 15 to 20)
#    0.000    2.000    0.000    5.250    0.000   13.000 
#    0.000    1.250    0.000    6.000    0.000    0.000 
#    0.000    0.000    0.000    0.000    0.000    0.000 
#
# Total GULP energy -179287.491696 kJ/mol
# GULP energy per Si atom -5602.734116 kJ/mol
# Density = 2.273017 g / cm^3
# Si number density = 22.782024 Si / 1000 Ang^3
#
#
#
# Elastic Constant Matrix: (Units=GPa)
#
#
# Indices 1 2 3 4 5 6 
#
# 1 85.5888 56.9449 58.0206 0.0000 0.0000 1.3891
# 2 56.9449 85.5888 58.0206 0.0000 0.0000 -1.3891
# 3 58.0206 58.0206 231.2732 0.0000 0.0000 0.0000
# 4 0.0000 0.0000 0.0000 899.3637 0.0000 0.0000
# 5 0.0000 0.0000 0.0000 0.0000 899.3637 0.0000
# 6 1.3891 -1.3891 0.0000 0.0000 0.0000 42.5523
#
#
#
# Elastic Compliance Matrix: (Units=1/GPa)
#
#
# Indices 1 2 3 4 5 6 
#
# 1 0.021919 -0.013103 -0.002212 0.000000 0.000000 -0.001143
# 2 -0.013103 0.021919 -0.002212 0.000000 0.000000 0.001143
# 3 -0.002212 -0.002212 0.005434 0.000000 0.000000 0.000000
# 4 0.000000 0.000000 0.000000 0.001112 0.000000 0.000000
# 5 0.000000 0.000000 0.000000 0.000000 0.001112 0.000000
# 6 -0.001143 0.001143 0.000000 0.000000 0.000000 0.023575
#
#
# Mechanical properties :
#
#
# Convention : Reuss Voigt Hill
#
# Bulk Modulus (GPa) = 70.32606 83.15814 76.74210
# Shear Modulus (GPa) = 43.52951 383.55358 213.54154
#
# Velocity S-wave (km/s) = 4.37589 12.98936 9.69206
# Velocity P-wave (km/s) = 7.51448 16.17237 12.60978
#
# Compressibility (1/GPa) = 0.01421948
#
# Stress axis : x y z
#
# Youngs Moduli (GPa) = 45.62152 45.62152 184.03674
#
# Poissons Ratio (x) = 0.59777 0.40707
# Poissons Ratio (y) = 0.59777 0.40707
# Poissons Ratio (z) = 0.10091 0.10091
#
# Static dielectric constant tensor:
#      x y z
#    x 1.819630 0.000000 0.000000 
#    y 0.000000 1.819630 0.000000 
#    z 0.000000 0.000000 1.810430 
# 
# From -- ./inp_files/2810.got.cif
#   From: 2010.05.17/outbox.cif.g08.bks.cpg/sg83_2_cif.got.tgz:2810.got - 2010.06.03 18:55:12.
