data_PCOD9543440
_publ_section_title
;
Structure prediction by ZEFSAII (Michael W. Deem and Ramdas Pophale) SiO2 
 PCOD9543440
Probable space group: P 4/M
;
_chemical_formula_sum "Si O2"
_cell_formula_units_Z 40
_cell_length_a 16.301759
_cell_length_b 16.301759
_cell_length_c 8.182654
_cell_angle_alpha 90.000000
_cell_angle_beta 90.000000
_cell_angle_gamma 90.000000
_cell_volume 2174.518588
_symmetry_space_group_name_H-M "P 4/M"
_symmetry_group_IT_number 83
_symmetry_cell_setting 'tetragonal'
loop_
_space_group_symop_operation_xyz
x,y,z
-y,x,z
-x,-y,z
y,-x,z
-x,-y,-z
y,-x,-z
x,y,-z
-y,x,-z
loop_
_atom_site_type_symbol
_atom_site_label
_atom_site_fract_x
_atom_site_fract_y
_atom_site_fract_z
Si Si1 0.458931 0.083692 0.199069
Si Si2 0.338233 0.324853 0.309978
Si Si3 0.883395 0.937497 0.199506
Si Si4 0.852858 0.283265 0.197689
Si Si5 0.736940 0.508440 0.808154
O O1 0.364405 0.096908 0.249447
O O2 0.505330 0.167721 0.246428
O O3 0.500000 0.000000 0.259385
O O4 0.459961 0.080216 0.000000
O O5 0.322892 0.337606 0.500000
O O6 0.295600 0.240487 0.253397
O O7 0.303414 0.403746 0.218013
O O8 0.435030 0.311250 0.279590
O O9 0.800813 0.893747 0.256435
O O10 0.967413 0.892216 0.249291
O O11 0.882191 0.936913 0.000000
O O12 0.852873 0.282312 0.000000
O O13 0.512647 0.736504 0.000000
#
# Coordination Sequence:
#
# PCOD9543440 Si02
#       5
#     8   8   8   8   8
#     4   8  15  28  48  75 102 127 162 209 254 296
#     4  11  22  36  53  75 105 136 167 205 252 302
#     4   8  14  25  44  73 104 131 169 224 271 301
#     4   9  17  30  49  72  99 134 173 211 255 306
#     4  10  20  36  57  79 103 132 170 211 252 300
#
# _framework density 18.394876
#
# number of rings (size 3 to 8) (size 9 to 14) (size 15 to 20)
#    0.000    2.800    0.000    4.200    0.000    2.000 
#    0.000    8.000    0.000   21.000    0.000    1.400 
#    0.000    0.000    0.000    0.000    0.000    0.000 
#
# Total GULP energy -223041.413406 kJ/mol
# GULP energy per Si atom -5576.035335 kJ/mol
# Density = 1.835301 g / cm^3
# Si number density = 18.394876 Si / 1000 Ang^3
#
#
#
# Elastic Constant Matrix: (Units=GPa)
#
#
# Indices 1 2 3 4 5 6 
#
# 1 112.7586 72.4922 -11.9011 0.0000 0.0000 17.9319
# 2 72.4922 112.7586 -11.9011 0.0000 0.0000 -17.9319
# 3 -11.9011 -11.9011 13.7582 0.0000 0.0000 0.0000
# 4 0.0000 0.0000 0.0000 0.6618 0.0000 0.0000
# 5 0.0000 0.0000 0.0000 0.0000 0.6618 0.0000
# 6 17.9319 -17.9319 0.0000 0.0000 0.0000 29.6804
#
#
#
# Elastic Compliance Matrix: (Units=1/GPa)
#
#
# Indices 1 2 3 4 5 6 
#
# 1 0.029920 -0.023847 0.005253 0.000000 0.000000 -0.032484
# 2 -0.023847 0.029920 0.005253 0.000000 0.000000 0.032484
# 3 0.005253 0.005253 0.081772 0.000000 0.000000 0.000000
# 4 0.000000 0.000000 0.000000 1.510990 0.000000 0.000000
# 5 0.000000 0.000000 0.000000 0.000000 1.510990 0.000000
# 6 -0.032484 0.032484 0.000000 0.000000 0.000000 0.072944
#
#
# Mechanical properties :
#
#
# Convention : Reuss Voigt Hill
#
# Bulk Modulus (GPa) = 8.70081 37.40616 23.05349
# Shear Modulus (GPa) = 1.51445 18.90650 10.21048
#
# Velocity S-wave (km/s) = 0.90834 3.20943 2.35855
# Velocity P-wave (km/s) = 2.41669 5.84065 4.46954
#
# Compressibility (1/GPa) = 0.11493177
#
# Stress axis : x y z
#
# Youngs Moduli (GPa) = 33.42237 33.42237 12.22907
#
# Poissons Ratio (x) = 0.79702 -0.06424
# Poissons Ratio (y) = 0.79702 -0.06424
# Poissons Ratio (z) = -0.17558 -0.17558
#
# Static dielectric constant tensor:
#      x y z
#    x 1.614470 0.000000 0.000000 
#    y 0.000000 1.614470 0.000000 
#    z 0.000000 0.000000 1.633910 
# 
# From -- ./inp_files/648.got.cif
#   From: 2010.05.17/outbox.cif.g08.bks.cpg/sg83_1_cif.got.tgz:648.got - 2010.06.03 18:55:12.
