data_PCOD9543659
_publ_section_title
;
Structure prediction by ZEFSAII (Michael W. Deem and Ramdas Pophale) SiO2 
 PCOD9543659
Probable space group: P 4/M
;
_chemical_formula_sum "Si O2"
_cell_formula_units_Z 52
_cell_length_a 14.845229
_cell_length_b 14.845229
_cell_length_c 10.998396
_cell_angle_alpha 90.000000
_cell_angle_beta 90.000000
_cell_angle_gamma 90.000000
_cell_volume 2423.835574
_symmetry_space_group_name_H-M "P 4/M"
_symmetry_group_IT_number 83
_symmetry_cell_setting 'tetragonal'
loop_
_space_group_symop_operation_xyz
x,y,z
-y,x,z
-x,-y,z
y,-x,z
-x,-y,-z
y,-x,-z
x,y,-z
-y,x,-z
loop_
_atom_site_type_symbol
_atom_site_label
_atom_site_fract_x
_atom_site_fract_y
_atom_site_fract_z
Si Si1 0.371483 0.581799 0.137404
Si Si2 0.107042 0.477804 0.631164
Si Si3 0.058983 0.409729 0.868634
Si Si4 0.644342 0.756723 0.356286
Si Si5 0.001465 0.220541 0.864618
Si Si6 0.935791 0.863417 0.500000
Si Si7 0.164628 0.168916 0.268467
O O1 0.380076 0.473231 0.143554
O O2 0.315989 0.615022 0.254591
O O3 0.335537 0.604017 0.000000
O O4 0.130450 0.435976 0.500000
O O5 0.120823 0.416833 0.749870
O O6 0.164806 0.568495 0.644166
O O7 0.000000 0.500000 0.627431
O O8 0.989446 0.327641 0.855872
O O9 0.000000 0.500000 0.872712
O O10 0.105492 0.400562 0.000000
O O11 0.651419 0.727639 0.500000
O O12 0.739026 0.795440 0.308393
O O13 0.107959 0.210711 0.841450
O O14 0.935697 0.172552 0.770518
O O15 0.979176 0.189133 0.000000
O O16 0.901175 0.814502 0.381366
O O17 0.040554 0.884334 0.500000
#
# Coordination Sequence:
#
# PCOD9543659 Si02
#       7
#     8   8   8   8   8   4   8
#     4   9  21  45  73  97 126 170 219 267 324 390
#     4   9  18  35  55  83 119 161 203 245 299 371
#     4   9  18  36  58  82 112 151 196 241 300 371
#     4  11  24  39  64  99 134 168 212 265 330 391
#     4  11  25  41  61  89 122 164 213 266 322 375
#     4  11  22  42  66  88 112 167 232 268 314 381
#     4  12  23  42  62  88 126 166 211 266 320 381
#
# _framework density 21.453598
#
# number of rings (size 3 to 8) (size 9 to 14) (size 15 to 20)
#    0.000    1.769    2.308    2.769    0.000    4.000 
#    2.769    6.154    0.000    0.000    0.000    0.000 
#    0.000    0.000    0.000    0.000    0.000    0.000 
#
# Total GULP energy -289932.690797 kJ/mol
# GULP energy per Si atom -5575.628669 kJ/mol
# Density = 2.140477 g / cm^3
# Si number density = 21.453598 Si / 1000 Ang^3
#
#
#
# Elastic Constant Matrix: (Units=GPa)
#
#
# Indices 1 2 3 4 5 6 
#
# 1 22.8554 20.3686 32.8597 0.0000 0.0000 -12.6606
# 2 20.3686 22.8554 32.8597 0.0000 0.0000 12.6606
# 3 32.8597 32.8597 193.5453 0.0000 0.0000 0.0000
# 4 0.0000 0.0000 0.0000 25.0220 0.0000 0.0000
# 5 0.0000 0.0000 0.0000 0.0000 25.0220 0.0000
# 6 -12.6606 12.6606 0.0000 0.0000 0.0000 17.3648
#
#
#
# Elastic Compliance Matrix: (Units=1/GPa)
#
#
# Indices 1 2 3 4 5 6 
#
# 1 -0.015707 0.046892 -0.005295 0.000000 0.000000 -0.045640
# 2 0.046892 -0.015707 -0.005295 0.000000 0.000000 0.045640
# 3 -0.005295 -0.005295 0.006965 0.000000 0.000000 0.000000
# 4 0.000000 0.000000 0.000000 0.039965 0.000000 0.000000
# 5 0.000000 0.000000 0.000000 0.000000 0.039965 0.000000
# 6 -0.045640 0.045640 0.000000 0.000000 0.000000 -0.008965
#
#
# Mechanical properties :
#
#
# Convention : Reuss Voigt Hill
#
# Bulk Modulus (GPa) = 20.76542 45.71468 33.24005
# Shear Modulus (GPa) = -498.15911 23.69296 -237.23308
#
# Velocity S-wave (km/s) = -15.25474 3.32683 -10.52709
# Velocity P-wave (km/s) = 17.33713 6.00932 11.49922
#
# Compressibility (1/GPa) = 0.04815698
#
# Stress axis : x y z
#
# Youngs Moduli (GPa) = -63.66737 -63.66737 143.58416
#
# Poissons Ratio (x) = 2.98549 0.76022
# Poissons Ratio (y) = 2.98549 0.76022
# Poissons Ratio (z) = -0.33709 -0.33709
#
# Static dielectric constant tensor:
#      x y z
#    x 1.759160 0.000000 0.000000 
#    y 0.000000 1.759160 0.000000 
#    z 0.000000 0.000000 1.856640 
# 
# From -- ./inp_files/1940.got.cif
#   From: 2010.05.17/outbox.cif.g08.bks.cpg/sg83_1_cif.got.tgz:1940.got - 2010.06.03 18:55:12.
