data_PCOD9543140
_publ_section_title
;
Structure prediction by ZEFSAII (Michael W. Deem and Ramdas Pophale) SiO2 
 PCOD9543140
Probable space group: I -4 
;
_chemical_formula_sum "Si O2"
_cell_formula_units_Z 48
_cell_length_a 15.976608
_cell_length_b 15.976608
_cell_length_c 7.005681
_cell_angle_alpha 90.000000
_cell_angle_beta 90.000000
_cell_angle_gamma 90.000000
_cell_volume 1788.214109
_symmetry_space_group_name_H-M "I -4 "
_symmetry_group_IT_number 82
_symmetry_cell_setting 'tetragonal'
loop_
_space_group_symop_operation_xyz
x,y,z
y,-x,-z
-x,-y,z
-y,x,-z
1/2+x,1/2+y,1/2+z
1/2+y,1/2-x,1/2-z
1/2-x,1/2-y,1/2+z
1/2-y,1/2+x,1/2-z
loop_
_atom_site_type_symbol
_atom_site_label
_atom_site_fract_x
_atom_site_fract_y
_atom_site_fract_z
Si Si1 0.699445 0.947810 0.257117
Si Si2 0.377038 0.033263 0.848937
Si Si3 0.393004 0.551926 0.602569
Si Si4 0.319293 0.652248 0.331010
Si Si5 0.274183 0.144347 0.622932
Si Si6 0.078326 0.180676 0.547709
O O1 0.675047 0.887576 0.435049
O O2 0.776965 0.890666 0.180580
O O3 0.636065 0.966559 0.080681
O O4 0.737620 0.030345 0.366349
O O5 0.307954 0.229986 0.708210
O O6 0.290546 0.070720 0.771492
O O7 0.448338 0.096898 0.763377
O O8 0.470485 0.602416 0.523655
O O9 0.315927 0.609035 0.537555
O O10 0.390510 0.535324 0.824308
O O11 0.329405 0.578267 0.177260
O O12 0.177695 0.164135 0.579491
#
# Coordination Sequence:
#
# PCOD9543140 Si02
#       6
#     8   8   8   8   8   8
#     4  11  27  50  80 120 167 218 280 360 430 522
#     4  11  29  54  82 119 167 224 291 365 444 526
#     4  11  25  43  70 108 156 207 263 335 420 511
#     4  11  27  47  76 116 160 217 281 353 427 517
#     4  11  29  46  82 119 162 222 293 350 430 531
#     4  11  27  46  77 116 159 219 272 347 435 512
#
# _framework density 26.842420000000001
#
# number of rings (size 3 to 8) (size 9 to 14) (size 15 to 20)
#    0.000    1.000    1.667    1.000   18.667    1.333 
#    0.000    3.333    0.000    0.000    0.000    0.000 
#    0.000    0.000    0.000    0.000    0.000    0.000 
#
# Total GULP energy -133946.503732 kJ/mol
# GULP energy per Si atom -5581.104322 kJ/mol
# Density = 2.678133 g / cm^3
# Si number density = 26.842420 Si / 1000 Ang^3
#
#
#
# Elastic Constant Matrix: (Units=GPa)
#
#
# Indices 1 2 3 4 5 6 
#
# 1 88.6173 43.2585 38.2308 0.0000 0.0000 0.5910
# 2 43.2585 88.6173 38.2308 0.0000 0.0000 -0.5910
# 3 38.2308 38.2308 184.2003 0.0000 0.0000 0.0000
# 4 0.0000 0.0000 0.0000 37.4138 0.0000 0.0000
# 5 0.0000 0.0000 0.0000 0.0000 37.4138 0.0000
# 6 0.5910 -0.5910 0.0000 0.0000 0.0000 36.1730
#
#
#
# Elastic Compliance Matrix: (Units=1/GPa)
#
#
# Indices 1 2 3 4 5 6 
#
# 1 0.015338 -0.006718 -0.001789 0.000000 0.000000 -0.000360
# 2 -0.006718 0.015338 -0.001789 0.000000 0.000000 0.000360
# 3 -0.001789 -0.001789 0.006172 0.000000 0.000000 0.000000
# 4 0.000000 0.000000 0.000000 0.026728 0.000000 0.000000
# 5 0.000000 0.000000 0.000000 0.000000 0.026728 0.000000
# 6 -0.000360 0.000360 0.000000 0.000000 0.000000 0.027657
#
#
# Mechanical properties :
#
#
# Convention : Reuss Voigt Hill
#
# Bulk Modulus (GPa) = 61.51772 66.76390 64.14081
# Shear Modulus (GPa) = 34.72918 38.31442 36.52180
#
# Velocity S-wave (km/s) = 3.60087 3.78217 3.69263
# Velocity P-wave (km/s) = 6.34478 6.63322 6.49060
#
# Compressibility (1/GPa) = 0.01625548
#
# Stress axis : x y z
#
# Youngs Moduli (GPa) = 65.19748 65.19748 162.03405
#
# Poissons Ratio (x) = 0.43798 0.28990
# Poissons Ratio (y) = 0.43798 0.28990
# Poissons Ratio (z) = 0.11665 0.11665
#
# Static dielectric constant tensor:
#      x y z
#    x 2.189460 0.000000 0.000000 
#    y 0.000000 2.189460 0.000000 
#    z 0.000000 0.000000 2.235840 
# 
# From -- ./inp_files/1041.got.cif
#   From: 2010.05.17/outbox.cif.g08.bks.cpg/sg82_1_cif.got.tgz:1041.got - 2010.06.03 18:52:26.
