data_PCOD9543443
_publ_section_title
;
Structure prediction by ZEFSAII (Michael W. Deem and Ramdas Pophale) SiO2 
 PCOD9543443
Probable space group: P 4/M
;
_chemical_formula_sum "Si O2"
_cell_formula_units_Z 52
_cell_length_a 18.256494
_cell_length_b 18.256494
_cell_length_c 7.834623
_cell_angle_alpha 90.000000
_cell_angle_beta 90.000000
_cell_angle_gamma 90.000000
_cell_volume 2611.276502
_symmetry_space_group_name_H-M "P 4/M"
_symmetry_group_IT_number 83
_symmetry_cell_setting 'tetragonal'
loop_
_space_group_symop_operation_xyz
x,y,z
-y,x,z
-x,-y,z
y,-x,z
-x,-y,-z
y,-x,-z
x,y,-z
-y,x,-z
loop_
_atom_site_type_symbol
_atom_site_label
_atom_site_fract_x
_atom_site_fract_y
_atom_site_fract_z
Si Si1 0.569943 0.600063 0.000000
Si Si2 0.801352 0.539644 0.701851
Si Si3 0.884182 0.020897 0.294177
Si Si4 0.038392 0.429614 0.195216
Si Si5 0.243028 0.302576 0.204589
Si Si6 0.078065 0.274316 0.795386
Si Si7 0.397260 0.293035 0.303795
O O1 0.482242 0.598239 0.000000
O O2 0.595501 0.642330 0.167916
O O3 0.817749 0.541490 0.500000
O O4 0.875962 0.550643 0.803841
O O5 0.753918 0.611446 0.745142
O O6 0.762991 0.462615 0.738909
O O7 0.885670 0.020447 0.500000
O O8 0.802031 0.039095 0.240976
O O9 0.942739 0.082750 0.236510
O O10 0.037082 0.347547 0.271572
O O11 0.000000 0.500000 0.278798
O O12 0.010040 0.424514 0.000000
O O13 0.162987 0.275047 0.264901
O O14 0.314376 0.263991 0.282210
O O15 0.246192 0.295985 0.000000
O O16 0.081858 0.283860 0.000000
O O17 0.407864 0.316301 0.500000
#
# Coordination Sequence:
#
# PCOD9543443 Si02
#       7
#     4   8   8   8   8   8   8
#     4  11  24  38  56  80 109 150 192 237 301 356
#     4  10  21  35  55  82 111 146 188 239 291 349
#     4   9  19  37  59  83 114 156 197 231 284 354
#     4   9  19  37  59  82 113 154 194 233 288 356
#     4  10  20  36  58  80 110 150 192 236 293 356
#     4   9  19  35  57  87 114 145 191 238 286 345
#     4  11  23  37  56  84 112 145 196 247 292 352
#
# _framework density 19.913633000000001
#
# number of rings (size 3 to 8) (size 9 to 14) (size 15 to 20)
#    0.000    2.231    0.769    3.231    2.154    5.846 
#    2.769    1.538    0.000    0.000    0.000    0.000 
#    0.000    0.000    0.000    0.000    0.000    0.000 
#
# Total GULP energy -290005.436289 kJ/mol
# GULP energy per Si atom -5577.027621 kJ/mol
# Density = 1.986831 g / cm^3
# Si number density = 19.913633 Si / 1000 Ang^3
#
#
#
# Elastic Constant Matrix: (Units=GPa)
#
#
# Indices 1 2 3 4 5 6 
#
# 1 102.4963 66.4407 8.8663 0.0000 0.0000 -13.4249
# 2 66.4407 102.4963 8.8663 0.0000 0.0000 13.4249
# 3 8.8663 8.8663 44.1199 0.0000 0.0000 0.0000
# 4 0.0000 0.0000 0.0000 18.0892 0.0000 0.0000
# 5 0.0000 0.0000 0.0000 0.0000 18.0892 0.0000
# 6 -13.4249 13.4249 0.0000 0.0000 0.0000 21.7520
#
#
#
# Elastic Compliance Matrix: (Units=1/GPa)
#
#
# Indices 1 2 3 4 5 6 
#
# 1 0.028685 -0.022638 -0.001215 0.000000 0.000000 0.031676
# 2 -0.022638 0.028685 -0.001215 0.000000 0.000000 -0.031676
# 3 -0.001215 -0.001215 0.023154 0.000000 0.000000 0.000000
# 4 0.000000 0.000000 0.000000 0.055282 0.000000 0.000000
# 5 0.000000 0.000000 0.000000 0.000000 0.055282 0.000000
# 6 0.031676 -0.031676 0.000000 0.000000 0.000000 0.085072
#
#
# Mechanical properties :
#
#
# Convention : Reuss Voigt Hill
#
# Bulk Modulus (GPa) = 32.90877 46.38433 39.64655
# Shear Modulus (GPa) = 14.86216 22.58203 18.72209
#
# Velocity S-wave (km/s) = 2.73487 3.37114 3.06954
# Velocity P-wave (km/s) = 5.15115 6.20452 5.70221
#
# Compressibility (1/GPa) = 0.03038703
#
# Stress axis : x y z
#
# Youngs Moduli (GPa) = 34.86147 34.86147 43.18921
#
# Poissons Ratio (x) = 0.78920 0.05248
# Poissons Ratio (y) = 0.78920 0.05248
# Poissons Ratio (z) = 0.04236 0.04236
#
# Static dielectric constant tensor:
#      x y z
#    x 1.723080 0.000000 0.000000 
#    y 0.000000 1.723080 0.000000 
#    z 0.000000 0.000000 1.725150 
# 
# From -- ./inp_files/991.got.cif
#   From: 2010.05.17/outbox.cif.g08.bks.cpg/sg83_1_cif.got.tgz:991.got - 2010.06.03 18:55:12.
