data_PCOD9543544
_publ_section_title
;
Structure prediction by ZEFSAII (Michael W. Deem and Ramdas Pophale) SiO2 
 PCOD9543544
Probable space group: P 4/M
;
_chemical_formula_sum "Si O2"
_cell_formula_units_Z 48
_cell_length_a 8.018270
_cell_length_b 8.018270
_cell_length_c 34.435874
_cell_angle_alpha 90.000000
_cell_angle_beta 90.000000
_cell_angle_gamma 90.000000
_cell_volume 2213.973725
_symmetry_space_group_name_H-M "P 4/M"
_symmetry_group_IT_number 83
_symmetry_cell_setting 'tetragonal'
loop_
_space_group_symop_operation_xyz
x,y,z
-y,x,z
-x,-y,z
y,-x,z
-x,-y,-z
y,-x,-z
x,y,-z
-y,x,-z
loop_
_atom_site_type_symbol
_atom_site_label
_atom_site_fract_x
_atom_site_fract_y
_atom_site_fract_z
Si Si1 0.903235 0.735860 0.043265
Si Si2 0.233112 0.588645 0.828040
Si Si3 0.235486 0.402277 0.457037
Si Si4 0.412294 0.765792 0.303513
Si Si5 0.500000 0.000000 0.238916
Si Si6 0.500000 0.000000 0.893644
Si Si7 0.734974 0.088703 0.380077
O O1 0.096322 0.795247 0.046007
O O2 0.882339 0.607103 0.077957
O O3 0.875559 0.664534 0.000000
O O4 0.297338 0.396231 0.828556
O O5 0.122323 0.602399 0.789398
O O6 0.113587 0.610723 0.865071
O O7 0.406322 0.295017 0.454479
O O8 0.161842 0.373285 0.500000
O O9 0.122815 0.350958 0.421209
O O10 0.297985 0.602317 0.301152
O O11 0.387293 0.889609 0.267615
O O12 0.377809 0.855437 0.344158
O O13 0.900017 0.203350 0.377571
#
# Coordination Sequence:
#
# PCOD9543544 Si02
#       7
#     8   8   8   8   4   4   8
#     4   9  18  32  50  76 113 155 198 245 297 350
#     4  10  22  39  58  83 115 149 186 231 288 352
#     4   9  19  37  60  85 114 153 203 252 295 343
#     4  11  23  40  64  90 116 149 189 233 284 347
#     4  11  22  38  63  86 108 140 183 228 276 341
#     4  11  19  32  57  84 110 148 199 248 289 337
#     4  11  24  39  56  85 124 159 194 241 293 343
#
# _framework density 21.680471000000001
#
# number of rings (size 3 to 8) (size 9 to 14) (size 15 to 20)
#    0.000    1.833    0.000    5.250    0.000    5.333 
#    0.000    2.500    0.000   18.500    0.000    7.000 
#    0.000    0.000    0.000    0.000    0.000    0.000 
#
# Total GULP energy -268552.596372 kJ/mol
# GULP energy per Si atom -5594.845758 kJ/mol
# Density = 2.163113 g / cm^3
# Si number density = 21.680471 Si / 1000 Ang^3
#
#
#
# Elastic Constant Matrix: (Units=GPa)
#
#
# Indices 1 2 3 4 5 6 
#
# 1 71.6205 18.2125 44.0858 0.0000 0.0000 0.7570
# 2 18.2125 71.6205 44.0858 0.0000 0.0000 -0.7570
# 3 44.0858 44.0858 184.9761 0.0000 0.0000 0.0000
# 4 0.0000 0.0000 0.0000 34.0150 0.0000 0.0000
# 5 0.0000 0.0000 0.0000 0.0000 34.0150 0.0000
# 6 0.7570 -0.7570 0.0000 0.0000 0.0000 27.5757
#
#
#
# Elastic Compliance Matrix: (Units=1/GPa)
#
#
# Indices 1 2 3 4 5 6 
#
# 1 0.016635 -0.002104 -0.003463 0.000000 0.000000 -0.000514
# 2 -0.002104 0.016635 -0.003463 0.000000 0.000000 0.000514
# 3 -0.003463 -0.003463 0.007057 0.000000 0.000000 0.000000
# 4 0.000000 0.000000 0.000000 0.029399 0.000000 0.000000
# 5 0.000000 0.000000 0.000000 0.000000 0.029399 0.000000
# 6 -0.000514 0.000514 0.000000 0.000000 0.000000 0.036292
#
#
# Mechanical properties :
#
#
# Convention : Reuss Voigt Hill
#
# Bulk Modulus (GPa) = 44.91162 60.10949 52.51055
# Shear Modulus (GPa) = 31.07561 33.91002 32.49282
#
# Velocity S-wave (km/s) = 3.79006 3.95914 3.87552
# Velocity P-wave (km/s) = 6.31767 6.97747 6.65575
#
# Compressibility (1/GPa) = 0.02226595
#
# Stress axis : x y z
#
# Youngs Moduli (GPa) = 60.11552 60.11552 141.70559
#
# Poissons Ratio (x) = 0.12647 0.49075
# Poissons Ratio (y) = 0.12647 0.49075
# Poissons Ratio (z) = 0.20819 0.20819
#
# Static dielectric constant tensor:
#      x y z
#    x 1.793600 0.000000 0.000000 
#    y 0.000000 1.793600 0.000000 
#    z 0.000000 0.000000 1.772520 
# 
# From -- ./inp_files/3467.got.cif
#   From: 2010.05.17/outbox.cif.g08.bks.cpg/sg83_2_cif.got.tgz:3467.got - 2010.06.03 18:55:12.
