data_PCOD9543258
_publ_section_title
;
Structure prediction by ZEFSAII (Michael W. Deem and Ramdas Pophale) SiO2 
 PCOD9543258
Probable space group: P 4/M
;
_chemical_formula_sum "Si O2"
_cell_formula_units_Z 56
_cell_length_a 12.404095
_cell_length_b 12.404095
_cell_length_c 21.848471
_cell_angle_alpha 90.000000
_cell_angle_beta 90.000000
_cell_angle_gamma 90.000000
_cell_volume 3361.640111
_symmetry_space_group_name_H-M "P 4/M"
_symmetry_group_IT_number 83
_symmetry_cell_setting 'tetragonal'
loop_
_space_group_symop_operation_xyz
x,y,z
-y,x,z
-x,-y,z
y,-x,z
-x,-y,-z
y,-x,-z
x,y,-z
-y,x,-z
loop_
_atom_site_type_symbol
_atom_site_label
_atom_site_fract_x
_atom_site_fract_y
_atom_site_fract_z
Si Si1 0.676106 0.468816 0.426998
Si Si2 0.022704 0.623509 0.122575
Si Si3 0.876846 0.496949 0.343650
Si Si4 0.158448 0.294381 0.268455
Si Si5 0.765245 0.407039 0.069179
Si Si6 0.090486 0.696108 0.251941
Si Si7 0.635533 0.215029 0.131563
O O1 0.620311 0.584545 0.412822
O O2 0.694895 0.465611 0.500000
O O3 0.786362 0.454920 0.390072
O O4 0.107651 0.619691 0.068624
O O5 0.082758 0.680993 0.178909
O O6 0.000000 0.500000 0.143338
O O7 0.904486 0.666852 0.107150
O O8 0.836640 0.613329 0.319862
O O9 0.887754 0.417674 0.285255
O O10 0.000000 0.500000 0.368898
O O11 0.225450 0.184805 0.273983
O O12 0.200117 0.346844 0.204320
O O13 0.031217 0.267759 0.266573
O O14 0.704553 0.308886 0.101185
O O15 0.758816 0.513525 0.111197
O O16 0.726512 0.426569 0.000000
#
# Coordination Sequence:
#
# PCOD9543258 Si02
#       7
#     8   8   8   8   8   8   8
#     4   9  18  33  51  73 106 145 179 211 245 288
#     4   9  18  34  52  70  94 122 161 202 241 293
#     4  10  19  31  51  79 105 134 169 211 254 292
#     4  10  20  32  54  72 101 130 161 209 249 300
#     4  11  21  34  53  72  95 127 159 198 248 302
#     4  10  18  33  51  76 100 129 163 203 253 295
#     4  10  21  35  51  72  97 126 160 201 249 299
#
# _framework density 16.658536000000002
#
# number of rings (size 3 to 8) (size 9 to 14) (size 15 to 20)
#    0.000    2.143    1.429    4.714    0.000    4.000 
#    0.000    0.714    0.000    0.429    0.000    1.000 
#    0.000    0.000    0.000   26.571    0.000    0.000 
#
# Total GULP energy -311826.474647 kJ/mol
# GULP energy per Si atom -5568.329904 kJ/mol
# Density = 1.662062 g / cm^3
# Si number density = 16.658536 Si / 1000 Ang^3
#
#
#
# Elastic Constant Matrix: (Units=GPa)
#
#
# Indices 1 2 3 4 5 6 
#
# 1 84.5733 41.4455 27.5294 0.0000 0.0000 -3.4817
# 2 41.4455 84.5733 27.5294 0.0000 0.0000 3.4817
# 3 27.5294 27.5294 42.5700 0.0000 0.0000 0.0000
# 4 0.0000 0.0000 0.0000 12.7416 0.0000 0.0000
# 5 0.0000 0.0000 0.0000 0.0000 12.7416 0.0000
# 6 -3.4817 3.4817 0.0000 0.0000 0.0000 28.8921
#
#
#
# Elastic Compliance Matrix: (Units=1/GPa)
#
#
# Indices 1 2 3 4 5 6 
#
# 1 0.017354 -0.006293 -0.007153 0.000000 0.000000 0.002850
# 2 -0.006293 0.017354 -0.007153 0.000000 0.000000 -0.002850
# 3 -0.007153 -0.007153 0.032742 0.000000 0.000000 0.000000
# 4 0.000000 0.000000 0.000000 0.078483 0.000000 0.000000
# 5 0.000000 0.000000 0.000000 0.000000 0.078483 0.000000
# 6 0.002850 -0.002850 0.000000 0.000000 0.000000 0.035298
#
#
# Mechanical properties :
#
#
# Convention : Reuss Voigt Hill
#
# Bulk Modulus (GPa) = 38.09222 44.96948 41.53085
# Shear Modulus (GPa) = 16.14670 18.55590 17.35130
#
# Velocity S-wave (km/s) = 3.11670 3.34113 3.23086
# Velocity P-wave (km/s) = 5.98898 6.47593 6.23721
#
# Compressibility (1/GPa) = 0.02625208
#
# Stress axis : x y z
#
# Youngs Moduli (GPa) = 57.62471 57.62471 30.54213
#
# Poissons Ratio (x) = 0.36265 0.21845
# Poissons Ratio (y) = 0.36265 0.21845
# Poissons Ratio (z) = 0.41216 0.41216
#
# Static dielectric constant tensor:
#      x y z
#    x 1.573010 0.000000 0.000000 
#    y 0.000000 1.573010 0.000000 
#    z 0.000000 0.000000 1.551630 
# 
# From -- ./inp_files/3011.got.cif
#   From: 2010.05.17/outbox.cif.g08.bks.cpg/sg83_2_cif.got.tgz:3011.got - 2010.06.03 18:55:12.
