data_PCOD9543836
_publ_section_title
;
Structure prediction by ZEFSAII (Michael W. Deem and Ramdas Pophale) SiO2 
 PCOD9543836
Probable space group: P 4/M
;
_chemical_formula_sum "Si O2"
_cell_formula_units_Z 56
_cell_length_a 11.684944
_cell_length_b 11.684944
_cell_length_c 21.972192
_cell_angle_alpha 90.000000
_cell_angle_beta 90.000000
_cell_angle_gamma 90.000000
_cell_volume 3000.037312
_symmetry_space_group_name_H-M "P 4/M"
_symmetry_group_IT_number 83
_symmetry_cell_setting 'tetragonal'
loop_
_space_group_symop_operation_xyz
x,y,z
-y,x,z
-x,-y,z
y,-x,z
-x,-y,-z
y,-x,-z
x,y,-z
-y,x,-z
loop_
_atom_site_type_symbol
_atom_site_label
_atom_site_fract_x
_atom_site_fract_y
_atom_site_fract_z
Si Si1 0.688923 0.488993 0.927348
Si Si2 0.043053 0.814653 0.809153
Si Si3 0.931846 0.383019 0.432357
Si Si4 0.316852 0.542729 0.256896
Si Si5 0.679846 0.449700 0.596901
Si Si6 0.187909 0.031051 0.665612
Si Si7 0.571316 0.884493 0.836217
O O1 0.616909 0.603672 0.912311
O O2 0.805719 0.476047 0.890708
O O3 0.706652 0.488444 0.000000
O O4 0.041778 0.783235 0.737134
O O5 0.077819 0.702446 0.845404
O O6 0.917535 0.867548 0.820419
O O7 0.963906 0.340066 0.500000
O O8 0.798243 0.413688 0.431498
O O9 0.955357 0.292534 0.379615
O O10 0.000000 0.500000 0.421013
O O11 0.367013 0.417225 0.241007
O O12 0.304753 0.550052 0.329714
O O13 0.200207 0.564870 0.221807
O O14 0.636045 0.576597 0.580966
O O15 0.091024 0.127134 0.655061
O O16 0.500000 0.000000 0.827332
#
# Coordination Sequence:
#
# PCOD9543836 Si02
#       7
#     8   8   8   8   8   8   8
#     4   9  20  41  66  88 116 158 202 246 292 327
#     4   9  21  40  58  80 118 157 189 227 279 343
#     4  11  25  39  54  82 113 140 181 239 293 343
#     4   9  19  36  57  83 116 146 182 237 294 342
#     4   9  20  39  60  81 107 146 186 225 284 357
#     4   9  20  41  64  82 104 146 194 236 281 334
#     4  12  24  32  56  93 124 152 191 234 283 338
#
# _framework density 18.666436000000001
#
# number of rings (size 3 to 8) (size 9 to 14) (size 15 to 20)
#    0.000    2.286    0.000    3.857    6.000    4.857 
#    0.000    1.429    0.000    0.000    0.000    1.000 
#    0.000    0.000    0.000    0.000    0.000    0.000 
#
# Total GULP energy -312753.256752 kJ/mol
# GULP energy per Si atom -5584.879585 kJ/mol
# Density = 1.862395 g / cm^3
# Si number density = 18.666436 Si / 1000 Ang^3
#
#
#
# Elastic Constant Matrix: (Units=GPa)
#
#
# Indices 1 2 3 4 5 6 
#
# 1 59.0785 11.9754 -2.5398 0.0000 0.0000 4.6545
# 2 11.9754 59.0785 -2.5398 0.0000 0.0000 -4.6545
# 3 -2.5398 -2.5398 18.9727 0.0000 0.0000 0.0000
# 4 0.0000 0.0000 0.0000 22.0686 0.0000 0.0000
# 5 0.0000 0.0000 0.0000 0.0000 22.0686 0.0000
# 6 4.6545 -4.6545 0.0000 0.0000 0.0000 6.2278
#
#
#
# Elastic Compliance Matrix: (Units=1/GPa)
#
#
# Indices 1 2 3 4 5 6 
#
# 1 0.019559 -0.005350 0.001902 0.000000 0.000000 -0.018616
# 2 -0.005350 0.019559 0.001902 0.000000 0.000000 0.018616
# 3 0.001902 0.001902 0.053217 0.000000 0.000000 0.000000
# 4 0.000000 0.000000 0.000000 0.045313 0.000000 0.000000
# 5 0.000000 0.000000 0.000000 0.000000 0.045313 0.000000
# 6 -0.018616 0.018616 0.000000 0.000000 0.000000 0.188397
#
#
# Mechanical properties :
#
#
# Convention : Reuss Voigt Hill
#
# Bulk Modulus (GPa) = 11.20509 16.76902 13.98705
# Shear Modulus (GPa) = 12.37019 18.75525 15.56272
#
# Velocity S-wave (km/s) = 2.57708 3.17323 2.89057
# Velocity P-wave (km/s) = 3.85629 4.73591 4.31856
#
# Compressibility (1/GPa) = 0.08924518
#
# Stress axis : x y z
#
# Youngs Moduli (GPa) = 51.12610 51.12610 18.79111
#
# Poissons Ratio (x) = 0.27351 -0.03574
# Poissons Ratio (y) = 0.27351 -0.03574
# Poissons Ratio (z) = -0.09725 -0.09725
#
# Static dielectric constant tensor:
#      x y z
#    x 1.627060 0.000000 0.000000 
#    y 0.000000 1.627060 0.000000 
#    z 0.000000 0.000000 1.674610 
# 
# From -- ./inp_files/2986.got.cif
#   From: 2010.05.17/outbox.cif.g08.bks.cpg/sg83_2_cif.got.tgz:2986.got - 2010.06.03 18:55:12.
