data_PCOD9543811
_publ_section_title
;
Structure prediction by ZEFSAII (Michael W. Deem and Ramdas Pophale) SiO2 
 PCOD9543811
Probable space group: P 4/M
;
_chemical_formula_sum "Si O2"
_cell_formula_units_Z 38
_cell_length_a 9.874574
_cell_length_b 9.874574
_cell_length_c 20.996158
_cell_angle_alpha 90.000000
_cell_angle_beta 90.000000
_cell_angle_gamma 90.000000
_cell_volume 2047.276823
_symmetry_space_group_name_H-M "P 4/M"
_symmetry_group_IT_number 83
_symmetry_cell_setting 'tetragonal'
loop_
_space_group_symop_operation_xyz
x,y,z
-y,x,z
-x,-y,z
y,-x,z
-x,-y,-z
y,-x,-z
x,y,-z
-y,x,-z
loop_
_atom_site_type_symbol
_atom_site_label
_atom_site_fract_x
_atom_site_fract_y
_atom_site_fract_z
Si Si1 0.718346 0.299657 0.572976
Si Si2 0.000000 0.500000 0.155241
Si Si3 0.500000 0.500000 0.378066
Si Si4 0.008778 0.343927 0.627303
Si Si5 0.723571 0.495942 0.076333
Si Si6 0.777480 0.004996 0.765855
O O1 0.682975 0.333625 0.500000
O O2 0.636601 0.403840 0.616898
O O3 0.677964 0.146755 0.589081
O O4 0.877603 0.313535 0.585067
O O5 0.864731 0.494241 0.112591
O O6 0.006256 0.364148 0.197430
O O7 0.000000 0.500000 0.647689
O O8 0.007034 0.252915 0.690471
O O9 0.633239 0.628553 0.092031
O O10 0.744054 0.495557 0.000000
O O11 0.865801 0.871634 0.781293
#
# Coordination Sequence:
#
# PCOD9543811 Si02
#       6
#     8   4   2   8   8   8
#     4  12  25  41  64  89 115 148 194 248 304 370
#     4  12  21  36  62  92 119 156 206 240 284 342
#     4  12  25  40  60  88 120 144 172 232 309 374
#     4  12  24  41  63  88 115 151 201 247 301 364
#     4   9  19  37  61  91 126 160 195 240 288 335
#     4  11  24  41  59  82 117 161 197 242 296 348
#
# _framework density 18.561243000000001
#
# number of rings (size 3 to 8) (size 9 to 14) (size 15 to 20)
#    0.000    0.842    5.263    3.789    0.000    1.263 
#    0.000    1.053    0.000    0.000    0.000    8.842 
#    0.000    0.000    0.000    0.000    0.000    0.000 
#
# Total GULP energy -211860.597107 kJ/mol
# GULP energy per Si atom -5575.278871 kJ/mol
# Density = 1.851900 g / cm^3
# Si number density = 18.561243 Si / 1000 Ang^3
#
#
#
# Elastic Constant Matrix: (Units=GPa)
#
#
# Indices 1 2 3 4 5 6 
#
# 1 121.5567 20.2151 21.0750 0.0000 0.0000 0.2398
# 2 20.2151 121.5567 21.0750 0.0000 0.0000 -0.2398
# 3 21.0750 21.0750 41.1611 0.0000 0.0000 0.0000
# 4 0.0000 0.0000 0.0000 35.6003 0.0000 0.0000
# 5 0.0000 0.0000 0.0000 0.0000 35.6003 0.0000
# 6 0.2398 -0.2398 0.0000 0.0000 0.0000 26.0024
#
#
#
# Elastic Compliance Matrix: (Units=1/GPa)
#
#
# Indices 1 2 3 4 5 6 
#
# 1 0.009094 -0.000774 -0.004260 0.000000 0.000000 -0.000091
# 2 -0.000774 0.009094 -0.004260 0.000000 0.000000 0.000091
# 3 -0.004260 -0.004260 0.028657 0.000000 0.000000 0.000000
# 4 0.000000 0.000000 0.000000 0.028090 0.000000 0.000000
# 5 0.000000 0.000000 0.000000 0.000000 0.028090 0.000000
# 6 -0.000091 0.000091 0.000000 0.000000 0.000000 0.038460
#
#
# Mechanical properties :
#
#
# Convention : Reuss Voigt Hill
#
# Bulk Modulus (GPa) = 35.38900 45.44494 40.41697
# Shear Modulus (GPa) = 29.50004 34.23457 31.86731
#
# Velocity S-wave (km/s) = 3.99097 4.29932 4.14801
# Velocity P-wave (km/s) = 6.35174 7.01302 6.69056
#
# Compressibility (1/GPa) = 0.02825737
#
# Stress axis : x y z
#
# Youngs Moduli (GPa) = 109.96153 109.96153 34.89531
#
# Poissons Ratio (x) = 0.08511 0.14865
# Poissons Ratio (y) = 0.08511 0.14865
# Poissons Ratio (z) = 0.46844 0.46844
#
# Static dielectric constant tensor:
#      x y z
#    x 1.626710 0.000000 0.000000 
#    y 0.000000 1.626710 0.000000 
#    z 0.000000 0.000000 1.622010 
# 
# From -- ./inp_files/3102.got.cif
#   From: 2010.05.17/outbox.cif.g08.bks.cpg/sg83_2_cif.got.tgz:3102.got - 2010.06.03 18:55:12.
