data_PCOD9543984
_publ_section_title
;
Structure prediction by ZEFSAII (Michael W. Deem and Ramdas Pophale) SiO2 
 PCOD9543984
Probable space group: P 42/M
;
_chemical_formula_sum "Si O2"
_cell_formula_units_Z 34
_cell_length_a 11.397737
_cell_length_b 11.397737
_cell_length_c 12.948627
_cell_angle_alpha 90.000000
_cell_angle_beta 90.000000
_cell_angle_gamma 90.000000
_cell_volume 1682.135529
_symmetry_space_group_name_H-M "P 42/M"
_symmetry_group_IT_number 84
_symmetry_cell_setting 'tetragonal'
loop_
_space_group_symop_operation_xyz
x,y,z
-y,x,1/2+z
-x,-y,z
y,-x,1/2+z
-x,-y,-z
y,-x,1/2-z
x,y,-z
-y,x,1/2-z
loop_
_atom_site_type_symbol
_atom_site_label
_atom_site_fract_x
_atom_site_fract_y
_atom_site_fract_z
Si Si1 0.289770 0.640674 0.176645
Si Si2 0.374041 0.147521 0.885439
Si Si3 0.500000 0.500000 0.750000
Si Si4 0.648837 0.112902 0.160874
Si Si5 0.123494 0.432757 0.888424
O O1 0.232957 0.653495 0.290803
O O2 0.423521 0.595095 0.187439
O O3 0.285214 0.769170 0.125992
O O4 0.220044 0.535059 0.123491
O O5 0.514287 0.127124 0.876040
O O6 0.316033 0.018391 0.870617
O O7 0.348208 0.192368 0.000000
O O8 0.644434 0.121339 0.285646
O O9 0.000000 0.500000 0.886487
O O10 0.135963 0.373891 0.000000
#
# Coordination Sequence:
#
# PCOD9543984 Si02
#       5
#     8   8   2   8   8
#     4  11  21  36  54  82 118 150 181 234 281 334
#     4  10  20  36  57  80 109 151 194 227 270 334
#     4  12  20  36  50  80 132 154 172 220 286 336
#     4  10  18  35  56  78 109 146 192 233 270 323
#     4  10  19  34  55  78 107 150 194 229 275 333
#
# _framework density 20.212402000000001
#
# number of rings (size 3 to 8) (size 9 to 14) (size 15 to 20)
#    0.000    1.647    9.412    1.412    0.000    2.824 
#    0.000    1.176    0.000    0.706    0.000    1.647 
#    0.000    0.000    0.000    0.000    0.000    0.000 
#
# Total GULP energy -189560.946931 kJ/mol
# GULP energy per Si atom -5575.321969 kJ/mol
# Density = 2.016640 g / cm^3
# Si number density = 20.212402 Si / 1000 Ang^3
#
#
#
# Elastic Constant Matrix: (Units=GPa)
#
#
# Indices 1 2 3 4 5 6 
#
# 1 56.3288 1.3552 -1.6539 0.0000 0.0000 -4.7903
# 2 1.3552 56.3288 -1.6539 0.0000 0.0000 4.7903
# 3 -1.6539 -1.6539 113.9334 0.0000 0.0000 0.0000
# 4 0.0000 0.0000 0.0000 -3.9550 0.0000 0.0000
# 5 0.0000 0.0000 0.0000 0.0000 -3.9550 0.0000
# 6 -4.7903 4.7903 0.0000 0.0000 0.0000 16.1861
#
#
#
# Elastic Compliance Matrix: (Units=1/GPa)
#
#
# Indices 1 2 3 4 5 6 
#
# 1 0.018265 -0.000915 0.000252 0.000000 0.000000 0.005676
# 2 -0.000915 0.018265 0.000252 0.000000 0.000000 -0.005676
# 3 0.000252 0.000252 0.008784 0.000000 0.000000 0.000000
# 4 0.000000 0.000000 0.000000 -0.252841 0.000000 0.000000
# 5 0.000000 0.000000 0.000000 0.000000 -0.252841 0.000000
# 6 0.005676 -0.005676 0.000000 0.000000 0.000000 0.065141
#
#
# Mechanical properties :
#
#
# Convention : Reuss Voigt Hill
#
# Bulk Modulus (GPa) = 22.47578 24.74288 23.60933
# Shear Modulus (GPa) = -13.17265 16.89144 1.85939
#
# Velocity S-wave (km/s) = -2.55563 2.89398 0.96017
# Velocity P-wave (km/s) = 1.56064 4.84095 3.59655
#
# Compressibility (1/GPa) = 0.04449235
#
# Stress axis : x y z
#
# Youngs Moduli (GPa) = 54.74940 54.74940 113.83856
#
# Poissons Ratio (x) = 0.05008 -0.02867
# Poissons Ratio (y) = 0.05008 -0.02867
# Poissons Ratio (z) = -0.01379 -0.01379
#
# Static dielectric constant tensor:
#      x y z
#    x 1.735280 0.000000 0.000000 
#    y 0.000000 1.735280 0.000000 
#    z 0.000000 0.000000 1.768370 
# 
# From -- ./inp_files/2805.got.cif
#   From: 2010.05.17/outbox.cif.g08.bks.cpg/sg84_2_cif.got.tgz:2805.got - 2010.06.03 18:57:40.
