data_PCOD9543337
_publ_section_title
;
Structure prediction by ZEFSAII (Michael W. Deem and Ramdas Pophale) SiO2 
 PCOD9543337
Probable space group: P 4/M
;
_chemical_formula_sum "Si O2"
_cell_formula_units_Z 36
_cell_length_a 15.147492
_cell_length_b 15.147492
_cell_length_c 9.325301
_cell_angle_alpha 90.000000
_cell_angle_beta 90.000000
_cell_angle_gamma 90.000000
_cell_volume 2139.657805
_symmetry_space_group_name_H-M "P 4/M"
_symmetry_group_IT_number 83
_symmetry_cell_setting 'tetragonal'
loop_
_space_group_symop_operation_xyz
x,y,z
-y,x,z
-x,-y,z
y,-x,z
-x,-y,-z
y,-x,-z
x,y,-z
-y,x,-z
loop_
_atom_site_type_symbol
_atom_site_label
_atom_site_fract_x
_atom_site_fract_y
_atom_site_fract_z
Si Si1 0.627108 0.574404 0.500000
Si Si2 0.443966 0.089689 0.669858
Si Si3 0.930840 0.258551 0.173093
Si Si4 0.770786 0.132243 0.827616
Si Si5 0.395524 0.792795 0.663149
O O1 0.531180 0.616473 0.500000
O O2 0.688026 0.601436 0.635034
O O3 0.424228 0.096983 0.500000
O O4 0.353490 0.087087 0.756611
O O5 0.510291 0.168898 0.711149
O O6 0.500000 0.000000 0.692867
O O7 0.856510 0.188025 0.216745
O O8 0.029259 0.227204 0.213600
O O9 0.928211 0.266990 0.000000
O O10 0.683571 0.175399 0.760648
O O11 0.765387 0.135986 0.000000
O O12 0.382397 0.830004 0.500000
#
# Coordination Sequence:
#
# PCOD9543337 Si02
#       5
#     4   8   8   8   8
#     4   9  20  36  55  80 110 141 178 213 263 328
#     4  10  19  33  54  83 108 132 173 223 275 319
#     4  10  22  36  55  78 108 147 181 225 272 322
#     4  10  21  37  53  78 109 142 185 224 270 321
#     4   9  20  33  56  80 105 138 177 219 269 315
#
# _framework density 16.825119999999998
#
# number of rings (size 3 to 8) (size 9 to 14) (size 15 to 20)
#    0.667    1.667    2.222    0.000    3.111    2.667 
#    0.000    2.222    0.000    0.000    0.000    4.667 
#    0.000    0.000    0.000    0.000    0.000    0.000 
#
# Total GULP energy -200566.576146 kJ/mol
# GULP energy per Si atom -5571.293782 kJ/mol
# Density = 1.678683 g / cm^3
# Si number density = 16.825120 Si / 1000 Ang^3
#
#
#
# Elastic Constant Matrix: (Units=GPa)
#
#
# Indices 1 2 3 4 5 6 
#
# 1 118.0189 81.1042 34.0427 0.0000 0.0000 7.1765
# 2 81.1042 118.0189 34.0427 0.0000 0.0000 -7.1765
# 3 34.0427 34.0427 15.3143 0.0000 0.0000 0.0000
# 4 0.0000 0.0000 0.0000 21.6851 0.0000 0.0000
# 5 0.0000 0.0000 0.0000 0.0000 21.6851 0.0000
# 6 7.1765 -7.1765 0.0000 0.0000 0.0000 28.8125
#
#
#
# Elastic Compliance Matrix: (Units=1/GPa)
#
#
# Indices 1 2 3 4 5 6 
#
# 1 0.025463 -0.004531 -0.046530 0.000000 0.000000 -0.007471
# 2 -0.004531 0.025463 -0.046530 0.000000 0.000000 0.007471
# 3 -0.046530 -0.046530 0.272165 0.000000 0.000000 0.000000
# 4 0.000000 0.000000 0.000000 0.046115 0.000000 0.000000
# 5 0.000000 0.000000 0.000000 0.000000 0.046115 0.000000
# 6 -0.007471 0.007471 0.000000 0.000000 0.000000 0.038429
#
#
# Mechanical properties :
#
#
# Convention : Reuss Voigt Hill
#
# Bulk Modulus (GPa) = 7.81810 61.08125 34.44967
# Shear Modulus (GPa) = 7.22995 21.24738 14.23866
#
# Velocity S-wave (km/s) = 2.07520 3.55750 2.91224
# Velocity P-wave (km/s) = 3.22470 7.29773 5.64161
#
# Compressibility (1/GPa) = 0.12790828
#
# Stress axis : x y z
#
# Youngs Moduli (GPa) = 39.27263 39.27263 3.67424
#
# Poissons Ratio (x) = 0.17795 0.17096
# Poissons Ratio (y) = 0.17795 0.17096
# Poissons Ratio (z) = 1.82736 1.82736
#
# Static dielectric constant tensor:
#      x y z
#    x 1.562730 0.000000 0.000000 
#    y 0.000000 1.562730 0.000000 
#    z 0.000000 0.000000 1.557870 
# 
# From -- ./inp_files/500.got.cif
#   From: 2010.05.17/outbox.cif.g08.bks.cpg/sg83_1_cif.got.tgz:500.got - 2010.06.03 18:55:12.
