data_PCOD9543914
_publ_section_title
;
Structure prediction by ZEFSAII (Michael W. Deem and Ramdas Pophale) SiO2 
 PCOD9543914
Probable space group: P 4/M
;
_chemical_formula_sum "Si O2"
_cell_formula_units_Z 36
_cell_length_a 8.233251
_cell_length_b 8.233251
_cell_length_c 24.607201
_cell_angle_alpha 90.000000
_cell_angle_beta 90.000000
_cell_angle_gamma 90.000000
_cell_volume 1668.034112
_symmetry_space_group_name_H-M "P 4/M"
_symmetry_group_IT_number 83
_symmetry_cell_setting 'tetragonal'
loop_
_space_group_symop_operation_xyz
x,y,z
-y,x,z
-x,-y,z
y,-x,z
-x,-y,-z
y,-x,-z
x,y,-z
-y,x,-z
loop_
_atom_site_type_symbol
_atom_site_label
_atom_site_fract_x
_atom_site_fract_y
_atom_site_fract_z
Si Si1 0.084283 0.738230 0.382309
Si Si2 0.761721 0.418028 0.839177
Si Si3 0.417156 0.238503 0.719291
Si Si4 0.261166 0.088466 0.500000
Si Si5 0.261831 0.081612 0.940084
O O1 0.128158 0.629898 0.331110
O O2 0.115832 0.657633 0.441523
O O3 0.900437 0.804094 0.379948
O O4 0.695076 0.601078 0.842111
O O5 0.836040 0.391221 0.779238
O O6 0.872454 0.372285 0.889606
O O7 0.600480 0.304531 0.716303
O O8 0.096985 0.196492 0.500000
O O9 0.101343 0.194941 0.937179
O O10 0.336486 0.107970 0.000000
#
# Coordination Sequence:
#
# PCOD9543914 Si02
#       5
#     8   8   8   4   8
#     4   9  17  30  50  74  96 121 157 198 238 282
#     4   9  19  35  52  70  94 126 163 199 234 276
#     4   9  19  35  50  66  95 131 161 193 236 282
#     4   7  12  26  46  67  94 124 152 189 236 281
#     4   9  19  35  52  72 100 129 155 189 235 283
#
# _framework density 21.582294000000001
#
# number of rings (size 3 to 8) (size 9 to 14) (size 15 to 20)
#    0.000    3.222    0.000    3.333    0.000    4.444 
#    0.000   11.111    0.000    5.333    0.000    0.000 
#    0.000    0.000    0.000    0.000    0.000    0.000 
#
# Total GULP energy -201093.378107 kJ/mol
# GULP energy per Si atom -5585.927170 kJ/mol
# Density = 2.153317 g / cm^3
# Si number density = 21.582294 Si / 1000 Ang^3
#
#
#
# Elastic Constant Matrix: (Units=GPa)
#
#
# Indices 1 2 3 4 5 6 
#
# 1 45.6446 33.1094 68.8630 0.0000 0.0000 -0.8658
# 2 33.1094 45.6446 68.8630 0.0000 0.0000 0.8658
# 3 68.8630 68.8630 261.7433 0.0000 0.0000 0.0000
# 4 0.0000 0.0000 0.0000 202.4870 0.0000 0.0000
# 5 0.0000 0.0000 0.0000 0.0000 202.4870 0.0000
# 6 -0.8658 0.8658 0.0000 0.0000 0.0000 36.6928
#
#
#
# Elastic Compliance Matrix: (Units=1/GPa)
#
#
# Indices 1 2 3 4 5 6 
#
# 1 0.051777 -0.028259 -0.006188 0.000000 0.000000 0.001888
# 2 -0.028259 0.051777 -0.006188 0.000000 0.000000 -0.001888
# 3 -0.006188 -0.006188 0.007076 0.000000 0.000000 0.000000
# 4 0.000000 0.000000 0.000000 0.004939 0.000000 0.000000
# 5 0.000000 0.000000 0.000000 0.000000 0.004939 0.000000
# 6 0.001888 -0.001888 0.000000 0.000000 0.000000 0.027342
#
#
# Mechanical properties :
#
#
# Convention : Reuss Voigt Hill
#
# Bulk Modulus (GPa) = 34.05604 77.18925 55.62264
# Shear Modulus (GPa) = 20.92871 100.47987 60.70429
#
# Velocity S-wave (km/s) = 3.11741 6.83064 5.30923
# Velocity P-wave (km/s) = 5.36391 9.90217 7.96318
#
# Compressibility (1/GPa) = 0.02936336
#
# Stress axis : x y z
#
# Youngs Moduli (GPa) = 19.31345 19.31345 141.31506
#
# Poissons Ratio (x) = 0.54577 0.87441
# Poissons Ratio (y) = 0.54577 0.87441
# Poissons Ratio (z) = 0.11950 0.11950
#
# Static dielectric constant tensor:
#      x y z
#    x 1.773270 0.000000 0.000000 
#    y 0.000000 1.773270 0.000000 
#    z 0.000000 0.000000 1.801920 
# 
# From -- ./inp_files/3094.got.cif
#   From: 2010.05.17/outbox.cif.g08.bks.cpg/sg83_2_cif.got.tgz:3094.got - 2010.06.03 18:55:12.
