data_PCOD9543202
_publ_section_title
;
Structure prediction by ZEFSAII (Michael W. Deem and Ramdas Pophale) SiO2 
 PCOD9543202
Probable space group: I -4 
;
_chemical_formula_sum "Si O2"
_cell_formula_units_Z 26
_cell_length_a 12.659649
_cell_length_b 12.659649
_cell_length_c 6.845641
_cell_angle_alpha 90.000000
_cell_angle_beta 90.000000
_cell_angle_gamma 90.000000
_cell_volume 1097.128380
_symmetry_space_group_name_H-M "I -4 "
_symmetry_group_IT_number 82
_symmetry_cell_setting 'tetragonal'
loop_
_space_group_symop_operation_xyz
x,y,z
y,-x,-z
-x,-y,z
-y,x,-z
1/2+x,1/2+y,1/2+z
1/2+y,1/2-x,1/2-z
1/2-x,1/2-y,1/2+z
1/2-y,1/2+x,1/2-z
loop_
_atom_site_type_symbol
_atom_site_label
_atom_site_fract_x
_atom_site_fract_y
_atom_site_fract_z
Si Si1 0.500000 0.500000 0.500000
Si Si2 0.524404 0.125062 0.954084
Si Si3 0.684122 0.169855 0.284933
Si Si4 0.284035 0.414411 0.367849
O O1 0.522175 0.393586 0.624115
O O2 0.432224 0.179618 0.078272
O O3 0.530343 0.188769 0.750680
O O4 0.500000 0.000000 0.546645
O O5 0.629055 0.142705 0.081046
O O6 0.802920 0.201939 0.241277
O O7 0.615477 0.253116 0.409923
#
# Coordination Sequence:
#
# PCOD9543202 Si02
#       4
#     2   8   8   8
#     4  12  32  56  78 120 168 218 280 320 410 488
#     4  12  27  48  82 120 161 205 270 339 399 477
#     4  12  25  49  80 121 158 208 271 329 408 477
#     4  12  30  50  82 115 165 218 268 336 400 482
#
# _framework density 23.698226999999999
#
# number of rings (size 3 to 8) (size 9 to 14) (size 15 to 20)
#    0.000    0.000    6.154    1.846    8.615    3.692 
#    0.000    1.538    0.000    0.000    0.000    0.000 
#    0.000    0.000    0.000    0.000    0.000    0.000 
#
# Total GULP energy -72849.194456 kJ/mol
# GULP energy per Si atom -5603.784189 kJ/mol
# Density = 2.364429 g / cm^3
# Si number density = 23.698227 Si / 1000 Ang^3
#
#
#
# Elastic Constant Matrix: (Units=GPa)
#
#
# Indices 1 2 3 4 5 6 
#
# 1 136.4489 40.5418 57.8969 0.0000 0.0000 12.1094
# 2 40.5418 136.4489 57.8969 0.0000 0.0000 -12.1094
# 3 57.8969 57.8969 136.2814 0.0000 0.0000 0.0000
# 4 0.0000 0.0000 0.0000 45.7954 0.0000 0.0000
# 5 0.0000 0.0000 0.0000 0.0000 45.7954 0.0000
# 6 12.1094 -12.1094 0.0000 0.0000 0.0000 37.0682
#
#
#
# Elastic Compliance Matrix: (Units=1/GPa)
#
#
# Indices 1 2 3 4 5 6 
#
# 1 0.009595 -0.001770 -0.003324 0.000000 0.000000 -0.003712
# 2 -0.001770 0.009595 -0.003324 0.000000 0.000000 0.003712
# 3 -0.003324 -0.003324 0.010162 0.000000 0.000000 0.000000
# 4 0.000000 0.000000 0.000000 0.021836 0.000000 0.000000
# 5 0.000000 0.000000 0.000000 0.000000 0.021836 0.000000
# 6 -0.003712 0.003712 0.000000 0.000000 0.000000 0.029403
#
#
# Mechanical properties :
#
#
# Convention : Reuss Voigt Hill
#
# Bulk Modulus (GPa) = 79.90441 80.20559 80.05500
# Shear Modulus (GPa) = 40.50717 42.58802 41.54759
#
# Velocity S-wave (km/s) = 4.13884 4.24382 4.19166
# Velocity P-wave (km/s) = 7.52534 7.61126 7.56842
#
# Compressibility (1/GPa) = 0.01251495
#
# Stress axis : x y z
#
# Youngs Moduli (GPa) = 104.22572 104.22572 98.40310
#
# Poissons Ratio (x) = 0.18445 0.32712
# Poissons Ratio (y) = 0.18445 0.32712
# Poissons Ratio (z) = 0.34647 0.34647
#
# Static dielectric constant tensor:
#      x y z
#    x 1.904730 0.000000 0.000000 
#    y 0.000000 1.904730 0.000000 
#    z 0.000000 0.000000 1.932480 
# 
# From -- ./inp_files/112.got.cif
#   From: 2010.05.17/outbox.cif.g08.bks.cpg/sg82_1_cif.got.tgz:112.got - 2010.06.03 18:52:26.
