data_PCOD9543743
_publ_section_title
;
Structure prediction by ZEFSAII (Michael W. Deem and Ramdas Pophale) SiO2 
 PCOD9543743
Probable space group: P 4/M
;
_chemical_formula_sum "Si O2"
_cell_formula_units_Z 28
_cell_length_a 7.944262
_cell_length_b 7.944262
_cell_length_c 19.979065
_cell_angle_alpha 90.000000
_cell_angle_beta 90.000000
_cell_angle_gamma 90.000000
_cell_volume 1260.904739
_symmetry_space_group_name_H-M "P 4/M"
_symmetry_group_IT_number 83
_symmetry_cell_setting 'tetragonal'
loop_
_space_group_symop_operation_xyz
x,y,z
-y,x,z
-x,-y,z
y,-x,z
-x,-y,-z
y,-x,-z
x,y,-z
-y,x,-z
loop_
_atom_site_type_symbol
_atom_site_label
_atom_site_fract_x
_atom_site_fract_y
_atom_site_fract_z
Si Si1 0.764829 0.395819 0.573807
Si Si2 0.734770 0.907750 0.291039
Si Si3 0.000000 0.500000 0.817546
Si Si4 0.601964 0.234873 0.074945
O O1 0.708982 0.590386 0.577780
O O2 0.840223 0.364765 0.500000
O O3 0.876270 0.343579 0.636236
O O4 0.601510 0.877790 0.232229
O O5 0.899536 0.793651 0.284789
O O6 0.101195 0.375202 0.866546
O O7 0.708118 0.406022 0.080353
O O8 0.629894 0.165803 0.000000
#
# Coordination Sequence:
#
# PCOD9543743 Si02
#       4
#     8   8   4   8
#     4   9  19  38  63  87 110 141 185 233 278 328
#     4  11  24  38  53  80 116 151 188 230 277 330
#     4  12  21  36  57  80 110 152 186 222 273 334
#     4   9  19  36  58  84 110 138 180 231 277 324
#
# _framework density 22.206278000000001
#
# number of rings (size 3 to 8) (size 9 to 14) (size 15 to 20)
#    0.000    2.000    0.000    5.571    0.000    1.143 
#    0.000    7.857    0.000    0.000    0.000   12.000 
#    0.000    0.000    0.000    0.000    0.000    0.000 
#
# Total GULP energy -156609.057342 kJ/mol
# GULP energy per Si atom -5593.180619 kJ/mol
# Density = 2.215574 g / cm^3
# Si number density = 22.206278 Si / 1000 Ang^3
#
#
#
# Elastic Constant Matrix: (Units=GPa)
#
#
# Indices 1 2 3 4 5 6 
#
# 1 50.1220 -1.8445 33.8537 0.0000 0.0000 -5.6315
# 2 -1.8445 50.1220 33.8537 0.0000 0.0000 5.6315
# 3 33.8537 33.8537 192.5528 0.0000 0.0000 0.0000
# 4 0.0000 0.0000 0.0000 31.6017 0.0000 0.0000
# 5 0.0000 0.0000 0.0000 0.0000 31.6017 0.0000
# 6 -5.6315 5.6315 0.0000 0.0000 0.0000 26.2852
#
#
#
# Elastic Compliance Matrix: (Units=1/GPa)
#
#
# Indices 1 2 3 4 5 6 
#
# 1 0.023836 0.003656 -0.004834 0.000000 0.000000 0.004324
# 2 0.003656 0.023836 -0.004834 0.000000 0.000000 -0.004324
# 3 -0.004834 -0.004834 0.006893 0.000000 0.000000 0.000000
# 4 0.000000 0.000000 0.000000 0.031644 0.000000 0.000000
# 5 0.000000 0.000000 0.000000 0.000000 0.031644 0.000000
# 6 0.004324 -0.004324 0.000000 0.000000 0.000000 0.039897
#
#
# Mechanical properties :
#
#
# Convention : Reuss Voigt Hill
#
# Bulk Modulus (GPa) = 23.50523 47.16915 35.33719
# Shear Modulus (GPa) = 27.18075 33.02663 30.10369
#
# Velocity S-wave (km/s) = 3.50238 3.86069 3.68589
# Velocity P-wave (km/s) = 5.19264 6.41566 5.83628
#
# Compressibility (1/GPa) = 0.04254373
#
# Stress axis : x y z
#
# Youngs Moduli (GPa) = 41.95266 41.95266 145.07431
#
# Poissons Ratio (x) = -0.15339 0.70123
# Poissons Ratio (y) = -0.15339 0.70123
# Poissons Ratio (z) = 0.20278 0.20278
#
# Static dielectric constant tensor:
#      x y z
#    x 1.827920 0.000000 0.000000 
#    y 0.000000 1.827920 0.000000 
#    z 0.000000 0.000000 1.805730 
# 
# From -- ./inp_files/2511.got.cif
#   From: 2010.05.17/outbox.cif.g08.bks.cpg/sg83_2_cif.got.tgz:2511.got - 2010.06.03 18:55:12.
