data_PCOD9543839
_publ_section_title
;
Structure prediction by ZEFSAII (Michael W. Deem and Ramdas Pophale) SiO2 
 PCOD9543839
Probable space group: P 4/M
;
_chemical_formula_sum "Si O2"
_cell_formula_units_Z 48
_cell_length_a 10.739725
_cell_length_b 10.739725
_cell_length_c 21.418394
_cell_angle_alpha 90.000000
_cell_angle_beta 90.000000
_cell_angle_gamma 90.000000
_cell_volume 2470.433827
_symmetry_space_group_name_H-M "P 4/M"
_symmetry_group_IT_number 83
_symmetry_cell_setting 'tetragonal'
loop_
_space_group_symop_operation_xyz
x,y,z
-y,x,z
-x,-y,z
y,-x,z
-x,-y,-z
y,-x,-z
x,y,-z
-y,x,-z
loop_
_atom_site_type_symbol
_atom_site_label
_atom_site_fract_x
_atom_site_fract_y
_atom_site_fract_z
Si Si1 0.952762 0.360107 0.694704
Si Si2 0.316321 0.590114 0.255201
Si Si3 0.356346 0.040481 0.931853
Si Si4 0.316448 0.591066 0.895341
Si Si5 0.793121 0.023895 0.811977
Si Si6 0.209548 0.015639 0.430425
O O1 0.806584 0.359080 0.712309
O O2 0.025142 0.286761 0.749201
O O3 0.975375 0.300881 0.627438
O O4 0.000000 0.500000 0.695982
O O5 0.338714 0.444363 0.270940
O O6 0.302467 0.596991 0.179978
O O7 0.355860 0.190256 0.923792
O O8 0.288478 0.975546 0.874233
O O9 0.500000 0.000000 0.929678
O O10 0.304273 0.007113 0.000000
O O11 0.338516 0.445079 0.911894
O O12 0.867879 0.894082 0.812170
O O13 0.266616 0.019944 0.500000
O O14 0.109953 0.127880 0.426031
#
# Coordination Sequence:
#
# PCOD9543839 Si02
#       6
#     8   8   8   8   8   8
#     4  12  24  34  65  97 122 154 196 251 301 351
#     4   9  20  36  56  85 122 160 194 239 304 364
#     4  11  25  40  59  85 116 154 197 249 307 363
#     4   9  19  37  61  85 113 153 196 245 302 360
#     4  11  26  44  63  86 118 157 202 252 300 358
#     4   9  20  41  65  90 127 169 205 247 296 343
#
# _framework density 19.429784999999999
#
# number of rings (size 3 to 8) (size 9 to 14) (size 15 to 20)
#    0.000    1.833    1.667    3.000    7.000    3.000 
#    0.000    1.667    0.000    0.000    0.000    1.167 
#    0.000    0.000    0.000    0.000    0.000    0.000 
#
# Total GULP energy -268445.641852 kJ/mol
# GULP energy per Si atom -5592.617539 kJ/mol
# Density = 1.938556 g / cm^3
# Si number density = 19.429785 Si / 1000 Ang^3
#
#
#
# Elastic Constant Matrix: (Units=GPa)
#
#
# Indices 1 2 3 4 5 6 
#
# 1 45.2850 -0.5616 35.1662 0.0000 0.0000 1.7075
# 2 -0.5616 45.2850 35.1662 0.0000 0.0000 -1.7075
# 3 35.1662 35.1662 143.2701 0.0000 0.0000 0.0000
# 4 0.0000 0.0000 0.0000 143.7647 0.0000 0.0000
# 5 0.0000 0.0000 0.0000 0.0000 143.7647 0.0000
# 6 1.7075 -1.7075 0.0000 0.0000 0.0000 15.1812
#
#
#
# Elastic Compliance Matrix: (Units=1/GPa)
#
#
# Indices 1 2 3 4 5 6 
#
# 1 0.029206 0.007210 -0.008939 0.000000 0.000000 -0.002474
# 2 0.007210 0.029206 -0.008939 0.000000 0.000000 0.002474
# 3 -0.008939 -0.008939 0.011368 0.000000 0.000000 0.000000
# 4 0.000000 0.000000 0.000000 0.006956 0.000000 0.000000
# 5 0.000000 0.000000 0.000000 0.000000 0.006956 0.000000
# 6 -0.002474 0.002474 0.000000 0.000000 0.000000 0.066427
#
#
# Mechanical properties :
#
#
# Convention : Reuss Voigt Hill
#
# Bulk Modulus (GPa) = 20.64126 41.48687 31.06407
# Shear Modulus (GPa) = 26.65211 71.48006 49.06609
#
# Velocity S-wave (km/s) = 3.70768 6.07197 5.03069
# Velocity P-wave (km/s) = 5.38292 8.39982 7.05453
#
# Compressibility (1/GPa) = 0.04844665
#
# Stress axis : x y z
#
# Youngs Moduli (GPa) = 34.23912 34.23912 87.96736
#
# Poissons Ratio (x) = -0.24687 0.78631
# Poissons Ratio (y) = -0.24687 0.78631
# Poissons Ratio (z) = 0.30605 0.30605
#
# Static dielectric constant tensor:
#      x y z
#    x 1.681630 0.000000 0.000000 
#    y 0.000000 1.681630 0.000000 
#    z 0.000000 0.000000 1.661310 
# 
# From -- ./inp_files/2631.got.cif
#   From: 2010.05.17/outbox.cif.g08.bks.cpg/sg83_2_cif.got.tgz:2631.got - 2010.06.03 18:55:12.
