data_PCOD9543084
_publ_section_title
;
Structure prediction by ZEFSAII (Michael W. Deem and Ramdas Pophale) SiO2 
 PCOD9543084
Probable space group: I -4 
;
_chemical_formula_sum "Si O2"
_cell_formula_units_Z 42
_cell_length_a 9.119170
_cell_length_b 9.119170
_cell_length_c 21.727451
_cell_angle_alpha 90.000000
_cell_angle_beta 90.000000
_cell_angle_gamma 90.000000
_cell_volume 1806.838779
_symmetry_space_group_name_H-M "I -4 "
_symmetry_group_IT_number 82
_symmetry_cell_setting 'tetragonal'
loop_
_space_group_symop_operation_xyz
x,y,z
y,-x,-z
-x,-y,z
-y,x,-z
1/2+x,1/2+y,1/2+z
1/2+y,1/2-x,1/2-z
1/2-x,1/2-y,1/2+z
1/2-y,1/2+x,1/2-z
loop_
_atom_site_type_symbol
_atom_site_label
_atom_site_fract_x
_atom_site_fract_y
_atom_site_fract_z
Si Si1 0.596750 0.803699 0.148038
Si Si2 0.000000 0.000000 0.500000
Si Si3 0.500000 0.000000 0.750000
Si Si4 0.709032 0.414649 0.299270
Si Si5 0.000000 0.500000 0.750000
Si Si6 0.027869 0.826828 0.075616
Si Si7 0.744355 0.216105 0.473552
Si Si8 0.500000 0.500000 0.809757
O O1 0.756325 0.839012 0.176357
O O2 0.615162 0.845089 0.076260
O O3 0.557523 0.632905 0.149559
O O4 0.488323 0.871464 0.199236
O O5 0.901784 0.142002 0.479887
O O6 0.412956 0.117970 0.710700
O O7 0.679994 0.538862 0.350632
O O8 0.627275 0.449807 0.236568
O O9 0.876941 0.745536 0.057645
O O10 0.000000 0.000000 0.062446
O O11 0.157675 0.753321 0.036587
#
# Coordination Sequence:
#
# PCOD9543084 Si02
#       8
#     8   2   2   8   2   8   8   4
#     4  11  25  42  69 102 141 184 233 295 363 435
#     4  12  30  48  64 112 152 194 232 304 398 432
#     4  12  24  44  62 112 144 196 228 294 388 448
#     4  11  24  40  71 105 143 181 242 299 368 437
#     4  12  24  44  66 108 136 180 236 294 372 428
#     4  11  22  47  79 108 134 193 264 312 361 441
#     4  11  25  49  72 104 145 189 249 302 374 450
#     4  12  21  44  66 100 152 185 232 302 356 452
#
# _framework density 23.245018999999999
#
# number of rings (size 3 to 8) (size 9 to 14) (size 15 to 20)
#    0.000    0.762    6.667    0.571    0.000    5.333 
#    6.857    0.000    0.000    0.000    0.000    0.000 
#    0.000    0.000    0.000    0.000    0.000    0.000 
#
# Total GULP energy -117046.917875 kJ/mol
# GULP energy per Si atom -5573.662756 kJ/mol
# Density = 2.319211 g / cm^3
# Si number density = 23.245019 Si / 1000 Ang^3
#
#
#
# Elastic Constant Matrix: (Units=GPa)
#
#
# Indices 1 2 3 4 5 6 
#
# 1 70.5263 16.8228 14.7321 0.0000 0.0000 1.2156
# 2 16.8228 70.5263 14.7321 0.0000 0.0000 -1.2156
# 3 14.7321 14.7321 89.6942 0.0000 0.0000 0.0000
# 4 0.0000 0.0000 0.0000 67.2421 0.0000 0.0000
# 5 0.0000 0.0000 0.0000 0.0000 67.2421 0.0000
# 6 1.2156 -1.2156 0.0000 0.0000 0.0000 37.8340
#
#
#
# Elastic Compliance Matrix: (Units=1/GPa)
#
#
# Indices 1 2 3 4 5 6 
#
# 1 0.015384 -0.003264 -0.001991 0.000000 0.000000 -0.000599
# 2 -0.003264 0.015384 -0.001991 0.000000 0.000000 0.000599
# 3 -0.001991 -0.001991 0.011803 0.000000 0.000000 0.000000
# 4 0.000000 0.000000 0.000000 0.014872 0.000000 0.000000
# 5 0.000000 0.000000 0.000000 0.000000 0.014872 0.000000
# 6 -0.000599 0.000599 0.000000 0.000000 0.000000 0.026470
#
#
# Mechanical properties :
#
#
# Convention : Reuss Voigt Hill
#
# Bulk Modulus (GPa) = 35.61267 35.92453 35.76860
# Shear Modulus (GPa) = 40.77162 46.76096 43.76629
#
# Velocity S-wave (km/s) = 4.19261 4.49001 4.34386
# Velocity P-wave (km/s) = 6.22826 6.50911 6.37023
#
# Compressibility (1/GPa) = 0.02807990
#
# Stress axis : x y z
#
# Youngs Moduli (GPa) = 65.00324 65.00324 84.72483
#
# Poissons Ratio (x) = 0.21217 0.16866
# Poissons Ratio (y) = 0.21217 0.16866
# Poissons Ratio (z) = 0.12940 0.12940
#
# Static dielectric constant tensor:
#      x y z
#    x 1.868960 0.000000 0.000000 
#    y 0.000000 1.868960 0.000000 
#    z 0.000000 0.000000 1.932550 
# 
# From -- ./inp_files/3771.got.cif
#   From: 2010.05.17/outbox.cif.g08.bks.cpg/sg82_2_cif.got.tgz:3771.got - 2010.06.03 18:52:26.
