data_PCOD9543393
_publ_section_title
;
Structure prediction by ZEFSAII (Michael W. Deem and Ramdas Pophale) SiO2 
 PCOD9543393
Probable space group: P 4/M
;
_chemical_formula_sum "Si O2"
_cell_formula_units_Z 56
_cell_length_a 18.906627
_cell_length_b 18.906627
_cell_length_c 9.044539
_cell_angle_alpha 90.000000
_cell_angle_beta 90.000000
_cell_angle_gamma 90.000000
_cell_volume 3233.065836
_symmetry_space_group_name_H-M "P 4/M"
_symmetry_group_IT_number 83
_symmetry_cell_setting 'tetragonal'
loop_
_space_group_symop_operation_xyz
x,y,z
-y,x,z
-x,-y,z
y,-x,z
-x,-y,-z
y,-x,-z
x,y,-z
-y,x,-z
loop_
_atom_site_type_symbol
_atom_site_label
_atom_site_fract_x
_atom_site_fract_y
_atom_site_fract_z
Si Si1 0.400721 0.558668 0.677804
Si Si2 0.974138 0.289156 0.326842
Si Si3 0.375719 0.820406 0.823230
Si Si4 0.246821 0.167054 0.176293
Si Si5 0.686787 0.324675 0.822998
Si Si6 0.560518 0.053076 0.674980
Si Si7 0.767404 0.119845 0.323071
O O1 0.406405 0.476292 0.720827
O O2 0.395979 0.561227 0.500000
O O3 0.337678 0.603395 0.747648
O O4 0.954478 0.282580 0.500000
O O5 0.905726 0.281737 0.226753
O O6 0.011830 0.365181 0.307989
O O7 0.035942 0.231996 0.293640
O O8 0.370001 0.737478 0.785174
O O9 0.435079 0.871493 0.756073
O O10 0.303240 0.851497 0.756058
O O11 0.375123 0.826451 0.000000
O O12 0.294541 0.235618 0.219139
O O13 0.170995 0.173358 0.257396
O O14 0.237124 0.170523 0.000000
O O15 0.686772 0.333059 0.000000
O O16 0.550317 0.065984 0.500000
O O17 0.500000 0.000000 0.728407
O O18 0.761245 0.128606 0.500000
#
# Coordination Sequence:
#
# PCOD9543393 Si02
#       7
#     8   8   8   8   8   8   8
#     4   9  19  36  55  74  95 122 163 211 256 304
#     4   9  18  32  51  75 101 132 169 207 251 299
#     4   9  17  30  48  71  98 128 166 205 245 297
#     4  10  20  33  51  77 107 135 168 210 251 298
#     4   9  19  34  50  73 102 130 164 204 247 301
#     4   9  18  33  50  70 100 136 174 211 247 299
#     4   9  17  31  52  74  98 131 170 208 246 293
#
# _framework density 17.321021999999999
#
# number of rings (size 3 to 8) (size 9 to 14) (size 15 to 20)
#    0.000    2.857    0.000    3.429    0.000    7.143 
#    2.571    0.714    0.000    0.429    0.000    3.000 
#    0.000    0.000    0.000    0.000    0.000    0.000 
#
# Total GULP energy -311826.930306 kJ/mol
# GULP energy per Si atom -5568.338041 kJ/mol
# Density = 1.728160 g / cm^3
# Si number density = 17.321022 Si / 1000 Ang^3
#
#
#
# Elastic Constant Matrix: (Units=GPa)
#
#
# Indices 1 2 3 4 5 6 
#
# 1 36.1827 4.6648 11.6217 0.0000 0.0000 5.6757
# 2 4.6648 36.1827 11.6217 0.0000 0.0000 -5.6757
# 3 11.6217 11.6217 25.2242 0.0000 0.0000 0.0000
# 4 0.0000 0.0000 0.0000 16.3203 0.0000 0.0000
# 5 0.0000 0.0000 0.0000 0.0000 16.3203 0.0000
# 6 5.6757 -5.6757 0.0000 0.0000 0.0000 9.5867
#
#
#
# Elastic Compliance Matrix: (Units=1/GPa)
#
#
# Indices 1 2 3 4 5 6 
#
# 1 0.036754 -0.003573 -0.015287 0.000000 0.000000 -0.023875
# 2 -0.003573 0.036754 -0.015287 0.000000 0.000000 0.023875
# 3 -0.015287 -0.015287 0.053731 0.000000 0.000000 0.000000
# 4 0.000000 0.000000 0.000000 0.061274 0.000000 0.000000
# 5 0.000000 0.000000 0.000000 0.000000 0.061274 0.000000
# 6 -0.023875 0.023875 0.000000 0.000000 0.000000 0.132582
#
#
# Mechanical properties :
#
#
# Convention : Reuss Voigt Hill
#
# Bulk Modulus (GPa) = 16.96571 17.04513 17.00542
# Shear Modulus (GPa) = 10.63127 13.09087 11.86107
#
# Velocity S-wave (km/s) = 2.48014 2.75213 2.61967
# Velocity P-wave (km/s) = 4.24472 4.46777 4.35767
#
# Compressibility (1/GPa) = 0.05894241
#
# Stress axis : x y z
#
# Youngs Moduli (GPa) = 27.20824 27.20824 18.61111
#
# Poissons Ratio (x) = 0.09722 0.28451
# Poissons Ratio (y) = 0.09722 0.28451
# Poissons Ratio (z) = 0.41594 0.41594
#
# Static dielectric constant tensor:
#      x y z
#    x 1.610550 0.000000 0.000000 
#    y 0.000000 1.610550 0.000000 
#    z 0.000000 0.000000 1.577050 
# 
# From -- ./inp_files/1199.got.cif
#   From: 2010.05.17/outbox.cif.g08.bks.cpg/sg83_1_cif.got.tgz:1199.got - 2010.06.03 18:55:12.
