data_PCOD9543533
_publ_section_title
;
Structure prediction by ZEFSAII (Michael W. Deem and Ramdas Pophale) SiO2 
 PCOD9543533
Probable space group: P 4/M
;
_chemical_formula_sum "Si O2"
_cell_formula_units_Z 40
_cell_length_a 7.828809
_cell_length_b 7.828809
_cell_length_c 28.860905
_cell_angle_alpha 90.000000
_cell_angle_beta 90.000000
_cell_angle_gamma 90.000000
_cell_volume 1768.892093
_symmetry_space_group_name_H-M "P 4/M"
_symmetry_group_IT_number 83
_symmetry_cell_setting 'tetragonal'
loop_
_space_group_symop_operation_xyz
x,y,z
-y,x,z
-x,-y,z
y,-x,z
-x,-y,-z
y,-x,-z
x,y,-z
-y,x,-z
loop_
_atom_site_type_symbol
_atom_site_label
_atom_site_fract_x
_atom_site_fract_y
_atom_site_fract_z
Si Si1 0.230050 0.391384 0.549524
Si Si2 0.770670 0.596842 0.648753
Si Si3 0.729565 0.095896 0.256881
Si Si4 0.000000 0.500000 0.079059
Si Si5 0.598965 0.770517 0.000000
Si Si6 0.897195 0.730077 0.844032
O O1 0.409645 0.288222 0.549494
O O2 0.142581 0.354645 0.500000
O O3 0.142013 0.360809 0.599150
O O4 0.598197 0.709050 0.649091
O O5 0.866424 0.632615 0.696085
O O6 0.647723 0.132994 0.206692
O O7 0.901233 0.208735 0.257435
O O8 0.124349 0.395381 0.113123
O O9 0.111194 0.619273 0.045138
O O10 0.399699 0.710878 0.000000
O O11 0.095922 0.789429 0.846483
#
# Coordination Sequence:
#
# PCOD9543533 Si02
#       6
#     8   8   8   4   4   8
#     4   7  10  19  37  61  89 119 150 190 242 292
#     4   9  17  28  45  72  99 121 155 203 248 296
#     4   9  19  34  49  66  93 130 166 201 245 294
#     4  11  20  34  60  82 100 138 177 204 240 286
#     4  10  22  38  54  80 116 142 164 200 248 296
#     4   9  19  35  53  75 101 129 169 214 246 283
#
# _framework density 22.613023999999999
#
# number of rings (size 3 to 8) (size 9 to 14) (size 15 to 20)
#    0.000    3.100    0.000    4.200    0.000    4.000 
#    0.000    0.000    0.000    8.400    0.000    7.000 
#    0.000    0.000    0.000    0.000    0.000    0.000 
#
# Total GULP energy -223248.144675 kJ/mol
# GULP energy per Si atom -5581.203617 kJ/mol
# Density = 2.256156 g / cm^3
# Si number density = 22.613024 Si / 1000 Ang^3
#
#
#
# Elastic Constant Matrix: (Units=GPa)
#
#
# Indices 1 2 3 4 5 6 
#
# 1 28.9473 -0.0625 31.1034 0.0000 0.0000 1.2323
# 2 -0.0625 28.9473 31.1034 0.0000 0.0000 -1.2323
# 3 31.1034 31.1034 245.8173 0.0000 0.0000 0.0000
# 4 0.0000 0.0000 0.0000 37.8757 0.0000 0.0000
# 5 0.0000 0.0000 0.0000 0.0000 37.8757 0.0000
# 6 1.2323 -1.2323 0.0000 0.0000 0.0000 19.0260
#
#
#
# Elastic Compliance Matrix: (Units=1/GPa)
#
#
# Indices 1 2 3 4 5 6 
#
# 1 0.041125 0.006463 -0.006021 0.000000 0.000000 -0.002245
# 2 0.006463 0.041125 -0.006021 0.000000 0.000000 0.002245
# 3 -0.006021 -0.006021 0.005592 0.000000 0.000000 0.000000
# 4 0.000000 0.000000 0.000000 0.026402 0.000000 0.000000
# 5 0.000000 0.000000 0.000000 0.000000 0.026402 0.000000
# 6 -0.002245 0.002245 0.000000 0.000000 0.000000 0.052850
#
#
# Mechanical properties :
#
#
# Convention : Reuss Voigt Hill
#
# Bulk Modulus (GPa) = 13.04082 47.55560 30.29821
# Shear Modulus (GPa) = 21.71869 35.05998 28.38933
#
# Velocity S-wave (km/s) = 3.10248 3.94183 3.54707
# Velocity P-wave (km/s) = 4.31431 6.46476 5.49575
#
# Compressibility (1/GPa) = 0.07668229
#
# Stress axis : x y z
#
# Youngs Moduli (GPa) = 24.31617 24.31617 178.83257
#
# Poissons Ratio (x) = -0.15715 1.07681
# Poissons Ratio (y) = -0.15715 1.07681
# Poissons Ratio (z) = 0.14642 0.14642
#
# Static dielectric constant tensor:
#      x y z
#    x 1.879130 0.000000 0.000000 
#    y 0.000000 1.879130 0.000000 
#    z 0.000000 0.000000 1.899550 
# 
# From -- ./inp_files/3254.got.cif
#   From: 2010.05.17/outbox.cif.g08.bks.cpg/sg83_2_cif.got.tgz:3254.got - 2010.06.03 18:55:12.
