data_PCOD9543366
_publ_section_title
;
Structure prediction by ZEFSAII (Michael W. Deem and Ramdas Pophale) SiO2 
 PCOD9543366
Probable space group: P 4/M
;
_chemical_formula_sum "Si O2"
_cell_formula_units_Z 40
_cell_length_a 15.295629
_cell_length_b 15.295629
_cell_length_c 7.445429
_cell_angle_alpha 90.000000
_cell_angle_beta 90.000000
_cell_angle_gamma 90.000000
_cell_volume 1741.904771
_symmetry_space_group_name_H-M "P 4/M"
_symmetry_group_IT_number 83
_symmetry_cell_setting 'tetragonal'
loop_
_space_group_symop_operation_xyz
x,y,z
-y,x,z
-x,-y,z
y,-x,z
-x,-y,-z
y,-x,-z
x,y,-z
-y,x,-z
loop_
_atom_site_type_symbol
_atom_site_label
_atom_site_fract_x
_atom_site_fract_y
_atom_site_fract_z
Si Si1 0.751613 0.588614 0.220777
Si Si2 0.952266 0.589327 0.783586
Si Si3 0.079110 0.884175 0.281029
Si Si4 0.717048 0.397703 0.203501
Si Si5 0.883752 0.301768 0.290322
O O1 0.852417 0.599048 0.279376
O O2 0.716022 0.494307 0.282938
O O3 0.683307 0.662498 0.280664
O O4 0.754817 0.588844 0.000000
O O5 0.000000 0.500000 0.720894
O O6 0.016604 0.667502 0.729796
O O7 0.950385 0.586139 0.000000
O O8 0.079880 0.882962 0.500000
O O9 0.126233 0.796656 0.219542
O O10 0.977315 0.882900 0.225424
O O11 0.818093 0.368682 0.199256
O O12 0.684194 0.407737 0.000000
O O13 0.861501 0.303158 0.500000
#
# Coordination Sequence:
#
# PCOD9543366 Si02
#       5
#     8   8   8   8   8
#     4   9  19  35  59  84 106 143 184 226 276 326
#     4  10  19  36  57  77 108 145 176 214 271 325
#     4   8  16  32  50  69 101 142 178 213 259 317
#     4  10  20  38  58  80 110 142 185 230 276 331
#     4  11  22  33  53  84 110 140 181 225 272 322
#
# _framework density 22.963366000000001
#
# number of rings (size 3 to 8) (size 9 to 14) (size 15 to 20)
#    0.000    2.400    2.000    1.200    2.800    0.800 
#    0.000    3.000    0.000    0.000    0.000    7.000 
#    0.000    0.000    0.000    0.000    0.000    0.000 
#
# Total GULP energy -223414.758112 kJ/mol
# GULP energy per Si atom -5585.368953 kJ/mol
# Density = 2.291110 g / cm^3
# Si number density = 22.963366 Si / 1000 Ang^3
#
#
#
# Elastic Constant Matrix: (Units=GPa)
#
#
# Indices 1 2 3 4 5 6 
#
# 1 91.3168 42.6619 -1.6782 0.0000 0.0000 15.6012
# 2 42.6619 91.3168 -1.6782 0.0000 0.0000 -15.6012
# 3 -1.6782 -1.6782 74.6006 0.0000 0.0000 0.0000
# 4 0.0000 0.0000 0.0000 15.7114 0.0000 0.0000
# 5 0.0000 0.0000 0.0000 0.0000 15.7114 0.0000
# 6 15.6012 -15.6012 0.0000 0.0000 0.0000 36.4340
#
#
#
# Elastic Compliance Matrix: (Units=1/GPa)
#
#
# Indices 1 2 3 4 5 6 
#
# 1 0.017901 -0.010433 0.000168 0.000000 0.000000 -0.012133
# 2 -0.010433 0.017901 0.000168 0.000000 0.000000 0.012133
# 3 0.000168 0.000168 0.013412 0.000000 0.000000 0.000000
# 4 0.000000 0.000000 0.000000 0.063648 0.000000 0.000000
# 5 0.000000 0.000000 0.000000 0.000000 0.063648 0.000000
# 6 -0.012133 0.012133 0.000000 0.000000 0.000000 0.037837
#
#
# Mechanical properties :
#
#
# Convention : Reuss Voigt Hill
#
# Bulk Modulus (GPa) = 34.45846 37.31613 35.88730
# Shear Modulus (GPa) = 20.47383 28.09994 24.28688
#
# Velocity S-wave (km/s) = 2.98918 3.50192 3.25566
# Velocity P-wave (km/s) = 5.19154 5.71286 5.45843
#
# Compressibility (1/GPa) = 0.02902045
#
# Stress axis : x y z
#
# Youngs Moduli (GPa) = 55.86336 55.86336 74.55857
#
# Poissons Ratio (x) = 0.58281 -0.01253
# Poissons Ratio (y) = 0.58281 -0.01253
# Poissons Ratio (z) = -0.00939 -0.00939
#
# Static dielectric constant tensor:
#      x y z
#    x 1.833560 0.000000 0.000000 
#    y 0.000000 1.833560 0.000000 
#    z 0.000000 0.000000 1.891880 
# 
# From -- ./inp_files/632.got.cif
#   From: 2010.05.17/outbox.cif.g08.bks.cpg/sg83_1_cif.got.tgz:632.got - 2010.06.03 18:55:12.
