data_PCOD9543303
_publ_section_title
;
Structure prediction by ZEFSAII (Michael W. Deem and Ramdas Pophale) SiO2 
 PCOD9543303
Probable space group: P 4/M
;
_chemical_formula_sum "Si O2"
_cell_formula_units_Z 64
_cell_length_a 20.680196
_cell_length_b 20.680196
_cell_length_c 7.868321
_cell_angle_alpha 90.000000
_cell_angle_beta 90.000000
_cell_angle_gamma 90.000000
_cell_volume 3365.048828
_symmetry_space_group_name_H-M "P 4/M"
_symmetry_group_IT_number 83
_symmetry_cell_setting 'tetragonal'
loop_
_space_group_symop_operation_xyz
x,y,z
-y,x,z
-x,-y,z
y,-x,z
-x,-y,-z
y,-x,-z
x,y,-z
-y,x,-z
loop_
_atom_site_type_symbol
_atom_site_label
_atom_site_fract_x
_atom_site_fract_y
_atom_site_fract_z
Si Si1 0.350605 0.078418 0.794185
Si Si2 0.796178 0.675071 0.208678
Si Si3 0.420523 0.567363 0.204656
Si Si4 0.753673 0.538127 0.191491
Si Si5 0.502611 0.889663 0.302968
Si Si6 0.629787 0.061708 0.794515
Si Si7 0.206305 0.712358 0.806020
Si Si8 0.712453 0.400735 0.311130
O O1 0.424821 0.090856 0.741000
O O2 0.304565 0.136221 0.729199
O O3 0.335532 0.004772 0.742353
O O4 0.348926 0.081693 0.000000
O O5 0.756476 0.610808 0.262791
O O6 0.870930 0.663435 0.259269
O O7 0.762820 0.741406 0.268462
O O8 0.793871 0.674279 0.000000
O O9 0.413134 0.492368 0.255506
O O10 0.363135 0.608918 0.279055
O O11 0.416454 0.569469 0.000000
O O12 0.829068 0.518336 0.189021
O O13 0.723474 0.476981 0.284829
O O14 0.726377 0.539818 0.000000
O O15 0.500964 0.869595 0.500000
O O16 0.444032 0.939428 0.273135
O O17 0.626595 0.062591 0.000000
O O18 0.244091 0.643659 0.807688
O O19 0.195264 0.733914 0.000000
O O20 0.731517 0.382264 0.500000
#
# Coordination Sequence:
#
# PCOD9543303 Si02
#       8
#     8   8   8   8   8   8   8   8
#     4  10  19  31  50  72  97 129 165 203 246 298
#     4   8  17  33  53  72  91 121 165 208 242 281
#     4   9  20  39  58  70  82 112 162 213 258 309
#     4  10  19  34  52  68  91 127 167 204 238 288
#     4  11  20  30  46  71 100 128 158 199 245 290
#     4   9  18  33  51  71  96 129 167 205 244 292
#     4  10  20  35  53  72  95 129 167 204 246 298
#     4  12  24  34  47  72  99 125 154 201 258 306
#
# _framework density 19.019038999999999
#
# number of rings (size 3 to 8) (size 9 to 14) (size 15 to 20)
#    0.000    2.125    1.250    4.125    1.750    2.500 
#    0.000    3.125    0.000    0.000    0.000    0.000 
#    0.000    0.500    0.000    7.000    0.000    0.000 
#
# Total GULP energy -357085.614478 kJ/mol
# GULP energy per Si atom -5579.462726 kJ/mol
# Density = 1.897575 g / cm^3
# Si number density = 19.019039 Si / 1000 Ang^3
#
#
#
# Elastic Constant Matrix: (Units=GPa)
#
#
# Indices 1 2 3 4 5 6 
#
# 1 156.5490 2.9382 2.3111 0.0000 0.0000 8.4030
# 2 2.9382 156.5490 2.3111 0.0000 0.0000 -8.4030
# 3 2.3111 2.3111 36.8060 0.0000 0.0000 0.0000
# 4 0.0000 0.0000 0.0000 48.7665 0.0000 0.0000
# 5 0.0000 0.0000 0.0000 0.0000 48.7665 0.0000
# 6 8.4030 -8.4030 0.0000 0.0000 0.0000 23.8005
#
#
#
# Elastic Compliance Matrix: (Units=1/GPa)
#
#
# Indices 1 2 3 4 5 6 
#
# 1 0.006527 -0.000245 -0.000394 0.000000 0.000000 -0.002391
# 2 -0.000245 0.006527 -0.000394 0.000000 0.000000 0.002391
# 3 -0.000394 -0.000394 0.027219 0.000000 0.000000 0.000000
# 4 0.000000 0.000000 0.000000 0.020506 0.000000 0.000000
# 5 0.000000 0.000000 0.000000 0.000000 0.020506 0.000000
# 6 -0.002391 0.002391 0.000000 0.000000 0.000000 0.043704
#
#
# Mechanical properties :
#
#
# Convention : Reuss Voigt Hill
#
# Bulk Modulus (GPa) = 26.17501 40.55833 33.36667
# Shear Modulus (GPa) = 35.76780 47.08959 41.42869
#
# Velocity S-wave (km/s) = 4.34133 4.98126 4.67226
# Velocity P-wave (km/s) = 6.23874 7.37939 6.83291
#
# Compressibility (1/GPa) = 0.03820437
#
# Stress axis : x y z
#
# Youngs Moduli (GPa) = 153.22096 153.22096 36.73898
#
# Poissons Ratio (x) = 0.03754 0.01449
# Poissons Ratio (y) = 0.03754 0.01449
# Poissons Ratio (z) = 0.06044 0.06044
#
# Static dielectric constant tensor:
#      x y z
#    x 1.693930 0.000000 0.000000 
#    y 0.000000 1.693930 0.000000 
#    z 0.000000 0.000000 1.674110 
# 
# From -- ./inp_files/1271.got.cif
#   From: 2010.05.17/outbox.cif.g08.bks.cpg/sg83_1_cif.got.tgz:1271.got - 2010.06.03 18:55:12.
