data_PCOD9543960
_publ_section_title
;
Structure prediction by ZEFSAII (Michael W. Deem and Ramdas Pophale) SiO2 
 PCOD9543960
Probable space group: P 42/M
;
_chemical_formula_sum "Si O2"
_cell_formula_units_Z 64
_cell_length_a 14.990575
_cell_length_b 14.990575
_cell_length_c 18.531643
_cell_angle_alpha 90.000000
_cell_angle_beta 90.000000
_cell_angle_gamma 90.000000
_cell_volume 4164.381499
_symmetry_space_group_name_H-M "P 42/M"
_symmetry_group_IT_number 84
_symmetry_cell_setting 'tetragonal'
loop_
_space_group_symop_operation_xyz
x,y,z
-y,x,1/2+z
-x,-y,z
y,-x,1/2+z
-x,-y,-z
y,-x,1/2-z
x,y,-z
-y,x,1/2-z
loop_
_atom_site_type_symbol
_atom_site_label
_atom_site_fract_x
_atom_site_fract_y
_atom_site_fract_z
Si Si1 0.608599 0.999993 0.417581
Si Si2 0.226964 0.256004 0.706404
Si Si3 0.395713 0.858594 0.304814
Si Si4 0.967482 0.101460 0.419453
Si Si5 0.098996 0.891851 0.269766
Si Si6 0.268919 0.911413 0.916253
Si Si7 0.602537 0.847238 0.302895
Si Si8 0.401192 0.011773 0.181487
O O1 0.639970 0.991940 0.500000
O O2 0.632060 0.917441 0.365356
O O3 0.500000 0.000000 0.418164
O O4 0.635460 0.091789 0.377727
O O5 0.210904 0.328998 0.768675
O O6 0.175001 0.166373 0.731822
O O7 0.176132 0.281966 0.632546
O O8 0.329678 0.233909 0.694823
O O9 0.497787 0.827074 0.313617
O O10 0.398014 0.938471 0.245661
O O11 0.930828 0.111613 0.500000
O O12 0.899788 0.121619 0.355535
O O13 0.051831 0.167676 0.413084
O O14 0.000000 0.000000 0.409625
O O15 0.995342 0.878105 0.247234
O O16 0.327841 0.987487 0.877216
O O17 0.292139 0.898982 0.000000
O O18 0.610793 0.896560 0.225106
O O19 0.500000 0.000000 0.149581
#
# Coordination Sequence:
#
# PCOD9543960 Si02
#       8
#     8   8   8   8   8   8   8   8
#     4   8  14  27  47  69  96 124 149 187 237 287
#     4  11  20  29  50  65  88 121 155 194 228 274
#     4   8  17  31  44  68  92 116 153 194 233 273
#     4  10  18  30  41  54  85 123 151 182 212 243
#     4  11  19  30  44  62  85 120 161 184 210 266
#     4  10  19  29  41  64  92 113 145 189 227 265
#     4   9  17  29  49  67  88 120 159 191 229 277
#     4   8  15  30  48  64  84 114 149 187 227 267
#
# _framework density 15.368429000000001
#
# number of rings (size 3 to 8) (size 9 to 14) (size 15 to 20)
#    0.000    2.625    2.500    2.250    3.500    0.750 
#    0.000    0.625    0.000    1.125    0.000    0.000 
#    0.000    0.000    0.000   16.375    0.000    0.000 
#
# Total GULP energy -356445.435385 kJ/mol
# GULP energy per Si atom -5569.459928 kJ/mol
# Density = 1.533345 g / cm^3
# Si number density = 15.368429 Si / 1000 Ang^3
#
#
#
# Elastic Constant Matrix: (Units=GPa)
#
#
# Indices 1 2 3 4 5 6 
#
# 1 42.3510 19.0402 17.3165 0.0000 0.0000 -2.3046
# 2 19.0402 42.3510 17.3165 0.0000 0.0000 2.3046
# 3 17.3165 17.3165 102.3968 0.0000 0.0000 0.0000
# 4 0.0000 0.0000 0.0000 13.3532 0.0000 0.0000
# 5 0.0000 0.0000 0.0000 0.0000 13.3532 0.0000
# 6 -2.3046 2.3046 0.0000 0.0000 0.0000 20.7869
#
#
#
# Elastic Compliance Matrix: (Units=1/GPa)
#
#
# Indices 1 2 3 4 5 6 
#
# 1 0.030933 -0.012927 -0.003045 0.000000 0.000000 0.004863
# 2 -0.012927 0.030933 -0.003045 0.000000 0.000000 -0.004863
# 3 -0.003045 -0.003045 0.010796 0.000000 0.000000 0.000000
# 4 0.000000 0.000000 0.000000 0.074889 0.000000 0.000000
# 5 0.000000 0.000000 0.000000 0.000000 0.074889 0.000000
# 6 0.004863 -0.004863 0.000000 0.000000 0.000000 0.049185
#
#
# Mechanical properties :
#
#
# Convention : Reuss Voigt Hill
#
# Bulk Modulus (GPa) = 28.87759 32.71612 30.79686
# Shear Modulus (GPa) = 15.56652 18.39369 16.98010
#
# Velocity S-wave (km/s) = 3.18604 3.46330 3.32756
# Velocity P-wave (km/s) = 5.68907 6.10956 5.90306
#
# Compressibility (1/GPa) = 0.03462893
#
# Stress axis : x y z
#
# Youngs Moduli (GPa) = 32.32744 32.32744 92.62796
#
# Poissons Ratio (x) = 0.41788 0.28207
# Poissons Ratio (y) = 0.41788 0.28207
# Poissons Ratio (z) = 0.09844 0.09844
#
# Static dielectric constant tensor:
#      x y z
#    x 1.524530 0.000000 0.000000 
#    y 0.000000 1.524530 0.000000 
#    z 0.000000 0.000000 1.535760 
# 
# From -- ./inp_files/3871.got.cif
#   From: 2010.05.17/outbox.cif.g08.bks.cpg/sg84_2_cif.got.tgz:3871.got - 2010.06.03 18:57:40.
