data_PCOD9543824
_publ_section_title
;
Structure prediction by ZEFSAII (Michael W. Deem and Ramdas Pophale) SiO2 
 PCOD9543824
Probable space group: P 4/M
;
_chemical_formula_sum "Si O2"
_cell_formula_units_Z 50
_cell_length_a 8.715650
_cell_length_b 8.715650
_cell_length_c 32.510062
_cell_angle_alpha 90.000000
_cell_angle_beta 90.000000
_cell_angle_gamma 90.000000
_cell_volume 2469.547370
_symmetry_space_group_name_H-M "P 4/M"
_symmetry_group_IT_number 83
_symmetry_cell_setting 'tetragonal'
loop_
_space_group_symop_operation_xyz
x,y,z
-y,x,z
-x,-y,z
y,-x,z
-x,-y,-z
y,-x,-z
x,y,-z
-y,x,-z
loop_
_atom_site_type_symbol
_atom_site_label
_atom_site_fract_x
_atom_site_fract_y
_atom_site_fract_z
Si Si1 0.593565 0.742679 0.617273
Si Si2 0.335931 0.080851 0.209597
Si Si3 0.769848 0.879721 0.877323
Si Si4 0.756333 0.912393 0.546514
Si Si5 0.000000 0.000000 0.783142
Si Si6 0.267422 0.613795 0.045866
Si Si7 0.605350 0.735277 0.291938
O O1 0.416360 0.690359 0.614158
O O2 0.641373 0.856733 0.581352
O O3 0.629087 0.808026 0.662883
O O4 0.311873 0.163087 0.165463
O O5 0.348603 0.172136 0.252124
O O6 0.186697 0.972480 0.214841
O O7 0.500000 0.000000 0.205554
O O8 0.673659 0.834358 0.917065
O O9 0.937647 0.801740 0.877749
O O10 0.696338 0.890659 0.500000
O O11 0.912009 0.811370 0.550585
O O12 0.302808 0.432908 0.048808
O O13 0.203857 0.644583 0.000000
O O14 0.425663 0.694482 0.290658
#
# Coordination Sequence:
#
# PCOD9543824 Si02
#       7
#     8   8   8   8   2   8   8
#     4   9  19  38  59  83 118 153 198 258 310 368
#     4  12  24  42  67  91 132 178 213 268 346 383
#     4  11  24  42  61  91 130 164 210 270 324 387
#     4   9  19  37  56  80 117 157 200 250 307 375
#     4  12  24  48  60 100 141 160 225 296 300 404
#     4   9  21  41  64  93 128 168 219 272 321 390
#     4   9  20  40  62  87 122 166 216 262 320 401
#
# _framework density 20.246624000000001
#
# number of rings (size 3 to 8) (size 9 to 14) (size 15 to 20)
#    0.000    2.080    1.600    2.880    2.240    1.920 
#    8.640    6.400    0.000    0.000    0.000    0.000 
#    0.000    0.000    0.000    0.000    0.000    0.000 
#
# Total GULP energy -278651.114357 kJ/mol
# GULP energy per Si atom -5573.022287 kJ/mol
# Density = 2.020054 g / cm^3
# Si number density = 20.246624 Si / 1000 Ang^3
#
#
#
# Elastic Constant Matrix: (Units=GPa)
#
#
# Indices 1 2 3 4 5 6 
#
# 1 47.3739 29.8580 54.3488 0.0000 0.0000 0.2387
# 2 29.8580 47.3739 54.3488 0.0000 0.0000 -0.2387
# 3 54.3488 54.3488 200.5043 0.0000 0.0000 0.0000
# 4 0.0000 0.0000 0.0000 -13.1416 0.0000 0.0000
# 5 0.0000 0.0000 0.0000 0.0000 -13.1416 0.0000
# 6 0.2387 -0.2387 0.0000 0.0000 0.0000 44.3243
#
#
#
# Elastic Compliance Matrix: (Units=1/GPa)
#
#
# Indices 1 2 3 4 5 6 
#
# 1 0.039017 -0.018082 -0.005674 0.000000 0.000000 -0.000308
# 2 -0.018082 0.039017 -0.005674 0.000000 0.000000 0.000308
# 3 -0.005674 -0.005674 0.008064 0.000000 0.000000 0.000000
# 4 0.000000 0.000000 0.000000 -0.076094 0.000000 0.000000
# 5 0.000000 0.000000 0.000000 0.000000 -0.076094 0.000000
# 6 -0.000308 0.000308 0.000000 0.000000 0.000000 0.022564
#
#
# Mechanical properties :
#
#
# Convention : Reuss Voigt Hill
#
# Bulk Modulus (GPa) = 36.71811 63.59594 50.15703
# Shear Modulus (GPa) = 204.80100 14.05466 109.42783
#
# Velocity S-wave (km/s) = 10.06840 2.63757 7.35967
# Velocity P-wave (km/s) = 12.38299 6.38393 9.85122
#
# Compressibility (1/GPa) = 0.02723451
#
# Stress axis : x y z
#
# Youngs Moduli (GPa) = 25.62995 25.62995 124.01275
#
# Poissons Ratio (x) = 0.46345 0.70371
# Poissons Ratio (y) = 0.46345 0.70371
# Poissons Ratio (z) = 0.14544 0.14544
#
# Static dielectric constant tensor:
#      x y z
#    x 1.724870 0.000000 0.000000 
#    y 0.000000 1.724870 0.000000 
#    z 0.000000 0.000000 1.728300 
# 
# From -- ./inp_files/3462.got.cif
#   From: 2010.05.17/outbox.cif.g08.bks.cpg/sg83_2_cif.got.tgz:3462.got - 2010.06.03 18:55:12.
