data_PCOD9543328
_publ_section_title
;
Structure prediction by ZEFSAII (Michael W. Deem and Ramdas Pophale) SiO2 
 PCOD9543328
Probable space group: P 4/M
;
_chemical_formula_sum "Si O2"
_cell_formula_units_Z 48
_cell_length_a 12.317098
_cell_length_b 12.317098
_cell_length_c 16.826899
_cell_angle_alpha 90.000000
_cell_angle_beta 90.000000
_cell_angle_gamma 90.000000
_cell_volume 2552.824044
_symmetry_space_group_name_H-M "P 4/M"
_symmetry_group_IT_number 83
_symmetry_cell_setting 'tetragonal'
loop_
_space_group_symop_operation_xyz
x,y,z
-y,x,z
-x,-y,z
y,-x,z
-x,-y,-z
y,-x,-z
x,y,-z
-y,x,-z
loop_
_atom_site_type_symbol
_atom_site_label
_atom_site_fract_x
_atom_site_fract_y
_atom_site_fract_z
Si Si1 0.297821 0.716340 0.753073
Si Si2 0.769241 0.956474 0.913045
Si Si3 0.375695 0.366912 0.585171
Si Si4 0.899689 0.579838 0.839528
Si Si5 0.397338 0.243915 0.087380
Si Si6 0.905270 0.141223 0.246604
O O1 0.325652 0.665226 0.669238
O O2 0.373605 0.820526 0.771868
O O3 0.305471 0.637572 0.831019
O O4 0.174597 0.759086 0.742218
O O5 0.694454 0.848887 0.918749
O O6 0.857308 0.923308 0.848469
O O7 0.685387 0.047797 0.881056
O O8 0.808668 0.986891 0.000000
O O9 0.504911 0.352768 0.584404
O O10 0.333325 0.321744 0.500000
O O11 0.821882 0.508770 0.896566
O O12 0.000000 0.500000 0.816041
O O13 0.401236 0.299370 0.000000
O O14 0.028870 0.146206 0.276727
#
# Coordination Sequence:
#
# PCOD9543328 Si02
#       6
#     8   8   8   8   8   8
#     4  11  20  34  57  82 109 152 187 224 280 343
#     4   9  17  30  47  68  99 145 194 234 276 315
#     4   9  19  38  64  92 116 138 175 232 293 347
#     4  10  19  33  51  74 104 146 191 234 281 326
#     4   9  19  31  46  73 108 144 189 234 270 324
#     4  10  20  34  48  74 111 149 191 230 274 320
#
# _framework density 18.802703999999999
#
# number of rings (size 3 to 8) (size 9 to 14) (size 15 to 20)
#    0.000    2.333    1.667    2.000    0.000    4.000 
#    0.000    0.833    0.000    1.500    0.000    4.667 
#    0.000    0.000    0.000    0.000    0.000    0.000 
#
# Total GULP energy -267249.564386 kJ/mol
# GULP energy per Si atom -5567.699258 kJ/mol
# Density = 1.875991 g / cm^3
# Si number density = 18.802704 Si / 1000 Ang^3
#
#
#
# Elastic Constant Matrix: (Units=GPa)
#
#
# Indices 1 2 3 4 5 6 
#
# 1 62.9845 4.3700 44.5177 0.0000 0.0000 -12.2265
# 2 4.3700 62.9845 44.5177 0.0000 0.0000 12.2265
# 3 44.5177 44.5177 157.7429 0.0000 0.0000 0.0000
# 4 0.0000 0.0000 0.0000 17.1231 0.0000 0.0000
# 5 0.0000 0.0000 0.0000 0.0000 17.1231 0.0000
# 6 -12.2265 12.2265 0.0000 0.0000 0.0000 28.9804
#
#
#
# Elastic Compliance Matrix: (Units=1/GPa)
#
#
# Indices 1 2 3 4 5 6 
#
# 1 0.022193 0.001488 -0.006683 0.000000 0.000000 0.008735
# 2 0.001488 0.022193 -0.006683 0.000000 0.000000 -0.008735
# 3 -0.006683 -0.006683 0.010112 0.000000 0.000000 0.000000
# 4 0.000000 0.000000 0.000000 0.058401 0.000000 0.000000
# 5 0.000000 0.000000 0.000000 0.000000 0.058401 0.000000
# 6 0.008735 -0.008735 0.000000 0.000000 0.000000 0.041877
#
#
# Mechanical properties :
#
#
# Convention : Reuss Voigt Hill
#
# Bulk Modulus (GPa) = 32.52945 52.28032 42.40488
# Shear Modulus (GPa) = 20.22823 25.33243 22.78033
#
# Velocity S-wave (km/s) = 3.28352 3.67451 3.48450
# Velocity P-wave (km/s) = 5.63146 6.77257 6.22820
#
# Compressibility (1/GPa) = 0.03074137
#
# Stress axis : x y z
#
# Youngs Moduli (GPa) = 45.05904 45.05904 98.89520
#
# Poissons Ratio (x) = -0.06706 0.66095
# Poissons Ratio (y) = -0.06706 0.66095
# Poissons Ratio (z) = 0.30114 0.30114
#
# Static dielectric constant tensor:
#      x y z
#    x 1.699390 0.000000 0.000000 
#    y 0.000000 1.699390 0.000000 
#    z 0.000000 0.000000 1.667090 
# 
# From -- ./inp_files/2332.got.cif
#   From: 2010.05.17/outbox.cif.g08.bks.cpg/sg83_2_cif.got.tgz:2332.got - 2010.06.03 18:55:12.
