data_PCOD9543532
_publ_section_title
;
Structure prediction by ZEFSAII (Michael W. Deem and Ramdas Pophale) SiO2 
 PCOD9543532
Probable space group: P 4/M
;
_chemical_formula_sum "Si O2"
_cell_formula_units_Z 44
_cell_length_a 7.666345
_cell_length_b 7.666345
_cell_length_c 31.869321
_cell_angle_alpha 90.000000
_cell_angle_beta 90.000000
_cell_angle_gamma 90.000000
_cell_volume 1873.050684
_symmetry_space_group_name_H-M "P 4/M"
_symmetry_group_IT_number 83
_symmetry_cell_setting 'tetragonal'
loop_
_space_group_symop_operation_xyz
x,y,z
-y,x,z
-x,-y,z
y,-x,z
-x,-y,-z
y,-x,-z
x,y,-z
-y,x,-z
loop_
_atom_site_type_symbol
_atom_site_label
_atom_site_fract_x
_atom_site_fract_y
_atom_site_fract_z
Si Si1 0.896035 0.273818 0.320786
Si Si2 0.773897 0.397818 0.232746
Si Si3 0.273891 0.893492 0.000000
Si Si4 0.877279 0.270789 0.500000
Si Si5 0.610535 0.773611 0.858040
Si Si6 0.727645 0.880734 0.589713
Si Si7 0.500000 0.000000 0.928129
O O1 0.863744 0.363872 0.276741
O O2 0.848914 0.363393 0.365417
O O3 0.096272 0.215336 0.321081
O O4 0.714786 0.597510 0.232468
O O5 0.859578 0.356626 0.187690
O O6 0.393117 0.872499 0.958909
O O7 0.098020 0.783192 0.000000
O O8 0.839339 0.359779 0.544861
O O9 0.083009 0.220111 0.500000
O O10 0.406403 0.716493 0.860072
O O11 0.632254 0.899355 0.897306
O O12 0.914285 0.781204 0.589635
#
# Coordination Sequence:
#
# PCOD9543532 Si02
#       7
#     8   8   4   4   8   8   4
#     4   9  17  28  43  67  97 123 151 192 239 289
#     4   9  19  34  49  66  91 124 161 201 242 282
#     4  10  22  38  54  80 116 142 164 200 242 286
#     4   7   8  12  26  48  76 111 144 174 220 279
#     4   9  19  35  53  75 101 127 164 211 246 278
#     4   7  10  17  30  52  83 114 143 180 227 278
#     4  11  20  34  60  82 100 138 176 199 238 286
#
# _framework density 23.491088999999999
#
# number of rings (size 3 to 8) (size 9 to 14) (size 15 to 20)
#    0.000    3.273    0.000    4.364    0.000    3.636 
#    0.000    0.000    0.000    6.545    0.000    1.273 
#    0.000    8.727    0.000    0.000    0.000    0.000 
#
# Total GULP energy -245517.646968 kJ/mol
# GULP energy per Si atom -5579.946522 kJ/mol
# Density = 2.343762 g / cm^3
# Si number density = 23.491089 Si / 1000 Ang^3
#
#
#
# Elastic Constant Matrix: (Units=GPa)
#
#
# Indices 1 2 3 4 5 6 
#
# 1 -170.8503 198.4993 28.5178 0.0000 0.0000 -411.9627
# 2 198.4993 -170.8503 28.5178 0.0000 0.0000 411.9627
# 3 28.5178 28.5178 265.2056 0.0000 0.0000 0.0000
# 4 0.0000 0.0000 0.0000 43.6683 0.0000 0.0000
# 5 0.0000 0.0000 0.0000 0.0000 43.6683 0.0000
# 6 -411.9627 411.9627 0.0000 0.0000 0.0000 -854.7098
#
#
#
# Elastic Compliance Matrix: (Units=1/GPa)
#
#
# Indices 1 2 3 4 5 6 
#
# 1 0.041240 0.005237 -0.004998 0.000000 0.000000 -0.017353
# 2 0.005237 0.041240 -0.004998 0.000000 0.000000 0.017353
# 3 -0.004998 -0.004998 0.004845 0.000000 0.000000 0.000000
# 4 0.000000 0.000000 0.000000 0.022900 0.000000 0.000000
# 5 0.000000 0.000000 0.000000 0.000000 0.022900 0.000000
# 6 -0.017353 0.017353 0.000000 0.000000 0.000000 0.015558
#
#
# Mechanical properties :
#
#
# Convention : Reuss Voigt Hill
#
# Bulk Modulus (GPa) = 12.85195 48.28608 30.56901
# Shear Modulus (GPa) = 27.15362 -175.60999 -74.22819
#
# Velocity S-wave (km/s) = 3.40356 -8.65554 -5.62735
# Velocity P-wave (km/s) = 4.57477 8.90457 5.40199
#
# Compressibility (1/GPa) = 0.07780923
#
# Stress axis : x y z
#
# Youngs Moduli (GPa) = 24.24812 24.24812 206.37764
#
# Poissons Ratio (x) = -0.12699 1.03143
# Poissons Ratio (y) = -0.12699 1.03143
# Poissons Ratio (z) = 0.12119 0.12119
#
# Static dielectric constant tensor:
#      x y z
#    x 1.940530 0.000000 0.000000 
#    y 0.000000 1.940530 0.000000 
#    z 0.000000 0.000000 1.969630 
# 
# From -- ./inp_files/3402.got.cif
#   From: 2010.05.17/outbox.cif.g08.bks.cpg/sg83_2_cif.got.tgz:3402.got - 2010.06.03 18:55:12.
