data_PCOD9543844
_publ_section_title
;
Structure prediction by ZEFSAII (Michael W. Deem and Ramdas Pophale) SiO2 
 PCOD9543844
Probable space group: P 4/M
;
_chemical_formula_sum "Si O2"
_cell_formula_units_Z 20
_cell_length_a 10.391734
_cell_length_b 10.391734
_cell_length_c 8.066555
_cell_angle_alpha 90.000000
_cell_angle_beta 90.000000
_cell_angle_gamma 90.000000
_cell_volume 871.092235
_symmetry_space_group_name_H-M "P 4/M"
_symmetry_group_IT_number 83
_symmetry_cell_setting 'tetragonal'
loop_
_space_group_symop_operation_xyz
x,y,z
-y,x,z
-x,-y,z
y,-x,z
-x,-y,-z
y,-x,-z
x,y,-z
-y,x,-z
loop_
_atom_site_type_symbol
_atom_site_label
_atom_site_fract_x
_atom_site_fract_y
_atom_site_fract_z
Si Si1 0.350015 0.966384 0.680279
Si Si2 0.686369 0.600447 0.799697
Si Si3 0.959514 0.210483 0.000000
O O1 0.292314 0.995674 0.500000
O O2 0.343586 0.813531 0.716583
O O3 0.500000 0.000000 0.676798
O O4 0.291127 0.044666 0.832531
O O5 0.551075 0.668242 0.756739
O O6 0.700766 0.607500 0.000000
O O7 0.856607 0.098561 0.000000
#
# Coordination Sequence:
#
# PCOD9543844 Si02
#       3
#     8   8   4
#     4  11  25  41  66  99 129 166 212 265 325 385
#     4   9  19  36  62  95 129 168 209 256 321 390
#     4  11  27  48  70  91 124 178 224 269 321 370
#
# _framework density 22.959679000000001
#
# number of rings (size 3 to 8) (size 9 to 14) (size 15 to 20)
#    0.000    1.800    2.000    1.800    5.600    3.200 
#    0.000    4.000    0.000    0.000    0.000    0.000 
#    0.000    0.000    0.000    0.000    0.000    0.000 
#
# Total GULP energy -111995.293830 kJ/mol
# GULP energy per Si atom -5599.764692 kJ/mol
# Density = 2.290742 g / cm^3
# Si number density = 22.959679 Si / 1000 Ang^3
#
#
#
# Elastic Constant Matrix: (Units=GPa)
#
#
# Indices 1 2 3 4 5 6 
#
# 1 50.4461 4.8478 22.6920 0.0000 0.0000 -4.1090
# 2 4.8478 50.4461 22.6920 0.0000 0.0000 4.1090
# 3 22.6920 22.6920 146.2141 0.0000 0.0000 0.0000
# 4 0.0000 0.0000 0.0000 -25.3010 0.0000 0.0000
# 5 0.0000 0.0000 0.0000 0.0000 -25.3010 0.0000
# 6 -4.1090 4.1090 0.0000 0.0000 0.0000 33.3658
#
#
#
# Elastic Compliance Matrix: (Units=1/GPa)
#
#
# Indices 1 2 3 4 5 6 
#
# 1 0.021577 -0.000852 -0.003216 0.000000 0.000000 0.002762
# 2 -0.000852 0.021577 -0.003216 0.000000 0.000000 -0.002762
# 3 -0.003216 -0.003216 0.007838 0.000000 0.000000 0.000000
# 4 0.000000 0.000000 0.000000 -0.039524 0.000000 0.000000
# 5 0.000000 0.000000 0.000000 0.000000 -0.039524 0.000000
# 6 0.002762 -0.002762 0.000000 0.000000 0.000000 0.030651
#
#
# Mechanical properties :
#
#
# Convention : Reuss Voigt Hill
#
# Bulk Modulus (GPa) = 27.45586 38.61889 33.03737
# Shear Modulus (GPa) = 170.62367 9.67770 90.15068
#
# Velocity S-wave (km/s) = 8.62994 2.05529 6.27296
# Velocity P-wave (km/s) = 10.54919 4.74227 8.17846
#
# Compressibility (1/GPa) = 0.03642210
#
# Stress axis : x y z
#
# Youngs Moduli (GPa) = 46.34602 46.34602 127.58903
#
# Poissons Ratio (x) = 0.03947 0.41039
# Poissons Ratio (y) = 0.03947 0.41039
# Poissons Ratio (z) = 0.14907 0.14907
#
# Static dielectric constant tensor:
#      x y z
#    x 1.844520 0.000000 0.000000 
#    y 0.000000 1.844520 0.000000 
#    z 0.000000 0.000000 1.894600 
# 
# From -- ./inp_files/250.got.cif
#   From: 2010.05.17/outbox.cif.g08.bks.cpg/sg83_1_cif.got.tgz:250.got - 2010.06.03 18:55:12.
