data_PCOD9543822
_publ_section_title
;
Structure prediction by ZEFSAII (Michael W. Deem and Ramdas Pophale) SiO2 
 PCOD9543822
Probable space group: P 4/M
;
_chemical_formula_sum "Si O2"
_cell_formula_units_Z 48
_cell_length_a 8.119800
_cell_length_b 8.119800
_cell_length_c 33.376842
_cell_angle_alpha 90.000000
_cell_angle_beta 90.000000
_cell_angle_gamma 90.000000
_cell_volume 2200.573645
_symmetry_space_group_name_H-M "P 4/M"
_symmetry_group_IT_number 83
_symmetry_cell_setting 'tetragonal'
loop_
_space_group_symop_operation_xyz
x,y,z
-y,x,z
-x,-y,z
y,-x,z
-x,-y,-z
y,-x,-z
x,y,-z
-y,x,-z
loop_
_atom_site_type_symbol
_atom_site_label
_atom_site_fract_x
_atom_site_fract_y
_atom_site_fract_z
Si Si1 0.000000 0.500000 0.773920
Si Si2 0.263803 0.086047 0.620111
Si Si3 0.764904 0.416416 0.456242
Si Si4 0.906564 0.738034 0.000000
Si Si5 0.762184 0.592568 0.920310
Si Si6 0.263272 0.091069 0.708871
Si Si7 0.912811 0.736507 0.158840
O O1 0.887590 0.390775 0.744515
O O2 0.896288 0.618197 0.803097
O O3 0.373123 0.129608 0.582270
O O4 0.336654 0.115402 0.664396
O O5 0.100187 0.198870 0.618144
O O6 0.697955 0.602077 0.454769
O O7 0.844114 0.387230 0.500000
O O8 0.859763 0.637361 0.039529
O O9 0.094851 0.797355 0.000000
O O10 0.595634 0.702607 0.919752
O O11 0.867668 0.641139 0.881593
O O12 0.098506 0.199933 0.711996
O O13 0.100870 0.800294 0.159968
#
# Coordination Sequence:
#
# PCOD9543822 Si02
#       7
#     4   8   8   4   8   8   8
#     4  12  22  36  64  91 113 150 198 248 298 354
#     4   9  19  35  55  81 113 147 188 239 290 346
#     4   9  19  35  53  76 110 151 192 235 287 349
#     4  11  24  41  64  96 132 173 220 262 306 368
#     4  11  24  42  65  96 132 169 213 266 317 363
#     4   9  20  39  60  85 117 152 191 238 297 362
#     4  11  24  42  64  91 125 166 210 252 304 370
#
# _framework density 21.812494000000001
#
# number of rings (size 3 to 8) (size 9 to 14) (size 15 to 20)
#    0.000    1.917    0.000    5.000    0.000   10.000 
#    0.000    2.500    0.000    4.500    0.000    0.000 
#    0.000    0.000    0.000    0.000    0.000    0.000 
#
# Total GULP energy -268653.893212 kJ/mol
# GULP energy per Si atom -5596.956109 kJ/mol
# Density = 2.176285 g / cm^3
# Si number density = 21.812494 Si / 1000 Ang^3
#
#
#
# Elastic Constant Matrix: (Units=GPa)
#
#
# Indices 1 2 3 4 5 6 
#
# 1 86.0582 38.0989 72.8783 0.0000 0.0000 0.3217
# 2 38.0989 86.0582 72.8783 0.0000 0.0000 -0.3217
# 3 72.8783 72.8783 242.2583 0.0000 0.0000 0.0000
# 4 0.0000 0.0000 0.0000 61.3584 0.0000 0.0000
# 5 0.0000 0.0000 0.0000 0.0000 61.3584 0.0000
# 6 0.3217 -0.3217 0.0000 0.0000 0.0000 33.7042
#
#
#
# Elastic Compliance Matrix: (Units=1/GPa)
#
#
# Indices 1 2 3 4 5 6 
#
# 1 0.016653 -0.004201 -0.003746 0.000000 0.000000 -0.000199
# 2 -0.004201 0.016653 -0.003746 0.000000 0.000000 0.000199
# 3 -0.003746 -0.003746 0.006382 0.000000 0.000000 0.000000
# 4 0.000000 0.000000 0.000000 0.016298 0.000000 0.000000
# 5 0.000000 0.000000 0.000000 0.000000 0.016298 0.000000
# 6 -0.000199 0.000199 0.000000 0.000000 0.000000 0.029674
#
#
# Mechanical properties :
#
#
# Convention : Reuss Voigt Hill
#
# Bulk Modulus (GPa) = 61.34310 86.89842 74.12076
# Shear Modulus (GPa) = 38.23350 46.65216 42.44283
#
# Velocity S-wave (km/s) = 4.19122 4.62971 4.41591
# Velocity P-wave (km/s) = 7.18371 8.27673 7.74952
#
# Compressibility (1/GPa) = 0.01630175
#
# Stress axis : x y z
#
# Youngs Moduli (GPa) = 60.05011 60.05011 156.70154
#
# Poissons Ratio (x) = 0.25227 0.58698
# Poissons Ratio (y) = 0.25227 0.58698
# Poissons Ratio (z) = 0.22494 0.22494
#
# Static dielectric constant tensor:
#      x y z
#    x 1.802980 0.000000 0.000000 
#    y 0.000000 1.802980 0.000000 
#    z 0.000000 0.000000 1.777000 
# 
# From -- ./inp_files/3496.got.cif
#   From: 2010.05.17/outbox.cif.g08.bks.cpg/sg83_2_cif.got.tgz:3496.got - 2010.06.03 18:55:12.
