data_PCOD9543649
_publ_section_title
;
Structure prediction by ZEFSAII (Michael W. Deem and Ramdas Pophale) SiO2 
 PCOD9543649
Probable space group: P 4/M
;
_chemical_formula_sum "Si O2"
_cell_formula_units_Z 48
_cell_length_a 9.357377
_cell_length_b 9.357377
_cell_length_c 28.734425
_cell_angle_alpha 90.000000
_cell_angle_beta 90.000000
_cell_angle_gamma 90.000000
_cell_volume 2516.000744
_symmetry_space_group_name_H-M "P 4/M"
_symmetry_group_IT_number 83
_symmetry_cell_setting 'tetragonal'
loop_
_space_group_symop_operation_xyz
x,y,z
-y,x,z
-x,-y,z
y,-x,z
-x,-y,-z
y,-x,-z
x,y,-z
-y,x,-z
loop_
_atom_site_type_symbol
_atom_site_label
_atom_site_fract_x
_atom_site_fract_y
_atom_site_fract_z
Si Si1 0.651183 0.168671 0.313030
Si Si2 0.802322 0.138428 0.131089
Si Si3 0.553123 0.735992 0.446804
Si Si4 0.635382 0.298584 0.787081
Si Si5 0.310366 0.359160 0.055637
Si Si6 0.370614 0.143592 0.646103
O O1 0.677219 0.217709 0.260634
O O2 0.497690 0.230119 0.328420
O O3 0.771507 0.227630 0.346515
O O4 0.643122 0.002604 0.325689
O O5 0.705893 0.209630 0.171227
O O6 0.731149 0.194565 0.083466
O O7 0.966494 0.192302 0.134318
O O8 0.396557 0.664241 0.440798
O O9 0.564436 0.786902 0.500000
O O10 0.586189 0.853494 0.407770
O O11 0.691627 0.462362 0.789014
O O12 0.471639 0.306901 0.067507
O O13 0.293568 0.347147 0.000000
#
# Coordination Sequence:
#
# PCOD9543649 Si02
#       6
#     8   8   8   8   8   8
#     4  11  24  38  61  88 119 157 201 251 305 364
#     4  11  26  42  59  90 133 173 207 254 313 374
#     4   9  17  32  59  91 121 156 199 253 306 351
#     4  11  24  42  65  91 117 155 205 261 314 365
#     4   9  19  39  67  97 127 165 217 271 318 365
#     4  11  22  39  59  90 122 156 201 245 303 362
#
# _framework density 19.077895999999999
#
# number of rings (size 3 to 8) (size 9 to 14) (size 15 to 20)
#    0.000    1.667    3.333    2.000    2.333    5.333 
#    0.000    5.000    0.000    0.000    0.000    1.167 
#    0.000    0.000    0.000    0.000    0.000    0.000 
#
# Total GULP energy -267721.051794 kJ/mol
# GULP energy per Si atom -5577.521912 kJ/mol
# Density = 1.903447 g / cm^3
# Si number density = 19.077896 Si / 1000 Ang^3
#
#
#
# Elastic Constant Matrix: (Units=GPa)
#
#
# Indices 1 2 3 4 5 6 
#
# 1 73.5302 45.8307 42.8870 0.0000 0.0000 0.8074
# 2 45.8307 73.5302 42.8870 0.0000 0.0000 -0.8074
# 3 42.8870 42.8870 103.8705 0.0000 0.0000 0.0000
# 4 0.0000 0.0000 0.0000 3.8204 0.0000 0.0000
# 5 0.0000 0.0000 0.0000 0.0000 3.8204 0.0000
# 6 0.8074 -0.8074 0.0000 0.0000 0.0000 29.9052
#
#
#
# Elastic Compliance Matrix: (Units=1/GPa)
#
#
# Indices 1 2 3 4 5 6 
#
# 1 0.024036 -0.012123 -0.004919 0.000000 0.000000 -0.000976
# 2 -0.012123 0.024036 -0.004919 0.000000 0.000000 0.000976
# 3 -0.004919 -0.004919 0.013689 0.000000 0.000000 0.000000
# 4 0.000000 0.000000 0.000000 0.261753 0.000000 0.000000
# 5 0.000000 0.000000 0.000000 0.000000 0.261753 0.000000
# 6 -0.000976 0.000976 0.000000 0.000000 0.000000 0.033492
#
#
# Mechanical properties :
#
#
# Convention : Reuss Voigt Hill
#
# Bulk Modulus (GPa) = 56.05442 57.12668 56.59055
# Shear Modulus (GPa) = 7.47804 15.46427 11.47116
#
# Velocity S-wave (km/s) = 1.98198 2.85017 2.45476
# Velocity P-wave (km/s) = 5.88925 6.39063 6.14506
#
# Compressibility (1/GPa) = 0.01783981
#
# Stress axis : x y z
#
# Youngs Moduli (GPa) = 41.60495 41.60495 73.05149
#
# Poissons Ratio (x) = 0.50438 0.35930
# Poissons Ratio (y) = 0.50438 0.35930
# Poissons Ratio (z) = 0.20463 0.20463
#
# Static dielectric constant tensor:
#      x y z
#    x 1.702010 0.000000 0.000000 
#    y 0.000000 1.702010 0.000000 
#    z 0.000000 0.000000 1.679400 
# 
# From -- ./inp_files/3425.got.cif
#   From: 2010.05.17/outbox.cif.g08.bks.cpg/sg83_2_cif.got.tgz:3425.got - 2010.06.03 18:55:12.
