data_PCOD9543691
_publ_section_title
;
Structure prediction by ZEFSAII (Michael W. Deem and Ramdas Pophale) SiO2 
 PCOD9543691
Probable space group: P 4/M
;
_chemical_formula_sum "Si O2"
_cell_formula_units_Z 40
_cell_length_a 7.798111
_cell_length_b 7.798111
_cell_length_c 28.666870
_cell_angle_alpha 90.000000
_cell_angle_beta 90.000000
_cell_angle_gamma 90.000000
_cell_volume 1743.247706
_symmetry_space_group_name_H-M "P 4/M"
_symmetry_group_IT_number 83
_symmetry_cell_setting 'tetragonal'
loop_
_space_group_symop_operation_xyz
x,y,z
-y,x,z
-x,-y,z
y,-x,z
-x,-y,-z
y,-x,-z
x,y,-z
-y,x,-z
loop_
_atom_site_type_symbol
_atom_site_label
_atom_site_fract_x
_atom_site_fract_y
_atom_site_fract_z
Si Si1 0.108782 0.269622 0.203853
Si Si2 0.097546 0.272370 0.405323
Si Si3 0.109678 0.269852 0.305283
Si Si4 0.500000 0.000000 0.872453
Si Si5 0.227796 0.415544 0.500000
Si Si6 0.768339 0.391343 0.948072
O O1 0.144066 0.351468 0.254927
O O2 0.130425 0.400368 0.161643
O O3 0.907778 0.213234 0.201155
O O4 0.140312 0.358291 0.355177
O O5 0.134191 0.374534 0.451923
O O6 0.901660 0.209414 0.406262
O O7 0.910059 0.212807 0.305305
O O8 0.368595 0.098457 0.906522
O O9 0.392511 0.293080 0.500000
O O10 0.713324 0.591948 0.944775
O O11 0.840748 0.360551 0.000000
#
# Coordination Sequence:
#
# PCOD9543691 Si02
#       6
#     8   8   8   4   4   8
#     4   9  18  32  48  70 103 134 158 194 248 299
#     4   9  17  32  56  79  94 117 162 211 243 280
#     4   7  12  27  49  70  94 123 153 190 237 287
#     4  12  19  28  50  80 100 123 166 210 246 290
#     4  11  24  37  46  66 104 139 160 191 248 304
#     4   9  19  35  51  68  96 134 171 207 247 289
#
# _framework density 22.945678999999998
#
# number of rings (size 3 to 8) (size 9 to 14) (size 15 to 20)
#    0.000    2.900    0.000    5.100    0.000    2.400 
#    0.000    6.000    0.000    0.000    0.000   11.200 
#    0.000    0.000    0.000    0.000    0.000    0.000 
#
# Total GULP energy -223358.674379 kJ/mol
# GULP energy per Si atom -5583.966859 kJ/mol
# Density = 2.289345 g / cm^3
# Si number density = 22.945679 Si / 1000 Ang^3
#
#
#
# Elastic Constant Matrix: (Units=GPa)
#
#
# Indices 1 2 3 4 5 6 
#
# 1 -11.4186 50.4208 28.5837 0.0000 0.0000 55.7338
# 2 50.4208 -11.4186 28.5837 0.0000 0.0000 -55.7338
# 3 28.5837 28.5837 232.3526 0.0000 0.0000 0.0000
# 4 0.0000 0.0000 0.0000 -56.3082 0.0000 0.0000
# 5 0.0000 0.0000 0.0000 0.0000 -56.3082 0.0000
# 6 55.7338 -55.7338 0.0000 0.0000 0.0000 -25.5202
#
#
#
# Elastic Compliance Matrix: (Units=1/GPa)
#
#
# Indices 1 2 3 4 5 6 
#
# 1 0.018393 0.012886 -0.003848 0.000000 0.000000 0.012026
# 2 0.012886 0.018393 -0.003848 0.000000 0.000000 -0.012026
# 3 -0.003848 -0.003848 0.005251 0.000000 0.000000 0.000000
# 4 0.000000 0.000000 0.000000 -0.017759 0.000000 0.000000
# 5 0.000000 0.000000 0.000000 0.000000 -0.017759 0.000000
# 6 0.012026 -0.012026 0.000000 0.000000 0.000000 0.013344
#
#
# Mechanical properties :
#
#
# Convention : Reuss Voigt Hill
#
# Bulk Modulus (GPa) = 19.07738 47.18796 33.13267
# Shear Modulus (GPa) = 185.50435 -20.83214 82.33611
#
# Velocity S-wave (km/s) = 9.00114 -3.01639 5.99675
# Velocity P-wave (km/s) = 10.78701 2.91174 7.90056
#
# Compressibility (1/GPa) = 0.05241810
#
# Stress axis : x y z
#
# Youngs Moduli (GPa) = 54.36779 54.36779 190.45627
#
# Poissons Ratio (x) = -0.70061 0.73287
# Poissons Ratio (y) = -0.70061 0.73287
# Poissons Ratio (z) = 0.20921 0.20921
#
# Static dielectric constant tensor:
#      x y z
#    x 1.851450 0.000000 0.000000 
#    y 0.000000 1.851450 0.000000 
#    z 0.000000 0.000000 1.914090 
# 
# From -- ./inp_files/3265.got.cif
#   From: 2010.05.17/outbox.cif.g08.bks.cpg/sg83_2_cif.got.tgz:3265.got - 2010.06.03 18:55:12.
