data_PCOD9543123
_publ_section_title
;
Structure prediction by ZEFSAII (Michael W. Deem and Ramdas Pophale) SiO2 
 PCOD9543123
Probable space group: I -4 
;
_chemical_formula_sum "Si O2"
_cell_formula_units_Z 34
_cell_length_a 8.528571
_cell_length_b 8.528571
_cell_length_c 20.405323
_cell_angle_alpha 90.000000
_cell_angle_beta 90.000000
_cell_angle_gamma 90.000000
_cell_volume 1484.212252
_symmetry_space_group_name_H-M "I -4 "
_symmetry_group_IT_number 82
_symmetry_cell_setting 'tetragonal'
loop_
_space_group_symop_operation_xyz
x,y,z
y,-x,-z
-x,-y,z
-y,x,-z
1/2+x,1/2+y,1/2+z
1/2+y,1/2-x,1/2-z
1/2-x,1/2-y,1/2+z
1/2-y,1/2+x,1/2-z
loop_
_atom_site_type_symbol
_atom_site_label
_atom_site_fract_x
_atom_site_fract_y
_atom_site_fract_z
Si Si1 0.837396 0.065132 0.804949
Si Si2 0.325052 0.161628 0.448559
Si Si3 0.725664 0.250597 0.186455
Si Si4 0.791326 0.682284 0.577087
Si Si5 0.500000 0.000000 0.250000
O O1 0.864878 0.131462 0.732747
O O2 0.782012 0.202352 0.854450
O O3 0.740546 0.907221 0.794027
O O4 0.000000 0.000000 0.833765
O O5 0.221931 0.234414 0.390679
O O6 0.499191 0.233268 0.440875
O O7 0.271125 0.202726 0.520923
O O8 0.312383 0.979502 0.428283
O O9 0.630897 0.087991 0.204707
#
# Coordination Sequence:
#
# PCOD9543123 Si02
#       5
#     8   8   8   8   2
#     4  12  25  43  74 107 143 196 247 313 378 446
#     4  11  24  44  70 104 144 189 252 304 367 456
#     4  12  24  43  70 105 140 191 243 308 374 447
#     4  11  25  44  71 104 144 196 245 305 378 443
#     4  12  20  40  72 104 140 176 252 302 372 448
#
# _framework density 22.907774
#
# number of rings (size 3 to 8) (size 9 to 14) (size 15 to 20)
#    0.000    0.471    4.706    4.235    0.000    2.824 
#    0.000    0.000    0.000    0.000    0.000    0.000 
#    0.000    0.000    0.000    0.000    0.000    0.000 
#
# Total GULP energy -94821.602243 kJ/mol
# GULP energy per Si atom -5577.741308 kJ/mol
# Density = 2.285563 g / cm^3
# Si number density = 22.907774 Si / 1000 Ang^3
#
#
#
# Elastic Constant Matrix: (Units=GPa)
#
#
# Indices 1 2 3 4 5 6 
#
# 1 69.7627 7.4383 10.1213 0.0000 0.0000 4.0716
# 2 7.4383 69.7627 10.1213 0.0000 0.0000 -4.0716
# 3 10.1213 10.1213 87.1586 0.0000 0.0000 0.0000
# 4 0.0000 0.0000 0.0000 34.7344 0.0000 0.0000
# 5 0.0000 0.0000 0.0000 0.0000 34.7344 0.0000
# 6 4.0716 -4.0716 0.0000 0.0000 0.0000 17.5950
#
#
#
# Elastic Compliance Matrix: (Units=1/GPa)
#
#
# Indices 1 2 3 4 5 6 
#
# 1 0.014953 -0.001593 -0.001551 0.000000 0.000000 -0.003829
# 2 -0.001593 0.014953 -0.001551 0.000000 0.000000 0.003829
# 3 -0.001551 -0.001551 0.011834 0.000000 0.000000 0.000000
# 4 0.000000 0.000000 0.000000 0.028790 0.000000 0.000000
# 5 0.000000 0.000000 0.000000 0.000000 0.028790 0.000000
# 6 -0.003829 0.003829 0.000000 0.000000 0.000000 0.058606
#
#
# Mechanical properties :
#
#
# Convention : Reuss Voigt Hill
#
# Bulk Modulus (GPa) = 30.91388 31.33841 31.12615
# Shear Modulus (GPa) = 28.07431 30.67962 29.37696
#
# Velocity S-wave (km/s) = 3.50456 3.66357 3.58495
# Velocity P-wave (km/s) = 5.46811 5.62189 5.54553
#
# Compressibility (1/GPa) = 0.03234793
#
# Stress axis : x y z
#
# Youngs Moduli (GPa) = 66.87768 66.87768 84.50477
#
# Poissons Ratio (x) = 0.10651 0.13110
# Poissons Ratio (y) = 0.10651 0.13110
# Poissons Ratio (z) = 0.10376 0.10376
#
# Static dielectric constant tensor:
#      x y z
#    x 1.963830 0.000000 0.000000 
#    y 0.000000 1.963830 0.000000 
#    z 0.000000 0.000000 1.846920 
# 
# From -- ./inp_files/2953.got.cif
#   From: 2010.05.17/outbox.cif.g08.bks.cpg/sg82_2_cif.got.tgz:2953.got - 2010.06.03 18:52:26.
