data_PCOD9543387
_publ_section_title
;
Structure prediction by ZEFSAII (Michael W. Deem and Ramdas Pophale) SiO2 
 PCOD9543387
Probable space group: P 4/M
;
_chemical_formula_sum "Si O2"
_cell_formula_units_Z 48
_cell_length_a 18.238650
_cell_length_b 18.238650
_cell_length_c 8.967543
_cell_angle_alpha 90.000000
_cell_angle_beta 90.000000
_cell_angle_gamma 90.000000
_cell_volume 2983.038417
_symmetry_space_group_name_H-M "P 4/M"
_symmetry_group_IT_number 83
_symmetry_cell_setting 'tetragonal'
loop_
_space_group_symop_operation_xyz
x,y,z
-y,x,z
-x,-y,z
y,-x,z
-x,-y,-z
y,-x,-z
x,y,-z
-y,x,-z
loop_
_atom_site_type_symbol
_atom_site_label
_atom_site_fract_x
_atom_site_fract_y
_atom_site_fract_z
Si Si1 0.922999 0.408003 0.177093
Si Si2 0.190896 0.698343 0.669151
Si Si3 0.073602 0.185225 0.176879
Si Si4 0.184678 0.301033 0.680037
Si Si5 0.911679 0.582282 0.821263
Si Si6 0.170158 0.073551 0.330137
O O1 0.855822 0.362218 0.244095
O O2 0.911605 0.494801 0.201991
O O3 0.006728 0.390591 0.230092
O O4 0.923970 0.395529 0.000000
O O5 0.202696 0.672314 0.500000
O O6 0.267138 0.735654 0.724147
O O7 0.136069 0.767983 0.664670
O O8 0.124924 0.247522 0.245658
O O9 0.099783 0.109920 0.253804
O O10 0.991305 0.198658 0.227511
O O11 0.081709 0.182192 0.000000
O O12 0.180927 0.297267 0.500000
O O13 0.155896 0.379003 0.738464
O O14 0.906540 0.595896 0.000000
O O15 0.156402 0.049168 0.500000
#
# Coordination Sequence:
#
# PCOD9543387 Si02
#       6
#     8   8   8   8   8   8
#     4   9  18  31  48  70  97 124 153 192 239 281
#     4   9  19  32  46  65  90 118 152 188 224 270
#     4  11  21  32  46  64  83 109 147 189 231 276
#     4  10  20  33  47  66  92 123 155 190 229 272
#     4   9  18  32  48  70  97 124 155 195 236 280
#     4  10  20  34  47  61  83 112 146 188 232 273
#
# _framework density 16.090976000000001
#
# number of rings (size 3 to 8) (size 9 to 14) (size 15 to 20)
#    0.000    2.333    0.000    5.500    0.000    8.333 
#    0.000    3.333    0.000    0.000    0.000    0.000 
#    0.000    0.667    0.000    7.333    0.000    5.333 
#
# Total GULP energy -267356.273548 kJ/mol
# GULP energy per Si atom -5569.922366 kJ/mol
# Density = 1.605435 g / cm^3
# Si number density = 16.090976 Si / 1000 Ang^3
#
#
#
# Elastic Constant Matrix: (Units=GPa)
#
#
# Indices 1 2 3 4 5 6 
#
# 1 54.8212 27.0532 25.9284 0.0000 0.0000 -1.4756
# 2 27.0532 54.8212 25.9284 0.0000 0.0000 1.4756
# 3 25.9284 25.9284 55.5206 0.0000 0.0000 0.0000
# 4 0.0000 0.0000 0.0000 14.7676 0.0000 0.0000
# 5 0.0000 0.0000 0.0000 0.0000 14.7676 0.0000
# 6 -1.4756 1.4756 0.0000 0.0000 0.0000 29.8985
#
#
#
# Elastic Compliance Matrix: (Units=1/GPa)
#
#
# Indices 1 2 3 4 5 6 
#
# 1 0.026773 -0.009429 -0.008100 0.000000 0.000000 0.001787
# 2 -0.009429 0.026773 -0.008100 0.000000 0.000000 -0.001787
# 3 -0.008100 -0.008100 0.025577 0.000000 0.000000 0.000000
# 4 0.000000 0.000000 0.000000 0.067716 0.000000 0.000000
# 5 0.000000 0.000000 0.000000 0.000000 0.067716 0.000000
# 6 0.001787 -0.001787 0.000000 0.000000 0.000000 0.033623
#
#
# Mechanical properties :
#
#
# Convention : Reuss Voigt Hill
#
# Bulk Modulus (GPa) = 35.88656 35.88701 35.88678
# Shear Modulus (GPa) = 16.19573 17.63695 16.91634
#
# Velocity S-wave (km/s) = 3.17600 3.31430 3.24588
# Velocity P-wave (km/s) = 5.98331 6.08252 6.03312
#
# Compressibility (1/GPa) = 0.02786559
#
# Stress axis : x y z
#
# Youngs Moduli (GPa) = 37.35068 37.35068 39.09827
#
# Poissons Ratio (x) = 0.35219 0.31669
# Poissons Ratio (y) = 0.35219 0.31669
# Poissons Ratio (z) = 0.30253 0.30253
#
# Static dielectric constant tensor:
#      x y z
#    x 1.570250 0.000000 0.000000 
#    y 0.000000 1.570250 0.000000 
#    z 0.000000 0.000000 1.544270 
# 
# From -- ./inp_files/888.got.cif
#   From: 2010.05.17/outbox.cif.g08.bks.cpg/sg83_1_cif.got.tgz:888.got - 2010.06.03 18:55:12.
