data_PCOD9543178
_publ_section_title
;
Structure prediction by ZEFSAII (Michael W. Deem and Ramdas Pophale) SiO2 
 PCOD9543178
Probable space group: I -4 
;
_chemical_formula_sum "Si O2"
_cell_formula_units_Z 44
_cell_length_a 8.601214
_cell_length_b 8.601214
_cell_length_c 25.184326
_cell_angle_alpha 90.000000
_cell_angle_beta 90.000000
_cell_angle_gamma 90.000000
_cell_volume 1863.158657
_symmetry_space_group_name_H-M "I -4 "
_symmetry_group_IT_number 82
_symmetry_cell_setting 'tetragonal'
loop_
_space_group_symop_operation_xyz
x,y,z
y,-x,-z
-x,-y,z
-y,x,-z
1/2+x,1/2+y,1/2+z
1/2+y,1/2-x,1/2-z
1/2-x,1/2-y,1/2+z
1/2-y,1/2+x,1/2-z
loop_
_atom_site_type_symbol
_atom_site_label
_atom_site_fract_x
_atom_site_fract_y
_atom_site_fract_z
Si Si1 0.192778 0.846881 0.222011
Si Si2 0.025425 0.182518 0.304847
Si Si3 0.500000 0.000000 0.638558
Si Si4 0.753710 0.918692 0.059096
Si Si5 0.648962 0.890043 0.171137
Si Si6 0.262013 0.407588 0.443302
O O1 0.022545 0.807518 0.242611
O O2 0.279707 0.707556 0.193447
O O3 0.271879 0.870043 0.280217
O O4 0.208302 0.998004 0.186714
O O5 0.951694 0.340600 0.330489
O O6 0.000000 0.000000 0.322645
O O7 0.433697 0.862729 0.601999
O O8 0.671412 0.843666 0.110093
O O9 0.926893 0.849884 0.053945
O O10 0.777769 0.105059 0.066537
O O11 0.683325 0.884999 0.001131
O O12 0.500000 0.000000 0.174202
#
# Coordination Sequence:
#
# PCOD9543178 Si02
#       6
#     8   8   4   8   8   8
#     4  12  23  41  58  92 128 170 220 266 342 414
#     4  12  25  42  64  96 143 181 227 292 345 422
#     4  12  24  41  68 100 132 179 234 276 356 432
#     4   9  20  38  65  86 122 166 207 269 345 377
#     4  12  21  37  59  89 118 163 213 266 323 400
#     4   9  20  40  61  95 121 157 219 274 318 418
#
# _framework density 23.615808000000001
#
# number of rings (size 3 to 8) (size 9 to 14) (size 15 to 20)
#    0.000    1.091    3.636    4.364    1.273    2.909 
#    0.000    0.000    4.000    0.000    0.000    0.000 
#    0.000    0.000    0.000    0.000    0.000    0.000 
#
# Total GULP energy -122775.779655 kJ/mol
# GULP energy per Si atom -5580.717257 kJ/mol
# Density = 2.356206 g / cm^3
# Si number density = 23.615808 Si / 1000 Ang^3
#
#
#
# Elastic Constant Matrix: (Units=GPa)
#
#
# Indices 1 2 3 4 5 6 
#
# 1 63.4579 1.1868 30.2609 0.0000 0.0000 -5.7285
# 2 1.1868 63.4579 30.2609 0.0000 0.0000 5.7285
# 3 30.2609 30.2609 134.2842 0.0000 0.0000 0.0000
# 4 0.0000 0.0000 0.0000 30.0020 0.0000 0.0000
# 5 0.0000 0.0000 0.0000 0.0000 30.0020 0.0000
# 6 -5.7285 5.7285 0.0000 0.0000 0.0000 28.3038
#
#
#
# Elastic Compliance Matrix: (Units=1/GPa)
#
#
# Indices 1 2 3 4 5 6 
#
# 1 0.018143 0.001463 -0.004418 0.000000 0.000000 0.003376
# 2 0.001463 0.018143 -0.004418 0.000000 0.000000 -0.003376
# 3 -0.004418 -0.004418 0.009438 0.000000 0.000000 0.000000
# 4 0.000000 0.000000 0.000000 0.033331 0.000000 0.000000
# 5 0.000000 0.000000 0.000000 0.000000 0.033331 0.000000
# 6 0.003376 -0.003376 0.000000 0.000000 0.000000 0.036697
#
#
# Mechanical properties :
#
#
# Convention : Reuss Voigt Hill
#
# Bulk Modulus (GPa) = 32.28229 42.73526 37.50877
# Shear Modulus (GPa) = 28.70996 30.96099 29.83547
#
# Velocity S-wave (km/s) = 3.49048 3.62474 3.55825
# Velocity P-wave (km/s) = 5.47212 5.97107 5.72703
#
# Compressibility (1/GPa) = 0.03097674
#
# Stress axis : x y z
#
# Youngs Moduli (GPa) = 55.11853 55.11852 105.95315
#
# Poissons Ratio (x) = -0.08063 0.46811
# Poissons Ratio (y) = -0.08063 0.46811
# Poissons Ratio (z) = 0.24352 0.24352
#
# Static dielectric constant tensor:
#      x y z
#    x 2.011350 0.000000 0.000000 
#    y 0.000000 2.011350 0.000000 
#    z 0.000000 0.000000 1.903510 
# 
# From -- ./inp_files/3924.got.cif
#   From: 2010.05.17/outbox.cif.g08.bks.cpg/sg82_2_cif.got.tgz:3924.got - 2010.06.03 18:52:26.
