data_PCOD9543206
_publ_section_title
;
Structure prediction by ZEFSAII (Michael W. Deem and Ramdas Pophale) SiO2 
 PCOD9543206
Probable space group: I -4 
;
_chemical_formula_sum "Si O2"
_cell_formula_units_Z 20
_cell_length_a 5.142484
_cell_length_b 5.142484
_cell_length_c 31.987024
_cell_angle_alpha 90.000000
_cell_angle_beta 90.000000
_cell_angle_gamma 90.000000
_cell_volume 845.901382
_symmetry_space_group_name_H-M "I -4 "
_symmetry_group_IT_number 82
_symmetry_cell_setting 'tetragonal'
loop_
_space_group_symop_operation_xyz
x,y,z
y,-x,-z
-x,-y,z
-y,x,-z
1/2+x,1/2+y,1/2+z
1/2+y,1/2-x,1/2-z
1/2-x,1/2-y,1/2+z
1/2-y,1/2+x,1/2-z
loop_
_atom_site_type_symbol
_atom_site_label
_atom_site_fract_x
_atom_site_fract_y
_atom_site_fract_z
Si Si1 0.000000 0.500000 0.750000
Si Si2 0.500000 0.500000 0.000000
Si Si3 0.500000 0.000000 0.055607
Si Si4 0.500000 0.500000 0.610373
Si Si5 0.235982 0.666714 0.184079
O O1 0.115837 0.292802 0.781739
O O2 0.750077 0.571917 0.972133
O O3 0.246526 0.083020 0.082507
O O4 0.629774 0.288173 0.641078
O O5 0.500000 0.500000 0.178092
O O6 0.000000 0.500000 0.200562
#
# Coordination Sequence:
#
# PCOD9543206 Si02
#       5
#     2   2   4   4   8
#     4  12  30  48  68 120 156 216 288 336 404 464
#     4  12  28  52  80 130 156 212 256 318 420 480
#     4  12  27  50  86 117 168 206 260 333 392 506
#     4  12  28  51  78 119 154 216 268 331 402 475
#     4  12  29  49  78 112 159 218 273 346 402 472
#
# _framework density 23.643422000000001
#
# number of rings (size 3 to 8) (size 9 to 14) (size 15 to 20)
#    0.000    0.000    0.000    8.400   16.800    0.000 
#    0.000    0.000    0.000    0.000    0.000    0.000 
#    0.000    0.000    0.000    0.000    0.000    0.000 
#
# Total GULP energy -56059.330012 kJ/mol
# GULP energy per Si atom -5605.933001 kJ/mol
# Density = 2.358961 g / cm^3
# Si number density = 23.643422 Si / 1000 Ang^3
#
#
#
# Elastic Constant Matrix: (Units=GPa)
#
#
# Indices 1 2 3 4 5 6 
#
# 1 147.3842 37.6674 47.8371 0.0000 0.0000 -3.1018
# 2 37.6674 147.3842 47.8371 0.0000 0.0000 3.1018
# 3 47.8371 47.8371 117.4536 0.0000 0.0000 0.0000
# 4 0.0000 0.0000 0.0000 183.4712 0.0000 0.0000
# 5 0.0000 0.0000 0.0000 0.0000 183.4712 0.0000
# 6 -3.1018 3.1018 0.0000 0.0000 0.0000 66.6070
#
#
#
# Elastic Compliance Matrix: (Units=1/GPa)
#
#
# Indices 1 2 3 4 5 6 
#
# 1 0.007992 -0.001147 -0.002788 0.000000 0.000000 0.000426
# 2 -0.001147 0.007992 -0.002788 0.000000 0.000000 -0.000426
# 3 -0.002788 -0.002788 0.010785 0.000000 0.000000 0.000000
# 4 0.000000 0.000000 0.000000 0.005450 0.000000 0.000000
# 5 0.000000 0.000000 0.000000 0.000000 0.005450 0.000000
# 6 0.000426 -0.000426 0.000000 0.000000 0.000000 0.015053
#
#
# Mechanical properties :
#
#
# Convention : Reuss Voigt Hill
#
# Bulk Modulus (GPa) = 75.05435 75.43393 75.24414
# Shear Modulus (GPa) = 70.81241 105.30192 88.05716
#
# Velocity S-wave (km/s) = 5.47861 6.68088 6.10939
# Velocity P-wave (km/s) = 8.47546 9.56485 9.03659
#
# Compressibility (1/GPa) = 0.01332368
#
# Stress axis : x y z
#
# Youngs Moduli (GPa) = 125.12691 125.12692 92.72116
#
# Poissons Ratio (x) = 0.14346 0.25851
# Poissons Ratio (y) = 0.14346 0.25851
# Poissons Ratio (z) = 0.34885 0.34885
#
# Static dielectric constant tensor:
#      x y z
#    x 1.516010 0.000000 0.000000 
#    y 0.000000 1.516010 0.000000 
#    z 0.000000 0.000000 1.888270 
# 
# From -- ./inp_files/3606.got.cif
#   From: 2010.05.17/outbox.cif.g08.bks.cpg/sg82_2_cif.got.tgz:3606.got - 2010.06.03 18:52:26.
