data_PCOD9543367
_publ_section_title
;
Structure prediction by ZEFSAII (Michael W. Deem and Ramdas Pophale) SiO2 
 PCOD9543367
Probable space group: P 4/M
;
_chemical_formula_sum "Si O2"
_cell_formula_units_Z 40
_cell_length_a 15.800853
_cell_length_b 15.800853
_cell_length_c 8.061739
_cell_angle_alpha 90.000000
_cell_angle_beta 90.000000
_cell_angle_gamma 90.000000
_cell_volume 2012.749832
_symmetry_space_group_name_H-M "P 4/M"
_symmetry_group_IT_number 83
_symmetry_cell_setting 'tetragonal'
loop_
_space_group_symop_operation_xyz
x,y,z
-y,x,z
-x,-y,z
y,-x,z
-x,-y,-z
y,-x,-z
x,y,-z
-y,x,-z
loop_
_atom_site_type_symbol
_atom_site_label
_atom_site_fract_x
_atom_site_fract_y
_atom_site_fract_z
Si Si1 0.844381 0.200275 0.192458
Si Si2 0.335029 0.300027 0.700878
Si Si3 0.968963 0.759578 0.695267
Si Si4 0.934464 0.569819 0.297359
Si Si5 0.254952 0.475718 0.297463
O O1 0.770539 0.265414 0.249585
O O2 0.814498 0.103816 0.219226
O O3 0.934097 0.213735 0.281733
O O4 0.859148 0.216259 0.000000
O O5 0.335304 0.299827 0.500000
O O6 0.309492 0.394579 0.756182
O O7 0.430269 0.279592 0.758569
O O8 0.948457 0.761217 0.500000
O O9 0.958830 0.663438 0.756847
O O10 0.936492 0.569920 0.500000
O O11 0.840577 0.544888 0.247175
O O12 0.000000 0.500000 0.238727
O O13 0.258065 0.477167 0.500000
#
# Coordination Sequence:
#
# PCOD9543367 Si02
#       5
#     8   8   8   8   8
#     4  12  25  41  60  89 128 161 198 250 309 364
#     4  10  19  36  60  87 121 162 208 255 306 362
#     4  11  22  40  66  89 117 159 207 249 300 363
#     4   9  16  29  54  88 117 145 192 253 305 348
#     4   9  17  30  55  89 120 154 203 260 307 352
#
# _framework density 19.873308000000002
#
# number of rings (size 3 to 8) (size 9 to 14) (size 15 to 20)
#    0.000    1.800    2.000    3.600    0.000    4.000 
#    0.000    5.000    0.000    2.400    0.000    1.400 
#    0.000    0.000    0.000    0.000    0.000    0.000 
#
# Total GULP energy -223364.267046 kJ/mol
# GULP energy per Si atom -5584.106676 kJ/mol
# Density = 1.982808 g / cm^3
# Si number density = 19.873308 Si / 1000 Ang^3
#
#
#
# Elastic Constant Matrix: (Units=GPa)
#
#
# Indices 1 2 3 4 5 6 
#
# 1 144.4791 67.8346 -13.2688 0.0000 0.0000 -3.2849
# 2 67.8346 144.4791 -13.2688 0.0000 0.0000 3.2849
# 3 -13.2688 -13.2688 18.5821 0.0000 0.0000 0.0000
# 4 0.0000 0.0000 0.0000 -4.0285 0.0000 0.0000
# 5 0.0000 0.0000 0.0000 0.0000 -4.0285 0.0000
# 6 -3.2849 3.2849 0.0000 0.0000 0.0000 44.2411
#
#
#
# Elastic Compliance Matrix: (Units=1/GPa)
#
#
# Indices 1 2 3 4 5 6 
#
# 1 0.009151 -0.003980 0.003693 0.000000 0.000000 0.000975
# 2 -0.003980 0.009151 0.003693 0.000000 0.000000 -0.000975
# 3 0.003693 0.003693 0.059089 0.000000 0.000000 0.000000
# 4 0.000000 0.000000 0.000000 -0.248230 0.000000 0.000000
# 5 0.000000 0.000000 0.000000 0.000000 -0.248230 0.000000
# 6 0.000975 -0.000975 0.000000 0.000000 0.000000 0.022748
#
#
# Mechanical properties :
#
#
# Convention : Reuss Voigt Hill
#
# Bulk Modulus (GPa) = 11.87598 43.34823 27.61211
# Shear Modulus (GPa) = -13.33102 24.98636 5.82767
#
# Velocity S-wave (km/s) = -2.59279 3.54966 1.71429
# Velocity P-wave (km/s) = 1.72470 6.21770 4.22405
#
# Compressibility (1/GPa) = 0.08420356
#
# Stress axis : x y z
#
# Youngs Moduli (GPa) = 109.27519 109.27519 16.92363
#
# Poissons Ratio (x) = 0.43487 -0.06250
# Poissons Ratio (y) = 0.43487 -0.06250
# Poissons Ratio (z) = -0.40354 -0.40354
#
# Static dielectric constant tensor:
#      x y z
#    x 1.679790 0.000000 0.000000 
#    y 0.000000 1.679790 0.000000 
#    z 0.000000 0.000000 1.704930 
# 
# From -- ./inp_files/644.got.cif
#   From: 2010.05.17/outbox.cif.g08.bks.cpg/sg83_1_cif.got.tgz:644.got - 2010.06.03 18:55:12.
