data_PCOD9543495
_publ_section_title
;
Structure prediction by ZEFSAII (Michael W. Deem and Ramdas Pophale) SiO2 
 PCOD9543495
Probable space group: P 4/M
;
_chemical_formula_sum "Si O2"
_cell_formula_units_Z 36
_cell_length_a 14.786859
_cell_length_b 14.786859
_cell_length_c 7.243817
_cell_angle_alpha 90.000000
_cell_angle_beta 90.000000
_cell_angle_gamma 90.000000
_cell_volume 1583.869273
_symmetry_space_group_name_H-M "P 4/M"
_symmetry_group_IT_number 83
_symmetry_cell_setting 'tetragonal'
loop_
_space_group_symop_operation_xyz
x,y,z
-y,x,z
-x,-y,z
y,-x,z
-x,-y,-z
y,-x,-z
x,y,-z
-y,x,-z
loop_
_atom_site_type_symbol
_atom_site_label
_atom_site_fract_x
_atom_site_fract_y
_atom_site_fract_z
Si Si1 0.500771 0.895911 0.775598
Si Si2 0.624063 0.416966 0.500000
Si Si3 0.762528 0.342130 0.221535
Si Si4 0.856889 0.028210 0.775523
Si Si5 0.852651 0.699516 0.223912
O O1 0.592346 0.844482 0.719767
O O2 0.405013 0.852067 0.715655
O O3 0.500000 0.000000 0.718389
O O4 0.500818 0.894359 0.000000
O O5 0.620718 0.524092 0.500000
O O6 0.675827 0.384356 0.319013
O O7 0.756426 0.236734 0.274606
O O8 0.757741 0.345587 0.000000
O O9 0.757830 0.060285 0.716970
O O10 0.931627 0.103017 0.719474
O O11 0.855949 0.026198 0.000000
O O12 0.854577 0.696591 0.000000
#
# Coordination Sequence:
#
# PCOD9543495 Si02
#       5
#     8   4   8   8   8
#     4   9  18  31  50  79 114 150 192 240 290 344
#     4  11  24  40  61  86 112 147 193 244 296 346
#     4  10  21  38  59  84 117 153 192 238 289 351
#     4   8  14  23  38  67 107 144 184 235 283 337
#     4   9  17  28  48  75 107 150 191 233 290 342
#
# _framework density 22.729151000000002
#
# number of rings (size 3 to 8) (size 9 to 14) (size 15 to 20)
#    0.000    2.778    0.000    2.000    3.111    2.667 
#    0.000    1.667    0.000    0.000    0.000    0.000 
#    0.000    1.778    0.000    0.222    0.000    0.000 
#
# Total GULP energy -200993.884631 kJ/mol
# GULP energy per Si atom -5583.163462 kJ/mol
# Density = 2.267742 g / cm^3
# Si number density = 22.729151 Si / 1000 Ang^3
#
#
#
# Elastic Constant Matrix: (Units=GPa)
#
#
# Indices 1 2 3 4 5 6 
#
# 1 106.0241 7.5014 -2.4251 0.0000 0.0000 13.2876
# 2 7.5014 106.0241 -2.4251 0.0000 0.0000 -13.2876
# 3 -2.4251 -2.4251 90.7755 0.0000 0.0000 0.0000
# 4 0.0000 0.0000 0.0000 11.1118 0.0000 0.0000
# 5 0.0000 0.0000 0.0000 0.0000 11.1118 0.0000
# 6 13.2876 -13.2876 0.0000 0.0000 0.0000 57.1754
#
#
#
# Elastic Compliance Matrix: (Units=1/GPa)
#
#
# Indices 1 2 3 4 5 6 
#
# 1 0.009824 -0.001005 0.000236 0.000000 0.000000 -0.002517
# 2 -0.001005 0.009824 0.000236 0.000000 0.000000 0.002517
# 3 0.000236 0.000236 0.011029 0.000000 0.000000 0.000000
# 4 0.000000 0.000000 0.000000 0.089995 0.000000 0.000000
# 5 0.000000 0.000000 0.000000 0.000000 0.089995 0.000000
# 6 -0.002517 0.002517 0.000000 0.000000 0.000000 0.018660
#
#
# Mechanical properties :
#
#
# Convention : Reuss Voigt Hill
#
# Bulk Modulus (GPa) = 33.77410 34.23621 34.00516
# Shear Modulus (GPa) = 20.81055 35.89128 28.35092
#
# Velocity S-wave (km/s) = 3.02915 3.97808 3.53560
# Velocity P-wave (km/s) = 5.20826 6.01628 5.62679
#
# Compressibility (1/GPa) = 0.02960849
#
# Stress axis : x y z
#
# Youngs Moduli (GPa) = 101.79446 101.79446 90.67191
#
# Poissons Ratio (x) = 0.10231 -0.02136
# Poissons Ratio (y) = 0.10231 -0.02136
# Poissons Ratio (z) = -0.02398 -0.02398
#
# Static dielectric constant tensor:
#      x y z
#    x 1.817810 0.000000 0.000000 
#    y 0.000000 1.817810 0.000000 
#    z 0.000000 0.000000 1.859730 
# 
# From -- ./inp_files/505.got.cif
#   From: 2010.05.17/outbox.cif.g08.bks.cpg/sg83_1_cif.got.tgz:505.got - 2010.06.03 18:55:12.
