data_PCOD9543098
_publ_section_title
;
Structure prediction by ZEFSAII (Michael W. Deem and Ramdas Pophale) SiO2 
 PCOD9543098
Probable space group: I -4 
;
_chemical_formula_sum "Si O2"
_cell_formula_units_Z 56
_cell_length_a 15.222673
_cell_length_b 15.222673
_cell_length_c 11.611545
_cell_angle_alpha 90.000000
_cell_angle_beta 90.000000
_cell_angle_gamma 90.000000
_cell_volume 2690.740690
_symmetry_space_group_name_H-M "I -4 "
_symmetry_group_IT_number 82
_symmetry_cell_setting 'tetragonal'
loop_
_space_group_symop_operation_xyz
x,y,z
y,-x,-z
-x,-y,z
-y,x,-z
1/2+x,1/2+y,1/2+z
1/2+y,1/2-x,1/2-z
1/2-x,1/2-y,1/2+z
1/2-y,1/2+x,1/2-z
loop_
_atom_site_type_symbol
_atom_site_label
_atom_site_fract_x
_atom_site_fract_y
_atom_site_fract_z
Si Si1 0.354294 0.262514 0.811928
Si Si2 0.298116 0.105564 0.967843
Si Si3 0.301595 0.138414 0.217159
Si Si4 0.366454 0.980372 0.792599
Si Si5 0.123759 0.925690 0.483281
Si Si6 0.225281 0.943551 0.241712
Si Si7 0.418674 0.594244 0.543656
O O1 0.309763 0.178742 0.871344
O O2 0.287427 0.304943 0.723148
O O3 0.441870 0.223686 0.755821
O O4 0.373898 0.328230 0.915335
O O5 0.345441 0.020061 0.916702
O O6 0.194771 0.096859 0.986580
O O7 0.338919 0.132613 0.088273
O O8 0.373597 0.196613 0.284681
O O9 0.271113 0.039658 0.249099
O O10 0.406140 0.058272 0.712932
O O11 0.176831 0.923535 0.363295
O O12 0.026012 0.887016 0.473964
O O13 0.148776 0.934712 0.144031
O O14 0.524724 0.591866 0.561664
#
# Coordination Sequence:
#
# PCOD9543098 Si02
#       7
#     8   8   8   8   8   8   8
#     4  11  23  43  71 100 139 188 236 290 358 428
#     4  11  23  43  68 104 139 185 236 289 358 429
#     4  12  26  45  71  99 143 184 239 295 361 435
#     4   9  22  44  69 106 144 185 239 297 349 425
#     4  11  25  42  66  99 136 180 227 289 356 424
#     4  12  26  47  68 103 143 184 239 293 363 435
#     4  11  25  41  68 106 141 179 226 301 361 419
#
# _framework density 20.812111999999999
#
# number of rings (size 3 to 8) (size 9 to 14) (size 15 to 20)
#    0.000    1.000    5.714    0.000    4.000    2.571 
#    2.571    1.429    0.000    0.000    0.000    0.000 
#    0.000    0.000    0.000    0.000    0.000    0.000 
#
# Total GULP energy -156181.477706 kJ/mol
# GULP energy per Si atom -5577.909918 kJ/mol
# Density = 2.076474 g / cm^3
# Si number density = 20.812112 Si / 1000 Ang^3
#
#
#
# Elastic Constant Matrix: (Units=GPa)
#
#
# Indices 1 2 3 4 5 6 
#
# 1 80.2774 39.7782 20.0279 0.0000 0.0000 7.5433
# 2 39.7782 80.2774 20.0279 0.0000 0.0000 -7.5433
# 3 20.0279 20.0279 75.9085 0.0000 0.0000 0.0000
# 4 0.0000 0.0000 0.0000 29.8709 0.0000 0.0000
# 5 0.0000 0.0000 0.0000 0.0000 29.8709 0.0000
# 6 7.5433 -7.5433 0.0000 0.0000 0.0000 23.2402
#
#
#
# Elastic Compliance Matrix: (Units=1/GPa)
#
#
# Indices 1 2 3 4 5 6 
#
# 1 0.018611 -0.009477 -0.002410 0.000000 0.000000 -0.009117
# 2 -0.009477 0.018611 -0.002410 0.000000 0.000000 0.009117
# 3 -0.002410 -0.002410 0.014445 0.000000 0.000000 0.000000
# 4 0.000000 0.000000 0.000000 0.033477 0.000000 0.000000
# 5 0.000000 0.000000 0.000000 0.000000 0.033477 0.000000
# 6 -0.009117 0.009117 0.000000 0.000000 0.000000 0.048947
#
#
# Mechanical properties :
#
#
# Convention : Reuss Voigt Hill
#
# Bulk Modulus (GPa) = 43.34044 44.01458 43.67751
# Shear Modulus (GPa) = 24.52746 27.03838 25.78292
#
# Velocity S-wave (km/s) = 3.43668 3.60830 3.52354
# Velocity P-wave (km/s) = 6.05124 6.20921 6.13073
#
# Compressibility (1/GPa) = 0.02307314
#
# Stress axis : x y z
#
# Youngs Moduli (GPa) = 53.73254 53.73254 69.22633
#
# Poissons Ratio (x) = 0.50923 0.16682
# Poissons Ratio (y) = 0.50923 0.16682
# Poissons Ratio (z) = 0.12948 0.12948
#
# Static dielectric constant tensor:
#      x y z
#    x 1.776240 0.000000 0.000000 
#    y 0.000000 1.776240 0.000000 
#    z 0.000000 0.000000 1.725600 
# 
# From -- ./inp_files/1859.got.cif
#   From: 2010.05.17/outbox.cif.g08.bks.cpg/sg82_1_cif.got.tgz:1859.got - 2010.06.03 18:52:26.
