data_PCOD9543820
_publ_section_title
;
Structure prediction by ZEFSAII (Michael W. Deem and Ramdas Pophale) SiO2 
 PCOD9543820
Probable space group: P 4/M
;
_chemical_formula_sum "Si O2"
_cell_formula_units_Z 38
_cell_length_a 8.030968
_cell_length_b 8.030968
_cell_length_c 26.872836
_cell_angle_alpha 90.000000
_cell_angle_beta 90.000000
_cell_angle_gamma 90.000000
_cell_volume 1733.202443
_symmetry_space_group_name_H-M "P 4/M"
_symmetry_group_IT_number 83
_symmetry_cell_setting 'tetragonal'
loop_
_space_group_symop_operation_xyz
x,y,z
-y,x,z
-x,-y,z
y,-x,z
-x,-y,-z
y,-x,-z
x,y,-z
-y,x,-z
loop_
_atom_site_type_symbol
_atom_site_label
_atom_site_fract_x
_atom_site_fract_y
_atom_site_fract_z
Si Si1 0.000000 0.500000 0.500000
Si Si2 0.234425 0.589551 0.795665
Si Si3 0.733521 0.904302 0.000000
Si Si4 0.733471 0.910966 0.892890
Si Si5 0.921387 0.268385 0.411824
Si Si6 0.596319 0.765571 0.314022
O O1 0.101482 0.602477 0.456146
O O2 0.297894 0.400659 0.797544
O O3 0.128989 0.631798 0.843834
O O4 0.158780 0.621914 0.741068
O O5 0.648987 0.874833 0.053395
O O6 0.904245 0.796933 0.000000
O O7 0.900090 0.798190 0.891690
O O8 0.883462 0.348692 0.358537
O O9 0.108650 0.198552 0.416838
O O10 0.405074 0.704400 0.317714
#
# Coordination Sequence:
#
# PCOD9543820 Si02
#       6
#     2   8   4   8   8   8
#     4  12  24  42  64  86 120 156 184 218 272 328
#     4   9  19  35  53  76 111 151 187 226 278 341
#     4   7  12  26  46  67  96 136 182 237 296 347
#     4   9  17  30  50  75 102 137 187 243 295 348
#     4  11  24  41  63  92 123 153 189 236 282 324
#     4   9  19  38  62  86 115 155 198 236 283 348
#
# _framework density 21.92473
#
# number of rings (size 3 to 8) (size 9 to 14) (size 15 to 20)
#    0.000    2.632    0.000    4.421    0.000    3.368 
#    0.000    7.368    0.000    8.842    0.000    0.000 
#    0.000    0.000    0.000    0.000    0.000    0.000 
#
# Total GULP energy -211832.449997 kJ/mol
# GULP energy per Si atom -5574.538158 kJ/mol
# Density = 2.187483 g / cm^3
# Si number density = 21.924730 Si / 1000 Ang^3
#
#
#
# Elastic Constant Matrix: (Units=GPa)
#
#
# Indices 1 2 3 4 5 6 
#
# 1 51.3277 18.6765 53.7838 0.0000 0.0000 -5.3117
# 2 18.6765 51.3277 53.7838 0.0000 0.0000 5.3117
# 3 53.7838 53.7838 260.4284 0.0000 0.0000 0.0000
# 4 0.0000 0.0000 0.0000 28.6832 0.0000 0.0000
# 5 0.0000 0.0000 0.0000 0.0000 28.6832 0.0000
# 6 -5.3117 5.3117 0.0000 0.0000 0.0000 31.1704
#
#
#
# Elastic Compliance Matrix: (Units=1/GPa)
#
#
# Indices 1 2 3 4 5 6 
#
# 1 0.026675 -0.005750 -0.004321 0.000000 0.000000 0.005525
# 2 -0.005750 0.026675 -0.004321 0.000000 0.000000 -0.005525
# 3 -0.004321 -0.004321 0.005625 0.000000 0.000000 0.000000
# 4 0.000000 0.000000 0.000000 0.034864 0.000000 0.000000
# 5 0.000000 0.000000 0.000000 0.000000 0.034864 0.000000
# 6 0.005525 -0.005525 0.000000 0.000000 0.000000 0.033965
#
#
# Mechanical properties :
#
#
# Convention : Reuss Voigt Hill
#
# Bulk Modulus (GPa) = 33.12443 68.39689 50.76066
# Shear Modulus (GPa) = 24.81207 33.49668 29.15438
#
# Velocity S-wave (km/s) = 3.36771 3.91295 3.65053
# Velocity P-wave (km/s) = 5.50119 7.18880 6.40086
#
# Compressibility (1/GPa) = 0.03018920
#
# Stress axis : x y z
#
# Youngs Moduli (GPa) = 37.48853 37.48853 177.78506
#
# Poissons Ratio (x) = 0.21555 0.76829
# Poissons Ratio (y) = 0.21555 0.76829
# Poissons Ratio (z) = 0.16201 0.16201
#
# Static dielectric constant tensor:
#      x y z
#    x 1.815330 0.000000 0.000000 
#    y 0.000000 1.815330 0.000000 
#    z 0.000000 0.000000 1.799880 
# 
# From -- ./inp_files/3108.got.cif
#   From: 2010.05.17/outbox.cif.g08.bks.cpg/sg83_2_cif.got.tgz:3108.got - 2010.06.03 18:55:12.
