data_PCOD9543971
_publ_section_title
;
Structure prediction by ZEFSAII (Michael W. Deem and Ramdas Pophale) SiO2 
 PCOD9543971
Probable space group: P 42/M
;
_chemical_formula_sum "Si O2"
_cell_formula_units_Z 56
_cell_length_a 12.960445
_cell_length_b 12.960445
_cell_length_c 20.713746
_cell_angle_alpha 90.000000
_cell_angle_beta 90.000000
_cell_angle_gamma 90.000000
_cell_volume 3479.352845
_symmetry_space_group_name_H-M "P 42/M"
_symmetry_group_IT_number 84
_symmetry_cell_setting 'tetragonal'
loop_
_space_group_symop_operation_xyz
x,y,z
-y,x,1/2+z
-x,-y,z
y,-x,1/2+z
-x,-y,-z
y,-x,1/2-z
x,y,-z
-y,x,1/2-z
loop_
_atom_site_type_symbol
_atom_site_label
_atom_site_fract_x
_atom_site_fract_y
_atom_site_fract_z
Si Si1 0.861054 0.748292 0.696322
Si Si2 0.384782 0.467409 0.576840
Si Si3 0.272862 0.594782 0.676858
Si Si4 0.910249 0.427392 0.860178
Si Si5 0.751520 0.283997 0.924898
Si Si6 0.430192 0.761331 0.721023
Si Si7 0.712772 0.913445 0.236708
O O1 0.811332 0.749969 0.624996
O O2 0.827238 0.641432 0.730518
O O3 0.803618 0.839895 0.735794
O O4 0.984230 0.753184 0.701837
O O5 0.500000 0.500000 0.599470
O O6 0.382233 0.482643 0.500000
O O7 0.297718 0.535950 0.611269
O O8 0.355505 0.348448 0.589946
O O9 0.353841 0.686152 0.684327
O O10 0.294863 0.513670 0.734184
O O11 0.159522 0.641217 0.691395
O O12 0.852027 0.352605 0.909396
O O13 0.828937 0.505821 0.828688
O O14 0.944970 0.356266 0.799232
O O15 0.000000 0.500000 0.886811
O O16 0.747423 0.254311 0.000000
#
# Coordination Sequence:
#
# PCOD9543971 Si02
#       7
#     8   8   8   8   8   8   8
#     4  10  18  36  53  77 103 131 169 222 272 313
#     4  10  20  33  48  68 105 147 177 207 239 296
#     4  10  20  30  46  76 102 137 170 205 250 312
#     4  10  18  32  52  75 103 136 167 221 265 304
#     4  10  21  35  50  75 108 143 180 210 252 321
#     4  10  19  29  48  75 106 130 166 212 259 300
#     4   9  20  32  53  78 102 128 167 223 275 308
#
# _framework density 16.094946
#
# number of rings (size 3 to 8) (size 9 to 14) (size 15 to 20)
#    0.000    2.143    2.857    1.714    2.000    0.571 
#    0.000    0.714    0.000    1.714    0.000    8.000 
#    0.000    0.000    0.000    0.000    0.000    0.000 
#
# Total GULP energy -312078.747030 kJ/mol
# GULP energy per Si atom -5572.834768 kJ/mol
# Density = 1.605831 g / cm^3
# Si number density = 16.094946 Si / 1000 Ang^3
#
#
#
# Elastic Constant Matrix: (Units=GPa)
#
#
# Indices 1 2 3 4 5 6 
#
# 1 67.9138 26.0450 32.6769 0.0000 0.0000 3.8101
# 2 26.0450 67.9138 32.6769 0.0000 0.0000 -3.8101
# 3 32.6769 32.6769 58.2737 0.0000 0.0000 0.0000
# 4 0.0000 0.0000 0.0000 16.1278 0.0000 0.0000
# 5 0.0000 0.0000 0.0000 0.0000 16.1278 0.0000
# 6 3.8101 -3.8101 0.0000 0.0000 0.0000 16.8931
#
#
#
# Elastic Compliance Matrix: (Units=1/GPa)
#
#
# Indices 1 2 3 4 5 6 
#
# 1 0.021177 -0.003729 -0.009784 0.000000 0.000000 -0.005617
# 2 -0.003729 0.021177 -0.009784 0.000000 0.000000 0.005617
# 3 -0.009784 -0.009784 0.028133 0.000000 0.000000 0.000000
# 4 0.000000 0.000000 0.000000 0.062005 0.000000 0.000000
# 5 0.000000 0.000000 0.000000 0.000000 0.062005 0.000000
# 6 -0.005617 0.005617 0.000000 0.000000 0.000000 0.061730
#
#
# Mechanical properties :
#
#
# Convention : Reuss Voigt Hill
#
# Bulk Modulus (GPa) = 41.85246 41.87766 41.86506
# Shear Modulus (GPa) = 16.08820 16.67657 16.38238
#
# Velocity S-wave (km/s) = 3.16504 3.22240 3.19385
# Velocity P-wave (km/s) = 6.27826 6.31829 6.29831
#
# Compressibility (1/GPa) = 0.02389346
#
# Stress axis : x y z
#
# Youngs Moduli (GPa) = 47.21999 47.21999 35.54499
#
# Poissons Ratio (x) = 0.17608 0.34778
# Poissons Ratio (y) = 0.17608 0.34778
# Poissons Ratio (z) = 0.46201 0.46201
#
# Static dielectric constant tensor:
#      x y z
#    x 1.545480 0.000000 0.000000 
#    y 0.000000 1.545480 0.000000 
#    z 0.000000 0.000000 1.533190 
# 
# From -- ./inp_files/4483.got.cif
#   From: 2010.05.17/outbox.cif.g08.bks.cpg/sg84_3_cif.got.tgz:4483.got - 2010.06.03 18:57:40.
