data_PCOD9543982
_publ_section_title
;
Structure prediction by ZEFSAII (Michael W. Deem and Ramdas Pophale) SiO2 
 PCOD9543982
Probable space group: P 42/M
;
_chemical_formula_sum "Si O2"
_cell_formula_units_Z 40
_cell_length_a 9.943303
_cell_length_b 9.943303
_cell_length_c 18.277062
_cell_angle_alpha 90.000000
_cell_angle_beta 90.000000
_cell_angle_gamma 90.000000
_cell_volume 1807.039861
_symmetry_space_group_name_H-M "P 42/M"
_symmetry_group_IT_number 84
_symmetry_cell_setting 'tetragonal'
loop_
_space_group_symop_operation_xyz
x,y,z
-y,x,1/2+z
-x,-y,z
y,-x,1/2+z
-x,-y,-z
y,-x,1/2-z
x,y,-z
-y,x,1/2-z
loop_
_atom_site_type_symbol
_atom_site_label
_atom_site_fract_x
_atom_site_fract_y
_atom_site_fract_z
Si Si1 0.472153 0.342249 0.582955
Si Si2 0.119283 0.817871 0.269657
Si Si3 0.843117 0.478567 0.215674
Si Si4 0.813882 0.583983 0.620869
Si Si5 0.704242 0.895006 0.080676
O O1 0.500000 0.500000 0.596371
O O2 0.514863 0.307720 0.500000
O O3 0.524694 0.250777 0.649150
O O4 0.310562 0.333609 0.590303
O O5 0.170128 0.681050 0.232389
O O6 0.147639 0.803747 0.355577
O O7 0.957721 0.824631 0.259679
O O8 0.811025 0.553483 0.292151
O O9 0.000000 0.500000 0.198800
O O10 0.812092 0.434560 0.585882
O O11 0.953615 0.653657 0.598975
O O12 0.761251 0.887433 0.000000
#
# Coordination Sequence:
#
# PCOD9543982 Si02
#       5
#     8   8   8   8   8
#     4  11  26  42  61  94 133 171 219 275 328 394
#     4  10  21  38  57  85 123 162 204 262 321 400
#     4  11  23  39  64  94 125 172 218 267 341 402
#     4  10  19  36  60  90 116 156 209 265 320 383
#     4  10  18  34  61  87 114 149 203 270 323 371
#
# _framework density 22.135650999999999
#
# number of rings (size 3 to 8) (size 9 to 14) (size 15 to 20)
#    0.000    1.600    4.000    3.600    2.800    2.000 
#    0.000    3.000    0.000    0.000    0.000    0.000 
#    0.000    0.000    0.000    0.000    0.000    0.000 
#
# Total GULP energy -223787.688767 kJ/mol
# GULP energy per Si atom -5594.692219 kJ/mol
# Density = 2.208527 g / cm^3
# Si number density = 22.135651 Si / 1000 Ang^3
#
#
#
# Elastic Constant Matrix: (Units=GPa)
#
#
# Indices 1 2 3 4 5 6 
#
# 1 69.6804 1.9393 36.1917 0.0000 0.0000 -3.2473
# 2 1.9393 69.6804 36.1917 0.0000 0.0000 3.2473
# 3 36.1917 36.1917 216.3378 0.0000 0.0000 0.0000
# 4 0.0000 0.0000 0.0000 16.7008 0.0000 0.0000
# 5 0.0000 0.0000 0.0000 0.0000 16.7008 0.0000
# 6 -3.2473 3.2473 0.0000 0.0000 0.0000 22.6845
#
#
#
# Elastic Compliance Matrix: (Units=1/GPa)
#
#
# Indices 1 2 3 4 5 6 
#
# 1 0.015886 0.000918 -0.002811 0.000000 0.000000 0.002143
# 2 0.000918 0.015886 -0.002811 0.000000 0.000000 -0.002143
# 3 -0.002811 -0.002811 0.005563 0.000000 0.000000 0.000000
# 4 0.000000 0.000000 0.000000 0.059877 0.000000 0.000000
# 5 0.000000 0.000000 0.000000 0.000000 0.059877 0.000000
# 6 0.002143 -0.002143 0.000000 0.000000 0.000000 0.044696
#
#
# Mechanical properties :
#
#
# Convention : Reuss Voigt Hill
#
# Bulk Modulus (GPa) = 35.80905 56.03823 45.92364
# Shear Modulus (GPa) = 22.67550 29.97562 26.32556
#
# Velocity S-wave (km/s) = 3.20408 3.68391 3.45234
# Velocity P-wave (km/s) = 5.46812 6.59285 6.05665
#
# Compressibility (1/GPa) = 0.02792590
#
# Stress axis : x y z
#
# Youngs Moduli (GPa) = 62.94998 62.94998 179.76022
#
# Poissons Ratio (x) = -0.05780 0.50533
# Poissons Ratio (y) = -0.05780 0.50533
# Poissons Ratio (z) = 0.17696 0.17696
#
# Static dielectric constant tensor:
#      x y z
#    x 1.830990 0.000000 0.000000 
#    y 0.000000 1.830990 0.000000 
#    z 0.000000 0.000000 1.802380 
# 
# From -- ./inp_files/2928.got.cif
#   From: 2010.05.17/outbox.cif.g08.bks.cpg/sg84_2_cif.got.tgz:2928.got - 2010.06.03 18:57:40.
