data_PCOD9543919
_publ_section_title
;
Structure prediction by ZEFSAII (Michael W. Deem and Ramdas Pophale) SiO2 
 PCOD9543919
Probable space group: P 4/M
;
_chemical_formula_sum "Si O2"
_cell_formula_units_Z 32
_cell_length_a 14.728941
_cell_length_b 14.728941
_cell_length_c 7.511294
_cell_angle_alpha 90.000000
_cell_angle_beta 90.000000
_cell_angle_gamma 90.000000
_cell_volume 1629.512912
_symmetry_space_group_name_H-M "P 4/M"
_symmetry_group_IT_number 83
_symmetry_cell_setting 'tetragonal'
loop_
_space_group_symop_operation_xyz
x,y,z
-y,x,z
-x,-y,z
y,-x,z
-x,-y,-z
y,-x,-z
x,y,-z
-y,x,-z
loop_
_atom_site_type_symbol
_atom_site_label
_atom_site_fract_x
_atom_site_fract_y
_atom_site_fract_z
Si Si1 0.999909 0.647038 0.782042
Si Si2 0.146226 0.999907 0.782792
Si Si3 0.500088 0.857137 0.788016
Si Si4 0.355383 0.500087 0.713517
O O1 0.999859 0.750479 0.720680
O O2 0.912055 0.588728 0.724371
O O3 0.087838 0.588837 0.724377
O O4 0.999905 0.649896 0.000000
O O5 0.088017 0.911873 0.728451
O O6 0.147312 0.999905 0.000000
O O7 0.500137 0.750532 0.754598
O O8 0.500081 0.868664 0.000000
O O9 0.411585 0.411691 0.777394
O O10 0.361608 0.500084 0.500000
#
# Coordination Sequence:
#
# PCOD9543919 Si02
#       4
#     8   8   8   8
#     4   8  15  27  40  61  95 122 140 176 228 266
#     4   8  13  21  34  53  79 114 150 174 200 252
#     4   9  17  29  46  68  92 117 147 183 222 268
#     4   9  19  35  50  64  88 121 153 189 234 278
#
# _framework density 19.63777
#
# number of rings (size 3 to 8) (size 9 to 14) (size 15 to 20)
#    0.000    3.500    0.000    3.000    0.000    3.000 
#    0.000    8.750    0.000    0.000    0.000    0.000 
#    0.000    0.000    0.000   11.000    0.000    9.000 
#
# Total GULP energy -178343.117771 kJ/mol
# GULP energy per Si atom -5573.222430 kJ/mol
# Density = 1.959307 g / cm^3
# Si number density = 19.637770 Si / 1000 Ang^3
#
#
#
# Elastic Constant Matrix: (Units=GPa)
#
#
# Indices 1 2 3 4 5 6 
#
# 1 231.0819 134.4725 4.0910 0.0000 0.0000 -0.0007
# 2 134.4725 231.0819 4.0910 0.0000 0.0000 0.0007
# 3 4.0910 4.0910 46.2308 0.0000 0.0000 0.0000
# 4 0.0000 0.0000 0.0000 16.0883 0.0000 0.0000
# 5 0.0000 0.0000 0.0000 0.0000 16.0883 0.0000
# 6 -0.0007 0.0007 0.0000 0.0000 0.0000 8.8418
#
#
#
# Elastic Compliance Matrix: (Units=1/GPa)
#
#
# Indices 1 2 3 4 5 6 
#
# 1 0.006546 -0.003805 -0.000243 0.000000 0.000000 0.000001
# 2 -0.003805 0.006546 -0.000243 0.000000 0.000000 -0.000001
# 3 -0.000243 -0.000243 0.021674 0.000000 0.000000 0.000000
# 4 0.000000 0.000000 0.000000 0.062157 0.000000 0.000000
# 5 0.000000 0.000000 0.000000 0.000000 0.062157 0.000000
# 6 0.000001 -0.000001 0.000000 0.000000 0.000000 0.113099
#
#
# Mechanical properties :
#
#
# Convention : Reuss Voigt Hill
#
# Bulk Modulus (GPa) = 38.18937 88.18930 63.18934
# Shear Modulus (GPa) = 17.27190 32.58633 24.92911
#
# Velocity S-wave (km/s) = 2.96889 4.07796 3.56680
# Velocity P-wave (km/s) = 5.58942 8.19625 7.01498
#
# Compressibility (1/GPa) = 0.02618530
#
# Stress axis : x y z
#
# Youngs Moduli (GPa) = 152.76542 152.76542 46.13926
#
# Poissons Ratio (x) = 0.58127 0.01119
# Poissons Ratio (y) = 0.58127 0.01119
# Poissons Ratio (z) = 0.03705 0.03705
#
# Static dielectric constant tensor:
#      x y z
#    x 1.673670 0.000000 0.000000 
#    y 0.000000 1.673670 0.000000 
#    z 0.000000 0.000000 1.734600 
# 
# From -- ./inp_files/425.got.cif
#   From: 2010.05.17/outbox.cif.g08.bks.cpg/sg83_1_cif.got.tgz:425.got - 2010.06.03 18:55:12.
