data_PCOD9543095
_publ_section_title
;
Structure prediction by ZEFSAII (Michael W. Deem and Ramdas Pophale) SiO2 
 PCOD9543095
Probable space group: I -4 
;
_chemical_formula_sum "Si O2"
_cell_formula_units_Z 40
_cell_length_a 8.075553
_cell_length_b 8.075553
_cell_length_c 25.767666
_cell_angle_alpha 90.000000
_cell_angle_beta 90.000000
_cell_angle_gamma 90.000000
_cell_volume 1680.426904
_symmetry_space_group_name_H-M "I -4 "
_symmetry_group_IT_number 82
_symmetry_cell_setting 'tetragonal'
loop_
_space_group_symop_operation_xyz
x,y,z
y,-x,-z
-x,-y,z
-y,x,-z
1/2+x,1/2+y,1/2+z
1/2+y,1/2-x,1/2-z
1/2-x,1/2-y,1/2+z
1/2-y,1/2+x,1/2-z
loop_
_atom_site_type_symbol
_atom_site_label
_atom_site_fract_x
_atom_site_fract_y
_atom_site_fract_z
Si Si1 0.074971 0.748670 0.692853
Si Si2 0.223153 0.067263 0.198301
Si Si3 0.685823 0.945721 0.531755
Si Si4 0.084489 0.833018 0.917147
Si Si5 0.865194 0.238739 0.578978
O O1 0.100781 0.855088 0.745171
O O2 0.233338 0.626282 0.690616
O O3 0.049468 0.801014 0.633513
O O4 0.904021 0.651310 0.703026
O O5 0.145276 0.125723 0.144375
O O6 0.695667 0.756600 0.552867
O O7 0.770513 0.960369 0.475315
O O8 0.500000 0.000000 0.521136
O O9 0.740924 0.085693 0.572302
O O10 0.930087 0.702707 0.919873
O O11 0.000000 0.000000 0.937148
#
# Coordination Sequence:
#
# PCOD9543095 Si02
#       5
#     8   8   8   8   8
#     4   8  16  35  62  93 126 166 217 286 343 405
#     4   8  16  34  64  94 121 164 227 278 343 415
#     4  12  26  44  66 100 137 183 238 284 341 429
#     4  11  23  42  69  96 129 184 230 282 353 415
#     4  11  25  42  66  97 137 178 227 287 348 410
#
# _framework density 23.803476
#
# number of rings (size 3 to 8) (size 9 to 14) (size 15 to 20)
#    0.000    2.000    2.000    2.400    8.400    0.400 
#    0.000    6.000    0.000    0.000    0.000    0.000 
#    0.000    0.000    0.000    0.000    0.000    0.000 
#
# Total GULP energy -111418.477431 kJ/mol
# GULP energy per Si atom -5570.923872 kJ/mol
# Density = 2.374930 g / cm^3
# Si number density = 23.803476 Si / 1000 Ang^3
#
#
#
# Elastic Constant Matrix: (Units=GPa)
#
#
# Indices 1 2 3 4 5 6 
#
# 1 88.3109 12.6605 40.7512 0.0000 0.0000 6.0872
# 2 12.6605 88.3109 40.7512 0.0000 0.0000 -6.0872
# 3 40.7512 40.7512 218.6259 0.0000 0.0000 0.0000
# 4 0.0000 0.0000 0.0000 5.1020 0.0000 0.0000
# 5 0.0000 0.0000 0.0000 0.0000 5.1020 0.0000
# 6 6.0872 -6.0872 0.0000 0.0000 0.0000 6.8200
#
#
#
# Elastic Compliance Matrix: (Units=1/GPa)
#
#
# Indices 1 2 3 4 5 6 
#
# 1 0.013547 -0.001889 -0.002173 0.000000 0.000000 -0.013777
# 2 -0.001889 0.013547 -0.002173 0.000000 0.000000 0.013777
# 3 -0.002173 -0.002173 0.005384 0.000000 0.000000 0.000000
# 4 0.000000 0.000000 0.000000 0.196000 0.000000 0.000000
# 5 0.000000 0.000000 0.000000 0.000000 0.196001 0.000000
# 6 -0.013777 0.013777 0.000000 0.000000 0.000000 0.171220
#
#
# Mechanical properties :
#
#
# Convention : Reuss Voigt Hill
#
# Bulk Modulus (GPa) = 49.98061 64.84149 57.41105
# Shear Modulus (GPa) = 8.13223 23.47714 15.80469
#
# Velocity S-wave (km/s) = 1.85036 3.14393 2.57955
# Velocity P-wave (km/s) = 5.06042 6.36228 5.74832
#
# Compressibility (1/GPa) = 0.02000776
#
# Stress axis : x y z
#
# Youngs Moduli (GPa) = 73.81818 73.81820 185.73223
#
# Poissons Ratio (x) = 0.13944 0.40359
# Poissons Ratio (y) = 0.13944 0.40359
# Poissons Ratio (z) = 0.16040 0.16040
#
# Static dielectric constant tensor:
#      x y z
#    x 2.042980 0.000000 0.000000 
#    y 0.000000 2.042980 0.000000 
#    z 0.000000 0.000000 1.987310 
# 
# From -- ./inp_files/3695.got.cif
#   From: 2010.05.17/outbox.cif.g08.bks.cpg/sg82_2_cif.got.tgz:3695.got - 2010.06.03 18:52:26.
