data_PCOD9543526
_publ_section_title
;
Structure prediction by ZEFSAII (Michael W. Deem and Ramdas Pophale) SiO2 
 PCOD9543526
Probable space group: P 4/M
;
_chemical_formula_sum "Si O2"
_cell_formula_units_Z 36
_cell_length_a 14.390455
_cell_length_b 14.390455
_cell_length_c 7.973293
_cell_angle_alpha 90.000000
_cell_angle_beta 90.000000
_cell_angle_gamma 90.000000
_cell_volume 1651.150937
_symmetry_space_group_name_H-M "P 4/M"
_symmetry_group_IT_number 83
_symmetry_cell_setting 'tetragonal'
loop_
_space_group_symop_operation_xyz
x,y,z
-y,x,z
-x,-y,z
y,-x,z
-x,-y,-z
y,-x,-z
x,y,-z
-y,x,-z
loop_
_atom_site_type_symbol
_atom_site_label
_atom_site_fract_x
_atom_site_fract_y
_atom_site_fract_z
Si Si1 0.849104 0.247091 0.812789
Si Si2 0.816502 0.643672 0.802208
Si Si3 0.395270 0.017477 0.303422
Si Si4 0.865990 0.923848 0.500000
Si Si5 0.469315 0.647455 0.204857
O O1 0.738643 0.242408 0.787748
O O2 0.899983 0.345639 0.795233
O O3 0.893678 0.187144 0.666179
O O4 0.867363 0.210114 0.000000
O O5 0.749437 0.561669 0.736893
O O6 0.916932 0.653333 0.718261
O O7 0.834282 0.628674 0.000000
O O8 0.395841 0.041945 0.500000
O O9 0.500000 0.000000 0.245601
O O10 0.966407 0.877949 0.500000
O O11 0.393348 0.569230 0.255143
O O12 0.468624 0.650022 0.000000
#
# Coordination Sequence:
#
# PCOD9543526 Si02
#       5
#     8   8   8   4   8
#     4  11  24  42  66  95 128 171 221 270 326 400
#     4  10  22  37  63  96 126 168 216 269 330 390
#     4  11  25  43  64  94 131 175 223 273 334 399
#     4  11  24  42  67  94 126 167 209 270 336 386
#     4   8  15  30  54  86 124 162 205 258 317 387
#
# _framework density 21.802973000000001
#
# number of rings (size 3 to 8) (size 9 to 14) (size 15 to 20)
#    0.000    1.889    1.111    2.667    4.667    4.444 
#    0.000    1.111    0.000    0.000    0.000    1.556 
#    0.000    0.000    0.000    0.000    0.000    0.000 
#
# Total GULP energy -201164.725209 kJ/mol
# GULP energy per Si atom -5587.909034 kJ/mol
# Density = 2.175335 g / cm^3
# Si number density = 21.802973 Si / 1000 Ang^3
#
#
#
# Elastic Constant Matrix: (Units=GPa)
#
#
# Indices 1 2 3 4 5 6 
#
# 1 63.6004 -1.8796 16.4108 0.0000 0.0000 -1.4024
# 2 -1.8796 63.6004 16.4108 0.0000 0.0000 1.4024
# 3 16.4108 16.4108 68.6116 0.0000 0.0000 0.0000
# 4 0.0000 0.0000 0.0000 41.5027 0.0000 0.0000
# 5 0.0000 0.0000 0.0000 0.0000 41.5027 0.0000
# 6 -1.4024 1.4024 0.0000 0.0000 0.0000 50.9016
#
#
#
# Elastic Compliance Matrix: (Units=1/GPa)
#
#
# Indices 1 2 3 4 5 6 
#
# 1 0.016926 0.001637 -0.004440 0.000000 0.000000 0.000421
# 2 0.001637 0.016926 -0.004440 0.000000 0.000000 -0.000421
# 3 -0.004440 -0.004440 0.016699 0.000000 0.000000 0.000000
# 4 0.000000 0.000000 0.000000 0.024095 0.000000 0.000000
# 5 0.000000 0.000000 0.000000 0.000000 0.024095 0.000000
# 6 0.000421 -0.000421 0.000000 0.000000 0.000000 0.019669
#
#
# Mechanical properties :
#
#
# Convention : Reuss Voigt Hill
#
# Bulk Modulus (GPa) = 27.72778 28.63293 28.18036
# Shear Modulus (GPa) = 34.50213 37.77279 36.13746
#
# Velocity S-wave (km/s) = 3.98232 4.16680 4.07560
# Velocity P-wave (km/s) = 5.82153 6.02584 5.92456
#
# Compressibility (1/GPa) = 0.03606491
#
# Stress axis : x y z
#
# Youngs Moduli (GPa) = 59.07911 59.07911 59.88475
#
# Poissons Ratio (x) = -0.09669 0.26589
# Poissons Ratio (y) = -0.09669 0.26589
# Poissons Ratio (z) = 0.26231 0.26231
#
# Static dielectric constant tensor:
#      x y z
#    x 1.809560 0.000000 0.000000 
#    y 0.000000 1.809560 0.000000 
#    z 0.000000 0.000000 1.853790 
# 
# From -- ./inp_files/572.got.cif
#   From: 2010.05.17/outbox.cif.g08.bks.cpg/sg83_1_cif.got.tgz:572.got - 2010.06.03 18:55:12.
