data_PCOD9543435
_publ_section_title
;
Structure prediction by ZEFSAII (Michael W. Deem and Ramdas Pophale) SiO2 
 PCOD9543435
Probable space group: P 4/M
;
_chemical_formula_sum "Si O2"
_cell_formula_units_Z 56
_cell_length_a 13.537174
_cell_length_b 13.537174
_cell_length_c 12.857662
_cell_angle_alpha 90.000000
_cell_angle_beta 90.000000
_cell_angle_gamma 90.000000
_cell_volume 2356.231877
_symmetry_space_group_name_H-M "P 4/M"
_symmetry_group_IT_number 83
_symmetry_cell_setting 'tetragonal'
loop_
_space_group_symop_operation_xyz
x,y,z
-y,x,z
-x,-y,z
y,-x,z
-x,-y,-z
y,-x,-z
x,y,-z
-y,x,-z
loop_
_atom_site_type_symbol
_atom_site_label
_atom_site_fract_x
_atom_site_fract_y
_atom_site_fract_z
Si Si1 0.250224 0.194329 0.891711
Si Si2 0.338203 0.164384 0.669415
Si Si3 0.533921 0.107017 0.763232
Si Si4 0.383169 0.605293 0.662715
Si Si5 0.049612 0.285199 0.383820
Si Si6 0.581519 0.306750 0.884492
Si Si7 0.858208 0.077617 0.784501
O O1 0.299906 0.154104 0.787967
O O2 0.289969 0.303305 0.900993
O O3 0.134199 0.207196 0.867383
O O4 0.266956 0.139396 0.000000
O O5 0.453346 0.137725 0.676909
O O6 0.333374 0.281660 0.640827
O O7 0.289354 0.070490 0.613518
O O8 0.633500 0.086618 0.698824
O O9 0.539822 0.201872 0.839732
O O10 0.500000 0.000000 0.808536
O O11 0.364889 0.492825 0.624645
O O12 0.407374 0.617365 0.787256
O O13 0.086833 0.300255 0.500000
O O14 0.087387 0.184328 0.331267
O O15 0.537770 0.330712 0.000000
O O16 0.963329 0.127495 0.801378
#
# Coordination Sequence:
#
# PCOD9543435 Si02
#       7
#     8   8   8   8   8   8   8
#     4  10  21  39  64  91 128 177 218 261 319 398
#     4  10  21  41  65  90 132 171 217 277 331 396
#     4  10  21  38  63  92 127 168 219 280 336 391
#     4  10  20  36  62  94 131 177 217 265 329 395
#     4  11  24  44  71  98 126 167 223 284 346 405
#     4  10  20  35  57  89 131 176 219 263 318 386
#     4  11  23  42  65  94 133 167 213 273 332 400
#
# _framework density 23.766760000000001
#
# number of rings (size 3 to 8) (size 9 to 14) (size 15 to 20)
#    0.000    1.714    4.286    0.000    0.000    5.143 
#    0.000    4.286    0.000    0.857    0.000    1.000 
#    0.000    0.000    0.000    0.000    0.000    0.000 
#
# Total GULP energy -311892.994920 kJ/mol
# GULP energy per Si atom -5569.517766 kJ/mol
# Density = 2.371267 g / cm^3
# Si number density = 23.766760 Si / 1000 Ang^3
#
#
#
# Elastic Constant Matrix: (Units=GPa)
#
#
# Indices 1 2 3 4 5 6 
#
# 1 63.6512 5.7872 4.1995 0.0000 0.0000 1.4186
# 2 5.7872 63.6512 4.1995 0.0000 0.0000 -1.4186
# 3 4.1995 4.1995 94.2101 0.0000 0.0000 0.0000
# 4 0.0000 0.0000 0.0000 -5.9492 0.0000 0.0000
# 5 0.0000 0.0000 0.0000 0.0000 -5.9492 0.0000
# 6 1.4186 -1.4186 0.0000 0.0000 0.0000 26.5366
#
#
#
# Elastic Compliance Matrix: (Units=1/GPa)
#
#
# Indices 1 2 3 4 5 6 
#
# 1 0.015903 -0.001424 -0.000645 0.000000 0.000000 -0.000926
# 2 -0.001424 0.015903 -0.000645 0.000000 0.000000 0.000926
# 3 -0.000645 -0.000645 0.010672 0.000000 0.000000 0.000000
# 4 0.000000 0.000000 0.000000 -0.168091 0.000000 0.000000
# 5 0.000000 0.000000 0.000000 0.000000 -0.168091 0.000000
# 6 -0.000926 0.000926 0.000000 0.000000 0.000000 0.037783
#
#
# Mechanical properties :
#
#
# Convention : Reuss Voigt Hill
#
# Bulk Modulus (GPa) = 26.99126 27.76500 27.37813
# Shear Modulus (GPa) = -20.99598 16.74939 -2.12329
#
# Velocity S-wave (km/s) = -2.97546 2.65757 -0.94622
# Velocity P-wave (km/s) = 0.65046 4.59615 3.21726
#
# Compressibility (1/GPa) = 0.03704903
#
# Stress axis : x y z
#
# Youngs Moduli (GPa) = 62.87990 62.87990 93.70216
#
# Poissons Ratio (x) = 0.08954 0.06048
# Poissons Ratio (y) = 0.08954 0.06048
# Poissons Ratio (z) = 0.04058 0.04058
#
# Static dielectric constant tensor:
#      x y z
#    x 1.992980 0.000000 0.000000 
#    y 0.000000 1.992980 0.000000 
#    z 0.000000 0.000000 2.603930 
# 
# From -- ./inp_files/1935.got.cif
#   From: 2010.05.17/outbox.cif.g08.bks.cpg/sg83_1_cif.got.tgz:1935.got - 2010.06.03 18:55:12.
