data_PCOD9543829
_publ_section_title
;
Structure prediction by ZEFSAII (Michael W. Deem and Ramdas Pophale) SiO2 
 PCOD9543829
Probable space group: P 4/M
;
_chemical_formula_sum "Si O2"
_cell_formula_units_Z 34
_cell_length_a 8.353505
_cell_length_b 8.353505
_cell_length_c 22.416231
_cell_angle_alpha 90.000000
_cell_angle_beta 90.000000
_cell_angle_gamma 90.000000
_cell_volume 1564.228042
_symmetry_space_group_name_H-M "P 4/M"
_symmetry_group_IT_number 83
_symmetry_cell_setting 'tetragonal'
loop_
_space_group_symop_operation_xyz
x,y,z
-y,x,z
-x,-y,z
y,-x,z
-x,-y,-z
y,-x,-z
x,y,-z
-y,x,-z
loop_
_atom_site_type_symbol
_atom_site_label
_atom_site_fract_x
_atom_site_fract_y
_atom_site_fract_z
Si Si1 0.000000 0.000000 0.000000
Si Si2 0.310154 0.190579 0.000000
Si Si3 0.500000 0.500000 0.000000
Si Si4 0.000000 0.500000 0.098852
Si Si5 0.916515 0.742807 0.192511
Si Si6 0.257465 0.918986 0.326668
Si Si7 0.421066 0.758583 0.566108
O O1 0.121319 0.154673 0.000000
O O2 0.344471 0.379050 0.000000
O O3 0.388620 0.109615 0.941884
O O4 0.893399 0.611455 0.142202
O O5 0.895572 0.677408 0.259659
O O6 0.099352 0.807385 0.186563
O O7 0.373868 0.870843 0.379593
O O8 0.099406 0.807522 0.331407
O O9 0.308391 0.600987 0.569784
O O10 0.396702 0.830486 0.500000
#
# Coordination Sequence:
#
# PCOD9543829 Si02
#       7
#     1   4   1   4   8   8   8
#     4  12  28  56  76 116 140 224 236 268 350 480
#     4  11  28  45  78 102 152 180 246 280 362 402
#     4  12  28  56  68 124 156 184 220 340 350 392
#     4  11  24  42  66 108 127 190 224 292 329 426
#     4   9  21  39  62  88 128 174 220 269 334 420
#     4   9  19  36  55  83 118 157 205 261 318 387
#     4   9  19  35  55  79 112 156 206 263 333 408
#
# _framework density 21.735959000000001
#
# number of rings (size 3 to 8) (size 9 to 14) (size 15 to 20)
#    0.000    2.353    0.000    3.529    6.588    5.647 
#    0.000    3.529    0.000    0.000    0.000    0.000 
#    0.000    0.000    0.000    0.000    0.000    0.000 
#
# Total GULP energy -189732.263183 kJ/mol
# GULP energy per Si atom -5580.360682 kJ/mol
# Density = 2.168649 g / cm^3
# Si number density = 21.735959 Si / 1000 Ang^3
#
#
#
# Elastic Constant Matrix: (Units=GPa)
#
#
# Indices 1 2 3 4 5 6 
#
# 1 71.8322 26.3018 52.3903 0.0000 0.0000 -0.0927
# 2 26.3018 71.8322 52.3903 0.0000 0.0000 0.0927
# 3 52.3903 52.3903 183.7841 0.0000 0.0000 0.0000
# 4 0.0000 0.0000 0.0000 39.1543 0.0000 0.0000
# 5 0.0000 0.0000 0.0000 0.0000 39.1543 0.0000
# 6 -0.0927 0.0927 0.0000 0.0000 0.0000 42.2547
#
#
#
# Elastic Compliance Matrix: (Units=1/GPa)
#
#
# Indices 1 2 3 4 5 6 
#
# 1 0.018306 -0.003657 -0.004176 0.000000 0.000000 0.000048
# 2 -0.003657 0.018306 -0.004176 0.000000 0.000000 -0.000048
# 3 -0.004176 -0.004176 0.007822 0.000000 0.000000 0.000000
# 4 0.000000 0.000000 0.000000 0.025540 0.000000 0.000000
# 5 0.000000 0.000000 0.000000 0.000000 0.025540 0.000000
# 6 0.000048 -0.000048 0.000000 0.000000 0.000000 0.023666
#
#
# Mechanical properties :
#
#
# Convention : Reuss Voigt Hill
#
# Bulk Modulus (GPa) = 48.98073 65.51259 57.24666
# Shear Modulus (GPa) = 33.33243 37.20373 35.26808
#
# Velocity S-wave (km/s) = 3.92026 4.14166 4.03248
# Velocity P-wave (km/s) = 6.56312 7.28538 6.93366
#
# Compressibility (1/GPa) = 0.02041619
#
# Stress axis : x y z
#
# Youngs Moduli (GPa) = 54.62631 54.62631 127.84531
#
# Poissons Ratio (x) = 0.19979 0.53387
# Poissons Ratio (y) = 0.19979 0.53387
# Poissons Ratio (z) = 0.22811 0.22811
#
# Static dielectric constant tensor:
#      x y z
#    x 1.788190 0.000000 0.000000 
#    y 0.000000 1.788190 0.000000 
#    z 0.000000 0.000000 1.802710 
# 
# From -- ./inp_files/2914.got.cif
#   From: 2010.05.17/outbox.cif.g08.bks.cpg/sg83_2_cif.got.tgz:2914.got - 2010.06.03 18:55:12.
