data_PCOD9543065
_publ_section_title
;
Structure prediction by ZEFSAII (Michael W. Deem and Ramdas Pophale) SiO2 
 PCOD9543065
Probable space group: I -4 
;
_chemical_formula_sum "Si O2"
_cell_formula_units_Z 42
_cell_length_a 8.784393
_cell_length_b 8.784393
_cell_length_c 24.571533
_cell_angle_alpha 90.000000
_cell_angle_beta 90.000000
_cell_angle_gamma 90.000000
_cell_volume 1896.076113
_symmetry_space_group_name_H-M "I -4 "
_symmetry_group_IT_number 82
_symmetry_cell_setting 'tetragonal'
loop_
_space_group_symop_operation_xyz
x,y,z
y,-x,-z
-x,-y,z
-y,x,-z
1/2+x,1/2+y,1/2+z
1/2+y,1/2-x,1/2-z
1/2-x,1/2-y,1/2+z
1/2-y,1/2+x,1/2-z
loop_
_atom_site_type_symbol
_atom_site_label
_atom_site_fract_x
_atom_site_fract_y
_atom_site_fract_z
Si Si1 0.678808 0.187897 0.879425
Si Si2 0.290028 0.627500 0.983513
Si Si3 0.732729 0.780592 0.305756
Si Si4 0.678015 0.850199 0.908526
Si Si5 0.500000 0.000000 0.250000
Si Si6 0.163056 0.944757 0.783751
O O1 0.495184 0.176571 0.885703
O O2 0.753419 0.185886 0.819696
O O3 0.731093 0.020871 0.898366
O O4 0.728612 0.316511 0.922028
O O5 0.168483 0.681419 0.027159
O O6 0.447709 0.694744 0.007767
O O7 0.731233 0.767715 0.370863
O O8 0.585400 0.869817 0.284716
O O9 0.876388 0.859068 0.276371
O O10 0.752542 0.604000 0.286447
O O11 0.000000 0.000000 0.805870
#
# Coordination Sequence:
#
# PCOD9543065 Si02
#       6
#     8   8   8   8   2   8
#     4   9  19  37  60  84 118 156 204 254 298 358
#     4   9  18  36  58  88 117 152 200 252 301 360
#     4  11  23  41  61  88 124 159 205 250 312 371
#     4   9  19  38  60  86 115 156 207 249 300 369
#     4  12  24  40  56  88 132 156 188 256 312 378
#     4  11  22  40  62  89 124 164 209 253 310 378
#
# _framework density 22.151008000000001
#
# number of rings (size 3 to 8) (size 9 to 14) (size 15 to 20)
#    0.000    2.095    1.905    1.143    0.000    3.429 
#   13.714    1.905    0.000    0.000    0.000    0.000 
#    0.000    0.000    0.000    0.000    0.000    0.000 
#
# Total GULP energy -117034.952827 kJ/mol
# GULP energy per Si atom -5573.092992 kJ/mol
# Density = 2.210059 g / cm^3
# Si number density = 22.151008 Si / 1000 Ang^3
#
#
#
# Elastic Constant Matrix: (Units=GPa)
#
#
# Indices 1 2 3 4 5 6 
#
# 1 38.3001 0.2209 3.5318 0.0000 0.0000 -5.0722
# 2 0.2209 38.3001 3.5318 0.0000 0.0000 5.0722
# 3 3.5318 3.5318 38.2169 0.0000 0.0000 0.0000
# 4 0.0000 0.0000 0.0000 26.2045 0.0000 0.0000
# 5 0.0000 0.0000 0.0000 0.0000 26.2045 0.0000
# 6 -5.0722 5.0722 0.0000 0.0000 0.0000 33.2660
#
#
#
# Elastic Compliance Matrix: (Units=1/GPa)
#
#
# Indices 1 2 3 4 5 6 
#
# 1 0.026890 -0.000483 -0.002440 0.000000 0.000000 0.004174
# 2 -0.000483 0.026890 -0.002440 0.000000 0.000000 -0.004174
# 3 -0.002440 -0.002440 0.026618 0.000000 0.000000 0.000000
# 4 0.000000 0.000000 0.000000 0.038161 0.000000 0.000000
# 5 0.000000 0.000000 0.000000 0.000000 0.038161 0.000000
# 6 0.004174 -0.004174 0.000000 0.000000 0.000000 0.031333
#
#
# Mechanical properties :
#
#
# Convention : Reuss Voigt Hill
#
# Bulk Modulus (GPa) = 14.35327 14.37624 14.36476
# Shear Modulus (GPa) = 22.52200 24.30380 23.41290
#
# Velocity S-wave (km/s) = 3.19211 3.31598 3.25463
# Velocity P-wave (km/s) = 4.48106 4.60056 4.54120
#
# Compressibility (1/GPa) = 0.06967051
#
# Stress axis : x y z
#
# Youngs Moduli (GPa) = 37.18831 37.18830 37.56922
#
# Poissons Ratio (x) = 0.01795 0.09169
# Poissons Ratio (y) = 0.01795 0.09169
# Poissons Ratio (z) = 0.09076 0.09076
#
# Static dielectric constant tensor:
#      x y z
#    x 1.868970 0.000000 0.000000 
#    y 0.000000 1.868970 0.000000 
#    z 0.000000 0.000000 1.843480 
# 
# From -- ./inp_files/3725.got.cif
#   From: 2010.05.17/outbox.cif.g08.bks.cpg/sg82_2_cif.got.tgz:3725.got - 2010.06.03 18:52:26.
