data_PCOD9543741
_publ_section_title
;
Structure prediction by ZEFSAII (Michael W. Deem and Ramdas Pophale) SiO2 
 PCOD9543741
Probable space group: P 4/M
;
_chemical_formula_sum "Si O2"
_cell_formula_units_Z 48
_cell_length_a 7.797384
_cell_length_b 7.797384
_cell_length_c 34.724052
_cell_angle_alpha 90.000000
_cell_angle_beta 90.000000
_cell_angle_gamma 90.000000
_cell_volume 2111.194487
_symmetry_space_group_name_H-M "P 4/M"
_symmetry_group_IT_number 83
_symmetry_cell_setting 'tetragonal'
loop_
_space_group_symop_operation_xyz
x,y,z
-y,x,z
-x,-y,z
y,-x,z
-x,-y,-z
y,-x,-z
x,y,-z
-y,x,-z
loop_
_atom_site_type_symbol
_atom_site_label
_atom_site_fract_x
_atom_site_fract_y
_atom_site_fract_z
Si Si1 0.891729 0.731303 0.042040
Si Si2 0.500000 0.000000 0.394759
Si Si3 0.268299 0.108796 0.667550
Si Si4 0.000000 0.500000 0.815702
Si Si5 0.608795 0.231669 0.542917
Si Si6 0.731670 0.891220 0.246574
Si Si7 0.768114 0.596822 0.121739
O O1 0.842178 0.624820 0.079249
O O2 0.090322 0.786540 0.043654
O O3 0.857230 0.650732 0.000000
O O4 0.402374 0.131917 0.366586
O O5 0.631890 0.097658 0.422932
O O6 0.339947 0.139299 0.710486
O O7 0.091856 0.213402 0.664737
O O8 0.131696 0.597373 0.787499
O O9 0.096294 0.370657 0.844553
O O10 0.713398 0.408135 0.545716
O O11 0.639407 0.159789 0.500000
O O12 0.908114 0.786628 0.243693
O O13 0.599865 0.711091 0.125792
#
# Coordination Sequence:
#
# PCOD9543741 Si02
#       7
#     8   4   8   4   8   8   8
#     4   9  19  38  63  87 110 140 180 221 257 301
#     4  12  18  28  52  79  96 127 170 208 252 310
#     4   9  19  34  50  74 106 131 158 206 262 310
#     4  12  21  36  57  79 102 137 179 222 253 296
#     4   9  19  34  48  66  97 134 171 211 251 295
#     4   9  19  36  56  76 100 134 173 209 253 310
#     4  11  24  38  53  80 115 145 174 215 269 318
#
# _framework density 22.735941
#
# number of rings (size 3 to 8) (size 9 to 14) (size 15 to 20)
#    0.000    2.167    0.000    5.750    0.000    0.667 
#    0.000    4.583    0.000    0.000    0.000   21.000 
#    0.000    0.000    0.000    0.000    0.000    0.000 
#
# Total GULP energy -268334.244850 kJ/mol
# GULP energy per Si atom -5590.296768 kJ/mol
# Density = 2.268419 g / cm^3
# Si number density = 22.735941 Si / 1000 Ang^3
#
#
#
# Elastic Constant Matrix: (Units=GPa)
#
#
# Indices 1 2 3 4 5 6 
#
# 1 45.4787 -10.0602 24.4386 0.0000 0.0000 -7.2028
# 2 -10.0602 45.4787 24.4386 0.0000 0.0000 7.2028
# 3 24.4386 24.4386 190.6507 0.0000 0.0000 0.0000
# 4 0.0000 0.0000 0.0000 24.9015 0.0000 0.0000
# 5 0.0000 0.0000 0.0000 0.0000 24.9015 0.0000
# 6 -7.2028 7.2028 0.0000 0.0000 0.0000 22.3579
#
#
#
# Elastic Compliance Matrix: (Units=1/GPa)
#
#
# Indices 1 2 3 4 5 6 
#
# 1 0.026974 0.007327 -0.004397 0.000000 0.000000 0.006330
# 2 0.007327 0.026974 -0.004397 0.000000 0.000000 -0.006330
# 3 -0.004397 -0.004397 0.006372 0.000000 0.000000 0.000000
# 4 0.000000 0.000000 0.000000 0.040158 0.000000 0.000000
# 5 0.000000 0.000000 0.000000 0.000000 0.040158 0.000000
# 6 0.006330 -0.006330 0.000000 0.000000 0.000000 0.048805
#
#
# Mechanical properties :
#
#
# Convention : Reuss Voigt Hill
#
# Bulk Modulus (GPa) = 17.42533 39.91578 28.67056
# Shear Modulus (GPa) = 23.64005 30.61825 27.12915
#
# Velocity S-wave (km/s) = 3.22804 3.67371 3.45806
# Velocity P-wave (km/s) = 4.64484 5.96567 5.34620
#
# Compressibility (1/GPa) = 0.05738771
#
# Stress axis : x y z
#
# Youngs Moduli (GPa) = 37.07229 37.07229 156.92580
#
# Poissons Ratio (x) = -0.27164 0.68999
# Poissons Ratio (y) = -0.27164 0.68999
# Poissons Ratio (z) = 0.16300 0.16300
#
# Static dielectric constant tensor:
#      x y z
#    x 1.853000 0.000000 0.000000 
#    y 0.000000 1.853000 0.000000 
#    z 0.000000 0.000000 1.858880 
# 
# From -- ./inp_files/3444.got.cif
#   From: 2010.05.17/outbox.cif.g08.bks.cpg/sg83_2_cif.got.tgz:3444.got - 2010.06.03 18:55:12.
