data_PCOD9543695
_publ_section_title
;
Structure prediction by ZEFSAII (Michael W. Deem and Ramdas Pophale) SiO2 
 PCOD9543695
Probable space group: P 4/M
;
_chemical_formula_sum "Si O2"
_cell_formula_units_Z 44
_cell_length_a 7.904315
_cell_length_b 7.904315
_cell_length_c 30.767330
_cell_angle_alpha 90.000000
_cell_angle_beta 90.000000
_cell_angle_gamma 90.000000
_cell_volume 1922.287262
_symmetry_space_group_name_H-M "P 4/M"
_symmetry_group_IT_number 83
_symmetry_cell_setting 'tetragonal'
loop_
_space_group_symop_operation_xyz
x,y,z
-y,x,z
-x,-y,z
y,-x,z
-x,-y,-z
y,-x,-z
x,y,-z
-y,x,-z
loop_
_atom_site_type_symbol
_atom_site_label
_atom_site_fract_x
_atom_site_fract_y
_atom_site_fract_z
Si Si1 0.769291 0.403607 0.220401
Si Si2 0.386744 0.234729 0.406990
Si Si3 0.233232 0.608513 0.314059
Si Si4 0.229324 0.590440 0.952668
Si Si5 0.730195 0.918017 0.866407
Si Si6 0.764710 0.385469 0.500000
O O1 0.706697 0.597049 0.218937
O O2 0.852427 0.362704 0.267393
O O3 0.875984 0.363943 0.178112
O O4 0.585145 0.288149 0.406993
O O5 0.352633 0.147424 0.360498
O O6 0.349226 0.148955 0.453495
O O7 0.289812 0.411294 0.314052
O O8 0.295404 0.398636 0.951138
O O9 0.123296 0.632481 0.910432
O O10 0.147968 0.622845 0.000000
O O11 0.892903 0.796594 0.866631
O O12 0.712295 0.584137 0.500000
#
# Coordination Sequence:
#
# PCOD9543695 Si02
#       6
#     8   8   8   8   8   4
#     4   9  17  30  49  70  89 114 153 196 233 271
#     4   7   8  10  17  32  58  92 128 163 199 243
#     4   7  10  17  30  49  72  98 132 176 219 255
#     4   9  19  37  60  83 103 123 151 186 220 257
#     4  11  24  37  48  68  99 130 157 187 225 268
#     4   7   8   8  12  26  52  90 130 159 188 238
#
# _framework density 22.889399000000001
#
# number of rings (size 3 to 8) (size 9 to 14) (size 15 to 20)
#    0.000    3.545    0.000    4.909    0.000    5.091 
#    0.000    2.727    0.000    0.000    0.000    0.000 
#    0.000    0.000    0.000    1.636    0.000   39.091 
#
# Total GULP energy -245558.489188 kJ/mol
# GULP energy per Si atom -5580.874754 kJ/mol
# Density = 2.283730 g / cm^3
# Si number density = 22.889399 Si / 1000 Ang^3
#
#
#
# Elastic Constant Matrix: (Units=GPa)
#
#
# Indices 1 2 3 4 5 6 
#
# 1 30.6781 32.5826 52.6616 0.0000 0.0000 14.1649
# 2 32.5826 30.6781 52.6616 0.0000 0.0000 -14.1649
# 3 52.6616 52.6616 313.5833 0.0000 0.0000 0.0000
# 4 0.0000 0.0000 0.0000 -132.2897 0.0000 0.0000
# 5 0.0000 0.0000 0.0000 0.0000 -132.2897 0.0000
# 6 14.1649 -14.1649 0.0000 0.0000 0.0000 16.5920
#
#
#
# Elastic Compliance Matrix: (Units=1/GPa)
#
#
# Indices 1 2 3 4 5 6 
#
# 1 -0.008193 0.030136 -0.003685 0.000000 0.000000 0.032722
# 2 0.030136 -0.008193 -0.003685 0.000000 0.000000 -0.032722
# 3 -0.003685 -0.003685 0.004427 0.000000 0.000000 0.000000
# 4 0.000000 0.000000 0.000000 -0.007559 0.000000 0.000000
# 5 0.000000 0.000000 0.000000 0.000000 -0.007559 0.000000
# 6 0.032722 -0.032722 0.000000 0.000000 0.000000 0.004399
#
#
# Mechanical properties :
#
#
# Convention : Reuss Voigt Hill
#
# Bulk Modulus (GPa) = 29.78656 72.30569 51.04612
# Shear Modulus (GPa) = -87.68973 -33.79521 -60.74247
#
# Velocity S-wave (km/s) = -6.19624 -3.84664 -5.15703
# Velocity P-wave (km/s) = 6.17654 3.45382 3.62082
#
# Compressibility (1/GPa) = 0.03357218
#
# Stress axis : x y z
#
# Youngs Moduli (GPa) = -122.05495 -122.05495 225.90664
#
# Poissons Ratio (x) = 3.67821 0.83245
# Poissons Ratio (y) = 3.67821 0.83245
# Poissons Ratio (z) = -0.44977 -0.44977
#
# Static dielectric constant tensor:
#      x y z
#    x 1.818690 0.000000 0.000000 
#    y 0.000000 1.818690 0.000000 
#    z 0.000000 0.000000 1.929730 
# 
# From -- ./inp_files/3344.got.cif
#   From: 2010.05.17/outbox.cif.g08.bks.cpg/sg83_2_cif.got.tgz:3344.got - 2010.06.03 18:55:12.
