data_PCOD9543579
_publ_section_title
;
Structure prediction by ZEFSAII (Michael W. Deem and Ramdas Pophale) SiO2 
 PCOD9543579
Probable space group: P 4/M
;
_chemical_formula_sum "Si O2"
_cell_formula_units_Z 48
_cell_length_a 11.883614
_cell_length_b 11.883614
_cell_length_c 22.526433
_cell_angle_alpha 90.000000
_cell_angle_beta 90.000000
_cell_angle_gamma 90.000000
_cell_volume 3181.189214
_symmetry_space_group_name_H-M "P 4/M"
_symmetry_group_IT_number 83
_symmetry_cell_setting 'tetragonal'
loop_
_space_group_symop_operation_xyz
x,y,z
-y,x,z
-x,-y,z
y,-x,z
-x,-y,-z
y,-x,-z
x,y,-z
-y,x,-z
loop_
_atom_site_type_symbol
_atom_site_label
_atom_site_fract_x
_atom_site_fract_y
_atom_site_fract_z
Si Si1 0.458367 0.688516 0.000000
Si Si2 0.745878 0.857436 0.876062
Si Si3 0.971593 0.810404 0.305455
Si Si4 0.811108 0.028022 0.436175
Si Si5 0.084967 0.289848 0.184526
Si Si6 0.126504 0.489713 0.901024
Si Si7 0.142443 0.124139 0.000000
O O1 0.370193 0.583773 0.000000
O O2 0.447211 0.774685 0.944357
O O3 0.803605 0.780980 0.827241
O O4 0.613868 0.840255 0.881146
O O5 0.764572 0.986260 0.856033
O O6 0.799583 0.834050 0.940154
O O7 0.963755 0.756607 0.371257
O O8 0.953927 0.723879 0.251936
O O9 0.090364 0.877351 0.300399
O O10 0.750035 0.037130 0.500000
O O11 0.909506 0.122039 0.436294
O O12 0.107655 0.410687 0.155869
O O13 0.000000 0.500000 0.929267
O O14 0.011258 0.153420 0.000000
#
# Coordination Sequence:
#
# PCOD9543579 Si02
#       7
#     4   8   8   8   8   8   4
#     4  11  22  39  59  69  76 101 148 194 230 269
#     4  11  21  34  48  67  89 113 143 181 225 272
#     4   9  15  23  40  64  91 119 149 179 212 256
#     4   7  10  17  30  53  87 122 147 172 207 245
#     4  11  20  31  48  64  92 117 145 181 219 266
#     4  10  23  37  49  66  90 115 139 175 230 275
#     4  11  21  31  46  68  86 104 135 176 225 267
#
# _framework density 15.088696000000001
#
# number of rings (size 3 to 8) (size 9 to 14) (size 15 to 20)
#    0.000    2.167    3.333    3.250    0.000    3.000 
#    0.000    0.000    0.000    0.000    0.000    0.000 
#    0.000    7.333    0.000    0.000    0.000    0.000 
#
# Total GULP energy -267263.535446 kJ/mol
# GULP energy per Si atom -5567.990322 kJ/mol
# Density = 1.505435 g / cm^3
# Si number density = 15.088696 Si / 1000 Ang^3
#
#
#
# Elastic Constant Matrix: (Units=GPa)
#
#
# Indices 1 2 3 4 5 6 
#
# 1 29.8254 29.5991 20.4503 0.0000 0.0000 2.0738
# 2 29.5991 29.8254 20.4503 0.0000 0.0000 -2.0738
# 3 20.4503 20.4503 131.9020 0.0000 0.0000 0.0000
# 4 0.0000 0.0000 0.0000 7.5036 0.0000 0.0000
# 5 0.0000 0.0000 0.0000 0.0000 7.5036 0.0000
# 6 2.0738 -2.0738 0.0000 0.0000 0.0000 7.2384
#
#
#
# Elastic Compliance Matrix: (Units=1/GPa)
#
#
# Indices 1 2 3 4 5 6 
#
# 1 -0.510354 0.529192 -0.002921 0.000000 0.000000 0.297827
# 2 0.529192 -0.510354 -0.002921 0.000000 0.000000 -0.297827
# 3 -0.002921 -0.002921 0.008487 0.000000 0.000000 0.000000
# 4 0.000000 0.000000 0.000000 0.133269 0.000000 0.000000
# 5 0.000000 0.000000 0.000000 0.000000 0.133269 0.000000
# 6 0.297827 -0.297827 0.000000 0.000000 0.000000 -0.032501
#
#
# Mechanical properties :
#
#
# Convention : Reuss Voigt Hill
#
# Bulk Modulus (GPa) = 29.00162 36.95024 32.97593
# Shear Modulus (GPa) = -2.75726 12.51935 4.88104
#
# Velocity S-wave (km/s) = -1.35327 2.88361 1.80053
# Velocity P-wave (km/s) = 4.10130 5.96898 5.12101
#
# Compressibility (1/GPa) = 0.03448084
#
# Stress axis : x y z
#
# Youngs Moduli (GPa) = -1.95943 -1.95943 117.82657
#
# Poissons Ratio (x) = 1.03691 0.34414
# Poissons Ratio (y) = 1.03691 0.34414
# Poissons Ratio (z) = -0.00572 -0.00572
#
# Static dielectric constant tensor:
#      x y z
#    x 1.512440 0.000000 0.000000 
#    y 0.000000 1.512440 0.000000 
#    z 0.000000 0.000000 1.535020 
# 
# From -- ./inp_files/2959.got.cif
#   From: 2010.05.17/outbox.cif.g08.bks.cpg/sg83_2_cif.got.tgz:2959.got - 2010.06.03 18:55:12.
