data_PCOD9543233
_publ_section_title
;
Structure prediction by ZEFSAII (Michael W. Deem and Ramdas Pophale) SiO2 
 PCOD9543233
Probable space group: P 4/M
;
_chemical_formula_sum "Si O2"
_cell_formula_units_Z 56
_cell_length_a 12.369699
_cell_length_b 12.369699
_cell_length_c 22.982982
_cell_angle_alpha 90.000000
_cell_angle_beta 90.000000
_cell_angle_gamma 90.000000
_cell_volume 3516.613512
_symmetry_space_group_name_H-M "P 4/M"
_symmetry_group_IT_number 83
_symmetry_cell_setting 'tetragonal'
loop_
_space_group_symop_operation_xyz
x,y,z
-y,x,z
-x,-y,z
y,-x,z
-x,-y,-z
y,-x,-z
x,y,-z
-y,x,-z
loop_
_atom_site_type_symbol
_atom_site_label
_atom_site_fract_x
_atom_site_fract_y
_atom_site_fract_z
Si Si1 0.478696 0.676127 0.380399
Si Si2 0.126036 0.499003 0.844974
Si Si3 0.123860 0.303883 0.066255
Si Si4 0.092425 0.415452 0.429737
Si Si5 0.695059 0.874122 0.066569
Si Si6 0.677294 0.508452 0.759222
Si Si7 0.960949 0.828700 0.429278
O O1 0.383474 0.591153 0.396199
O O2 0.455873 0.790996 0.408810
O O3 0.484337 0.689412 0.310499
O O4 0.142889 0.396851 0.887113
O O5 0.145217 0.603374 0.885639
O O6 0.210155 0.492708 0.792593
O O7 0.000000 0.500000 0.826495
O O8 0.205406 0.205827 0.074831
O O9 0.998908 0.269825 0.071260
O O10 0.138676 0.345358 0.000000
O O11 0.092415 0.413597 0.500000
O O12 0.066534 0.292585 0.409637
O O13 0.000000 0.500000 0.410917
O O14 0.653502 0.859311 0.000000
O O15 0.599426 0.609253 0.774581
O O16 0.960819 0.827305 0.500000
O O17 0.079375 0.873788 0.411657
#
# Coordination Sequence:
#
# PCOD9543233 Si02
#       7
#     8   8   8   8   8   8   8
#     4   9  20  37  53  70  96 129 160 198 248 291
#     4  10  18  28  46  69  92 118 150 189 235 281
#     4   9  17  28  42  63  92 122 153 188 226 270
#     4  10  21  32  49  77 104 128 160 197 233 281
#     4   9  17  28  42  63  92 123 152 186 227 273
#     4   9  18  34  53  69  88 117 157 198 232 274
#     4   8  15  29  48  69  97 131 161 190 225 266
#
# _framework density 15.924412
#
# number of rings (size 3 to 8) (size 9 to 14) (size 15 to 20)
#    0.000    2.857    0.000    2.571    2.000    3.143 
#    0.000    2.143    0.000    0.000    0.000    6.000 
#    0.000    0.000    0.000    0.000    0.000    0.000 
#
# Total GULP energy -311944.483439 kJ/mol
# GULP energy per Si atom -5570.437204 kJ/mol
# Density = 1.588817 g / cm^3
# Si number density = 15.924412 Si / 1000 Ang^3
#
#
#
# Elastic Constant Matrix: (Units=GPa)
#
#
# Indices 1 2 3 4 5 6 
#
# 1 113.3800 69.7774 25.3459 0.0000 0.0000 -0.8654
# 2 69.7774 113.3800 25.3459 0.0000 0.0000 0.8654
# 3 25.3459 25.3459 11.0317 0.0000 0.0000 0.0000
# 4 0.0000 0.0000 0.0000 24.7158 0.0000 0.0000
# 5 0.0000 0.0000 0.0000 0.0000 24.7158 0.0000
# 6 -0.8654 0.8654 0.0000 0.0000 0.0000 14.8251
#
#
#
# Elastic Compliance Matrix: (Units=1/GPa)
#
#
# Indices 1 2 3 4 5 6 
#
# 1 0.018991 -0.003996 -0.034451 0.000000 0.000000 0.001342
# 2 -0.003996 0.018991 -0.034451 0.000000 0.000000 -0.001342
# 3 -0.034451 -0.034451 0.248956 0.000000 0.000000 0.000000
# 4 0.000000 0.000000 0.000000 0.040460 0.000000 0.000000
# 5 0.000000 0.000000 0.000000 0.000000 0.040460 0.000000
# 6 0.001342 -0.001342 0.000000 0.000000 0.000000 0.067610
#
#
# Mechanical properties :
#
#
# Convention : Reuss Voigt Hill
#
# Bulk Modulus (GPa) = 7.08515 53.19225 30.13870
# Shear Modulus (GPa) = 7.95780 20.67282 14.31531
#
# Velocity S-wave (km/s) = 2.23787 3.60694 3.00151
# Velocity P-wave (km/s) = 3.33712 7.12897 5.56590
#
# Compressibility (1/GPa) = 0.14114033
#
# Stress axis : x y z
#
# Youngs Moduli (GPa) = 52.65592 52.65592 4.01677
#
# Poissons Ratio (x) = 0.21044 0.13838
# Poissons Ratio (y) = 0.21044 0.13838
# Poissons Ratio (z) = 1.81407 1.81407
#
# Static dielectric constant tensor:
#      x y z
#    x 1.522050 0.000000 0.000000 
#    y 0.000000 1.522050 0.000000 
#    z 0.000000 0.000000 1.517920 
# 
# From -- ./inp_files/2995.got.cif
#   From: 2010.05.17/outbox.cif.g08.bks.cpg/sg83_2_cif.got.tgz:2995.got - 2010.06.03 18:55:12.
