data_PCOD9543847
_publ_section_title
;
Structure prediction by ZEFSAII (Michael W. Deem and Ramdas Pophale) SiO2 
 PCOD9543847
Probable space group: P 4/M
;
_chemical_formula_sum "Si O2"
_cell_formula_units_Z 45
_cell_length_a 8.504015
_cell_length_b 8.504015
_cell_length_c 29.841446
_cell_angle_alpha 90.000000
_cell_angle_beta 90.000000
_cell_angle_gamma 90.000000
_cell_volume 2158.081782
_symmetry_space_group_name_H-M "P 4/M"
_symmetry_group_IT_number 83
_symmetry_cell_setting 'tetragonal'
loop_
_space_group_symop_operation_xyz
x,y,z
-y,x,z
-x,-y,z
y,-x,z
-x,-y,-z
y,-x,-z
x,y,-z
-y,x,-z
loop_
_atom_site_type_symbol
_atom_site_label
_atom_site_fract_x
_atom_site_fract_y
_atom_site_fract_z
Si Si1 0.750575 0.586253 0.824855
Si Si2 0.082886 0.253740 0.354302
Si Si3 0.103847 0.240851 0.905505
Si Si4 0.253550 0.915240 0.452071
Si Si5 0.584196 0.247354 0.725298
Si Si6 0.158681 0.401839 0.000000
Si Si7 0.500000 0.500000 0.000000
O O1 0.592416 0.691433 0.827484
O O2 0.853102 0.637439 0.866604
O O3 0.820939 0.609774 0.775233
O O4 0.110201 0.329820 0.403578
O O5 0.131870 0.365471 0.314005
O O6 0.904328 0.190359 0.351568
O O7 0.921430 0.198661 0.900728
O O8 0.149634 0.304636 0.954141
O O9 0.336342 0.886586 0.500000
O O10 0.094693 0.809981 0.452134
O O11 0.690943 0.405423 0.721869
O O12 0.000000 0.500000 0.000000
O O13 0.308361 0.516195 0.000000
#
# Coordination Sequence:
#
# PCOD9543847 Si02
#       7
#     8   8   8   8   8   4   1
#     4   9  21  39  62  85 110 145 198 248 283 346
#     4   9  17  28  47  76 105 133 172 225 280 339
#     4  11  25  43  63  92 130 163 191 242 307 355
#     4   7  10  19  37  63  95 129 166 213 271 330
#     4   9  19  37  54  74 104 144 187 232 279 330
#     4  12  28  47  70 103 132 167 215 258 298 358
#     4  12  28  44  76 104 124 180 228 252 308 376
#
# _framework density 20.851849000000001
#
# number of rings (size 3 to 8) (size 9 to 14) (size 15 to 20)
#    0.000    2.667    0.000    4.267    4.978    2.844 
#    0.000    5.333    0.000    1.067    0.000    6.222 
#    0.000    0.000    0.000    0.000    0.000    0.000 
#
# Total GULP energy -251026.624320 kJ/mol
# GULP energy per Si atom -5578.369429 kJ/mol
# Density = 2.080439 g / cm^3
# Si number density = 20.851849 Si / 1000 Ang^3
#
#
#
# Elastic Constant Matrix: (Units=GPa)
#
#
# Indices 1 2 3 4 5 6 
#
# 1 39.3353 30.3197 45.3218 0.0000 0.0000 -2.8896
# 2 30.3197 39.3353 45.3218 0.0000 0.0000 2.8896
# 3 45.3218 45.3218 193.4025 0.0000 0.0000 0.0000
# 4 0.0000 0.0000 0.0000 80.2417 0.0000 0.0000
# 5 0.0000 0.0000 0.0000 0.0000 80.2417 0.0000
# 6 -2.8896 2.8896 0.0000 0.0000 0.0000 27.7691
#
#
#
# Elastic Compliance Matrix: (Units=1/GPa)
#
#
# Indices 1 2 3 4 5 6 
#
# 1 0.069751 -0.049095 -0.004840 0.000000 0.000000 0.012367
# 2 -0.049095 0.069751 -0.004840 0.000000 0.000000 -0.012367
# 3 -0.004840 -0.004840 0.007439 0.000000 0.000000 0.000000
# 4 0.000000 0.000000 0.000000 0.012462 0.000000 0.000000
# 5 0.000000 0.000000 0.000000 0.000000 0.012462 0.000000
# 6 0.012367 -0.012367 0.000000 0.000000 0.000000 0.038585
#
#
# Mechanical properties :
#
#
# Convention : Reuss Voigt Hill
#
# Bulk Modulus (GPa) = 34.02705 57.11110 45.56907
# Shear Modulus (GPa) = 14.80170 47.72445 31.26307
#
# Velocity S-wave (km/s) = 2.66719 4.78927 3.87627
# Velocity P-wave (km/s) = 5.08322 7.61782 6.47574
#
# Compressibility (1/GPa) = 0.02938839
#
# Stress axis : x y z
#
# Youngs Moduli (GPa) = 14.33674 14.33674 134.42410
#
# Poissons Ratio (x) = 0.70387 0.65066
# Poissons Ratio (y) = 0.70387 0.65066
# Poissons Ratio (z) = 0.06940 0.06940
#
# Static dielectric constant tensor:
#      x y z
#    x 1.712340 0.000000 0.000000 
#    y 0.000000 1.712340 0.000000 
#    z 0.000000 0.000000 1.780400 
# 
# From -- ./inp_files/3389.got.cif
#   From: 2010.05.17/outbox.cif.g08.bks.cpg/sg83_2_cif.got.tgz:3389.got - 2010.06.03 18:55:12.
