data_PCOD9543859
_publ_section_title
;
Structure prediction by ZEFSAII (Michael W. Deem and Ramdas Pophale) SiO2 
 PCOD9543859
Probable space group: P 4/M
;
_chemical_formula_sum "Si O2"
_cell_formula_units_Z 56
_cell_length_a 10.690446
_cell_length_b 10.690446
_cell_length_c 24.818626
_cell_angle_alpha 90.000000
_cell_angle_beta 90.000000
_cell_angle_gamma 90.000000
_cell_volume 2836.412449
_symmetry_space_group_name_H-M "P 4/M"
_symmetry_group_IT_number 83
_symmetry_cell_setting 'tetragonal'
loop_
_space_group_symop_operation_xyz
x,y,z
-y,x,z
-x,-y,z
y,-x,z
-x,-y,-z
y,-x,-z
x,y,-z
-y,x,-z
loop_
_atom_site_type_symbol
_atom_site_label
_atom_site_fract_x
_atom_site_fract_y
_atom_site_fract_z
Si Si1 0.207422 0.954870 0.767378
Si Si2 0.120460 0.431912 0.155960
Si Si3 0.632114 0.934493 0.559828
Si Si4 0.419638 0.694736 0.060452
Si Si5 0.793399 0.035788 0.648751
Si Si6 0.537650 0.707796 0.242586
Si Si7 0.702316 0.438378 0.634239
O O1 0.312112 0.923083 0.810186
O O2 0.267086 0.947238 0.707340
O O3 0.091732 0.856860 0.771492
O O4 0.213738 0.391524 0.109049
O O5 0.186887 0.529672 0.197379
O O6 0.000000 0.500000 0.132006
O O7 0.686124 0.911783 0.500000
O O8 0.606851 0.807575 0.593180
O O9 0.500000 0.000000 0.553741
O O10 0.709314 0.031021 0.596568
O O11 0.343738 0.565490 0.065065
O O12 0.398603 0.745207 0.000000
O O13 0.901841 0.137898 0.647199
O O14 0.402689 0.639054 0.236087
O O15 0.561658 0.751569 0.303872
O O16 0.650146 0.580112 0.627863
#
# Coordination Sequence:
#
# PCOD9543859 Si02
#       7
#     8   8   8   8   8   8   8
#     4   9  22  41  58  82 122 163 196 233 291 362
#     4  12  25  31  58  97 124 156 201 249 294 344
#     4  11  26  39  56  85 114 145 192 247 293 348
#     4   9  20  42  68  90 122 167 206 250 304 344
#     4   9  21  42  65  83 106 150 197 245 297 346
#     4   9  20  37  57  85 120 152 190 246 304 355
#     4   9  21  40  61  83 113 155 190 231 301 374
#
# _framework density 19.743251000000001
#
# number of rings (size 3 to 8) (size 9 to 14) (size 15 to 20)
#    0.000    2.286    0.000    3.000   10.000    4.857 
#    0.000    1.429    0.000    0.000    0.000    1.000 
#    0.000    0.000    0.000    0.000    0.000    0.000 
#
# Total GULP energy -312704.083933 kJ/mol
# GULP energy per Si atom -5584.001499 kJ/mol
# Density = 1.969831 g / cm^3
# Si number density = 19.743251 Si / 1000 Ang^3
#
#
#
# Elastic Constant Matrix: (Units=GPa)
#
#
# Indices 1 2 3 4 5 6 
#
# 1 41.1994 5.3776 37.5589 0.0000 0.0000 6.1687
# 2 5.3776 41.1994 37.5589 0.0000 0.0000 -6.1687
# 3 37.5589 37.5589 123.9438 0.0000 0.0000 0.0000
# 4 0.0000 0.0000 0.0000 11.7829 0.0000 0.0000
# 5 0.0000 0.0000 0.0000 0.0000 11.7829 0.0000
# 6 6.1687 -6.1687 0.0000 0.0000 0.0000 6.3685
#
#
#
# Elastic Compliance Matrix: (Units=1/GPa)
#
#
# Indices 1 2 3 4 5 6 
#
# 1 0.041942 0.000051 -0.012725 0.000000 0.000000 -0.040577
# 2 0.000051 0.041942 -0.012725 0.000000 0.000000 0.040577
# 3 -0.012725 -0.012725 0.015780 0.000000 0.000000 0.000000
# 4 0.000000 0.000000 0.000000 0.084869 0.000000 0.000000
# 5 0.000000 0.000000 0.000000 0.000000 0.084869 0.000000
# 6 -0.040577 0.040577 0.000000 0.000000 0.000000 0.235630
#
#
# Mechanical properties :
#
#
# Convention : Reuss Voigt Hill
#
# Bulk Modulus (GPa) = 20.46455 40.81483 30.63969
# Shear Modulus (GPa) = 8.73943 14.37664 11.55804
#
# Velocity S-wave (km/s) = 2.10622 2.70141 2.42216
# Velocity P-wave (km/s) = 4.03766 5.51795 4.83480
#
# Compressibility (1/GPa) = 0.04886498
#
# Stress axis : x y z
#
# Youngs Moduli (GPa) = 23.84260 23.84260 63.36989
#
# Poissons Ratio (x) = -0.00121 0.80638
# Poissons Ratio (y) = -0.00121 0.80638
# Poissons Ratio (z) = 0.30340 0.30340
#
# Static dielectric constant tensor:
#      x y z
#    x 1.707940 0.000000 0.000000 
#    y 0.000000 1.707940 0.000000 
#    z 0.000000 0.000000 1.715100 
# 
# From -- ./inp_files/2981.got.cif
#   From: 2010.05.17/outbox.cif.g08.bks.cpg/sg83_2_cif.got.tgz:2981.got - 2010.06.03 18:55:12.
