data_PCOD9543650
_publ_section_title
;
Structure prediction by ZEFSAII (Michael W. Deem and Ramdas Pophale) SiO2 
 PCOD9543650
Probable space group: P 4/M
;
_chemical_formula_sum "Si O2"
_cell_formula_units_Z 28
_cell_length_a 10.016121
_cell_length_b 10.016121
_cell_length_c 16.223625
_cell_angle_alpha 90.000000
_cell_angle_beta 90.000000
_cell_angle_gamma 90.000000
_cell_volume 1627.597537
_symmetry_space_group_name_H-M "P 4/M"
_symmetry_group_IT_number 83
_symmetry_cell_setting 'tetragonal'
loop_
_space_group_symop_operation_xyz
x,y,z
-y,x,z
-x,-y,z
y,-x,z
-x,-y,-z
y,-x,-z
x,y,-z
-y,x,-z
loop_
_atom_site_type_symbol
_atom_site_label
_atom_site_fract_x
_atom_site_fract_y
_atom_site_fract_z
Si Si1 0.713037 0.422953 0.500000
Si Si2 0.349142 0.867605 0.260000
Si Si3 0.938699 0.782783 0.093378
Si Si4 0.362958 0.157932 0.674760
O O1 0.664989 0.577213 0.500000
O O2 0.797325 0.391427 0.581533
O O3 0.500022 0.820504 0.274750
O O4 0.246962 0.755154 0.289042
O O5 0.319167 0.906618 0.165810
O O6 0.330478 0.001769 0.314180
O O7 0.841809 0.911686 0.102180
O O8 0.924151 0.731073 0.000000
#
# Coordination Sequence:
#
# PCOD9543650 Si02
#       4
#     4   8   8   8
#     4  11  22  41  65  88 116 163 210 245 297 364
#     4  11  22  39  59  93 122 158 198 247 305 357
#     4   9  17  33  61  90 120 160 204 247 294 357
#     4  11  24  38  63  88 121 160 198 251 302 355
#
# _framework density 17.203271000000001
#
# number of rings (size 3 to 8) (size 9 to 14) (size 15 to 20)
#    0.000    1.571    5.714    0.857    0.000    4.571 
#    0.000    4.286    0.000    1.714    0.000    2.000 
#    0.000    0.000    0.000    0.000    0.000    0.000 
#
# Total GULP energy -156308.248740 kJ/mol
# GULP energy per Si atom -5582.437455 kJ/mol
# Density = 1.716412 g / cm^3
# Si number density = 17.203271 Si / 1000 Ang^3
#
#
#
# Elastic Constant Matrix: (Units=GPa)
#
#
# Indices 1 2 3 4 5 6 
#
# 1 100.3557 59.9825 54.9358 0.0000 0.0000 -13.1242
# 2 59.9825 100.3557 54.9358 0.0000 0.0000 13.1242
# 3 54.9358 54.9358 177.4308 0.0000 0.0000 0.0000
# 4 0.0000 0.0000 0.0000 21.7134 0.0000 0.0000
# 5 0.0000 0.0000 0.0000 0.0000 21.7134 0.0000
# 6 -13.1242 13.1242 0.0000 0.0000 0.0000 32.9852
#
#
#
# Elastic Compliance Matrix: (Units=1/GPa)
#
#
# Indices 1 2 3 4 5 6 
#
# 1 0.020664 -0.012748 -0.002451 0.000000 0.000000 0.013294
# 2 -0.012748 0.020664 -0.002451 0.000000 0.000000 -0.013294
# 3 -0.002451 -0.002451 0.007154 0.000000 0.000000 0.000000
# 4 0.000000 0.000000 0.000000 0.046054 0.000000 0.000000
# 5 0.000000 0.000000 0.000000 0.000000 0.046054 0.000000
# 6 0.013294 -0.013294 0.000000 0.000000 0.000000 0.040895
#
#
# Mechanical properties :
#
#
# Convention : Reuss Voigt Hill
#
# Bulk Modulus (GPa) = 75.85900 79.76114 77.81007
# Shear Modulus (GPa) = 22.60598 29.16829 25.88714
#
# Velocity S-wave (km/s) = 3.62892 4.12212 3.88336
# Velocity P-wave (km/s) = 7.85813 8.31387 8.08921
#
# Compressibility (1/GPa) = 0.01318235
#
# Stress axis : x y z
#
# Youngs Moduli (GPa) = 48.39294 48.39294 139.78615
#
# Poissons Ratio (x) = 0.61690 0.34262
# Poissons Ratio (y) = 0.61690 0.34262
# Poissons Ratio (z) = 0.11861 0.11861
#
# Static dielectric constant tensor:
#      x y z
#    x 1.573620 0.000000 0.000000 
#    y 0.000000 1.573620 0.000000 
#    z 0.000000 0.000000 1.569830 
# 
# From -- ./inp_files/2767.got.cif
#   From: 2010.05.17/outbox.cif.g08.bks.cpg/sg83_2_cif.got.tgz:2767.got - 2010.06.03 18:55:12.
