data_PCOD9543901
_publ_section_title
;
Structure prediction by ZEFSAII (Michael W. Deem and Ramdas Pophale) SiO2 
 PCOD9543901
Probable space group: P 4/M
;
_chemical_formula_sum "Si O2"
_cell_formula_units_Z 29
_cell_length_a 8.727191
_cell_length_b 8.727191
_cell_length_c 18.799080
_cell_angle_alpha 90.000000
_cell_angle_beta 90.000000
_cell_angle_gamma 90.000000
_cell_volume 1431.810549
_symmetry_space_group_name_H-M "P 4/M"
_symmetry_group_IT_number 83
_symmetry_cell_setting 'tetragonal'
loop_
_space_group_symop_operation_xyz
x,y,z
-y,x,z
-x,-y,z
y,-x,z
-x,-y,-z
y,-x,-z
x,y,-z
-y,x,-z
loop_
_atom_site_type_symbol
_atom_site_label
_atom_site_fract_x
_atom_site_fract_y
_atom_site_fract_z
Si Si1 0.387633 0.267470 0.361452
Si Si2 0.243054 0.088344 0.919930
Si Si3 0.596749 0.740409 0.202571
Si Si4 0.000000 0.000000 0.500000
Si Si5 0.331337 0.073568 0.500000
O O1 0.568475 0.304017 0.366557
O O2 0.367151 0.200237 0.282173
O O3 0.332397 0.166497 0.426139
O O4 0.355250 0.143573 0.858617
O O5 0.087188 0.188640 0.913546
O O6 0.305041 0.111097 0.000000
O O7 0.419216 0.691306 0.196416
O O8 0.037152 0.184976 0.500000
O O9 0.500000 0.000000 0.500000
#
# Coordination Sequence:
#
# PCOD9543901 Si02
#       5
#     8   8   8   1   4
#     4   9  18  37  63  86 116 164 210 245 307 385
#     4   9  19  37  56  78 111 152 196 239 296 366
#     4   9  19  36  56  84 117 148 194 246 293 356
#     4  12  28  44  60 104 132 148 222 284 292 392
#     4  12  24  43  64  89 132 168 204 264 322 356
#
# _framework density 20.254079000000001
#
# number of rings (size 3 to 8) (size 9 to 14) (size 15 to 20)
#    0.000    2.483    0.000    4.966    0.000    3.310 
#   14.897    4.138    0.000    0.000    0.000    0.000 
#    0.000    0.000    0.000    0.000    0.000    0.000 
#
# Total GULP energy -161697.003194 kJ/mol
# GULP energy per Si atom -5575.758731 kJ/mol
# Density = 2.020798 g / cm^3
# Si number density = 20.254079 Si / 1000 Ang^3
#
#
#
# Elastic Constant Matrix: (Units=GPa)
#
#
# Indices 1 2 3 4 5 6 
#
# 1 37.2952 22.4524 44.6844 0.0000 0.0000 -2.9473
# 2 22.4524 37.2952 44.6844 0.0000 0.0000 2.9473
# 3 44.6844 44.6844 163.0983 0.0000 0.0000 0.0000
# 4 0.0000 0.0000 0.0000 -16.8604 0.0000 0.0000
# 5 0.0000 0.0000 0.0000 0.0000 -16.8604 0.0000
# 6 -2.9473 2.9473 0.0000 0.0000 0.0000 28.7522
#
#
#
# Elastic Compliance Matrix: (Units=1/GPa)
#
#
# Indices 1 2 3 4 5 6 
#
# 1 0.049295 -0.020937 -0.007769 0.000000 0.000000 0.007199
# 2 -0.020937 0.049295 -0.007769 0.000000 0.000000 -0.007199
# 3 -0.007769 -0.007769 0.010388 0.000000 0.000000 0.000000
# 4 0.000000 0.000000 0.000000 -0.059310 0.000000 0.000000
# 5 0.000000 0.000000 0.000000 0.000000 -0.059310 0.000000
# 6 0.007199 -0.007199 0.000000 0.000000 0.000000 0.036256
#
#
# Mechanical properties :
#
#
# Convention : Reuss Voigt Hill
#
# Bulk Modulus (GPa) = 27.75656 51.25899 39.50778
# Shear Modulus (GPa) = 44.81308 7.39742 26.10525
#
# Velocity S-wave (km/s) = 4.70887 1.91318 3.59400
# Velocity P-wave (km/s) = 6.58017 5.49939 6.06390
#
# Compressibility (1/GPa) = 0.03602751
#
# Stress axis : x y z
#
# Youngs Moduli (GPa) = 20.28594 20.28594 96.26071
#
# Poissons Ratio (x) = 0.42473 0.74789
# Poissons Ratio (y) = 0.42473 0.74789
# Poissons Ratio (z) = 0.15761 0.15761
#
# Static dielectric constant tensor:
#      x y z
#    x 1.728140 0.000000 0.000000 
#    y 0.000000 1.728140 0.000000 
#    z 0.000000 0.000000 1.703480 
# 
# From -- ./inp_files/2532.got.cif
#   From: 2010.05.17/outbox.cif.g08.bks.cpg/sg83_2_cif.got.tgz:2532.got - 2010.06.03 18:55:12.
