data_PCOD9543473
_publ_section_title
;
Structure prediction by ZEFSAII (Michael W. Deem and Ramdas Pophale) SiO2 
 PCOD9543473
Probable space group: P 4/M
;
_chemical_formula_sum "Si O2"
_cell_formula_units_Z 52
_cell_length_a 14.935981
_cell_length_b 14.935981
_cell_length_c 11.574487
_cell_angle_alpha 90.000000
_cell_angle_beta 90.000000
_cell_angle_gamma 90.000000
_cell_volume 2582.077400
_symmetry_space_group_name_H-M "P 4/M"
_symmetry_group_IT_number 83
_symmetry_cell_setting 'tetragonal'
loop_
_space_group_symop_operation_xyz
x,y,z
-y,x,z
-x,-y,z
y,-x,z
-x,-y,-z
y,-x,-z
x,y,-z
-y,x,-z
loop_
_atom_site_type_symbol
_atom_site_label
_atom_site_fract_x
_atom_site_fract_y
_atom_site_fract_z
Si Si1 0.048889 0.281482 0.212140
Si Si2 0.866781 0.344560 0.865929
Si Si3 0.330558 0.665909 0.131361
Si Si4 0.552946 0.158709 0.133485
Si Si5 0.627070 0.419312 0.626103
Si Si6 0.145342 0.953395 0.000000
Si Si7 0.130548 0.942987 0.362613
O O1 0.097346 0.376064 0.198486
O O2 0.084500 0.227292 0.321114
O O3 0.943370 0.302911 0.211544
O O4 0.063519 0.210253 0.108648
O O5 0.770693 0.296224 0.863994
O O6 0.849817 0.449006 0.834286
O O7 0.898493 0.342417 0.000000
O O8 0.406606 0.741395 0.138249
O O9 0.336543 0.608647 0.248448
O O10 0.336905 0.623866 0.000000
O O11 0.557685 0.129917 0.000000
O O12 0.618983 0.526303 0.624790
O O13 0.668694 0.392742 0.500000
O O14 0.108729 0.056372 0.000000
O O15 0.126340 0.942153 0.500000
O O16 0.044894 0.887390 0.320615
#
# Coordination Sequence:
#
# PCOD9543473 Si02
#       7
#     8   8   8   8   8   4   8
#     4  12  21  34  60  80 115 150 194 232 278 349
#     4  10  21  36  54  82 118 157 193 233 289 345
#     4  10  21  35  57  82 112 151 198 248 282 347
#     4  10  21  36  54  82 118 157 193 233 289 345
#     4   9  18  34  56  82 112 144 180 232 301 361
#     4  11  24  34  51  88 124 144 171 230 294 337
#     4   9  20  39  60  83 114 153 196 239 284 339
#
# _framework density 20.138822999999999
#
# number of rings (size 3 to 8) (size 9 to 14) (size 15 to 20)
#    0.000    1.923    1.538    3.231    4.308    4.308 
#    0.000    2.308    0.000    3.692    0.000    0.000 
#    0.000    0.000    0.000    0.000    0.000    0.000 
#
# Total GULP energy -289886.751488 kJ/mol
# GULP energy per Si atom -5574.745221 kJ/mol
# Density = 2.009299 g / cm^3
# Si number density = 20.138823 Si / 1000 Ang^3
#
#
#
# Elastic Constant Matrix: (Units=GPa)
#
#
# Indices 1 2 3 4 5 6 
#
# 1 40.5301 16.8294 17.1925 0.0000 0.0000 11.4744
# 2 16.8294 40.5301 17.1925 0.0000 0.0000 -11.4744
# 3 17.1925 17.1925 89.2672 0.0000 0.0000 0.0000
# 4 0.0000 0.0000 0.0000 11.1235 0.0000 0.0000
# 5 0.0000 0.0000 0.0000 0.0000 11.1235 0.0000
# 6 11.4744 -11.4744 0.0000 0.0000 0.0000 23.7216
#
#
#
# Elastic Compliance Matrix: (Units=1/GPa)
#
#
# Indices 1 2 3 4 5 6 
#
# 1 0.049537 -0.029828 -0.003796 0.000000 0.000000 -0.038389
# 2 -0.029828 0.049537 -0.003796 0.000000 0.000000 0.038389
# 3 -0.003796 -0.003796 0.012664 0.000000 0.000000 0.000000
# 4 0.000000 0.000000 0.000000 0.089900 0.000000 0.000000
# 5 0.000000 0.000000 0.000000 0.000000 0.089900 0.000000
# 6 -0.038389 0.038389 0.000000 0.000000 0.000000 0.079294
#
#
# Mechanical properties :
#
#
# Convention : Reuss Voigt Hill
#
# Bulk Modulus (GPa) = 27.10063 30.30627 28.70345
# Shear Modulus (GPa) = 10.91773 17.13460 14.02617
#
# Velocity S-wave (km/s) = 2.33088 2.92005 2.64194
# Velocity P-wave (km/s) = 4.55304 5.14299 4.85698
#
# Compressibility (1/GPa) = 0.03689951
#
# Stress axis : x y z
#
# Youngs Moduli (GPa) = 20.18697 20.18697 78.96097
#
# Poissons Ratio (x) = 0.60213 0.29973
# Poissons Ratio (y) = 0.60213 0.29973
# Poissons Ratio (z) = 0.07663 0.07663
#
# Static dielectric constant tensor:
#      x y z
#    x 1.720830 0.000000 0.000000 
#    y 0.000000 1.720830 0.000000 
#    z 0.000000 0.000000 1.769040 
# 
# From -- ./inp_files/1946.got.cif
#   From: 2010.05.17/outbox.cif.g08.bks.cpg/sg83_1_cif.got.tgz:1946.got - 2010.06.03 18:55:12.
