data_PCOD9543910
_publ_section_title
;
Structure prediction by ZEFSAII (Michael W. Deem and Ramdas Pophale) SiO2 
 PCOD9543910
Probable space group: P 4/M
;
_chemical_formula_sum "Si O2"
_cell_formula_units_Z 44
_cell_length_a 8.077804
_cell_length_b 8.077804
_cell_length_c 30.577935
_cell_angle_alpha 90.000000
_cell_angle_beta 90.000000
_cell_angle_gamma 90.000000
_cell_volume 1995.238313
_symmetry_space_group_name_H-M "P 4/M"
_symmetry_group_IT_number 83
_symmetry_cell_setting 'tetragonal'
loop_
_space_group_symop_operation_xyz
x,y,z
-y,x,z
-x,-y,z
y,-x,z
-x,-y,-z
y,-x,-z
x,y,-z
-y,x,-z
loop_
_atom_site_type_symbol
_atom_site_label
_atom_site_fract_x
_atom_site_fract_y
_atom_site_fract_z
Si Si1 0.598983 0.236181 0.406434
Si Si2 0.734417 0.086112 0.227375
Si Si3 0.415052 0.766011 0.047753
Si Si4 0.734048 0.085263 0.131925
Si Si5 0.398593 0.763363 0.500000
Si Si6 0.765024 0.589522 0.312088
O O1 0.703339 0.407621 0.406439
O O2 0.633788 0.151004 0.453191
O O3 0.626544 0.152466 0.359434
O O4 0.654536 0.115584 0.179661
O O5 0.629982 0.130037 0.269653
O O6 0.898921 0.199798 0.228927
O O7 0.300712 0.601932 0.049377
O O8 0.371923 0.871881 0.089838
O O9 0.385327 0.845485 0.000000
O O10 0.898298 0.199394 0.130311
O O11 0.295771 0.590670 0.500000
O O12 0.598656 0.700971 0.310705
#
# Coordination Sequence:
#
# PCOD9543910 Si02
#       6
#     8   8   8   8   4   8
#     4   7  10  17  30  52  83 113 139 171 213 261
#     4   9  19  35  50  64  87 120 156 191 226 266
#     4   9  19  35  52  72 100 129 153 179 215 262
#     4   9  19  35  52  70  92 118 152 194 232 264
#     4   7   8  12  26  48  76 111 142 166 204 259
#     4   9  17  28  43  67  96 119 143 182 229 273
#
# _framework density 22.052505
#
# number of rings (size 3 to 8) (size 9 to 14) (size 15 to 20)
#    0.000    3.545    0.000    3.818    0.000    3.636 
#    0.000    8.182    0.000    0.000    0.000    1.273 
#    0.000    8.727    0.000    0.000    0.000    0.000 
#
# Total GULP energy -245535.868760 kJ/mol
# GULP energy per Si atom -5580.360654 kJ/mol
# Density = 2.200231 g / cm^3
# Si number density = 22.052505 Si / 1000 Ang^3
#
#
#
# Elastic Constant Matrix: (Units=GPa)
#
#
# Indices 1 2 3 4 5 6 
#
# 1 35.9172 20.6806 58.6557 0.0000 0.0000 -1.6403
# 2 20.6806 35.9172 58.6557 0.0000 0.0000 1.6403
# 3 58.6557 58.6557 297.0281 0.0000 0.0000 0.0000
# 4 0.0000 0.0000 0.0000 100.3285 0.0000 0.0000
# 5 0.0000 0.0000 0.0000 0.0000 100.3285 0.0000
# 6 -1.6403 1.6403 0.0000 0.0000 0.0000 28.9229
#
#
#
# Elastic Compliance Matrix: (Units=1/GPa)
#
#
# Indices 1 2 3 4 5 6 
#
# 1 0.048177 -0.018265 -0.005907 0.000000 0.000000 0.003768
# 2 -0.018265 0.048177 -0.005907 0.000000 0.000000 -0.003768
# 3 -0.005907 -0.005907 0.005700 0.000000 0.000000 0.000000
# 4 0.000000 0.000000 0.000000 0.009967 0.000000 0.000000
# 5 0.000000 0.000000 0.000000 0.000000 0.009967 0.000000
# 6 0.003768 -0.003768 0.000000 0.000000 0.000000 0.035002
#
#
# Mechanical properties :
#
#
# Convention : Reuss Voigt Hill
#
# Bulk Modulus (GPa) = 23.86878 71.64960 47.75919
# Shear Modulus (GPa) = 21.63437 61.30735 41.47086
#
# Velocity S-wave (km/s) = 3.13555 5.27835 4.34124
# Velocity P-wave (km/s) = 4.89449 8.34919 6.84343
#
# Compressibility (1/GPa) = 0.04189574
#
# Stress axis : x y z
#
# Youngs Moduli (GPa) = 20.75674 20.75674 175.45128
#
# Poissons Ratio (x) = 0.37913 1.03636
# Poissons Ratio (y) = 0.37913 1.03636
# Poissons Ratio (z) = 0.12261 0.12261
#
# Static dielectric constant tensor:
#      x y z
#    x 1.800330 0.000000 0.000000 
#    y 0.000000 1.800330 0.000000 
#    z 0.000000 0.000000 1.868720 
# 
# From -- ./inp_files/3345.got.cif
#   From: 2010.05.17/outbox.cif.g08.bks.cpg/sg83_2_cif.got.tgz:3345.got - 2010.06.03 18:55:12.
