data_PCOD9543325
_publ_section_title
;
Structure prediction by ZEFSAII (Michael W. Deem and Ramdas Pophale) SiO2 
 PCOD9543325
Probable space group: P 4/M
;
_chemical_formula_sum "Si O2"
_cell_formula_units_Z 48
_cell_length_a 11.632600
_cell_length_b 11.632600
_cell_length_c 20.521248
_cell_angle_alpha 90.000000
_cell_angle_beta 90.000000
_cell_angle_gamma 90.000000
_cell_volume 2776.881570
_symmetry_space_group_name_H-M "P 4/M"
_symmetry_group_IT_number 83
_symmetry_cell_setting 'tetragonal'
loop_
_space_group_symop_operation_xyz
x,y,z
-y,x,z
-x,-y,z
y,-x,z
-x,-y,-z
y,-x,-z
x,y,-z
-y,x,-z
loop_
_atom_site_type_symbol
_atom_site_label
_atom_site_fract_x
_atom_site_fract_y
_atom_site_fract_z
Si Si1 0.948609 0.182527 0.739111
Si Si2 0.140435 0.500475 0.821144
Si Si3 0.320642 0.861613 0.071003
Si Si4 0.431139 0.116736 0.681474
Si Si5 0.892461 0.268748 0.881968
Si Si6 0.313257 0.544648 0.423424
O O1 0.916585 0.301558 0.703789
O O2 0.939382 0.207293 0.816568
O O3 0.077285 0.137958 0.724068
O O4 0.176707 0.395839 0.866771
O O5 0.172083 0.506477 0.745399
O O6 0.173408 0.618374 0.856350
O O7 0.000000 0.500000 0.819533
O O8 0.194264 0.810573 0.079498
O O9 0.309805 0.998868 0.076885
O O10 0.369178 0.830796 0.000000
O O11 0.431907 0.206471 0.623069
O O12 0.500000 0.000000 0.665335
O O13 0.366383 0.417821 0.411746
O O14 0.282879 0.551961 0.500000
#
# Coordination Sequence:
#
# PCOD9543325 Si02
#       6
#     8   8   8   8   8   8
#     4  10  20  35  55  77 114 154 180 228 293 341
#     4   8  19  35  49  71 101 136 171 218 266 319
#     4  11  21  32  49  71 101 135 177 227 280 330
#     4  10  21  33  59  89 112 140 194 236 268 336
#     4  10  19  33  50  71  97 133 181 220 272 328
#     4   9  20  39  61  86 118 154 186 228 285 331
#
# _framework density 17.285575999999999
#
# number of rings (size 3 to 8) (size 9 to 14) (size 15 to 20)
#    0.000    2.333    1.667    2.000    2.333    5.667 
#    0.000    0.833    0.000    0.500    0.000    2.333 
#    0.000    0.000    0.000    0.000    0.000    0.000 
#
# Total GULP energy -267585.312029 kJ/mol
# GULP energy per Si atom -5574.694001 kJ/mol
# Density = 1.724623 g / cm^3
# Si number density = 17.285576 Si / 1000 Ang^3
#
#
#
# Elastic Constant Matrix: (Units=GPa)
#
#
# Indices 1 2 3 4 5 6 
#
# 1 66.9822 34.3372 49.6751 0.0000 0.0000 -7.1700
# 2 34.3372 66.9822 49.6751 0.0000 0.0000 7.1700
# 3 49.6751 49.6751 99.5668 0.0000 0.0000 0.0000
# 4 0.0000 0.0000 0.0000 6.1888 0.0000 0.0000
# 5 0.0000 0.0000 0.0000 0.0000 6.1888 0.0000
# 6 -7.1700 7.1700 0.0000 0.0000 0.0000 6.4477
#
#
#
# Elastic Compliance Matrix: (Units=1/GPa)
#
#
# Indices 1 2 3 4 5 6 
#
# 1 0.039604 -0.020282 -0.009640 0.000000 0.000000 0.066595
# 2 -0.020282 0.039604 -0.009640 0.000000 0.000000 -0.066595
# 3 -0.009640 -0.009640 0.019663 0.000000 0.000000 0.000000
# 4 0.000000 0.000000 0.000000 0.161583 0.000000 0.000000
# 5 0.000000 0.000000 0.000000 0.000000 0.161583 0.000000
# 6 0.066595 -0.066595 0.000000 0.000000 0.000000 0.303206
#
#
# Mechanical properties :
#
#
# Convention : Reuss Voigt Hill
#
# Bulk Modulus (GPa) = 50.64064 55.65621 53.14843
# Shear Modulus (GPa) = 6.16561 10.42131 8.29346
#
# Velocity S-wave (km/s) = 1.89067 2.45805 2.19279
# Velocity P-wave (km/s) = 5.84177 6.35011 6.10124
#
# Compressibility (1/GPa) = 0.01974699
#
# Stress axis : x y z
#
# Youngs Moduli (GPa) = 25.24968 25.24968 50.85728
#
# Poissons Ratio (x) = 0.51211 0.49028
# Poissons Ratio (y) = 0.51211 0.49028
# Poissons Ratio (z) = 0.24342 0.24342
#
# Static dielectric constant tensor:
#      x y z
#    x 1.591320 0.000000 0.000000 
#    y 0.000000 1.591320 0.000000 
#    z 0.000000 0.000000 1.596950 
# 
# From -- ./inp_files/2629.got.cif
#   From: 2010.05.17/outbox.cif.g08.bks.cpg/sg83_2_cif.got.tgz:2629.got - 2010.06.03 18:55:12.
