data_PCOD9543425
_publ_section_title
;
Structure prediction by ZEFSAII (Michael W. Deem and Ramdas Pophale) SiO2 
 PCOD9543425
Probable space group: P 4/M
;
_chemical_formula_sum "Si O2"
_cell_formula_units_Z 52
_cell_length_a 18.155491
_cell_length_b 18.155491
_cell_length_c 8.199428
_cell_angle_alpha 90.000000
_cell_angle_beta 90.000000
_cell_angle_gamma 90.000000
_cell_volume 2702.710655
_symmetry_space_group_name_H-M "P 4/M"
_symmetry_group_IT_number 83
_symmetry_cell_setting 'tetragonal'
loop_
_space_group_symop_operation_xyz
x,y,z
-y,x,z
-x,-y,z
y,-x,z
-x,-y,-z
y,-x,-z
x,y,-z
-y,x,-z
loop_
_atom_site_type_symbol
_atom_site_label
_atom_site_fract_x
_atom_site_fract_y
_atom_site_fract_z
Si Si1 0.728035 0.921466 0.693601
Si Si2 0.704493 0.755996 0.310138
Si Si3 0.981538 0.117191 0.803433
Si Si4 0.546565 0.781707 0.187515
Si Si5 0.304254 0.396057 0.188073
Si Si6 0.432248 0.045560 0.809448
Si Si7 0.402158 0.425774 0.500000
O O1 0.729367 0.915391 0.500000
O O2 0.728142 0.836350 0.756502
O O3 0.800340 0.964489 0.749213
O O4 0.650219 0.958471 0.739963
O O5 0.725279 0.749321 0.500000
O O6 0.615256 0.756538 0.295533
O O7 0.731927 0.684324 0.213518
O O8 0.059412 0.081951 0.748914
O O9 0.981986 0.116284 0.000000
O O10 0.466711 0.747556 0.218329
O O11 0.544293 0.869369 0.201410
O O12 0.566441 0.762717 0.000000
O O13 0.363639 0.400807 0.332841
O O14 0.331247 0.401243 0.000000
O O15 0.500000 0.000000 0.735007
O O16 0.426066 0.024756 0.000000
O O17 0.485965 0.400514 0.500000
#
# Coordination Sequence:
#
# PCOD9543425 Si02
#       7
#     8   8   8   8   8   8   4
#     4  10  21  36  57  87 120 154 191 236 290 351
#     4  10  20  35  55  78 109 147 189 234 289 347
#     4   9  19  38  63  89 117 155 201 244 291 350
#     4   9  19  34  54  80 106 141 187 233 287 347
#     4  11  22  36  56  81 108 143 191 240 290 349
#     4   9  18  36  60  83 113 152 195 239 287 345
#     4  11  24  38  54  78 109 144 186 235 291 348
#
# _framework density 19.239941999999999
#
# number of rings (size 3 to 8) (size 9 to 14) (size 15 to 20)
#    0.000    2.231    0.769    2.308    1.077    4.615 
#    2.769    1.538    0.000    0.000    0.000    0.000 
#    0.000    0.000    0.000    0.000    0.000    0.000 
#
# Total GULP energy -289908.635742 kJ/mol
# GULP energy per Si atom -5575.166072 kJ/mol
# Density = 1.919615 g / cm^3
# Si number density = 19.239942 Si / 1000 Ang^3
#
#
#
# Elastic Constant Matrix: (Units=GPa)
#
#
# Indices 1 2 3 4 5 6 
#
# 1 77.0583 55.1582 17.6264 0.0000 0.0000 -1.5703
# 2 55.1582 77.0583 17.6264 0.0000 0.0000 1.5703
# 3 17.6264 17.6264 58.3795 0.0000 0.0000 0.0000
# 4 0.0000 0.0000 0.0000 12.7553 0.0000 0.0000
# 5 0.0000 0.0000 0.0000 0.0000 12.7553 0.0000
# 6 -1.5703 1.5703 0.0000 0.0000 0.0000 -12.4520
#
#
#
# Elastic Compliance Matrix: (Units=1/GPa)
#
#
# Indices 1 2 3 4 5 6 
#
# 1 0.026538 -0.018313 -0.002484 0.000000 0.000000 -0.005656
# 2 -0.018313 0.026538 -0.002484 0.000000 0.000000 0.005656
# 3 -0.002484 -0.002484 0.018629 0.000000 0.000000 0.000000
# 4 0.000000 0.000000 0.000000 0.078399 0.000000 0.000000
# 5 0.000000 0.000000 0.000000 0.000000 0.078399 0.000000
# 6 -0.005656 0.005656 0.000000 0.000000 0.000000 -0.078882
#
#
# Mechanical properties :
#
#
# Convention : Reuss Voigt Hill
#
# Bulk Modulus (GPa) = 39.76779 43.70200 41.73490
# Shear Modulus (GPa) = 24.44238 10.75071 17.59655
#
# Velocity S-wave (km/s) = 3.56813 2.36640 3.02749
# Velocity P-wave (km/s) = 6.13919 5.49818 5.82751
#
# Compressibility (1/GPa) = 0.02514598
#
# Stress axis : x y z
#
# Youngs Moduli (GPa) = 37.68159 37.68159 53.67980
#
# Poissons Ratio (x) = 0.69005 0.13331
# Poissons Ratio (y) = 0.69005 0.13331
# Poissons Ratio (z) = 0.09358 0.09358
#
# Static dielectric constant tensor:
#      x y z
#    x 1.686920 0.000000 0.000000 
#    y 0.000000 1.686920 0.000000 
#    z 0.000000 0.000000 1.689870 
# 
# From -- ./inp_files/1025.got.cif
#   From: 2010.05.17/outbox.cif.g08.bks.cpg/sg83_1_cif.got.tgz:1025.got - 2010.06.03 18:55:12.
