data_PCOD9543112
_publ_section_title
;
Structure prediction by ZEFSAII (Michael W. Deem and Ramdas Pophale) SiO2 
 PCOD9543112
Probable space group: I -4 
;
_chemical_formula_sum "Si O2"
_cell_formula_units_Z 44
_cell_length_a 14.312566
_cell_length_b 14.312566
_cell_length_c 11.178260
_cell_angle_alpha 90.000000
_cell_angle_beta 90.000000
_cell_angle_gamma 90.000000
_cell_volume 2289.861481
_symmetry_space_group_name_H-M "I -4 "
_symmetry_group_IT_number 82
_symmetry_cell_setting 'tetragonal'
loop_
_space_group_symop_operation_xyz
x,y,z
y,-x,-z
-x,-y,z
-y,x,-z
1/2+x,1/2+y,1/2+z
1/2+y,1/2-x,1/2-z
1/2-x,1/2-y,1/2+z
1/2-y,1/2+x,1/2-z
loop_
_atom_site_type_symbol
_atom_site_label
_atom_site_fract_x
_atom_site_fract_y
_atom_site_fract_z
Si Si1 0.181471 0.200218 0.739877
Si Si2 0.513070 0.794128 0.367475
Si Si3 0.117917 0.899132 0.497139
Si Si4 0.328669 0.348933 0.744915
Si Si5 0.500000 0.500000 0.500000
Si Si6 0.000000 0.500000 0.750000
Si Si7 0.188571 0.022081 0.888338
O O1 0.115897 0.261787 0.826505
O O2 0.123845 0.172509 0.622849
O O3 0.267473 0.262920 0.702113
O O4 0.217720 0.107361 0.804921
O O5 0.440943 0.727403 0.295171
O O6 0.498917 0.903275 0.329185
O O7 0.495860 0.762439 0.505206
O O8 0.151555 0.842919 0.612767
O O9 0.009089 0.876330 0.476364
O O10 0.429071 0.336999 0.684325
O O11 0.584753 0.551458 0.434181
#
# Coordination Sequence:
#
# PCOD9543112 Si02
#       7
#     8   8   8   8   2   2   8
#     4  12  25  42  66  98 133 176 223 270 338 399
#     4  12  24  43  68  97 135 178 221 271 324 396
#     4  11  24  41  66  99 138 167 214 292 344 389
#     4  12  25  42  66  98 133 176 223 270 338 399
#     4  12  20  32  76  94 124 152 216 296 314 352
#     4  12  28  44  64 108 142 176 228 264 322 416
#     4  12  24  43  65 104 131 166 225 284 330 384
#
# _framework density 19.215136999999999
#
# number of rings (size 3 to 8) (size 9 to 14) (size 15 to 20)
#    0.000    0.182    9.091    0.000    5.091    0.000 
#    0.000    1.818    0.000    0.000    0.000    0.000 
#    0.000    0.000    0.000    0.000    0.000    0.000 
#
# Total GULP energy -122865.616725 kJ/mol
# GULP energy per Si atom -5584.800760 kJ/mol
# Density = 1.917140 g / cm^3
# Si number density = 19.215137 Si / 1000 Ang^3
#
#
#
# Elastic Constant Matrix: (Units=GPa)
#
#
# Indices 1 2 3 4 5 6 
#
# 1 84.3846 7.7613 12.3513 0.0000 0.0000 -0.2902
# 2 7.7613 84.3846 12.3513 0.0000 0.0000 0.2902
# 3 12.3513 12.3513 77.6176 0.0000 0.0000 0.0000
# 4 0.0000 0.0000 0.0000 22.4843 0.0000 0.0000
# 5 0.0000 0.0000 0.0000 0.0000 22.4843 0.0000
# 6 -0.2902 0.2902 0.0000 0.0000 0.0000 6.7984
#
#
#
# Elastic Compliance Matrix: (Units=1/GPa)
#
#
# Indices 1 2 3 4 5 6 
#
# 1 0.012196 -0.000860 -0.001804 0.000000 0.000000 0.000557
# 2 -0.000860 0.012196 -0.001804 0.000000 0.000000 -0.000557
# 3 -0.001804 -0.001804 0.013458 0.000000 0.000000 0.000000
# 4 0.000000 0.000000 0.000000 0.044475 0.000000 0.000000
# 5 0.000000 0.000000 0.000000 0.000000 0.044475 0.000000
# 6 0.000557 -0.000557 0.000000 0.000000 0.000000 0.147141
#
#
# Mechanical properties :
#
#
# Convention : Reuss Voigt Hill
#
# Bulk Modulus (GPa) = 34.58521 34.59052 34.58786
# Shear Modulus (GPa) = 17.09324 24.61492 20.85408
#
# Velocity S-wave (km/s) = 2.98580 3.58301 3.29795
# Velocity P-wave (km/s) = 5.47035 5.92943 5.70451
#
# Compressibility (1/GPa) = 0.02891410
#
# Stress axis : x y z
#
# Youngs Moduli (GPa) = 81.99731 81.99731 74.30646
#
# Poissons Ratio (x) = 0.07048 0.13404
# Poissons Ratio (y) = 0.07048 0.13404
# Poissons Ratio (z) = 0.14791 0.14791
#
# Static dielectric constant tensor:
#      x y z
#    x 1.650970 0.000000 0.000000 
#    y 0.000000 1.650970 0.000000 
#    z 0.000000 0.000000 1.681770 
# 
# From -- ./inp_files/1751.got.cif
#   From: 2010.05.17/outbox.cif.g08.bks.cpg/sg82_1_cif.got.tgz:1751.got - 2010.06.03 18:52:26.
