data_PCOD9543909
_publ_section_title
;
Structure prediction by ZEFSAII (Michael W. Deem and Ramdas Pophale) SiO2 
 PCOD9543909
Probable space group: P 4/M
;
_chemical_formula_sum "Si O2"
_cell_formula_units_Z 32
_cell_length_a 7.614974
_cell_length_b 7.614974
_cell_length_c 22.784134
_cell_angle_alpha 90.000000
_cell_angle_beta 90.000000
_cell_angle_gamma 90.000000
_cell_volume 1321.202467
_symmetry_space_group_name_H-M "P 4/M"
_symmetry_group_IT_number 83
_symmetry_cell_setting 'tetragonal'
loop_
_space_group_symop_operation_xyz
x,y,z
-y,x,z
-x,-y,z
y,-x,z
-x,-y,-z
y,-x,-z
x,y,-z
-y,x,-z
loop_
_atom_site_type_symbol
_atom_site_label
_atom_site_fract_x
_atom_site_fract_y
_atom_site_fract_z
Si Si1 0.774771 0.606460 0.750556
Si Si2 0.275296 0.895313 0.874884
Si Si3 0.226766 0.377673 0.625485
Si Si4 0.771540 0.625890 0.500000
Si Si5 0.884579 0.723830 0.000000
O O1 0.595502 0.717433 0.749912
O O2 0.862987 0.637826 0.812642
O O3 0.865033 0.654779 0.688233
O O4 0.366901 0.849839 0.937226
O O5 0.096896 0.783075 0.875578
O O6 0.415507 0.279085 0.625354
O O7 0.139115 0.335377 0.562747
O O8 0.581676 0.722277 0.500000
O O9 0.089923 0.781520 0.000000
#
# Coordination Sequence:
#
# PCOD9543909 Si02
#       5
#     8   8   8   4   4
#     4   9  17  28  41  61  91 119 137 160 202 252
#     4   9  17  30  48  66  81 102 137 177 211 244
#     4   7  10  17  30  50  77 106 133 162 197 235
#     4   7   8  12  26  48  72  99 132 166 196 227
#     4   7  12  26  46  63  78  98 130 175 216 241
#
# _framework density 24.220358000000001
#
# number of rings (size 3 to 8) (size 9 to 14) (size 15 to 20)
#    0.000    4.000    0.000    4.500    0.000    1.000 
#    0.000    1.250    0.000    6.000    0.000    1.750 
#    0.000   12.000    0.000    0.000    0.000    0.000 
#
# Total GULP energy -178397.061840 kJ/mol
# GULP energy per Si atom -5574.908183 kJ/mol
# Density = 2.416523 g / cm^3
# Si number density = 24.220358 Si / 1000 Ang^3
#
#
#
# Elastic Constant Matrix: (Units=GPa)
#
#
# Indices 1 2 3 4 5 6 
#
# 1 23.7410 9.3565 42.7092 0.0000 0.0000 0.4694
# 2 9.3565 23.7410 42.7092 0.0000 0.0000 -0.4694
# 3 42.7092 42.7092 364.9856 0.0000 0.0000 0.0000
# 4 0.0000 0.0000 0.0000 71.3811 0.0000 0.0000
# 5 0.0000 0.0000 0.0000 0.0000 71.3811 0.0000
# 6 0.4694 -0.4694 0.0000 0.0000 0.0000 -58.7174
#
#
#
# Elastic Compliance Matrix: (Units=1/GPa)
#
#
# Indices 1 2 3 4 5 6 
#
# 1 0.056384 -0.013099 -0.005065 0.000000 0.000000 0.000555
# 2 -0.013099 0.056384 -0.005065 0.000000 0.000000 -0.000555
# 3 -0.005065 -0.005065 0.003925 0.000000 0.000000 0.000000
# 4 0.000000 0.000000 0.000000 0.014009 0.000000 0.000000
# 5 0.000000 0.000000 0.000000 0.000000 0.014009 0.000000
# 6 0.000555 -0.000555 0.000000 0.000000 0.000000 -0.017022
#
#
# Mechanical properties :
#
#
# Convention : Reuss Voigt Hill
#
# Bulk Modulus (GPa) = 14.23763 66.89083 40.56423
# Shear Modulus (GPa) = 25.30866 37.98847 31.64857
#
# Velocity S-wave (km/s) = 3.23605 3.96467 3.61874
# Velocity P-wave (km/s) = 4.45576 6.97393 5.85190
#
# Compressibility (1/GPa) = 0.07023641
#
# Stress axis : x y z
#
# Youngs Moduli (GPa) = 17.73539 17.73539 254.76138
#
# Poissons Ratio (x) = 0.23231 1.29040
# Poissons Ratio (y) = 0.23231 1.29040
# Poissons Ratio (z) = 0.08983 0.08983
#
# Static dielectric constant tensor:
#      x y z
#    x 1.928270 0.000000 0.000000 
#    y 0.000000 1.928270 0.000000 
#    z 0.000000 0.000000 2.055590 
# 
# From -- ./inp_files/3077.got.cif
#   From: 2010.05.17/outbox.cif.g08.bks.cpg/sg83_2_cif.got.tgz:3077.got - 2010.06.03 18:55:12.
