data_PCOD9543347
_publ_section_title
;
Structure prediction by ZEFSAII (Michael W. Deem and Ramdas Pophale) SiO2 
 PCOD9543347
Probable space group: P 4/M
;
_chemical_formula_sum "Si O2"
_cell_formula_units_Z 48
_cell_length_a 11.995627
_cell_length_b 11.995627
_cell_length_c 17.227108
_cell_angle_alpha 90.000000
_cell_angle_beta 90.000000
_cell_angle_gamma 90.000000
_cell_volume 2478.895862
_symmetry_space_group_name_H-M "P 4/M"
_symmetry_group_IT_number 83
_symmetry_cell_setting 'tetragonal'
loop_
_space_group_symop_operation_xyz
x,y,z
-y,x,z
-x,-y,z
y,-x,z
-x,-y,-z
y,-x,-z
x,y,-z
-y,x,-z
loop_
_atom_site_type_symbol
_atom_site_label
_atom_site_fract_x
_atom_site_fract_y
_atom_site_fract_z
Si Si1 0.182027 0.569463 0.859531
Si Si2 0.008271 0.738809 0.085955
Si Si3 0.577481 0.898548 0.690254
Si Si4 0.455226 0.322776 0.593264
Si Si5 0.176629 0.039675 0.744831
Si Si6 0.752323 0.666776 0.087110
O O1 0.139663 0.534094 0.775088
O O2 0.237112 0.464129 0.899801
O O3 0.271890 0.669170 0.854712
O O4 0.078281 0.624197 0.905048
O O5 0.877583 0.713203 0.092632
O O6 0.042450 0.808506 0.161414
O O7 0.031662 0.786167 0.000000
O O8 0.571541 0.792579 0.634544
O O9 0.704443 0.936768 0.706337
O O10 0.500000 0.000000 0.662825
O O11 0.578290 0.369012 0.614310
O O12 0.452114 0.311030 0.500000
O O13 0.082039 0.129140 0.723980
O O14 0.710794 0.690886 0.000000
#
# Coordination Sequence:
#
# PCOD9543347 Si02
#       6
#     8   8   8   8   8   8
#     4  11  23  36  52  79 114 149 196 251 302 355
#     4  10  19  34  55  75 102 149 207 259 308 360
#     4  11  24  37  65  93 124 160 205 244 297 366
#     4   9  21  43  71 102 134 161 188 236 298 353
#     4  10  22  38  55  81 122 163 204 260 311 354
#     4  11  22  36  54  75 109 153 201 254 312 365
#
# _framework density 19.363458999999999
#
# number of rings (size 3 to 8) (size 9 to 14) (size 15 to 20)
#    0.000    1.667    0.000    6.500    4.667    4.000 
#    0.000    1.667    0.000    0.000    0.000    1.167 
#    0.000    0.000    0.000    0.000    0.000    0.000 
#
# Total GULP energy -268239.228215 kJ/mol
# GULP energy per Si atom -5588.317254 kJ/mol
# Density = 1.931939 g / cm^3
# Si number density = 19.363459 Si / 1000 Ang^3
#
#
#
# Elastic Constant Matrix: (Units=GPa)
#
#
# Indices 1 2 3 4 5 6 
#
# 1 122.7713 59.6284 33.7926 0.0000 0.0000 2.8681
# 2 59.6284 122.7713 33.7926 0.0000 0.0000 -2.8681
# 3 33.7926 33.7926 39.5236 0.0000 0.0000 0.0000
# 4 0.0000 0.0000 0.0000 19.1016 0.0000 0.0000
# 5 0.0000 0.0000 0.0000 0.0000 19.1016 0.0000
# 6 2.8681 -2.8681 0.0000 0.0000 0.0000 19.5716
#
#
#
# Elastic Compliance Matrix: (Units=1/GPa)
#
#
# Indices 1 2 3 4 5 6 
#
# 1 0.012038 -0.004013 -0.006861 0.000000 0.000000 -0.002352
# 2 -0.004013 0.012038 -0.006861 0.000000 0.000000 0.002352
# 3 -0.006861 -0.006861 0.037034 0.000000 0.000000 0.000000
# 4 0.000000 0.000000 0.000000 0.052352 0.000000 0.000000
# 5 0.000000 0.000000 0.000000 0.000000 0.052352 0.000000
# 6 -0.002352 0.002352 0.000000 0.000000 0.000000 0.051784
#
#
# Mechanical properties :
#
#
# Convention : Reuss Voigt Hill
#
# Bulk Modulus (GPa) = 39.00339 59.94373 49.47356
# Shear Modulus (GPa) = 19.11216 22.07847 20.59532
#
# Velocity S-wave (km/s) = 3.14510 3.38037 3.26485
# Velocity P-wave (km/s) = 5.77714 6.80148 6.31013
#
# Compressibility (1/GPa) = 0.02563880
#
# Stress axis : x y z
#
# Youngs Moduli (GPa) = 83.07195 83.07195 27.00225
#
# Poissons Ratio (x) = 0.33337 0.18527
# Poissons Ratio (y) = 0.33337 0.18527
# Poissons Ratio (z) = 0.56997 0.56997
#
# Static dielectric constant tensor:
#      x y z
#    x 1.681650 0.000000 0.000000 
#    y 0.000000 1.681650 0.000000 
#    z 0.000000 0.000000 1.655570 
# 
# From -- ./inp_files/2624.got.cif
#   From: 2010.05.17/outbox.cif.g08.bks.cpg/sg83_2_cif.got.tgz:2624.got - 2010.06.03 18:55:12.
