data_PCOD9543287
_publ_section_title
;
Structure prediction by ZEFSAII (Michael W. Deem and Ramdas Pophale) SiO2 
 PCOD9543287
Probable space group: P 4/M
;
_chemical_formula_sum "Si O2"
_cell_formula_units_Z 52
_cell_length_a 18.643321
_cell_length_b 18.643321
_cell_length_c 7.803965
_cell_angle_alpha 90.000000
_cell_angle_beta 90.000000
_cell_angle_gamma 90.000000
_cell_volume 2712.450788
_symmetry_space_group_name_H-M "P 4/M"
_symmetry_group_IT_number 83
_symmetry_cell_setting 'tetragonal'
loop_
_space_group_symop_operation_xyz
x,y,z
-y,x,z
-x,-y,z
y,-x,z
-x,-y,-z
y,-x,-z
x,y,-z
-y,x,-z
loop_
_atom_site_type_symbol
_atom_site_label
_atom_site_fract_x
_atom_site_fract_y
_atom_site_fract_z
Si Si1 0.143076 0.179763 0.300789
Si Si2 0.071347 0.329146 0.294314
Si Si3 0.742283 0.286248 0.800263
Si Si4 0.046163 0.566054 0.203385
Si Si5 0.919787 0.091290 0.000000
Si Si6 0.792022 0.439136 0.792755
Si Si7 0.401751 0.783895 0.703118
O O1 0.128272 0.161637 0.500000
O O2 0.094204 0.248640 0.246770
O O3 0.224239 0.210480 0.288205
O O4 0.127097 0.116425 0.167909
O O5 0.069744 0.330810 0.500000
O O6 0.135121 0.382786 0.234790
O O7 0.996811 0.360560 0.230629
O O8 0.753913 0.366535 0.733832
O O9 0.659236 0.265237 0.783920
O O10 0.763274 0.284053 0.000000
O O11 0.126204 0.565895 0.272199
O O12 0.000000 0.500000 0.276563
O O13 0.052373 0.554715 0.000000
O O14 0.005967 0.097816 0.000000
O O15 0.763591 0.516740 0.739201
O O16 0.791066 0.438681 0.000000
O O17 0.389591 0.783227 0.500000
#
# Coordination Sequence:
#
# PCOD9543287 Si02
#       7
#     8   8   8   8   4   8   8
#     4  10  22  42  65  91 121 158 206 257 310 366
#     4   9  19  33  52  81 113 154 195 231 287 356
#     4  10  20  37  61  87 119 159 204 250 296 361
#     4  10  19  30  48  77 114 150 183 227 283 352
#     4  11  26  46  68  92 117 157 207 258 320 374
#     4  10  21  35  53  83 116 152 196 240 296 356
#     4  10  20  34  54  79 113 154 198 241 291 353
#
# _framework density 19.170853999999999
#
# number of rings (size 3 to 8) (size 9 to 14) (size 15 to 20)
#    0.000    2.077    2.308    1.846    1.077    4.615 
#    0.000    2.308    0.000    0.462    0.000    3.231 
#    0.000    0.000    0.000    0.000    0.000    0.000 
#
# Total GULP energy -290236.101438 kJ/mol
# GULP energy per Si atom -5581.463489 kJ/mol
# Density = 1.912722 g / cm^3
# Si number density = 19.170854 Si / 1000 Ang^3
#
#
#
# Elastic Constant Matrix: (Units=GPa)
#
#
# Indices 1 2 3 4 5 6 
#
# 1 80.6614 33.6045 13.1370 0.0000 0.0000 -10.8980
# 2 33.6045 80.6614 13.1370 0.0000 0.0000 10.8980
# 3 13.1370 13.1370 56.7359 0.0000 0.0000 0.0000
# 4 0.0000 0.0000 0.0000 -8.1524 0.0000 0.0000
# 5 0.0000 0.0000 0.0000 0.0000 -8.1524 0.0000
# 6 -10.8980 10.8980 0.0000 0.0000 0.0000 25.1545
#
#
#
# Elastic Compliance Matrix: (Units=1/GPa)
#
#
# Indices 1 2 3 4 5 6 
#
# 1 0.017915 -0.008671 -0.002140 0.000000 0.000000 0.011518
# 2 -0.008671 0.017915 -0.002140 0.000000 0.000000 -0.011518
# 3 -0.002140 -0.002140 0.018617 0.000000 0.000000 0.000000
# 4 0.000000 0.000000 0.000000 -0.122663 0.000000 0.000000
# 5 0.000000 0.000000 0.000000 0.000000 -0.122663 0.000000
# 6 0.011518 -0.011518 0.000000 0.000000 0.000000 0.049735
#
#
# Mechanical properties :
#
#
# Convention : Reuss Voigt Hill
#
# Bulk Modulus (GPa) = 35.03525 37.53508 36.28517
# Shear Modulus (GPa) = -47.29179 12.31527 -17.48826
#
# Velocity S-wave (km/s) = -4.97214 2.53730 -3.02359
# Velocity P-wave (km/s) = 3.82726 5.31090 2.60362
#
# Compressibility (1/GPa) = 0.02854268
#
# Stress axis : x y z
#
# Youngs Moduli (GPa) = 55.81984 55.81984 53.71517
#
# Poissons Ratio (x) = 0.48402 0.11497
# Poissons Ratio (y) = 0.48402 0.11497
# Poissons Ratio (z) = 0.11947 0.11947
#
# Static dielectric constant tensor:
#      x y z
#    x 1.667860 0.000000 0.000000 
#    y 0.000000 1.667860 0.000000 
#    z 0.000000 0.000000 1.686790 
# 
# From -- ./inp_files/1000.got.cif
#   From: 2010.05.17/outbox.cif.g08.bks.cpg/sg83_1_cif.got.tgz:1000.got - 2010.06.03 18:55:12.
