data_PCOD9543118
_publ_section_title
;
Structure prediction by ZEFSAII (Michael W. Deem and Ramdas Pophale) SiO2 
 PCOD9543118
Probable space group: I -4 
;
_chemical_formula_sum "Si O2"
_cell_formula_units_Z 56
_cell_length_a 14.528741
_cell_length_b 14.528741
_cell_length_c 11.827262
_cell_angle_alpha 90.000000
_cell_angle_beta 90.000000
_cell_angle_gamma 90.000000
_cell_volume 2496.549498
_symmetry_space_group_name_H-M "I -4 "
_symmetry_group_IT_number 82
_symmetry_cell_setting 'tetragonal'
loop_
_space_group_symop_operation_xyz
x,y,z
y,-x,-z
-x,-y,z
-y,x,-z
1/2+x,1/2+y,1/2+z
1/2+y,1/2-x,1/2-z
1/2-x,1/2-y,1/2+z
1/2-y,1/2+x,1/2-z
loop_
_atom_site_type_symbol
_atom_site_label
_atom_site_fract_x
_atom_site_fract_y
_atom_site_fract_z
Si Si1 0.920176 0.818923 0.889175
Si Si2 0.378377 0.210742 0.758278
Si Si3 0.053784 0.355927 0.736901
Si Si4 0.429616 0.728386 0.755504
Si Si5 0.143367 0.290547 0.517439
Si Si6 0.582808 0.392075 0.964395
Si Si7 0.367628 0.667910 0.385182
O O1 0.915257 0.719396 0.829252
O O2 0.841269 0.881559 0.831773
O O3 0.024931 0.850584 0.870210
O O4 0.901252 0.824355 0.022392
O O5 0.482173 0.215147 0.714468
O O6 0.304491 0.143022 0.703467
O O7 0.340460 0.312472 0.731367
O O8 0.380275 0.183390 0.889742
O O9 0.114235 0.448416 0.745753
O O10 0.068121 0.313133 0.612624
O O11 0.458995 0.662332 0.858416
O O12 0.155430 0.180198 0.512900
O O13 0.232992 0.344399 0.560898
O O14 0.500219 0.394131 0.055040
#
# Coordination Sequence:
#
# PCOD9543118 Si02
#       7
#     8   8   8   8   8   8   8
#     4  12  26  47  76 107 152 200 261 311 385 464
#     4  12  28  47  76 108 152 203 251 322 392 470
#     4  11  25  46  79 114 146 198 260 318 375 454
#     4  12  26  48  73 109 149 197 259 315 397 458
#     4  12  24  47  72 109 150 194 251 313 386 452
#     4  11  24  42  72 113 147 190 246 315 383 451
#     4  12  27  46  75 106 151 206 252 316 380 464
#
# _framework density 22.430961
#
# number of rings (size 3 to 8) (size 9 to 14) (size 15 to 20)
#    0.000    0.286    7.143    0.857    2.000    4.571 
#    0.000    1.429    0.000    0.000    0.000    0.000 
#    0.000    0.000    0.000    0.000    0.000    0.000 
#
# Total GULP energy -156463.226533 kJ/mol
# GULP energy per Si atom -5587.972376 kJ/mol
# Density = 2.237991 g / cm^3
# Si number density = 22.430961 Si / 1000 Ang^3
#
#
#
# Elastic Constant Matrix: (Units=GPa)
#
#
# Indices 1 2 3 4 5 6 
#
# 1 130.7997 43.5923 37.0105 0.0000 0.0000 11.2262
# 2 43.5923 130.7997 37.0105 0.0000 0.0000 -11.2262
# 3 37.0105 37.0105 63.2542 0.0000 0.0000 0.0000
# 4 0.0000 0.0000 0.0000 24.8151 0.0000 0.0000
# 5 0.0000 0.0000 0.0000 0.0000 24.8151 0.0000
# 6 11.2262 -11.2262 0.0000 0.0000 0.0000 26.4546
#
#
#
# Elastic Compliance Matrix: (Units=1/GPa)
#
#
# Indices 1 2 3 4 5 6 
#
# 1 0.010251 -0.002622 -0.004464 0.000000 0.000000 -0.005463
# 2 -0.002622 0.010251 -0.004464 0.000000 0.000000 0.005463
# 3 -0.004464 -0.004464 0.021033 0.000000 0.000000 0.000000
# 4 0.000000 0.000000 0.000000 0.040298 0.000000 0.000000
# 5 0.000000 0.000000 0.000000 0.000000 0.040298 0.000000
# 6 -0.005463 0.005463 0.000000 0.000000 0.000000 0.042437
#
#
# Mechanical properties :
#
#
# Convention : Reuss Voigt Hill
#
# Bulk Modulus (GPa) = 54.24281 62.23112 58.23697
# Shear Modulus (GPa) = 25.79810 29.03296 27.41553
#
# Velocity S-wave (km/s) = 3.39501 3.60158 3.49982
# Velocity P-wave (km/s) = 6.29307 6.71556 6.50775
#
# Compressibility (1/GPa) = 0.01843562
#
# Stress axis : x y z
#
# Youngs Moduli (GPa) = 97.55045 97.55045 47.54507
#
# Poissons Ratio (x) = 0.25581 0.21223
# Poissons Ratio (y) = 0.25581 0.21223
# Poissons Ratio (z) = 0.43543 0.43543
#
# Static dielectric constant tensor:
#      x y z
#    x 1.847880 0.000000 0.000000 
#    y 0.000000 1.847880 0.000000 
#    z 0.000000 0.000000 1.853050 
# 
# From -- ./inp_files/1834.got.cif
#   From: 2010.05.17/outbox.cif.g08.bks.cpg/sg82_1_cif.got.tgz:1834.got - 2010.06.03 18:52:26.
