data_PCOD9543564
_publ_section_title
;
Structure prediction by ZEFSAII (Michael W. Deem and Ramdas Pophale) SiO2 
 PCOD9543564
Probable space group: P 4/M
;
_chemical_formula_sum "Si O2"
_cell_formula_units_Z 56
_cell_length_a 14.389995
_cell_length_b 14.389995
_cell_length_c 14.619213
_cell_angle_alpha 90.000000
_cell_angle_beta 90.000000
_cell_angle_gamma 90.000000
_cell_volume 3027.229033
_symmetry_space_group_name_H-M "P 4/M"
_symmetry_group_IT_number 83
_symmetry_cell_setting 'tetragonal'
loop_
_space_group_symop_operation_xyz
x,y,z
-y,x,z
-x,-y,z
y,-x,z
-x,-y,-z
y,-x,-z
x,y,-z
-y,x,-z
loop_
_atom_site_type_symbol
_atom_site_label
_atom_site_fract_x
_atom_site_fract_y
_atom_site_fract_z
Si Si1 0.590925 0.217292 0.267793
Si Si2 0.623398 0.595405 0.603328
Si Si3 0.238248 0.081228 0.393013
Si Si4 0.537204 0.349165 0.891346
Si Si5 0.888156 0.776611 0.711077
Si Si6 0.541142 0.895943 0.604784
Si Si7 0.873138 0.091827 0.901118
O O1 0.632246 0.304939 0.323808
O O2 0.560604 0.260905 0.171218
O O3 0.670310 0.139977 0.272458
O O4 0.505494 0.173362 0.323654
O O5 0.516613 0.623850 0.614194
O O6 0.651640 0.619213 0.500000
O O7 0.218156 0.061917 0.500000
O O8 0.179532 0.168507 0.357559
O O9 0.348168 0.100537 0.385505
O O10 0.215624 0.991271 0.331020
O O11 0.608391 0.434635 0.871744
O O12 0.542002 0.329891 0.000000
O O13 0.877036 0.823068 0.810165
O O14 0.518639 0.866586 0.500000
O O15 0.500000 0.000000 0.616280
O O16 0.979866 0.124194 0.899017
O O17 0.832960 0.121023 0.000000
#
# Coordination Sequence:
#
# PCOD9543564 Si02
#       7
#     8   8   8   8   8   8   8
#     4  12  23  34  61  89 115 156 204 248 292 358
#     4   9  19  34  51  78 115 148 186 242 299 341
#     4  11  25  42  60  87 123 166 208 254 304 359
#     4   9  20  40  63  88 122 160 198 247 308 372
#     4  12  24  39  61  90 121 156 211 254 303 367
#     4  10  22  42  60  79 119 166 203 239 294 365
#     4   9  18  37  64  87 111 144 185 243 314 368
#
# _framework density 18.498764999999999
#
# number of rings (size 3 to 8) (size 9 to 14) (size 15 to 20)
#    0.000    1.714    2.857    3.000    4.000    3.714 
#    0.000    0.714    0.000    1.286    0.000    0.000 
#    0.000    0.000    0.000    0.000    0.000    0.000 
#
# Total GULP energy -312637.546689 kJ/mol
# GULP energy per Si atom -5582.813334 kJ/mol
# Density = 1.845666 g / cm^3
# Si number density = 18.498765 Si / 1000 Ang^3
#
#
#
# Elastic Constant Matrix: (Units=GPa)
#
#
# Indices 1 2 3 4 5 6 
#
# 1 43.1882 9.6702 17.5256 0.0000 0.0000 1.2427
# 2 9.6702 43.1882 17.5256 0.0000 0.0000 -1.2427
# 3 17.5256 17.5256 77.3159 0.0000 0.0000 0.0000
# 4 0.0000 0.0000 0.0000 25.4506 0.0000 0.0000
# 5 0.0000 0.0000 0.0000 0.0000 25.4506 0.0000
# 6 1.2427 -1.2427 0.0000 0.0000 0.0000 20.1340
#
#
#
# Elastic Compliance Matrix: (Units=1/GPa)
#
#
# Indices 1 2 3 4 5 6 
#
# 1 0.026119 -0.003853 -0.005047 0.000000 0.000000 -0.001850
# 2 -0.003853 0.026119 -0.005047 0.000000 0.000000 0.001850
# 3 -0.005047 -0.005047 0.015222 0.000000 0.000000 0.000000
# 4 0.000000 0.000000 0.000000 0.039292 0.000000 0.000000
# 5 0.000000 0.000000 0.000000 0.000000 0.039292 0.000000
# 6 -0.001850 0.001850 0.000000 0.000000 0.000000 0.049896
#
#
# Mechanical properties :
#
#
# Convention : Reuss Voigt Hill
#
# Bulk Modulus (GPa) = 25.27517 28.12612 26.70064
# Shear Modulus (GPa) = 21.09517 22.13842 21.61679
#
# Velocity S-wave (km/s) = 3.38058 3.46316 3.42212
# Velocity P-wave (km/s) = 5.37871 5.58826 5.48449
#
# Compressibility (1/GPa) = 0.03956452
#
# Stress axis : x y z
#
# Youngs Moduli (GPa) = 38.28698 38.28698 65.69437
#
# Poissons Ratio (x) = 0.14753 0.33156
# Poissons Ratio (y) = 0.14753 0.33156
# Poissons Ratio (z) = 0.19323 0.19323
#
# Static dielectric constant tensor:
#      x y z
#    x 1.638920 0.000000 0.000000 
#    y 0.000000 1.638920 0.000000 
#    z 0.000000 0.000000 1.644310 
# 
# From -- ./inp_files/2392.got.cif
#   From: 2010.05.17/outbox.cif.g08.bks.cpg/sg83_2_cif.got.tgz:2392.got - 2010.06.03 18:55:12.
