data_PCOD9543138
_publ_section_title
;
Structure prediction by ZEFSAII (Michael W. Deem and Ramdas Pophale) SiO2 
 PCOD9543138
Probable space group: I -4 
;
_chemical_formula_sum "Si O2"
_cell_formula_units_Z 36
_cell_length_a 11.425322
_cell_length_b 11.425322
_cell_length_c 12.949206
_cell_angle_alpha 90.000000
_cell_angle_beta 90.000000
_cell_angle_gamma 90.000000
_cell_volume 1690.363230
_symmetry_space_group_name_H-M "I -4 "
_symmetry_group_IT_number 82
_symmetry_cell_setting 'tetragonal'
loop_
_space_group_symop_operation_xyz
x,y,z
y,-x,-z
-x,-y,z
-y,x,-z
1/2+x,1/2+y,1/2+z
1/2+y,1/2-x,1/2-z
1/2-x,1/2-y,1/2+z
1/2-y,1/2+x,1/2-z
loop_
_atom_site_type_symbol
_atom_site_label
_atom_site_fract_x
_atom_site_fract_y
_atom_site_fract_z
Si Si1 0.245279 0.043461 0.114518
Si Si2 0.515228 0.308668 0.010413
Si Si3 0.500000 0.500000 0.500000
Si Si4 0.000000 0.500000 0.250000
Si Si5 0.826568 0.295080 0.685813
Si Si6 0.627372 0.136855 0.593472
O O1 0.254284 0.146103 0.198580
O O2 0.304050 0.931917 0.169986
O O3 0.319753 0.075785 0.013934
O O4 0.114431 0.018454 0.072292
O O5 0.568235 0.249643 0.112131
O O6 0.399370 0.386970 0.031008
O O7 0.475992 0.208682 0.930829
O O8 0.106488 0.471467 0.324933
O O9 0.711758 0.233322 0.641116
#
# Coordination Sequence:
#
# PCOD9543138 Si02
#       6
#     8   8   2   2   8   8
#     4  12  26  48  71 107 142 194 244 304 365 441
#     4   9  20  41  67 100 138 180 226 295 354 433
#     4  12  28  48  76 100 158 188 244 304 372 432
#     4  12  28  40  64  94 132 180 232 304 376 422
#     4  11  25  42  74 101 139 191 240 293 364 442
#     4  11  25  43  67  99 140 180 239 301 365 440
#
# _framework density 21.297197000000001
#
# number of rings (size 3 to 8) (size 9 to 14) (size 15 to 20)
#    0.000    1.111    2.222    2.667    3.111   11.111 
#    0.000    0.000    0.000    0.000    0.000    0.000 
#    0.000    0.000    0.000    0.000    0.000    0.000 
#
# Total GULP energy -100670.079136 kJ/mol
# GULP energy per Si atom -5592.782174 kJ/mol
# Density = 2.124872 g / cm^3
# Si number density = 21.297197 Si / 1000 Ang^3
#
#
#
# Elastic Constant Matrix: (Units=GPa)
#
#
# Indices 1 2 3 4 5 6 
#
# 1 63.4856 19.5870 23.3525 0.0000 0.0000 13.4435
# 2 19.5870 63.4856 23.3525 0.0000 0.0000 -13.4435
# 3 23.3525 23.3525 97.9302 0.0000 0.0000 0.0000
# 4 0.0000 0.0000 0.0000 7.6727 0.0000 0.0000
# 5 0.0000 0.0000 0.0000 0.0000 7.6727 0.0000
# 6 13.4435 -13.4435 0.0000 0.0000 0.0000 21.6940
#
#
#
# Elastic Compliance Matrix: (Units=1/GPa)
#
#
# Indices 1 2 3 4 5 6 
#
# 1 0.025308 -0.011407 -0.003315 0.000000 0.000000 -0.022752
# 2 -0.011407 0.025308 -0.003315 0.000000 0.000000 0.022752
# 3 -0.003315 -0.003315 0.011792 0.000000 0.000000 0.000000
# 4 0.000000 0.000000 0.000000 0.130332 0.000000 0.000000
# 5 0.000000 0.000000 0.000000 0.000000 0.130332 0.000000
# 6 -0.022752 0.022752 0.000000 0.000000 0.000000 0.074294
#
#
# Mechanical properties :
#
#
# Convention : Reuss Voigt Hill
#
# Bulk Modulus (GPa) = 37.97177 39.72059 38.84618
# Shear Modulus (GPa) = 11.30667 17.98185 14.64426
#
# Velocity S-wave (km/s) = 2.30662 2.90889 2.62508
# Velocity P-wave (km/s) = 4.99622 5.47479 5.24097
#
# Compressibility (1/GPa) = 0.02633536
#
# Stress axis : x y z
#
# Youngs Moduli (GPa) = 39.51302 39.51301 84.80093
#
# Poissons Ratio (x) = 0.45071 0.28111
# Poissons Ratio (y) = 0.45071 0.28111
# Poissons Ratio (z) = 0.13098 0.13098
#
# Static dielectric constant tensor:
#      x y z
#    x 1.824100 0.000000 0.000000 
#    y 0.000000 1.824100 0.000000 
#    z 0.000000 0.000000 1.724820 
# 
# From -- ./inp_files/1605.got.cif
#   From: 2010.05.17/outbox.cif.g08.bks.cpg/sg82_1_cif.got.tgz:1605.got - 2010.06.03 18:52:26.
