data_PCOD9543898
_publ_section_title
;
Structure prediction by ZEFSAII (Michael W. Deem and Ramdas Pophale) SiO2 
 PCOD9543898
Probable space group: P 4/M
;
_chemical_formula_sum "Si O2"
_cell_formula_units_Z 37
_cell_length_a 8.490756
_cell_length_b 8.490756
_cell_length_c 24.825362
_cell_angle_alpha 90.000000
_cell_angle_beta 90.000000
_cell_angle_gamma 90.000000
_cell_volume 1789.733270
_symmetry_space_group_name_H-M "P 4/M"
_symmetry_group_IT_number 83
_symmetry_cell_setting 'tetragonal'
loop_
_space_group_symop_operation_xyz
x,y,z
-y,x,z
-x,-y,z
y,-x,z
-x,-y,-z
y,-x,-z
x,y,-z
-y,x,-z
loop_
_atom_site_type_symbol
_atom_site_label
_atom_site_fract_x
_atom_site_fract_y
_atom_site_fract_z
Si Si1 0.912255 0.251982 0.174718
Si Si2 0.000000 0.000000 0.500000
Si Si3 0.739137 0.384579 0.608203
Si Si4 0.327897 0.075564 0.500000
Si Si5 0.252066 0.598020 0.272958
Si Si6 0.747176 0.911279 0.057642
O O1 0.862053 0.356986 0.224690
O O2 0.883898 0.329864 0.115807
O O3 0.092139 0.192508 0.177398
O O4 0.185500 0.951614 0.500000
O O5 0.701256 0.570370 0.605563
O O6 0.835597 0.329653 0.557274
O O7 0.813505 0.362163 0.667479
O O8 0.500000 0.000000 0.500000
O O9 0.304021 0.415809 0.269264
O O10 0.908005 0.808315 0.057608
O O11 0.664757 0.881793 0.000000
#
# Coordination Sequence:
#
# PCOD9543898 Si02
#       6
#     8   1   8   4   8   8
#     4   9  17  30  47  76 107 133 170 218 278 330
#     4  12  28  44  60 104 132 148 204 252 286 368
#     4   9  18  37  63  84 106 148 199 235 279 346
#     4  12  24  43  64  89 128 158 186 240 306 350
#     4   9  19  36  54  74 102 140 187 225 260 320
#     4   7  10  19  39  65  95 129 166 211 262 321
#
# _framework density 20.673473000000001
#
# number of rings (size 3 to 8) (size 9 to 14) (size 15 to 20)
#    0.000    3.027    0.000    5.189    0.000    1.730 
#   11.676    0.000    0.000    1.297    0.000    7.568 
#    0.000    0.000    0.000    0.000    0.000    0.000 
#
# Total GULP energy -206048.595407 kJ/mol
# GULP energy per Si atom -5568.880957 kJ/mol
# Density = 2.062642 g / cm^3
# Si number density = 20.673473 Si / 1000 Ang^3
#
#
#
# Elastic Constant Matrix: (Units=GPa)
#
#
# Indices 1 2 3 4 5 6 
#
# 1 27.6356 17.3877 45.0630 0.0000 0.0000 -2.5178
# 2 17.3877 27.6356 45.0630 0.0000 0.0000 2.5178
# 3 45.0630 45.0630 236.1753 0.0000 0.0000 0.0000
# 4 0.0000 0.0000 0.0000 -92.2068 0.0000 0.0000
# 5 0.0000 0.0000 0.0000 0.0000 -92.2068 0.0000
# 6 -2.5178 2.5178 0.0000 0.0000 0.0000 21.0239
#
#
#
# Elastic Compliance Matrix: (Units=1/GPa)
#
#
# Indices 1 2 3 4 5 6 
#
# 1 0.069809 -0.033873 -0.006857 0.000000 0.000000 0.012417
# 2 -0.033873 0.069809 -0.006857 0.000000 0.000000 -0.012417
# 3 -0.006857 -0.006857 0.006851 0.000000 0.000000 0.000000
# 4 0.000000 0.000000 0.000000 -0.010845 0.000000 0.000000
# 5 0.000000 0.000000 0.000000 0.000000 -0.010845 0.000000
# 6 0.012417 -0.012417 0.000000 0.000000 0.000000 0.050539
#
#
# Mechanical properties :
#
#
# Convention : Reuss Voigt Hill
#
# Bulk Modulus (GPa) = 19.49454 56.27487 37.88471
# Shear Modulus (GPa) = 17.38595 -20.41574 -1.51489
#
# Velocity S-wave (km/s) = 2.90311 -3.14591 -0.85695
# Velocity P-wave (km/s) = 4.54836 3.75289 4.16964
#
# Compressibility (1/GPa) = 0.05129641
#
# Stress axis : x y z
#
# Youngs Moduli (GPa) = 14.32479 14.32479 145.96978
#
# Poissons Ratio (x) = 0.48522 1.00088
# Poissons Ratio (y) = 0.48522 1.00088
# Poissons Ratio (z) = 0.09822 0.09822
#
# Static dielectric constant tensor:
#      x y z
#    x 1.818930 0.000000 0.000000 
#    y 0.000000 1.818930 0.000000 
#    z 0.000000 0.000000 1.783240 
# 
# From -- ./inp_files/3115.got.cif
#   From: 2010.05.17/outbox.cif.g08.bks.cpg/sg83_2_cif.got.tgz:3115.got - 2010.06.03 18:55:12.
