data_PCOD9543505
_publ_section_title
;
Structure prediction by ZEFSAII (Michael W. Deem and Ramdas Pophale) SiO2 
 PCOD9543505
Probable space group: P 4/M
;
_chemical_formula_sum "Si O2"
_cell_formula_units_Z 40
_cell_length_a 11.638138
_cell_length_b 11.638138
_cell_length_c 13.384254
_cell_angle_alpha 90.000000
_cell_angle_beta 90.000000
_cell_angle_gamma 90.000000
_cell_volume 1812.847095
_symmetry_space_group_name_H-M "P 4/M"
_symmetry_group_IT_number 83
_symmetry_cell_setting 'tetragonal'
loop_
_space_group_symop_operation_xyz
x,y,z
-y,x,z
-x,-y,z
y,-x,z
-x,-y,-z
y,-x,-z
x,y,-z
-y,x,-z
loop_
_atom_site_type_symbol
_atom_site_label
_atom_site_fract_x
_atom_site_fract_y
_atom_site_fract_z
Si Si1 0.613296 0.936224 0.827472
Si Si2 0.841247 0.415735 0.614294
Si Si3 0.199483 0.317269 0.613482
Si Si4 0.052663 0.185894 0.223251
Si Si5 0.326998 0.568097 0.880107
O O1 0.610882 0.926013 0.705660
O O2 0.613066 0.801227 0.856103
O O3 0.500000 0.000000 0.862506
O O4 0.714489 0.024801 0.856871
O O5 0.887351 0.404035 0.500000
O O6 0.737000 0.326052 0.624187
O O7 0.801197 0.546390 0.627791
O O8 0.162472 0.293944 0.500000
O O9 0.113937 0.252596 0.686611
O O10 0.925147 0.132665 0.221319
O O11 0.353854 0.436156 0.845481
O O12 0.333377 0.566217 0.000000
#
# Coordination Sequence:
#
# PCOD9543505 Si02
#       5
#     8   8   8   8   8
#     4  12  24  37  67  95 129 168 211 261 320 379
#     4  10  22  38  58  89 131 171 214 266 318 378
#     4  10  21  39  59  84 122 170 222 274 324 372
#     4  11  24  40  56  82 123 168 217 264 308 364
#     4   9  22  46  74 103 131 158 199 259 322 387
#
# _framework density 22.064738999999999
#
# number of rings (size 3 to 8) (size 9 to 14) (size 15 to 20)
#    0.000    1.600    4.000    0.600    5.600    2.800 
#    0.000    3.000    0.000    0.000    0.000    1.400 
#    0.000    0.000    0.000    0.000    0.000    0.000 
#
# Total GULP energy -222822.028441 kJ/mol
# GULP energy per Si atom -5570.550711 kJ/mol
# Density = 2.201452 g / cm^3
# Si number density = 22.064739 Si / 1000 Ang^3
#
#
#
# Elastic Constant Matrix: (Units=GPa)
#
#
# Indices 1 2 3 4 5 6 
#
# 1 109.1580 38.9514 4.3678 0.0000 0.0000 0.2642
# 2 38.9514 109.1580 4.3678 0.0000 0.0000 -0.2642
# 3 4.3678 4.3678 36.8202 0.0000 0.0000 0.0000
# 4 0.0000 0.0000 0.0000 -9.4796 0.0000 0.0000
# 5 0.0000 0.0000 0.0000 0.0000 -9.4796 0.0000
# 6 0.2642 -0.2642 0.0000 0.0000 0.0000 33.1298
#
#
#
# Elastic Compliance Matrix: (Units=1/GPa)
#
#
# Indices 1 2 3 4 5 6 
#
# 1 0.010522 -0.003723 -0.000807 0.000000 0.000000 -0.000114
# 2 -0.003723 0.010522 -0.000807 0.000000 0.000000 0.000114
# 3 -0.000807 -0.000807 0.027350 0.000000 0.000000 0.000000
# 4 0.000000 0.000000 0.000000 -0.105489 0.000000 0.000000
# 5 0.000000 0.000000 0.000000 0.000000 -0.105489 0.000000
# 6 -0.000114 0.000114 0.000000 0.000000 0.000000 0.030186
#
#
# Mechanical properties :
#
#
# Convention : Reuss Voigt Hill
#
# Bulk Modulus (GPa) = 26.50925 38.94562 32.72743
# Shear Modulus (GPa) = -45.80751 16.66406 -14.57173
#
# Velocity S-wave (km/s) = -4.56131 2.75113 -2.57263
# Velocity P-wave (km/s) = 3.96237 5.27073 2.45766
#
# Compressibility (1/GPa) = 0.03772269
#
# Stress axis : x y z
#
# Youngs Moduli (GPa) = 95.03958 95.03958 36.56263
#
# Poissons Ratio (x) = 0.35379 0.02949
# Poissons Ratio (y) = 0.35379 0.02949
# Poissons Ratio (z) = 0.07666 0.07666
#
# Static dielectric constant tensor:
#      x y z
#    x 1.853480 0.000000 0.000000 
#    y 0.000000 1.853480 0.000000 
#    z 0.000000 0.000000 1.834760 
# 
# From -- ./inp_files/2261.got.cif
#   From: 2010.05.17/outbox.cif.g08.bks.cpg/sg83_2_cif.got.tgz:2261.got - 2010.06.03 18:55:12.
