data_PCOD9543069
_publ_section_title
;
Structure prediction by ZEFSAII (Michael W. Deem and Ramdas Pophale) SiO2 
 PCOD9543069
Probable space group: I -4 
;
_chemical_formula_sum "Si O2"
_cell_formula_units_Z 56
_cell_length_a 13.902900
_cell_length_b 13.902900
_cell_length_c 12.527977
_cell_angle_alpha 90.000000
_cell_angle_beta 90.000000
_cell_angle_gamma 90.000000
_cell_volume 2421.540547
_symmetry_space_group_name_H-M "I -4 "
_symmetry_group_IT_number 82
_symmetry_cell_setting 'tetragonal'
loop_
_space_group_symop_operation_xyz
x,y,z
y,-x,-z
-x,-y,z
-y,x,-z
1/2+x,1/2+y,1/2+z
1/2+y,1/2-x,1/2-z
1/2-x,1/2-y,1/2+z
1/2-y,1/2+x,1/2-z
loop_
_atom_site_type_symbol
_atom_site_label
_atom_site_fract_x
_atom_site_fract_y
_atom_site_fract_z
Si Si1 0.362228 0.931128 0.215103
Si Si2 0.879002 0.731651 0.212336
Si Si3 0.397903 0.477300 0.213938
Si Si4 0.694879 0.823660 0.938913
Si Si5 0.099068 0.900845 0.057269
Si Si6 0.613355 0.023384 0.978325
Si Si7 0.715098 0.328425 0.865905
O O1 0.456242 0.878337 0.261688
O O2 0.271015 0.896184 0.282547
O O3 0.366033 0.917512 0.086920
O O4 0.849167 0.678021 0.321170
O O5 0.932639 0.662735 0.127588
O O6 0.777404 0.756139 0.158914
O O7 0.938592 0.825890 0.247712
O O8 0.500000 0.500000 0.158884
O O9 0.429808 0.424142 0.322757
O O10 0.335634 0.398343 0.151805
O O11 0.810280 0.830747 0.936605
O O12 0.661397 0.920383 0.995218
O O13 0.653767 0.738594 0.010779
O O14 0.996242 0.869659 0.005439
O O15 0.500000 0.000000 0.966126
#
# Coordination Sequence:
#
# PCOD9543069 Si02
#       7
#     8   8   8   8   8   8   8
#     4  11  23  48  73 117 152 193 259 319 401 467
#     4  12  29  50  75 115 156 205 269 321 394 476
#     4  12  27  51  75 112 153 206 262 324 397 471
#     4  12  27  48  71 110 151 199 265 316 394 466
#     4  11  22  41  77 113 149 192 256 324 383 462
#     4  12  26  45  79 107 153 202 253 326 391 465
#     4  12  28  47  78 111 157 208 256 326 396 474
#
# _framework density 23.125772999999999
#
# number of rings (size 3 to 8) (size 9 to 14) (size 15 to 20)
#    0.000    0.286    7.143    0.857   10.000    0.000 
#    2.571    0.000    0.000    0.000    0.000    0.000 
#    0.000    0.000    0.000    0.000    0.000    0.000 
#
# Total GULP energy -156620.585161 kJ/mol
# GULP energy per Si atom -5593.592327 kJ/mol
# Density = 2.307314 g / cm^3
# Si number density = 23.125773 Si / 1000 Ang^3
#
#
#
# Elastic Constant Matrix: (Units=GPa)
#
#
# Indices 1 2 3 4 5 6 
#
# 1 82.9049 38.3206 22.4307 0.0000 0.0000 4.9900
# 2 38.3206 82.9049 22.4307 0.0000 0.0000 -4.9900
# 3 22.4307 22.4307 124.1688 0.0000 0.0000 0.0000
# 4 0.0000 0.0000 0.0000 4.0653 0.0000 0.0000
# 5 0.0000 0.0000 0.0000 0.0000 4.0653 0.0000
# 6 4.9900 -4.9900 0.0000 0.0000 0.0000 36.0139
#
#
#
# Elastic Compliance Matrix: (Units=1/GPa)
#
#
# Indices 1 2 3 4 5 6 
#
# 1 0.015994 -0.007154 -0.001597 0.000000 0.000000 -0.003207
# 2 -0.007154 0.015994 -0.001597 0.000000 0.000000 0.003207
# 3 -0.001597 -0.001597 0.008631 0.000000 0.000000 0.000000
# 4 0.000000 0.000000 0.000000 0.245983 0.000000 0.000000
# 5 0.000000 0.000000 0.000000 0.000000 0.245983 0.000000
# 6 -0.003207 0.003207 0.000000 0.000000 0.000000 0.028656
#
#
# Mechanical properties :
#
#
# Convention : Reuss Voigt Hill
#
# Bulk Modulus (GPa) = 50.19347 50.70475 50.44911
# Shear Modulus (GPa) = 8.49510 22.61535 15.55522
#
# Velocity S-wave (km/s) = 1.91870 3.13058 2.59634
# Velocity P-wave (km/s) = 5.16335 5.91951 5.55431
#
# Compressibility (1/GPa) = 0.01992291
#
# Stress axis : x y z
#
# Youngs Moduli (GPa) = 62.52465 62.52465 115.86801
#
# Poissons Ratio (x) = 0.44728 0.18503
# Poissons Ratio (y) = 0.44728 0.18503
# Poissons Ratio (z) = 0.09985 0.09985
#
# Static dielectric constant tensor:
#      x y z
#    x 1.900820 0.000000 0.000000 
#    y 0.000000 1.900820 0.000000 
#    z 0.000000 0.000000 1.887080 
# 
# From -- ./inp_files/1850.got.cif
#   From: 2010.05.17/outbox.cif.g08.bks.cpg/sg82_1_cif.got.tgz:1850.got - 2010.06.03 18:52:26.
