data_PCOD9543993
_publ_section_title
;
Structure prediction by ZEFSAII (Michael W. Deem and Ramdas Pophale) SiO2 
 PCOD9543993
Probable space group: P 42/M
;
_chemical_formula_sum "Si O2"
_cell_formula_units_Z 64
_cell_length_a 20.380194
_cell_length_b 20.380194
_cell_length_c 8.081053
_cell_angle_alpha 90.000000
_cell_angle_beta 90.000000
_cell_angle_gamma 90.000000
_cell_volume 3356.484010
_symmetry_space_group_name_H-M "P 42/M"
_symmetry_group_IT_number 84
_symmetry_cell_setting 'tetragonal'
loop_
_space_group_symop_operation_xyz
x,y,z
-y,x,1/2+z
-x,-y,z
y,-x,1/2+z
-x,-y,-z
y,-x,1/2-z
x,y,-z
-y,x,1/2-z
loop_
_atom_site_type_symbol
_atom_site_label
_atom_site_fract_x
_atom_site_fract_y
_atom_site_fract_z
Si Si1 0.246260 0.995306 0.190901
Si Si2 0.256110 0.500833 0.693428
Si Si3 0.260085 0.351069 0.803659
Si Si4 0.591944 0.473532 0.318702
Si Si5 0.897486 0.019438 0.696564
Si Si6 0.854434 0.745996 0.303463
Si Si7 0.757376 0.856796 0.800650
Si Si8 0.757703 0.358683 0.297608
O O1 0.169292 0.980102 0.203692
O O2 0.273061 0.926744 0.265302
O O3 0.251327 0.068834 0.264603
O O4 0.268817 0.000125 0.000000
O O5 0.238316 0.493943 0.500000
O O6 0.252659 0.427944 0.765824
O O7 0.331815 0.522513 0.706714
O O8 0.224014 0.567994 0.762167
O O9 0.198751 0.309714 0.736593
O O10 0.326258 0.312454 0.744837
O O11 0.260153 0.343351 0.000000
O O12 0.547889 0.434384 0.190843
O O13 0.579003 0.444542 0.500000
O O14 0.888418 0.030884 0.500000
O O15 0.948561 0.070341 0.773092
O O16 0.861423 0.751060 0.500000
O O17 0.822324 0.815047 0.245272
O O18 0.695432 0.811854 0.751398
O O19 0.758515 0.860853 0.000000
O O20 0.756017 0.362947 0.500000
#
# Coordination Sequence:
#
# PCOD9543993 Si02
#       8
#     8   8   8   8   8   8   8   8
#     4  10  20  33  51  75 101 130 168 211 254 302
#     4  10  19  31  49  72  96 124 161 206 253 299
#     4  10  20  35  54  75 101 134 170 207 250 303
#     4  10  19  29  42  63  95 131 164 199 241 294
#     4  11  21  32  46  66  97 133 167 202 244 296
#     4  10  20  34  52  76 105 134 167 210 255 299
#     4   9  18  34  54  75 101 135 172 209 252 304
#     4   8  16  32  52  72  97 129 164 204 249 297
#
# _framework density 19.067571000000001
#
# number of rings (size 3 to 8) (size 9 to 14) (size 15 to 20)
#    0.000    2.250    0.000    5.250    0.000    5.500 
#    0.000    3.125    0.000    0.750    0.000    5.250 
#    0.000    0.000    0.000    0.000    0.000    0.000 
#
# Total GULP energy -356527.602696 kJ/mol
# GULP energy per Si atom -5570.743792 kJ/mol
# Density = 1.902417 g / cm^3
# Si number density = 19.067571 Si / 1000 Ang^3
#
#
#
# Elastic Constant Matrix: (Units=GPa)
#
#
# Indices 1 2 3 4 5 6 
#
# 1 95.3028 29.5356 6.5273 0.0000 0.0000 0.0318
# 2 29.5356 95.3028 6.5273 0.0000 0.0000 -0.0318
# 3 6.5273 6.5273 28.8032 0.0000 0.0000 0.0000
# 4 0.0000 0.0000 0.0000 16.6359 0.0000 0.0000
# 5 0.0000 0.0000 0.0000 0.0000 16.6359 0.0000
# 6 0.0318 -0.0318 0.0000 0.0000 0.0000 -13.4200
#
#
#
# Elastic Compliance Matrix: (Units=1/GPa)
#
#
# Indices 1 2 3 4 5 6 
#
# 1 0.011705 -0.003500 -0.001859 0.000000 0.000000 0.000036
# 2 -0.003500 0.011705 -0.001859 0.000000 0.000000 -0.000036
# 3 -0.001859 -0.001859 0.035561 0.000000 0.000000 0.000000
# 4 0.000000 0.000000 0.000000 0.060111 0.000000 0.000000
# 5 0.000000 0.000000 0.000000 0.000000 0.060111 0.000000
# 6 0.000036 -0.000036 0.000000 0.000000 0.000000 -0.074515
#
#
# Mechanical properties :
#
#
# Convention : Reuss Voigt Hill
#
# Bulk Modulus (GPa) = 22.45515 33.84327 28.14921
# Shear Modulus (GPa) = 37.32458 15.75824 26.54141
#
# Velocity S-wave (km/s) = 4.42915 2.87791 3.73495
# Velocity P-wave (km/s) = 6.16106 5.36943 5.77882
#
# Compressibility (1/GPa) = 0.04453321
#
# Stress axis : x y z
#
# Youngs Moduli (GPa) = 85.43386 85.43386 28.12066
#
# Poissons Ratio (x) = 0.29903 0.05229
# Poissons Ratio (y) = 0.29903 0.05229
# Poissons Ratio (z) = 0.15885 0.15885
#
# Static dielectric constant tensor:
#      x y z
#    x 1.706080 0.000000 0.000000 
#    y 0.000000 1.706080 0.000000 
#    z 0.000000 0.000000 1.698580 
# 
# From -- ./inp_files/1391.got.cif
#   From: 2010.05.17/outbox.cif.g08.bks.cpg/sg84_1_cif.got.tgz:1391.got - 2010.06.03 18:57:40.
