data_PCOD9543436
_publ_section_title
;
Structure prediction by ZEFSAII (Michael W. Deem and Ramdas Pophale) SiO2 
 PCOD9543436
Probable space group: P 4/M
;
_chemical_formula_sum "Si O2"
_cell_formula_units_Z 36
_cell_length_a 14.028207
_cell_length_b 14.028207
_cell_length_c 7.311284
_cell_angle_alpha 90.000000
_cell_angle_beta 90.000000
_cell_angle_gamma 90.000000
_cell_volume 1438.791904
_symmetry_space_group_name_H-M "P 4/M"
_symmetry_group_IT_number 83
_symmetry_cell_setting 'tetragonal'
loop_
_space_group_symop_operation_xyz
x,y,z
-y,x,z
-x,-y,z
y,-x,z
-x,-y,-z
y,-x,-z
x,y,-z
-y,x,-z
loop_
_atom_site_type_symbol
_atom_site_label
_atom_site_fract_x
_atom_site_fract_y
_atom_site_fract_z
Si Si1 0.807102 0.312830 0.798342
Si Si2 0.509371 0.113555 0.213384
Si Si3 0.397595 0.384831 0.720048
Si Si4 0.118247 0.273795 0.778501
Si Si5 0.988207 0.839843 0.500000
O O1 0.846808 0.409589 0.707050
O O2 0.695234 0.337037 0.811925
O O3 0.795212 0.206417 0.725007
O O4 0.852608 0.306229 0.000000
O O5 0.616156 0.136283 0.281747
O O6 0.500000 0.000000 0.222067
O O7 0.509089 0.143866 0.000000
O O8 0.508088 0.370463 0.768723
O O9 0.389557 0.376932 0.500000
O O10 0.027340 0.229697 0.674797
O O11 0.108157 0.273225 0.000000
O O12 0.081329 0.904214 0.500000
#
# Coordination Sequence:
#
# PCOD9543436 Si02
#       5
#     8   8   8   8   4
#     4  10  20  35  58  88 122 163 212 266 325 397
#     4   9  19  37  62  94 131 169 220 280 333 401
#     4   9  18  31  47  71 110 159 206 253 309 375
#     4  10  23  43  70 100 137 183 224 273 348 414
#     4  11  28  50  71 101 135 166 227 301 341 401
#
# _framework density 25.020990999999999
#
# number of rings (size 3 to 8) (size 9 to 14) (size 15 to 20)
#    0.000    2.333    0.000    2.000    4.667    3.556 
#    2.000    2.778    0.000    0.000    0.000    0.000 
#    0.000    0.000    0.000    0.000    0.000    0.000 
#
# Total GULP energy -201040.716401 kJ/mol
# GULP energy per Si atom -5584.464344 kJ/mol
# Density = 2.496404 g / cm^3
# Si number density = 25.020991 Si / 1000 Ang^3
#
#
#
# Elastic Constant Matrix: (Units=GPa)
#
#
# Indices 1 2 3 4 5 6 
#
# 1 76.3216 34.1559 22.3833 0.0000 0.0000 -12.3921
# 2 34.1559 76.3216 22.3833 0.0000 0.0000 12.3921
# 3 22.3833 22.3833 109.0999 0.0000 0.0000 0.0000
# 4 0.0000 0.0000 0.0000 30.0761 0.0000 0.0000
# 5 0.0000 0.0000 0.0000 0.0000 30.0761 0.0000
# 6 -12.3921 12.3921 0.0000 0.0000 0.0000 44.2242
#
#
#
# Elastic Compliance Matrix: (Units=1/GPa)
#
#
# Indices 1 2 3 4 5 6 
#
# 1 0.019132 -0.009260 -0.002025 0.000000 0.000000 0.007956
# 2 -0.009260 0.019132 -0.002025 0.000000 0.000000 -0.007956
# 3 -0.002025 -0.002025 0.009997 0.000000 0.000000 0.000000
# 4 0.000000 0.000000 0.000000 0.033249 0.000000 0.000000
# 5 0.000000 0.000000 0.000000 0.000000 0.033249 0.000000
# 6 0.007956 -0.007956 0.000000 0.000000 0.000000 0.027071
#
#
# Mechanical properties :
#
#
# Convention : Reuss Voigt Hill
#
# Bulk Modulus (GPa) = 46.21090 46.62092 46.41591
# Shear Modulus (GPa) = 28.46320 33.06329 30.76325
#
# Velocity S-wave (km/s) = 3.37645 3.63908 3.51022
# Velocity P-wave (km/s) = 5.80599 6.02747 5.91777
#
# Compressibility (1/GPa) = 0.02163991
#
# Stress axis : x y z
#
# Youngs Moduli (GPa) = 52.26758 52.26758 100.02997
#
# Poissons Ratio (x) = 0.48400 0.20261
# Poissons Ratio (y) = 0.48400 0.20261
# Poissons Ratio (z) = 0.10587 0.10587
#
# Static dielectric constant tensor:
#      x y z
#    x 1.974170 0.000000 0.000000 
#    y 0.000000 1.974170 0.000000 
#    z 0.000000 0.000000 1.962810 
# 
# From -- ./inp_files/560.got.cif
#   From: 2010.05.17/outbox.cif.g08.bks.cpg/sg83_1_cif.got.tgz:560.got - 2010.06.03 18:55:12.
