data_PCOD9543760
_publ_section_title
;
Structure prediction by ZEFSAII (Michael W. Deem and Ramdas Pophale) SiO2 
 PCOD9543760
Probable space group: P 4/M
;
_chemical_formula_sum "Si O2"
_cell_formula_units_Z 44
_cell_length_a 8.094788
_cell_length_b 8.094788
_cell_length_c 30.076366
_cell_angle_alpha 90.000000
_cell_angle_beta 90.000000
_cell_angle_gamma 90.000000
_cell_volume 1970.771710
_symmetry_space_group_name_H-M "P 4/M"
_symmetry_group_IT_number 83
_symmetry_cell_setting 'tetragonal'
loop_
_space_group_symop_operation_xyz
x,y,z
-y,x,z
-x,-y,z
y,-x,z
-x,-y,-z
y,-x,-z
x,y,-z
-y,x,-z
loop_
_atom_site_type_symbol
_atom_site_label
_atom_site_fract_x
_atom_site_fract_y
_atom_site_fract_z
Si Si1 0.736426 0.904089 0.769753
Si Si2 0.917463 0.265363 0.500000
Si Si3 0.263860 0.095111 0.326838
Si Si4 0.764348 0.415448 0.586127
Si Si5 0.413968 0.234911 0.951441
Si Si6 0.911541 0.264858 0.134369
O O1 0.656089 0.873533 0.721819
O O2 0.652496 0.875818 0.817464
O O3 0.905856 0.798082 0.769755
O O4 0.873927 0.366125 0.544085
O O5 0.103049 0.198873 0.500000
O O6 0.376129 0.144964 0.367851
O O7 0.094423 0.202439 0.329498
O O8 0.699931 0.601578 0.584154
O O9 0.600808 0.300591 0.949765
O O10 0.369919 0.129580 0.908665
O O11 0.384343 0.155654 0.000000
O O12 0.099121 0.200224 0.132922
#
# Coordination Sequence:
#
# PCOD9543760 Si02
#       6
#     8   4   8   8   8   8
#     4   7  12  26  48  73 101 130 160 200 248 294
#     4  11  24  41  62  86 106 129 170 217 256 300
#     4   9  17  32  56  81 102 131 174 214 246 290
#     4  11  24  39  54  77 111 145 173 205 250 299
#     4   9  19  35  50  64  89 128 169 205 245 297
#     4   9  17  30  50  76 102 126 157 202 254 302
#
# _framework density 22.326280000000001
#
# number of rings (size 3 to 8) (size 9 to 14) (size 15 to 20)
#    0.000    2.818    0.000    4.364    0.000    7.273 
#    0.000    4.545    0.000    8.727    0.000    0.000 
#    0.000    0.000    0.000    0.000    0.000    0.000 
#
# Total GULP energy -246007.677079 kJ/mol
# GULP energy per Si atom -5591.083570 kJ/mol
# Density = 2.227546 g / cm^3
# Si number density = 22.326280 Si / 1000 Ang^3
#
#
#
# Elastic Constant Matrix: (Units=GPa)
#
#
# Indices 1 2 3 4 5 6 
#
# 1 60.6619 40.9858 61.3933 0.0000 0.0000 -1.5452
# 2 40.9858 60.6619 61.3933 0.0000 0.0000 1.5452
# 3 61.3933 61.3933 263.4756 0.0000 0.0000 0.0000
# 4 0.0000 0.0000 0.0000 761.3403 0.0000 0.0000
# 5 0.0000 0.0000 0.0000 0.0000 761.3403 0.0000
# 6 -1.5452 1.5452 0.0000 0.0000 0.0000 35.8929
#
#
#
# Elastic Compliance Matrix: (Units=1/GPa)
#
#
# Indices 1 2 3 4 5 6 
#
# 1 0.032430 -0.018739 -0.003190 0.000000 0.000000 0.002203
# 2 -0.018739 0.032430 -0.003190 0.000000 0.000000 -0.002203
# 3 -0.003190 -0.003190 0.005282 0.000000 0.000000 0.000000
# 4 0.000000 0.000000 0.000000 0.001313 0.000000 0.000000
# 5 0.000000 0.000000 0.000000 0.000000 0.001313 0.000000
# 6 0.002203 -0.002203 0.000000 0.000000 0.000000 0.028050
#
#
# Mechanical properties :
#
#
# Convention : Reuss Voigt Hill
#
# Bulk Modulus (GPa) = 50.24053 79.14934 64.69493
# Shear Modulus (GPa) = 31.70704 326.44982 179.07843
#
# Velocity S-wave (km/s) = 3.77260 12.10517 8.96570
# Velocity P-wave (km/s) = 6.44425 15.19567 11.67126
#
# Compressibility (1/GPa) = 0.01990425
#
# Stress axis : x y z
#
# Youngs Moduli (GPa) = 30.83529 30.83529 189.31482
#
# Poissons Ratio (x) = 0.57781 0.60398
# Poissons Ratio (y) = 0.57781 0.60398
# Poissons Ratio (z) = 0.09838 0.09838
#
# Static dielectric constant tensor:
#      x y z
#    x 1.803380 0.000000 0.000000 
#    y 0.000000 1.803380 0.000000 
#    z 0.000000 0.000000 1.835300 
# 
# From -- ./inp_files/3359.got.cif
#   From: 2010.05.17/outbox.cif.g08.bks.cpg/sg83_2_cif.got.tgz:3359.got - 2010.06.03 18:55:12.
