data_PCOD9543222
_publ_section_title
;
Structure prediction by ZEFSAII (Michael W. Deem and Ramdas Pophale) SiO2 
 PCOD9543222
Probable space group: P 4/M
;
_chemical_formula_sum "Si O2"
_cell_formula_units_Z 33
_cell_length_a 12.841016
_cell_length_b 12.841016
_cell_length_c 11.471858
_cell_angle_alpha 90.000000
_cell_angle_beta 90.000000
_cell_angle_gamma 90.000000
_cell_volume 1891.614075
_symmetry_space_group_name_H-M "P 4/M"
_symmetry_group_IT_number 83
_symmetry_cell_setting 'tetragonal'
loop_
_space_group_symop_operation_xyz
x,y,z
-y,x,z
-x,-y,z
y,-x,z
-x,-y,-z
y,-x,-z
x,y,-z
-y,x,-z
loop_
_atom_site_type_symbol
_atom_site_label
_atom_site_fract_x
_atom_site_fract_y
_atom_site_fract_z
Si Si1 0.000000 0.000000 0.000000
Si Si2 0.275601 0.113441 0.362576
Si Si3 0.890796 0.436565 0.000000
Si Si4 0.032258 0.246720 0.000000
Si Si5 0.117722 0.277243 0.255620
Si Si6 0.126770 0.507834 0.747470
O O1 0.872370 0.000099 0.000000
O O2 0.256568 0.116667 0.500000
O O3 0.194724 0.187298 0.296180
O O4 0.393744 0.148867 0.333678
O O5 0.263738 0.995248 0.316068
O O6 0.837226 0.465062 0.121276
O O7 0.000000 0.500000 0.000000
O O8 0.928391 0.317598 0.000000
O O9 0.095335 0.273613 0.882717
O O10 0.160602 0.392140 0.287282
O O11 0.000000 0.500000 0.750974
#
# Coordination Sequence:
#
# PCOD9543222 Si02
#       6
#     1   8   4   4   8   8
#     4  12  28  28  44  92 138 168 168 204 280 374
#     4  11  23  36  53  79 114 153 190 231 284 348
#     4  10  14  34  56  79 103 139 190 245 282 312
#     4  12  20  36  54  81 122 154 189 231 282 344
#     4  11  22  37  57  81 112 150 191 239 292 348
#     4   9  18  34  57  79 103 144 194 241 283 334
#
# _framework density 17.445419999999999
#
# number of rings (size 3 to 8) (size 9 to 14) (size 15 to 20)
#    0.000    1.455    7.273    2.182    0.000    5.818 
#    0.000    1.212    0.000    0.727    0.000    1.697 
#    0.000    3.879    0.000    0.000    0.000    0.000 
#
# Total GULP energy -183835.593275 kJ/mol
# GULP energy per Si atom -5570.775554 kJ/mol
# Density = 1.740571 g / cm^3
# Si number density = 17.445420 Si / 1000 Ang^3
#
#
#
# Elastic Constant Matrix: (Units=GPa)
#
#
# Indices 1 2 3 4 5 6 
#
# 1 96.9321 41.9822 17.7313 0.0000 0.0000 -0.8335
# 2 41.9822 96.9321 17.7313 0.0000 0.0000 0.8335
# 3 17.7313 17.7313 97.3077 0.0000 0.0000 0.0000
# 4 0.0000 0.0000 0.0000 7.9856 0.0000 0.0000
# 5 0.0000 0.0000 0.0000 0.0000 7.9856 0.0000
# 6 -0.8335 0.8335 0.0000 0.0000 0.0000 5.3622
#
#
#
# Elastic Compliance Matrix: (Units=1/GPa)
#
#
# Indices 1 2 3 4 5 6 
#
# 1 0.012917 -0.005367 -0.001376 0.000000 0.000000 0.002842
# 2 -0.005367 0.012917 -0.001376 0.000000 0.000000 -0.002842
# 3 -0.001376 -0.001376 0.010778 0.000000 0.000000 0.000000
# 4 0.000000 0.000000 0.000000 0.125226 0.000000 0.000000
# 5 0.000000 0.000000 0.000000 0.000000 0.125226 0.000000
# 6 0.002842 -0.002842 0.000000 0.000000 0.000000 0.187374
#
#
# Mechanical properties :
#
#
# Convention : Reuss Voigt Hill
#
# Bulk Modulus (GPa) = 49.08001 49.56238 49.32120
# Shear Modulus (GPa) = 10.05090 18.51513 14.28301
#
# Velocity S-wave (km/s) = 2.40288 3.26132 2.86444
# Velocity P-wave (km/s) = 5.99108 6.53095 6.26683
#
# Compressibility (1/GPa) = 0.02037489
#
# Stress axis : x y z
#
# Youngs Moduli (GPa) = 77.41579 77.41579 92.78115
#
# Poissons Ratio (x) = 0.41552 0.12764
# Poissons Ratio (y) = 0.41552 0.12764
# Poissons Ratio (z) = 0.10650 0.10650
#
# Static dielectric constant tensor:
#      x y z
#    x 1.600860 0.000000 0.000000 
#    y 0.000000 1.600860 0.000000 
#    z 0.000000 0.000000 1.617380 
# 
# From -- ./inp_files/1640.got.cif
#   From: 2010.05.17/outbox.cif.g08.bks.cpg/sg83_1_cif.got.tgz:1640.got - 2010.06.03 18:55:12.
