data_PCOD9543029
_publ_section_title
;
Structure prediction by ZEFSAII (Michael W. Deem and Ramdas Pophale) SiO2 
 PCOD9543029
Probable space group: I -4 
;
_chemical_formula_sum "Si O2"
_cell_formula_units_Z 40
_cell_length_a 11.968735
_cell_length_b 11.968735
_cell_length_c 13.725232
_cell_angle_alpha 90.000000
_cell_angle_beta 90.000000
_cell_angle_gamma 90.000000
_cell_volume 1966.147959
_symmetry_space_group_name_H-M "I -4 "
_symmetry_group_IT_number 82
_symmetry_cell_setting 'tetragonal'
loop_
_space_group_symop_operation_xyz
x,y,z
y,-x,-z
-x,-y,z
-y,x,-z
1/2+x,1/2+y,1/2+z
1/2+y,1/2-x,1/2-z
1/2-x,1/2-y,1/2+z
1/2-y,1/2+x,1/2-z
loop_
_atom_site_type_symbol
_atom_site_label
_atom_site_fract_x
_atom_site_fract_y
_atom_site_fract_z
Si Si1 0.955020 0.382329 0.985914
Si Si2 0.582976 0.601145 0.766812
Si Si3 0.539182 0.849973 0.809787
Si Si4 0.434791 0.832997 0.275797
Si Si5 0.660626 0.457171 0.456715
O O1 0.892820 0.418341 0.085225
O O2 0.000000 0.500000 0.947889
O O3 0.045729 0.290518 0.018659
O O4 0.898081 0.329072 0.889882
O O5 0.500000 0.500000 0.793484
O O6 0.550122 0.718030 0.814210
O O7 0.714669 0.577582 0.777382
O O8 0.568542 0.627144 0.652384
O O9 0.415211 0.886012 0.772369
O O10 0.565818 0.866206 0.272221
O O11 0.584684 0.379885 0.524834
#
# Coordination Sequence:
#
# PCOD9543029 Si02
#       5
#     8   8   8   8   8
#     4  12  21  41  66  94 129 167 220 267 329 392
#     4  12  24  41  67  97 133 173 222 272 324 390
#     4  11  23  40  63 100 131 171 220 271 331 386
#     4  11  25  44  66  95 130 175 220 273 333 392
#     4  11  20  37  65  98 122 165 227 276 313 362
#
# _framework density 20.344349000000001
#
# number of rings (size 3 to 8) (size 9 to 14) (size 15 to 20)
#    0.000    0.600   10.000    0.000    2.800    1.600 
#    0.000    0.000    0.000    0.000    0.000    0.000 
#    0.000    0.000    0.000    0.000    0.000    0.000 
#
# Total GULP energy -111518.193930 kJ/mol
# GULP energy per Si atom -5575.909697 kJ/mol
# Density = 2.029804 g / cm^3
# Si number density = 20.344349 Si / 1000 Ang^3
#
#
#
# Elastic Constant Matrix: (Units=GPa)
#
#
# Indices 1 2 3 4 5 6 
#
# 1 121.6764 28.9251 -4.7006 0.0000 0.0000 2.4297
# 2 28.9251 121.6764 -4.7006 0.0000 0.0000 -2.4297
# 3 -4.7006 -4.7006 71.9827 0.0000 0.0000 0.0000
# 4 0.0000 0.0000 0.0000 21.5632 0.0000 0.0000
# 5 0.0000 0.0000 0.0000 0.0000 21.5633 0.0000
# 6 2.4297 -2.4297 0.0000 0.0000 0.0000 6.3487
#
#
#
# Elastic Compliance Matrix: (Units=1/GPa)
#
#
# Indices 1 2 3 4 5 6 
#
# 1 0.008835 -0.002167 0.000435 0.000000 0.000000 -0.004211
# 2 -0.002167 0.008835 0.000435 0.000000 0.000000 0.004211
# 3 0.000435 0.000435 0.013949 0.000000 0.000000 0.000000
# 4 0.000000 0.000000 0.000000 0.046375 0.000000 0.000000
# 5 0.000000 0.000000 0.000000 0.000000 0.046375 0.000000
# 6 -0.004211 0.004211 0.000000 0.000000 0.000000 0.160735
#
#
# Mechanical properties :
#
#
# Convention : Reuss Voigt Hill
#
# Bulk Modulus (GPa) = 34.45297 39.37591 36.91444
# Shear Modulus (GPa) = 16.81396 29.61582 23.21489
#
# Velocity S-wave (km/s) = 2.87796 3.81954 3.38168
# Velocity P-wave (km/s) = 5.29294 6.23286 5.78203
#
# Compressibility (1/GPa) = 0.02902507
#
# Stress axis : x y z
#
# Youngs Moduli (GPa) = 113.19041 113.19039 71.68924
#
# Poissons Ratio (x) = 0.24533 -0.03121
# Poissons Ratio (y) = 0.24533 -0.03121
# Poissons Ratio (z) = -0.04928 -0.04928
#
# Static dielectric constant tensor:
#      x y z
#    x 1.773050 0.000000 0.000000 
#    y 0.000000 1.773050 0.000000 
#    z 0.000000 0.000000 1.744060 
# 
# From -- ./inp_files/2177.got.cif
#   From: 2010.05.17/outbox.cif.g08.bks.cpg/sg82_2_cif.got.tgz:2177.got - 2010.06.03 18:52:26.
