data_PCOD9543102
_publ_section_title
;
Structure prediction by ZEFSAII (Michael W. Deem and Ramdas Pophale) SiO2 
 PCOD9543102
Probable space group: I -4 
;
_chemical_formula_sum "Si O2"
_cell_formula_units_Z 36
_cell_length_a 13.595018
_cell_length_b 13.595018
_cell_length_c 7.649737
_cell_angle_alpha 90.000000
_cell_angle_beta 90.000000
_cell_angle_gamma 90.000000
_cell_volume 1413.858926
_symmetry_space_group_name_H-M "I -4 "
_symmetry_group_IT_number 82
_symmetry_cell_setting 'tetragonal'
loop_
_space_group_symop_operation_xyz
x,y,z
y,-x,-z
-x,-y,z
-y,x,-z
1/2+x,1/2+y,1/2+z
1/2+y,1/2-x,1/2-z
1/2-x,1/2-y,1/2+z
1/2-y,1/2+x,1/2-z
loop_
_atom_site_type_symbol
_atom_site_label
_atom_site_fract_x
_atom_site_fract_y
_atom_site_fract_z
Si Si1 0.844497 0.866635 0.339562
Si Si2 0.000000 0.000000 0.000000
Si Si3 0.969363 0.215679 0.007127
Si Si4 0.500000 0.500000 0.000000
Si Si5 0.799292 0.232329 0.292586
Si Si6 0.636399 0.068122 0.197826
O O1 0.803355 0.943132 0.197964
O O2 0.947937 0.910558 0.401860
O O3 0.782932 0.849245 0.519563
O O4 0.831222 0.762482 0.242777
O O5 0.020323 0.113050 0.058864
O O6 0.028882 0.316338 0.982464
O O7 0.878195 0.225144 0.137482
O O8 0.716142 0.145749 0.274539
O O9 0.528294 0.115659 0.182774
#
# Coordination Sequence:
#
# PCOD9543102 Si02
#       6
#     8   2   8   2   8   8
#     4  12  26  46  72 112 147 199 248 324 380 465
#     4  12  26  44  74 114 164 190 262 320 402 438
#     4  12  25  45  74 111 148 202 249 317 379 465
#     4  12  30  44  78 118 152 186 278 328 386 446
#     4  12  25  46  76 106 151 198 256 309 389 455
#     4  11  23  44  74 104 146 203 245 300 386 459
#
# _framework density 25.462230000000002
#
# number of rings (size 3 to 8) (size 9 to 14) (size 15 to 20)
#    0.000    0.222    6.667    2.000    3.111    0.000 
#    0.000    0.000    0.000    0.000    5.778    0.000 
#    0.000    0.000    0.000    0.000    0.000    0.000 
#
# Total GULP energy -100433.833079 kJ/mol
# GULP energy per Si atom -5579.657393 kJ/mol
# Density = 2.540428 g / cm^3
# Si number density = 25.462230 Si / 1000 Ang^3
#
#
#
# Elastic Constant Matrix: (Units=GPa)
#
#
# Indices 1 2 3 4 5 6 
#
# 1 139.9037 73.8282 52.7547 0.0000 0.0000 -2.5686
# 2 73.8282 139.9037 52.7547 0.0000 0.0000 2.5686
# 3 52.7547 52.7547 147.1026 0.0000 0.0000 0.0000
# 4 0.0000 0.0000 0.0000 12.6296 0.0000 0.0000
# 5 0.0000 0.0000 0.0000 0.0000 12.6296 0.0000
# 6 -2.5686 2.5686 0.0000 0.0000 0.0000 84.4212
#
#
#
# Elastic Compliance Matrix: (Units=1/GPa)
#
#
# Indices 1 2 3 4 5 6 
#
# 1 0.010428 -0.004742 -0.002039 0.000000 0.000000 0.000462
# 2 -0.004742 0.010428 -0.002039 0.000000 0.000000 -0.000462
# 3 -0.002039 -0.002039 0.008260 0.000000 0.000000 0.000000
# 4 0.000000 0.000000 0.000000 0.079179 0.000000 0.000000
# 5 0.000000 0.000000 0.000000 0.000000 0.079179 0.000000
# 6 0.000462 -0.000462 0.000000 0.000000 0.000000 0.011873
#
#
# Mechanical properties :
#
#
# Convention : Reuss Voigt Hill
#
# Bulk Modulus (GPa) = 87.14315 87.28723 87.21519
# Shear Modulus (GPa) = 22.64366 38.44092 30.54229
#
# Velocity S-wave (km/s) = 2.98536 3.88973 3.46716
# Velocity P-wave (km/s) = 6.79573 7.38436 7.09615
#
# Compressibility (1/GPa) = 0.01147537
#
# Stress axis : x y z
#
# Youngs Moduli (GPa) = 95.89866 95.89866 121.06013
#
# Poissons Ratio (x) = 0.45479 0.24683
# Poissons Ratio (y) = 0.45479 0.24683
# Poissons Ratio (z) = 0.19553 0.19553
#
# Static dielectric constant tensor:
#      x y z
#    x 2.138160 0.000000 0.000000 
#    y 0.000000 2.138160 0.000000 
#    z 0.000000 0.000000 2.028840 
# 
# From -- ./inp_files/907.got.cif
#   From: 2010.05.17/outbox.cif.g08.bks.cpg/sg82_1_cif.got.tgz:907.got - 2010.06.03 18:52:26.
