data_PCOD9543794
_publ_section_title
;
Structure prediction by ZEFSAII (Michael W. Deem and Ramdas Pophale) SiO2 
 PCOD9543794
Probable space group: P 4/M
;
_chemical_formula_sum "Si O2"
_cell_formula_units_Z 44
_cell_length_a 7.824978
_cell_length_b 7.824978
_cell_length_c 31.811267
_cell_angle_alpha 90.000000
_cell_angle_beta 90.000000
_cell_angle_gamma 90.000000
_cell_volume 1947.812808
_symmetry_space_group_name_H-M "P 4/M"
_symmetry_group_IT_number 83
_symmetry_cell_setting 'tetragonal'
loop_
_space_group_symop_operation_xyz
x,y,z
-y,x,z
-x,-y,z
y,-x,z
-x,-y,-z
y,-x,-z
x,y,-z
-y,x,-z
loop_
_atom_site_type_symbol
_atom_site_label
_atom_site_fract_x
_atom_site_fract_y
_atom_site_fract_z
Si Si1 0.000000 0.500000 0.161856
Si Si2 0.767062 0.616514 0.500000
Si Si3 0.385760 0.767578 0.410117
Si Si4 0.109185 0.731013 0.000000
Si Si5 0.605486 0.230995 0.319503
Si Si6 0.103764 0.730137 0.090893
Si Si7 0.091834 0.269070 0.233189
O O1 0.881267 0.389979 0.130770
O O2 0.884222 0.609586 0.193549
O O3 0.584333 0.714605 0.500000
O O4 0.854345 0.653103 0.455035
O O5 0.286193 0.585965 0.410104
O O6 0.353798 0.853034 0.364970
O O7 0.141407 0.646802 0.045227
O O8 0.910267 0.787976 0.000000
O O9 0.711951 0.408016 0.318099
O O10 0.649731 0.125289 0.278470
O O11 0.904920 0.789666 0.092817
O O12 0.897111 0.208161 0.230149
#
# Coordination Sequence:
#
# PCOD9543794 Si02
#       7
#     4   4   8   4   8   8   8
#     4  12  22  33  54  78 102 131 172 220 264 304
#     4   7   8  12  26  54  94 133 162 191 234 288
#     4   7  10  17  33  61  97 132 163 198 242 291
#     4   7  12  27  52  80 110 142 174 206 242 291
#     4   9  17  31  52  78 106 135 170 214 260 306
#     4   9  18  34  56  82 112 144 175 209 251 302
#     4  11  24  40  55  72  98 134 176 221 270 324
#
# _framework density 22.589441999999998
#
# number of rings (size 3 to 8) (size 9 to 14) (size 15 to 20)
#    0.000    3.091    0.000    5.455    0.000    1.818 
#    0.000    0.000    0.000    4.909    0.000    1.273 
#    0.000   26.909    0.000    0.273    0.000    0.182 
#
# Total GULP energy -245528.184729 kJ/mol
# GULP energy per Si atom -5580.186017 kJ/mol
# Density = 2.253803 g / cm^3
# Si number density = 22.589442 Si / 1000 Ang^3
#
#
#
# Elastic Constant Matrix: (Units=GPa)
#
#
# Indices 1 2 3 4 5 6 
#
# 1 47.9960 8.0156 49.4075 0.0000 0.0000 -6.5257
# 2 8.0156 47.9960 49.4075 0.0000 0.0000 6.5257
# 3 49.4075 49.4075 293.9037 0.0000 0.0000 0.0000
# 4 0.0000 0.0000 0.0000 -25.0184 0.0000 0.0000
# 5 0.0000 0.0000 0.0000 0.0000 -25.0184 0.0000
# 6 -6.5257 6.5257 0.0000 0.0000 0.0000 7.3393
#
#
#
# Elastic Compliance Matrix: (Units=1/GPa)
#
#
# Indices 1 2 3 4 5 6 
#
# 1 0.030311 -0.004930 -0.004267 0.000000 0.000000 0.031334
# 2 -0.004930 0.030311 -0.004267 0.000000 0.000000 -0.031334
# 3 -0.004267 -0.004267 0.004837 0.000000 0.000000 0.000000
# 4 0.000000 0.000000 0.000000 -0.039971 0.000000 0.000000
# 5 0.000000 0.000000 0.000000 0.000000 -0.039971 0.000000
# 6 0.031334 -0.031334 0.000000 0.000000 0.000000 0.191973
#
#
# Mechanical properties :
#
#
# Convention : Reuss Voigt Hill
#
# Bulk Modulus (GPa) = 25.95272 67.06188 46.50730
# Shear Modulus (GPa) = 23.01366 10.33151 16.67259
#
# Velocity S-wave (km/s) = 3.19530 2.14092 2.71969
# Velocity P-wave (km/s) = 5.01269 5.98858 5.52223
#
# Compressibility (1/GPa) = 0.03853161
#
# Stress axis : x y z
#
# Youngs Moduli (GPa) = 32.99135 32.99135 206.73956
#
# Poissons Ratio (x) = 0.16266 0.88209
# Poissons Ratio (y) = 0.16266 0.88209
# Poissons Ratio (z) = 0.14076 0.14076
#
# Static dielectric constant tensor:
#      x y z
#    x 1.860430 0.000000 0.000000 
#    y 0.000000 1.860430 0.000000 
#    z 0.000000 0.000000 1.904920 
# 
# From -- ./inp_files/3388.got.cif
#   From: 2010.05.17/outbox.cif.g08.bks.cpg/sg83_2_cif.got.tgz:3388.got - 2010.06.03 18:55:12.
