data_PCOD9543354
_publ_section_title
;
Structure prediction by ZEFSAII (Michael W. Deem and Ramdas Pophale) SiO2 
 PCOD9543354
Probable space group: P 4/M
;
_chemical_formula_sum "Si O2"
_cell_formula_units_Z 37
_cell_length_a 12.486646
_cell_length_b 12.486646
_cell_length_c 13.676076
_cell_angle_alpha 90.000000
_cell_angle_beta 90.000000
_cell_angle_gamma 90.000000
_cell_volume 2132.323556
_symmetry_space_group_name_H-M "P 4/M"
_symmetry_group_IT_number 83
_symmetry_cell_setting 'tetragonal'
loop_
_space_group_symop_operation_xyz
x,y,z
-y,x,z
-x,-y,z
y,-x,z
-x,-y,-z
y,-x,-z
x,y,-z
-y,x,-z
loop_
_atom_site_type_symbol
_atom_site_label
_atom_site_fract_x
_atom_site_fract_y
_atom_site_fract_z
Si Si1 0.593534 0.225408 0.797679
Si Si2 0.367720 0.230283 0.293524
Si Si3 0.320281 0.471228 0.000000
Si Si4 0.500000 0.500000 0.500000
Si Si5 0.384816 0.938016 0.500000
Si Si6 0.629756 0.007008 0.713598
Si Si7 0.309473 0.328105 0.500000
O O1 0.495981 0.235512 0.720029
O O2 0.679177 0.315696 0.773028
O O3 0.544935 0.248425 0.903741
O O4 0.648330 0.109681 0.781657
O O5 0.330879 0.256747 0.403450
O O6 0.333086 0.111726 0.259776
O O7 0.415059 0.381831 0.000000
O O8 0.392587 0.424666 0.500000
O O9 0.332830 0.970741 0.602888
O O10 0.379998 0.809183 0.500000
O O11 0.500000 0.000000 0.500000
O O12 0.500000 0.000000 0.711482
#
# Coordination Sequence:
#
# PCOD9543354 Si02
#       7
#     8   8   4   1   4   8   4
#     4  11  21  38  58  84 114 152 193 238 292 349
#     4  11  22  36  57  85 120 153 192 231 288 345
#     4  11  22  38  59  85 121 154 183 234 303 365
#     4  12  28  28  40  84 128 142 188 224 280 316
#     4  10  19  35  55  74 114 160 197 221 274 337
#     4   9  20  35  55  79 113 156 192 234 279 338
#     4  12  23  37  53  88 123 160 189 234 277 361
#
# _framework density 17.351962
#
# number of rings (size 3 to 8) (size 9 to 14) (size 15 to 20)
#    0.000    1.405    4.324    1.946    6.054    0.432 
#    0.000    5.946    0.000    0.649    0.000    1.514 
#    0.000    1.730    0.000    0.000    0.000    0.000 
#
# Total GULP energy -206014.679250 kJ/mol
# GULP energy per Si atom -5567.964304 kJ/mol
# Density = 1.731247 g / cm^3
# Si number density = 17.351962 Si / 1000 Ang^3
#
#
#
# Elastic Constant Matrix: (Units=GPa)
#
#
# Indices 1 2 3 4 5 6 
#
# 1 94.2642 24.6264 7.7558 0.0000 0.0000 0.7192
# 2 24.6264 94.2642 7.7558 0.0000 0.0000 -0.7192
# 3 7.7558 7.7558 72.8350 0.0000 0.0000 0.0000
# 4 0.0000 0.0000 0.0000 10.7283 0.0000 0.0000
# 5 0.0000 0.0000 0.0000 0.0000 10.7283 0.0000
# 6 0.7192 -0.7192 0.0000 0.0000 0.0000 7.3304
#
#
#
# Elastic Compliance Matrix: (Units=1/GPa)
#
#
# Indices 1 2 3 4 5 6 
#
# 1 0.011459 -0.002930 -0.000908 0.000000 0.000000 -0.001412
# 2 -0.002930 0.011459 -0.000908 0.000000 0.000000 0.001412
# 3 -0.000908 -0.000908 0.013923 0.000000 0.000000 0.000000
# 4 0.000000 0.000000 0.000000 0.093211 0.000000 0.000000
# 5 0.000000 0.000000 0.000000 0.000000 0.093211 0.000000
# 6 -0.001412 0.001412 0.000000 0.000000 0.000000 0.136695
#
#
# Mechanical properties :
#
#
# Convention : Reuss Voigt Hill
#
# Bulk Modulus (GPa) = 36.56413 37.95993 37.26203
# Shear Modulus (GPa) = 13.20768 20.50578 16.85673
#
# Velocity S-wave (km/s) = 2.76191 3.44140 3.12021
# Velocity P-wave (km/s) = 5.59363 6.14125 5.87382
#
# Compressibility (1/GPa) = 0.02734921
#
# Stress axis : x y z
#
# Youngs Moduli (GPa) = 87.26468 87.26468 71.82313
#
# Poissons Ratio (x) = 0.25567 0.06523
# Poissons Ratio (y) = 0.25567 0.06523
# Poissons Ratio (z) = 0.07926 0.07926
#
# Static dielectric constant tensor:
#      x y z
#    x 1.614060 0.000000 0.000000 
#    y 0.000000 1.614060 0.000000 
#    z 0.000000 0.000000 1.611840 
# 
# From -- ./inp_files/2314.got.cif
#   From: 2010.05.17/outbox.cif.g08.bks.cpg/sg83_2_cif.got.tgz:2314.got - 2010.06.03 18:55:12.
