data_PCOD9543535
_publ_section_title
;
Structure prediction by ZEFSAII (Michael W. Deem and Ramdas Pophale) SiO2 
 PCOD9543535
Probable space group: P 4/M
;
_chemical_formula_sum "Si O2"
_cell_formula_units_Z 48
_cell_length_a 8.229517
_cell_length_b 8.229517
_cell_length_c 33.579370
_cell_angle_alpha 90.000000
_cell_angle_beta 90.000000
_cell_angle_gamma 90.000000
_cell_volume 2274.161156
_symmetry_space_group_name_H-M "P 4/M"
_symmetry_group_IT_number 83
_symmetry_cell_setting 'tetragonal'
loop_
_space_group_symop_operation_xyz
x,y,z
-y,x,z
-x,-y,z
y,-x,z
-x,-y,-z
y,-x,-z
x,y,-z
-y,x,-z
loop_
_atom_site_type_symbol
_atom_site_label
_atom_site_fract_x
_atom_site_fract_y
_atom_site_fract_z
Si Si1 0.081554 0.262016 0.617892
Si Si2 0.000000 0.500000 0.067225
Si Si3 0.919858 0.262654 0.000000
Si Si4 0.582636 0.238582 0.220409
Si Si5 0.238037 0.418377 0.456086
Si Si6 0.918601 0.738060 0.705640
Si Si7 0.239236 0.415347 0.132037
O O1 0.127388 0.372474 0.580883
O O2 0.107980 0.336981 0.661776
O O3 0.898533 0.194981 0.615779
O O4 0.114198 0.395630 0.096383
O O5 0.902017 0.378506 0.038358
O O6 0.804214 0.106096 0.000000
O O7 0.695384 0.399387 0.222726
O O8 0.628356 0.126933 0.257196
O O9 0.609060 0.166698 0.176257
O O10 0.398589 0.304986 0.453944
O O11 0.163431 0.392022 0.500000
O O12 0.101553 0.805054 0.707669
O O13 0.398880 0.303884 0.129328
#
# Coordination Sequence:
#
# PCOD9543535 Si02
#       7
#     8   4   4   8   8   8   8
#     4   9  19  35  52  72 100 132 167 209 255 303
#     4  11  20  34  60  82 102 146 188 214 263 322
#     4  10  22  38  54  80 116 144 176 226 272 312
#     4   9  19  34  51  74 104 135 168 211 260 305
#     4   9  19  35  52  72 100 131 164 207 258 310
#     4   9  19  35  52  72 101 135 171 211 253 303
#     4   9  19  35  53  77 108 137 173 221 263 307
#
# _framework density 21.106681999999999
#
# number of rings (size 3 to 8) (size 9 to 14) (size 15 to 20)
#    0.000    2.750    0.000    3.500    0.000    6.000 
#    0.000    7.500    0.000    6.000    0.000    0.000 
#    0.000    0.000    0.000    0.000    0.000    0.000 
#
# Total GULP energy -268214.689126 kJ/mol
# GULP energy per Si atom -5587.806023 kJ/mol
# Density = 2.105864 g / cm^3
# Si number density = 21.106682 Si / 1000 Ang^3
#
#
#
# Elastic Constant Matrix: (Units=GPa)
#
#
# Indices 1 2 3 4 5 6 
#
# 1 41.1917 14.4358 50.7831 0.0000 0.0000 -1.7235
# 2 14.4358 41.1917 50.7831 0.0000 0.0000 1.7235
# 3 50.7831 50.7831 212.1073 0.0000 0.0000 0.0000
# 4 0.0000 0.0000 0.0000 51.7201 0.0000 0.0000
# 5 0.0000 0.0000 0.0000 0.0000 51.7201 0.0000
# 6 -1.7235 1.7235 0.0000 0.0000 0.0000 32.8084
#
#
#
# Elastic Compliance Matrix: (Units=1/GPa)
#
#
# Indices 1 2 3 4 5 6 
#
# 1 0.034784 -0.002846 -0.007647 0.000000 0.000000 0.001977
# 2 -0.002846 0.034784 -0.007647 0.000000 0.000000 -0.001977
# 3 -0.007647 -0.007647 0.008376 0.000000 0.000000 0.000000
# 4 0.000000 0.000000 0.000000 0.019335 0.000000 0.000000
# 5 0.000000 0.000000 0.000000 0.000000 0.019335 0.000000
# 6 0.001977 -0.001977 0.000000 0.000000 0.000000 0.030688
#
#
# Mechanical properties :
#
#
# Convention : Reuss Voigt Hill
#
# Bulk Modulus (GPa) = 24.00039 58.49940 41.24989
# Shear Modulus (GPa) = 25.32051 39.14898 32.23475
#
# Velocity S-wave (km/s) = 3.46735 4.31143 3.91222
# Velocity P-wave (km/s) = 5.23695 7.24988 6.32402
#
# Compressibility (1/GPa) = 0.04166599
#
# Stress axis : x y z
#
# Youngs Moduli (GPa) = 28.74886 28.74886 119.38597
#
# Poissons Ratio (x) = 0.08181 0.91291
# Poissons Ratio (y) = 0.08181 0.91291
# Poissons Ratio (z) = 0.21984 0.21984
#
# Static dielectric constant tensor:
#      x y z
#    x 1.780220 0.000000 0.000000 
#    y 0.000000 1.780220 0.000000 
#    z 0.000000 0.000000 1.758620 
# 
# From -- ./inp_files/3443.got.cif
#   From: 2010.05.17/outbox.cif.g08.bks.cpg/sg83_2_cif.got.tgz:3443.got - 2010.06.03 18:55:12.
