data_PCOD9543033
_publ_section_title
;
Structure prediction by ZEFSAII (Michael W. Deem and Ramdas Pophale) SiO2 
 PCOD9543033
Probable space group: I -4 
;
_chemical_formula_sum "Si O2"
_cell_formula_units_Z 26
_cell_length_a 8.821910
_cell_length_b 8.821910
_cell_length_c 15.110295
_cell_angle_alpha 90.000000
_cell_angle_beta 90.000000
_cell_angle_gamma 90.000000
_cell_volume 1175.975270
_symmetry_space_group_name_H-M "I -4 "
_symmetry_group_IT_number 82
_symmetry_cell_setting 'tetragonal'
loop_
_space_group_symop_operation_xyz
x,y,z
y,-x,-z
-x,-y,z
-y,x,-z
1/2+x,1/2+y,1/2+z
1/2+y,1/2-x,1/2-z
1/2-x,1/2-y,1/2+z
1/2-y,1/2+x,1/2-z
loop_
_atom_site_type_symbol
_atom_site_label
_atom_site_fract_x
_atom_site_fract_y
_atom_site_fract_z
Si Si1 0.301691 0.244244 0.095636
Si Si2 0.533474 0.166878 0.554695
Si Si3 0.500000 0.500000 0.000000
Si Si4 0.195805 0.343439 0.271356
O O1 0.126342 0.252223 0.063324
O O2 0.021394 0.292507 0.256373
O O3 0.396938 0.387100 0.058732
O O4 0.355624 0.098532 0.042384
O O5 0.655978 0.233319 0.624467
O O6 0.500000 0.000000 0.592035
O O7 0.751009 0.203607 0.298366
#
# Coordination Sequence:
#
# PCOD9543033 Si02
#       4
#     8   8   2   8
#     4  11  22  36  65  95 127 170 222 269 319 394
#     4  11  20  39  64  92 131 167 218 271 325 380
#     4  12  20  36  60 100 124 178 216 260 332 404
#     4   9  15  34  61  88 114 168 215 250 305 392
#
# _framework density 22.109310000000001
#
# number of rings (size 3 to 8) (size 9 to 14) (size 15 to 20)
#    0.000    1.538    9.231    0.000    0.000    0.615 
#    0.000    9.231    0.000    0.000    0.000    0.000 
#    0.000    0.000    0.000    0.000    0.000    0.000 
#
# Total GULP energy -72481.931696 kJ/mol
# GULP energy per Si atom -5575.533207 kJ/mol
# Density = 2.205899 g / cm^3
# Si number density = 22.109310 Si / 1000 Ang^3
#
#
#
# Elastic Constant Matrix: (Units=GPa)
#
#
# Indices 1 2 3 4 5 6 
#
# 1 37.2042 5.4409 32.7919 0.0000 0.0000 0.7826
# 2 5.4409 37.2042 32.7919 0.0000 0.0000 -0.7826
# 3 32.7919 32.7919 93.6352 0.0000 0.0000 0.0000
# 4 0.0000 0.0000 0.0000 15.2238 0.0000 0.0000
# 5 0.0000 0.0000 0.0000 0.0000 15.2238 0.0000
# 6 0.7826 -0.7826 0.0000 0.0000 0.0000 20.3915
#
#
#
# Elastic Compliance Matrix: (Units=1/GPa)
#
#
# Indices 1 2 3 4 5 6 
#
# 1 0.041182 0.009639 -0.017798 0.000000 0.000000 -0.001211
# 2 0.009639 0.041182 -0.017798 0.000000 0.000000 0.001211
# 3 -0.017798 -0.017798 0.023146 0.000000 0.000000 0.000000
# 4 0.000000 0.000000 0.000000 0.065687 0.000000 0.000000
# 5 0.000000 0.000000 0.000000 0.000000 0.065687 0.000000
# 6 -0.001211 0.001211 0.000000 0.000000 0.000000 0.049133
#
#
# Mechanical properties :
#
#
# Convention : Reuss Voigt Hill
#
# Bulk Modulus (GPa) = 18.65828 34.45479 26.55654
# Shear Modulus (GPa) = 14.05309 16.63574 15.34442
#
# Velocity S-wave (km/s) = 2.52388 2.74602 2.63729
# Velocity P-wave (km/s) = 4.11713 5.06674 4.61642
#
# Compressibility (1/GPa) = 0.05359550
#
# Stress axis : x y z
#
# Youngs Moduli (GPa) = 24.28273 24.28273 43.20460
#
# Poissons Ratio (x) = -0.23406 0.76895
# Poissons Ratio (y) = -0.23406 0.76895
# Poissons Ratio (z) = 0.43218 0.43218
#
# Static dielectric constant tensor:
#      x y z
#    x 2.821170 0.000000 0.000000 
#    y 0.000000 2.821170 0.000000 
#    z 0.000000 0.000000 1.872310 
# 
# From -- ./inp_files/2431.got.cif
#   From: 2010.05.17/outbox.cif.g08.bks.cpg/sg82_2_cif.got.tgz:2431.got - 2010.06.03 18:52:26.
