data_PCOD9543283
_publ_section_title
;
Structure prediction by ZEFSAII (Michael W. Deem and Ramdas Pophale) SiO2 
 PCOD9543283
Probable space group: P 4/M
;
_chemical_formula_sum "Si O2"
_cell_formula_units_Z 64
_cell_length_a 18.383285
_cell_length_b 18.383285
_cell_length_c 7.381586
_cell_angle_alpha 90.000000
_cell_angle_beta 90.000000
_cell_angle_gamma 90.000000
_cell_volume 2494.571316
_symmetry_space_group_name_H-M "P 4/M"
_symmetry_group_IT_number 83
_symmetry_cell_setting 'tetragonal'
loop_
_space_group_symop_operation_xyz
x,y,z
-y,x,z
-x,-y,z
y,-x,z
-x,-y,-z
y,-x,-z
x,y,-z
-y,x,-z
loop_
_atom_site_type_symbol
_atom_site_label
_atom_site_fract_x
_atom_site_fract_y
_atom_site_fract_z
Si Si1 0.035647 0.887663 0.220977
Si Si2 0.274504 0.861129 0.280549
Si Si3 0.387743 0.473195 0.216695
Si Si4 0.769176 0.369101 0.293948
Si Si5 0.638724 0.278035 0.285387
Si Si6 0.031101 0.386136 0.720490
Si Si7 0.888364 0.467996 0.721743
Si Si8 0.231863 0.136823 0.793656
O O1 0.067343 0.810575 0.284589
O O2 0.954765 0.911680 0.275776
O O3 0.036517 0.885548 0.000000
O O4 0.267742 0.861818 0.500000
O O5 0.335104 0.800759 0.225435
O O6 0.309078 0.937088 0.219938
O O7 0.199296 0.830721 0.206856
O O8 0.448712 0.415277 0.283158
O O9 0.309178 0.441319 0.259910
O O10 0.391790 0.476262 0.000000
O O11 0.750909 0.389563 0.500000
O O12 0.697074 0.335763 0.206675
O O13 0.812364 0.436371 0.211461
O O14 0.826165 0.301196 0.299225
O O15 0.650705 0.275966 0.500000
O O16 0.031045 0.385452 0.500000
O O17 0.084402 0.452508 0.774768
O O18 0.951487 0.411332 0.776529
O O19 0.885910 0.468303 0.500000
O O20 0.253695 0.122419 0.000000
#
# Coordination Sequence:
#
# PCOD9543283 Si02
#       8
#     8   8   8   8   8   8   8   8
#     4   8  15  29  47  66  90 121 157 195 232 270
#     4   9  18  32  48  68  96 125 151 185 229 271
#     4   9  19  35  51  67  90 119 149 184 229 278
#     4   9  18  32  48  68  96 125 151 185 229 271
#     4   9  18  30  45  67  93 121 154 190 225 263
#     4   8  14  26  46  71  95 120 153 189 223 265
#     4   8  14  26  46  71  95 120 153 189 223 265
#     4  10  19  30  47  70  93 119 154 193 229 271
#
# _framework density 25.655711
#
# number of rings (size 3 to 8) (size 9 to 14) (size 15 to 20)
#    0.000    3.250    0.000    2.625    0.000    4.500 
#    0.000    3.125    0.000    3.000    0.000    5.250 
#    0.000    0.000    0.000    0.000    0.000    0.000 
#
# Total GULP energy -357502.743139 kJ/mol
# GULP energy per Si atom -5585.980362 kJ/mol
# Density = 2.559732 g / cm^3
# Si number density = 25.655711 Si / 1000 Ang^3
#
#
#
# Elastic Constant Matrix: (Units=GPa)
#
#
# Indices 1 2 3 4 5 6 
#
# 1 43.3461 81.4449 -6.1152 0.0000 0.0000 2.6932
# 2 81.4449 43.3461 -6.1152 0.0000 0.0000 -2.6932
# 3 -6.1152 -6.1152 95.9211 0.0000 0.0000 0.0000
# 4 0.0000 0.0000 0.0000 2.0512 0.0000 0.0000
# 5 0.0000 0.0000 0.0000 0.0000 2.0512 0.0000
# 6 2.6932 -2.6932 0.0000 0.0000 0.0000 68.5169
#
#
#
# Elastic Compliance Matrix: (Units=1/GPa)
#
#
# Indices 1 2 3 4 5 6 
#
# 1 -0.009019 0.017083 0.000514 0.000000 0.000000 0.001026
# 2 0.017083 -0.009019 0.000514 0.000000 0.000000 -0.001026
# 3 0.000514 0.000514 0.010491 0.000000 0.000000 0.000000
# 4 0.000000 0.000000 0.000000 0.487523 0.000000 0.000000
# 5 0.000000 0.000000 0.000000 0.000000 0.487523 0.000000
# 6 0.001026 -0.001026 0.000000 0.000000 0.000000 0.014514
#
#
# Mechanical properties :
#
#
# Convention : Reuss Voigt Hill
#
# Bulk Modulus (GPa) = 34.87394 35.67135 35.27264
# Shear Modulus (GPa) = 5.23369 22.08377 13.65873
#
# Velocity S-wave (km/s) = 1.42983 2.93708 2.30985
# Velocity P-wave (km/s) = 4.04332 5.04341 4.57080
#
# Compressibility (1/GPa) = 0.02867471
#
# Stress axis : x y z
#
# Youngs Moduli (GPa) = -110.87273 -110.87273 95.32174
#
# Poissons Ratio (x) = 1.89405 -0.04900
# Poissons Ratio (y) = 1.89405 -0.04900
# Poissons Ratio (z) = 0.05700 0.05700
#
# Static dielectric constant tensor:
#      x y z
#    x 2.002760 0.000000 0.000000 
#    y 0.000000 2.002760 0.000000 
#    z 0.000000 0.000000 1.977340 
# 
# From -- ./inp_files/1303.got.cif
#   From: 2010.05.17/outbox.cif.g08.bks.cpg/sg83_1_cif.got.tgz:1303.got - 2010.06.03 18:55:12.
