data_PCOD9543869
_publ_section_title
;
Structure prediction by ZEFSAII (Michael W. Deem and Ramdas Pophale) SiO2 
 PCOD9543869
Probable space group: P 4/M
;
_chemical_formula_sum "Si O2"
_cell_formula_units_Z 32
_cell_length_a 10.680796
_cell_length_b 10.680796
_cell_length_c 13.546499
_cell_angle_alpha 90.000000
_cell_angle_beta 90.000000
_cell_angle_gamma 90.000000
_cell_volume 1545.376521
_symmetry_space_group_name_H-M "P 4/M"
_symmetry_group_IT_number 83
_symmetry_cell_setting 'tetragonal'
loop_
_space_group_symop_operation_xyz
x,y,z
-y,x,z
-x,-y,z
y,-x,z
-x,-y,-z
y,-x,-z
x,y,-z
-y,x,-z
loop_
_atom_site_type_symbol
_atom_site_label
_atom_site_fract_x
_atom_site_fract_y
_atom_site_fract_z
Si Si1 0.993027 0.788323 0.108711
Si Si2 0.790791 0.996090 0.500000
Si Si3 0.950426 0.360344 0.302668
Si Si4 0.692568 0.413028 0.000000
Si Si5 0.590510 0.692125 0.218627
O O1 0.993276 0.702114 0.204033
O O2 0.876596 0.884304 0.112858
O O3 0.988846 0.725845 0.000000
O O4 0.711443 0.990679 0.400405
O O5 0.882252 0.877171 0.500000
O O6 0.799495 0.364663 0.291695
O O7 0.000000 0.500000 0.307610
O O8 0.658555 0.559817 0.000000
O O9 0.747294 0.387330 0.107607
O O10 0.441939 0.660111 0.227978
#
# Coordination Sequence:
#
# PCOD9543869 Si02
#       5
#     8   4   8   4   8
#     4   9  20  41  66  94 134 181 223 267 322 376
#     4  11  27  52  78  91 114 166 220 269 331 388
#     4  12  26  40  66 102 131 159 211 279 322 379
#     4   7  12  30  55  80 120 175 224 238 266 359
#     4   9  20  38  60  90 133 183 215 247 312 385
#
# _framework density 20.706928000000001
#
# number of rings (size 3 to 8) (size 9 to 14) (size 15 to 20)
#    0.000    2.250    0.000    4.125    8.750    2.500 
#    0.000    0.000    0.000    1.500    0.000    0.000 
#    0.000    0.000    0.000    0.000    0.000    0.000 
#
# Total GULP energy -178856.713179 kJ/mol
# GULP energy per Si atom -5589.272287 kJ/mol
# Density = 2.065980 g / cm^3
# Si number density = 20.706928 Si / 1000 Ang^3
#
#
#
# Elastic Constant Matrix: (Units=GPa)
#
#
# Indices 1 2 3 4 5 6 
#
# 1 24.5962 68.3550 59.9093 0.0000 0.0000 61.0916
# 2 68.3550 24.5962 59.9093 0.0000 0.0000 -61.0916
# 3 59.9093 59.9093 177.2576 0.0000 0.0000 0.0000
# 4 0.0000 0.0000 0.0000 -322.9972 0.0000 0.0000
# 5 0.0000 0.0000 0.0000 0.0000 -322.9972 0.0000
# 6 61.0916 -61.0916 0.0000 0.0000 0.0000 -56.0537
#
#
#
# Elastic Compliance Matrix: (Units=1/GPa)
#
#
# Indices 1 2 3 4 5 6 
#
# 1 0.015124 0.003939 -0.006443 0.000000 0.000000 0.012190
# 2 0.003939 0.015124 -0.006443 0.000000 0.000000 -0.012190
# 3 -0.006443 -0.006443 0.009997 0.000000 0.000000 0.000000
# 4 0.000000 0.000000 0.000000 -0.003096 0.000000 0.000000
# 5 0.000000 0.000000 0.000000 0.000000 -0.003096 0.000000
# 6 0.012190 -0.012190 0.000000 0.000000 0.000000 0.008732
#
#
# Mechanical properties :
#
#
# Convention : Reuss Voigt Hill
#
# Bulk Modulus (GPa) = 44.73894 66.97745 55.85820
# Shear Modulus (GPa) = 73.38930 -137.85785 -32.23427
#
# Velocity S-wave (km/s) = 5.95977 -8.16825 -3.94977
# Velocity P-wave (km/s) = 8.30730 7.51962 2.49665
#
# Compressibility (1/GPa) = 0.02235189
#
# Stress axis : x y z
#
# Youngs Moduli (GPa) = 66.11815 66.11815 100.03163
#
# Poissons Ratio (x) = -0.26047 0.64452
# Poissons Ratio (y) = -0.26047 0.64452
# Poissons Ratio (z) = 0.42601 0.42601
#
# Static dielectric constant tensor:
#      x y z
#    x 1.743000 0.000000 0.000000 
#    y 0.000000 1.743000 0.000000 
#    z 0.000000 0.000000 1.727140 
# 
# From -- ./inp_files/1547.got.cif
#   From: 2010.05.17/outbox.cif.g08.bks.cpg/sg83_1_cif.got.tgz:1547.got - 2010.06.03 18:55:12.
