data_PCOD9543146
_publ_section_title
;
Structure prediction by ZEFSAII (Michael W. Deem and Ramdas Pophale) SiO2 
 PCOD9543146
Probable space group: I -4 
;
_chemical_formula_sum "Si O2"
_cell_formula_units_Z 52
_cell_length_a 19.005778
_cell_length_b 19.005778
_cell_length_c 5.303220
_cell_angle_alpha 90.000000
_cell_angle_beta 90.000000
_cell_angle_gamma 90.000000
_cell_volume 1915.626993
_symmetry_space_group_name_H-M "I -4 "
_symmetry_group_IT_number 82
_symmetry_cell_setting 'tetragonal'
loop_
_space_group_symop_operation_xyz
x,y,z
y,-x,-z
-x,-y,z
-y,x,-z
1/2+x,1/2+y,1/2+z
1/2+y,1/2-x,1/2-z
1/2-x,1/2-y,1/2+z
1/2-y,1/2+x,1/2-z
loop_
_atom_site_type_symbol
_atom_site_label
_atom_site_fract_x
_atom_site_fract_y
_atom_site_fract_z
Si Si1 0.818258 0.236343 0.078497
Si Si2 0.000000 0.000000 0.500000
Si Si3 0.000000 0.500000 0.750000
Si Si4 0.628126 0.752778 0.152738
Si Si5 0.842873 0.030242 0.637565
Si Si6 0.467462 0.200010 0.546457
Si Si7 0.569676 0.121971 0.908360
Si Si8 0.901997 0.233108 0.593243
O O1 0.787587 0.312070 0.016286
O O2 0.869502 0.214135 0.857827
O O3 0.761759 0.174298 0.097856
O O4 0.853002 0.234207 0.349429
O O5 0.020438 0.072202 0.342109
O O6 0.026692 0.561129 0.557716
O O7 0.561435 0.795738 0.258824
O O8 0.597710 0.682664 0.022356
O O9 0.782082 0.029588 0.859418
O O10 0.818025 0.965070 0.468857
O O11 0.535880 0.160720 0.663510
O O12 0.411525 0.144574 0.662800
O O13 0.578437 0.184770 0.107590
#
# Coordination Sequence:
#
# PCOD9543146 Si02
#       8
#     8   2   2   8   8   8   8   8
#     4  12  27  50  81 125 164 224 277 375 430 527
#     4  12  28  60  86 116 172 230 296 382 468 530
#     4  12  28  46  76 124 182 248 286 332 462 516
#     4  12  28  48  84 122 169 222 294 361 446 530
#     4  11  29  52  84 122 168 230 295 373 446 537
#     4  11  26  50  81 123 169 226 296 352 445 526
#     4  11  25  46  76 118 176 230 282 361 419 539
#     4  11  27  49  84 119 172 217 296 351 448 510
#
# _framework density 27.145161999999999
#
# number of rings (size 3 to 8) (size 9 to 14) (size 15 to 20)
#    0.000    0.615    1.538    3.692   15.077    1.231 
#    0.000    0.769    0.000    0.000    0.000    0.000 
#    0.000    0.000    0.000    0.000    0.000    0.000 
#
# Total GULP energy -145381.179604 kJ/mol
# GULP energy per Si atom -5591.583831 kJ/mol
# Density = 2.708338 g / cm^3
# Si number density = 27.145162 Si / 1000 Ang^3
#
#
#
# Elastic Constant Matrix: (Units=GPa)
#
#
# Indices 1 2 3 4 5 6 
#
# 1 158.6517 40.7945 37.9297 0.0000 0.0000 -14.7585
# 2 40.7945 158.6517 37.9297 0.0000 0.0000 14.7585
# 3 37.9297 37.9297 106.4052 0.0000 0.0000 0.0000
# 4 0.0000 0.0000 0.0000 51.1409 0.0000 0.0000
# 5 0.0000 0.0000 0.0000 0.0000 51.1409 0.0000
# 6 -14.7585 14.7585 0.0000 0.0000 0.0000 54.8295
#
#
#
# Elastic Compliance Matrix: (Units=1/GPa)
#
#
# Indices 1 2 3 4 5 6 
#
# 1 0.007449 -0.001649 -0.002068 0.000000 0.000000 0.002449
# 2 -0.001649 0.007449 -0.002068 0.000000 0.000000 -0.002449
# 3 -0.002068 -0.002068 0.010872 0.000000 0.000000 0.000000
# 4 0.000000 0.000000 0.000000 0.019554 0.000000 0.000000
# 5 0.000000 0.000000 0.000000 0.000000 0.019554 0.000000
# 6 0.002449 -0.002449 0.000000 0.000000 0.000000 0.019557
#
#
# Mechanical properties :
#
#
# Convention : Reuss Voigt Hill
#
# Bulk Modulus (GPa) = 70.41123 73.00182 71.70653
# Shear Modulus (GPa) = 49.63404 51.89259 50.76331
#
# Velocity S-wave (km/s) = 4.28070 4.37701 4.32912
# Velocity P-wave (km/s) = 7.10124 7.24540 7.17368
#
# Compressibility (1/GPa) = 0.01420228
#
# Stress axis : x y z
#
# Youngs Moduli (GPa) = 134.24194 134.24194 91.97862
#
# Poissons Ratio (x) = 0.22136 0.19018
# Poissons Ratio (y) = 0.22136 0.19018
# Poissons Ratio (z) = 0.27756 0.27756
#
# Static dielectric constant tensor:
#      x y z
#    x 2.224840 0.000000 0.000000 
#    y 0.000000 2.224840 0.000000 
#    z 0.000000 0.000000 2.189520 
# 
# From -- ./inp_files/401.got.cif
#   From: 2010.05.17/outbox.cif.g08.bks.cpg/sg82_1_cif.got.tgz:401.got - 2010.06.03 18:52:26.
