data_PCOD9543305
_publ_section_title
;
Structure prediction by ZEFSAII (Michael W. Deem and Ramdas Pophale) SiO2 
 PCOD9543305
Probable space group: P 4/M
;
_chemical_formula_sum "Si O2"
_cell_formula_units_Z 52
_cell_length_a 16.592782
_cell_length_b 16.592782
_cell_length_c 7.698706
_cell_angle_alpha 90.000000
_cell_angle_beta 90.000000
_cell_angle_gamma 90.000000
_cell_volume 2119.610927
_symmetry_space_group_name_H-M "P 4/M"
_symmetry_group_IT_number 83
_symmetry_cell_setting 'tetragonal'
loop_
_space_group_symop_operation_xyz
x,y,z
-y,x,z
-x,-y,z
y,-x,z
-x,-y,-z
y,-x,-z
x,y,-z
-y,x,-z
loop_
_atom_site_type_symbol
_atom_site_label
_atom_site_fract_x
_atom_site_fract_y
_atom_site_fract_z
Si Si1 0.029057 0.125121 0.787727
Si Si2 0.139767 0.255332 0.798369
Si Si3 0.369498 0.528687 0.000000
Si Si4 0.291188 0.154008 0.303829
Si Si5 0.213820 0.418994 0.698109
Si Si6 0.917425 0.454297 0.286619
Si Si7 0.626867 0.671843 0.305740
O O1 0.059416 0.211818 0.731731
O O2 0.943047 0.092650 0.731838
O O3 0.029000 0.126126 0.000000
O O4 0.210102 0.186327 0.788338
O O5 0.161929 0.336099 0.699013
O O6 0.131848 0.277749 0.000000
O O7 0.410343 0.444133 0.000000
O O8 0.325508 0.552664 0.175755
O O9 0.269543 0.128599 0.500000
O O10 0.360680 0.094590 0.230014
O O11 0.339409 0.238447 0.316639
O O12 0.230227 0.443895 0.500000
O O13 0.156850 0.488614 0.774098
O O14 0.298890 0.382905 0.763737
O O15 0.915333 0.452069 0.500000
O O16 0.000000 0.500000 0.237400
O O17 0.604863 0.644335 0.500000
#
# Coordination Sequence:
#
# PCOD9543305 Si02
#       7
#     8   8   4   8   8   8   8
#     4   8  15  29  48  70  99 137 177 213 257 321
#     4  10  19  31  51  80 105 136 178 224 274 318
#     4  11  26  40  54  88 118 140 184 239 294 342
#     4   9  19  35  54  78 106 140 184 222 268 336
#     4   9  19  35  54  78 106 140 184 222 268 336
#     4   9  18  34  57  83 109 140 182 227 274 334
#     4   9  20  38  60  82 109 154 196 228 275 343
#
# _framework density 24.532806999999998
#
# number of rings (size 3 to 8) (size 9 to 14) (size 15 to 20)
#    0.000    2.846    0.000    1.846    6.462    1.846 
#    0.000    1.538    0.000    3.692    0.000    4.308 
#    0.000    0.000    0.000    0.000    0.000    0.000 
#
# Total GULP energy -290136.287176 kJ/mol
# GULP energy per Si atom -5579.543984 kJ/mol
# Density = 2.447697 g / cm^3
# Si number density = 24.532807 Si / 1000 Ang^3
#
#
#
# Elastic Constant Matrix: (Units=GPa)
#
#
# Indices 1 2 3 4 5 6 
#
# 1 60.9711 26.4038 0.6962 0.0000 0.0000 9.1228
# 2 26.4038 60.9711 0.6962 0.0000 0.0000 -9.1228
# 3 0.6962 0.6962 50.7533 0.0000 0.0000 0.0000
# 4 0.0000 0.0000 0.0000 18.4286 0.0000 0.0000
# 5 0.0000 0.0000 0.0000 0.0000 18.4286 0.0000
# 6 9.1228 -9.1228 0.0000 0.0000 0.0000 53.4138
#
#
#
# Elastic Compliance Matrix: (Units=1/GPa)
#
#
# Indices 1 2 3 4 5 6 
#
# 1 0.021621 -0.010174 -0.000157 0.000000 0.000000 -0.005430
# 2 -0.010174 0.021621 -0.000157 0.000000 0.000000 0.005430
# 3 -0.000157 -0.000157 0.019707 0.000000 0.000000 0.000000
# 4 0.000000 0.000000 0.000000 0.054264 0.000000 0.000000
# 5 0.000000 0.000000 0.000000 0.000000 0.054264 0.000000
# 6 -0.005430 0.005430 0.000000 0.000000 0.000000 0.020577
#
#
# Mechanical properties :
#
#
# Convention : Reuss Voigt Hill
#
# Bulk Modulus (GPa) = 23.82415 25.36533 24.59474
# Shear Modulus (GPa) = 22.02433 27.71415 24.86924
#
# Velocity S-wave (km/s) = 2.99950 3.36471 3.18734
# Velocity P-wave (km/s) = 4.66135 5.04548 4.85721
#
# Compressibility (1/GPa) = 0.04197422
#
# Stress axis : x y z
#
# Youngs Moduli (GPa) = 46.25040 46.25040 50.74218
#
# Poissons Ratio (x) = 0.47055 0.00797
# Poissons Ratio (y) = 0.47055 0.00797
# Poissons Ratio (z) = 0.00726 0.00726
#
# Static dielectric constant tensor:
#      x y z
#    x 1.962140 0.000000 0.000000 
#    y 0.000000 1.962140 0.000000 
#    z 0.000000 0.000000 2.065130 
# 
# From -- ./inp_files/1037.got.cif
#   From: 2010.05.17/outbox.cif.g08.bks.cpg/sg83_1_cif.got.tgz:1037.got - 2010.06.03 18:55:12.
