data_PCOD9543248
_publ_section_title
;
Structure prediction by ZEFSAII (Michael W. Deem and Ramdas Pophale) SiO2 
 PCOD9543248
Probable space group: P 4/M
;
_chemical_formula_sum "Si O2"
_cell_formula_units_Z 48
_cell_length_a 16.941799
_cell_length_b 16.941799
_cell_length_c 7.588395
_cell_angle_alpha 90.000000
_cell_angle_beta 90.000000
_cell_angle_gamma 90.000000
_cell_volume 2178.055686
_symmetry_space_group_name_H-M "P 4/M"
_symmetry_group_IT_number 83
_symmetry_cell_setting 'tetragonal'
loop_
_space_group_symop_operation_xyz
x,y,z
-y,x,z
-x,-y,z
y,-x,z
-x,-y,-z
y,-x,-z
x,y,-z
-y,x,-z
loop_
_atom_site_type_symbol
_atom_site_label
_atom_site_fract_x
_atom_site_fract_y
_atom_site_fract_z
Si Si1 0.332908 0.749255 0.215044
Si Si2 0.784165 0.967542 0.798552
Si Si3 0.445168 0.889642 0.204996
Si Si4 0.612158 0.938898 0.300226
Si Si5 0.591320 0.589047 0.215029
Si Si6 0.189424 0.856899 0.783062
O O1 0.402285 0.810645 0.266073
O O2 0.353740 0.661288 0.275493
O O3 0.251928 0.790405 0.273113
O O4 0.331821 0.746705 0.000000
O O5 0.785723 0.055666 0.723301
O O6 0.695022 0.935611 0.796453
O O7 0.837303 0.898504 0.720282
O O8 0.810842 0.976715 0.000000
O O9 0.539453 0.890019 0.221945
O O10 0.414624 0.969146 0.296505
O O11 0.423944 0.900667 0.000000
O O12 0.624343 0.913997 0.500000
O O13 0.501749 0.608439 0.268579
O O14 0.591243 0.590197 0.000000
O O15 0.190843 0.854896 0.000000
#
# Coordination Sequence:
#
# PCOD9543248 Si02
#       6
#     8   8   8   8   8   8
#     4   9  16  27  46  74 102 130 169 215 259 308
#     4  10  19  35  55  76 104 137 176 222 271 320
#     4  10  18  31  53  77 103 133 169 212 262 318
#     4  11  21  33  50  75 106 138 172 209 257 319
#     4   8  14  24  38  61  98 138 169 201 246 299
#     4   9  18  31  51  77 103 132 173 223 272 322
#
# _framework density 22.038004999999998
#
# number of rings (size 3 to 8) (size 9 to 14) (size 15 to 20)
#    0.000    2.500    1.667    3.500    0.000    1.667 
#    0.000    7.500    0.000    0.000    0.000    1.167 
#    0.000    0.000    0.000    9.167    0.000    8.333 
#
# Total GULP energy -267909.647248 kJ/mol
# GULP energy per Si atom -5581.450984 kJ/mol
# Density = 2.198785 g / cm^3
# Si number density = 22.038005 Si / 1000 Ang^3
#
#
#
# Elastic Constant Matrix: (Units=GPa)
#
#
# Indices 1 2 3 4 5 6 
#
# 1 84.5791 61.9789 -2.9764 0.0000 0.0000 15.7912
# 2 61.9789 84.5791 -2.9764 0.0000 0.0000 -15.7912
# 3 -2.9764 -2.9764 52.7979 0.0000 0.0000 0.0000
# 4 0.0000 0.0000 0.0000 12.1427 0.0000 0.0000
# 5 0.0000 0.0000 0.0000 0.0000 12.1427 0.0000
# 6 15.7912 -15.7912 0.0000 0.0000 0.0000 28.5839
#
#
#
# Elastic Compliance Matrix: (Units=1/GPa)
#
#
# Indices 1 2 3 4 5 6 
#
# 1 0.100458 -0.093619 0.000386 0.000000 0.000000 -0.107218
# 2 -0.093619 0.100458 0.000386 0.000000 0.000000 0.107218
# 3 0.000386 0.000386 0.018984 0.000000 0.000000 0.000000
# 4 0.000000 0.000000 0.000000 0.082354 0.000000 0.000000
# 5 0.000000 0.000000 0.000000 0.000000 0.082354 0.000000
# 6 -0.107218 0.107218 0.000000 0.000000 0.000000 0.153450
#
#
# Mechanical properties :
#
#
# Convention : Reuss Voigt Hill
#
# Bulk Modulus (GPa) = 29.23673 37.11203 33.17438
# Shear Modulus (GPa) = 6.80130 21.63587 14.21859
#
# Velocity S-wave (km/s) = 1.75866 3.13669 2.54280
# Velocity P-wave (km/s) = 4.17362 5.47677 4.86899
#
# Compressibility (1/GPa) = 0.03420355
#
# Stress axis : x y z
#
# Youngs Moduli (GPa) = 9.95443 9.95443 52.67696
#
# Poissons Ratio (x) = 0.93192 -0.02031
# Poissons Ratio (y) = 0.93192 -0.02031
# Poissons Ratio (z) = -0.00384 -0.00384
#
# Static dielectric constant tensor:
#      x y z
#    x 1.796680 0.000000 0.000000 
#    y 0.000000 1.796680 0.000000 
#    z 0.000000 0.000000 1.808230 
# 
# From -- ./inp_files/926.got.cif
#   From: 2010.05.17/outbox.cif.g08.bks.cpg/sg83_1_cif.got.tgz:926.got - 2010.06.03 18:55:12.
