data_PCOD9543512
_publ_section_title
;
Structure prediction by ZEFSAII (Michael W. Deem and Ramdas Pophale) SiO2 
 PCOD9543512
Probable space group: P 4/M
;
_chemical_formula_sum "Si O2"
_cell_formula_units_Z 40
_cell_length_a 15.189839
_cell_length_b 15.189839
_cell_length_c 8.574316
_cell_angle_alpha 90.000000
_cell_angle_beta 90.000000
_cell_angle_gamma 90.000000
_cell_volume 1978.362296
_symmetry_space_group_name_H-M "P 4/M"
_symmetry_group_IT_number 83
_symmetry_cell_setting 'tetragonal'
loop_
_space_group_symop_operation_xyz
x,y,z
-y,x,z
-x,-y,z
y,-x,z
-x,-y,-z
y,-x,-z
x,y,-z
-y,x,-z
loop_
_atom_site_type_symbol
_atom_site_label
_atom_site_fract_x
_atom_site_fract_y
_atom_site_fract_z
Si Si1 0.945588 0.414411 0.312671
Si Si2 0.303057 0.903996 0.184579
Si Si3 0.078280 0.120615 0.687043
Si Si4 0.257708 0.585515 0.686819
Si Si5 0.604254 0.274050 0.186990
O O1 0.942334 0.420142 0.500000
O O2 0.844581 0.409000 0.258295
O O3 0.000000 0.500000 0.253910
O O4 0.005661 0.332130 0.265498
O O5 0.203724 0.880018 0.230115
O O6 0.365700 0.824142 0.235624
O O7 0.310690 0.914309 0.000000
O O8 0.085310 0.130296 0.500000
O O9 0.974532 0.116926 0.727800
O O10 0.258934 0.595712 0.500000
O O11 0.320093 0.658637 0.761919
O O12 0.292373 0.489131 0.733912
O O13 0.594917 0.275971 0.000000
#
# Coordination Sequence:
#
# PCOD9543512 Si02
#       5
#     8   8   8   8   8
#     4  10  21  40  65  92 122 157 201 252 304 355
#     4  11  24  38  59  91 126 163 203 250 308 376
#     4   9  20  39  60  83 116 161 210 256 304 359
#     4  11  24  43  69  97 124 163 214 263 308 370
#     4  11  25  44  64  92 131 167 205 258 322 381
#
# _framework density 20.218744999999998
#
# number of rings (size 3 to 8) (size 9 to 14) (size 15 to 20)
#    0.000    1.600    2.000    2.400    2.800    5.600 
#    0.000    3.000    0.000    0.000    0.000    0.000 
#    0.000    0.000    0.000    0.000    0.000    0.000 
#
# Total GULP energy -223556.563426 kJ/mol
# GULP energy per Si atom -5588.914086 kJ/mol
# Density = 2.017273 g / cm^3
# Si number density = 20.218745 Si / 1000 Ang^3
#
#
#
# Elastic Constant Matrix: (Units=GPa)
#
#
# Indices 1 2 3 4 5 6 
#
# 1 76.2779 18.6794 1.2127 0.0000 0.0000 -12.0008
# 2 18.6794 76.2779 1.2127 0.0000 0.0000 12.0008
# 3 1.2127 1.2127 1.5933 0.0000 0.0000 0.0000
# 4 0.0000 0.0000 0.0000 4.1445 0.0000 0.0000
# 5 0.0000 0.0000 0.0000 0.0000 4.1445 0.0000
# 6 -12.0008 12.0008 0.0000 0.0000 0.0000 31.7409
#
#
#
# Elastic Compliance Matrix: (Units=1/GPa)
#
#
# Indices 1 2 3 4 5 6 
#
# 1 0.015674 -0.004934 -0.008174 0.000000 0.000000 0.007792
# 2 -0.004934 0.015674 -0.008174 0.000000 0.000000 -0.007792
# 3 -0.008174 -0.008174 0.640072 0.000000 0.000000 0.000000
# 4 0.000000 0.000000 0.000000 0.241284 0.000000 0.000000
# 5 0.000000 0.000000 0.000000 0.000000 0.241284 0.000000
# 6 0.007792 -0.007792 0.000000 0.000000 0.000000 0.037397
#
#
# Mechanical properties :
#
#
# Convention : Reuss Voigt Hill
#
# Bulk Modulus (GPa) = 1.59019 21.81764 11.70391
# Shear Modulus (GPa) = 3.46364 16.87560 10.16962
#
# Velocity S-wave (km/s) = 1.31027 2.89217 2.24515
# Velocity P-wave (km/s) = 1.75421 4.68690 3.53867
#
# Compressibility (1/GPa) = 0.62885435
#
# Stress axis : x y z
#
# Youngs Moduli (GPa) = 63.79945 63.79945 1.56232
#
# Poissons Ratio (x) = 0.31480 0.01277
# Poissons Ratio (y) = 0.31480 0.01277
# Poissons Ratio (z) = 0.52152 0.52152
#
# Static dielectric constant tensor:
#      x y z
#    x 1.713960 0.000000 0.000000 
#    y 0.000000 1.713960 0.000000 
#    z 0.000000 0.000000 1.683170 
# 
# From -- ./inp_files/659.got.cif
#   From: 2010.05.17/outbox.cif.g08.bks.cpg/sg83_1_cif.got.tgz:659.got - 2010.06.03 18:55:12.
