data_PCOD9543915
_publ_section_title
;
Structure prediction by ZEFSAII (Michael W. Deem and Ramdas Pophale) SiO2 
 PCOD9543915
Probable space group: P 4/M
;
_chemical_formula_sum "Si O2"
_cell_formula_units_Z 64
_cell_length_a 20.048442
_cell_length_b 20.048442
_cell_length_c 7.304063
_cell_angle_alpha 90.000000
_cell_angle_beta 90.000000
_cell_angle_gamma 90.000000
_cell_volume 2935.795277
_symmetry_space_group_name_H-M "P 4/M"
_symmetry_group_IT_number 83
_symmetry_cell_setting 'tetragonal'
loop_
_space_group_symop_operation_xyz
x,y,z
-y,x,z
-x,-y,z
y,-x,z
-x,-y,-z
y,-x,-z
x,y,-z
-y,x,-z
loop_
_atom_site_type_symbol
_atom_site_label
_atom_site_fract_x
_atom_site_fract_y
_atom_site_fract_z
Si Si1 0.600132 0.329558 0.776131
Si Si2 0.245213 0.918385 0.214217
Si Si3 0.695151 0.447508 0.776842
Si Si4 0.155189 0.584755 0.223447
Si Si5 0.903667 0.043965 0.720087
Si Si6 0.196418 0.332120 0.216954
Si Si7 0.551409 0.087538 0.783085
Si Si8 0.025850 0.649800 0.223501
O O1 0.635658 0.398124 0.721578
O O2 0.523774 0.317458 0.718615
O O3 0.646055 0.267993 0.711849
O O4 0.598899 0.328460 0.000000
O O5 0.167186 0.927725 0.227918
O O6 0.271320 0.847953 0.290727
O O7 0.286302 0.982664 0.285090
O O8 0.263424 0.916147 0.000000
O O9 0.767843 0.419634 0.718045
O O10 0.696469 0.448208 0.000000
O O11 0.117246 0.517530 0.285315
O O12 0.102930 0.642440 0.279207
O O13 0.157600 0.584933 0.000000
O O14 0.905862 0.043197 0.500000
O O15 0.967877 0.085525 0.783029
O O16 0.146060 0.394339 0.238538
O O17 0.207524 0.320802 0.000000
O O18 0.586075 0.019475 0.717757
O O19 0.541216 0.077117 0.000000
O O20 0.026587 0.649458 0.000000
#
# Coordination Sequence:
#
# PCOD9543915 Si02
#       8
#     8   8   8   8   8   8   8   8
#     4   9  15  24  32  44  65 102 151 193 231 275
#     4   9  17  29  45  71  99 121 142 180 232 274
#     4   9  16  22  31  41  60  99 151 198 231 266
#     4   9  13  19  29  45  68 102 140 177 219 266
#     4   9  19  37  57  71  86 116 157 191 215 249
#     4   8  13  23  37  52  80 113 138 170 226 286
#     4   8  11  17  31  46  65 101 139 169 208 261
#     4   8  14  21  32  54  84 109 134 169 216 271
#
# _framework density 21.799885
#
# number of rings (size 3 to 8) (size 9 to 14) (size 15 to 20)
#    0.000    3.375    1.250    2.250    0.000    2.250 
#    2.250    1.875    0.000    0.000    0.000    0.000 
#    0.000    8.000    0.000    1.125    0.000    1.250 
#
# Total GULP energy -356797.587523 kJ/mol
# GULP energy per Si atom -5574.962305 kJ/mol
# Density = 2.175027 g / cm^3
# Si number density = 21.799885 Si / 1000 Ang^3
#
#
#
# Elastic Constant Matrix: (Units=GPa)
#
#
# Indices 1 2 3 4 5 6 
#
# 1 128.8159 85.4869 2.8550 0.0000 0.0000 -8.3162
# 2 85.4869 128.8159 2.8550 0.0000 0.0000 8.3162
# 3 2.8550 2.8550 77.9407 0.0000 0.0000 0.0000
# 4 0.0000 0.0000 0.0000 6.1904 0.0000 0.0000
# 5 0.0000 0.0000 0.0000 0.0000 6.1904 0.0000
# 6 -8.3162 8.3162 0.0000 0.0000 0.0000 12.5349
#
#
#
# Elastic Compliance Matrix: (Units=1/GPa)
#
#
# Indices 1 2 3 4 5 6 
#
# 1 0.017818 -0.013147 -0.000171 0.000000 0.000000 0.020543
# 2 -0.013147 0.017818 -0.000171 0.000000 0.000000 -0.020543
# 3 -0.000171 -0.000171 0.012843 0.000000 0.000000 0.000000
# 4 0.000000 0.000000 0.000000 0.161541 0.000000 0.000000
# 5 0.000000 0.000000 0.000000 0.000000 0.161541 0.000000
# 6 0.020543 -0.020543 0.000000 0.000000 0.000000 0.107036
#
#
# Mechanical properties :
#
#
# Convention : Reuss Voigt Hill
#
# Bulk Modulus (GPa) = 46.51138 57.55182 52.03160
# Shear Modulus (GPa) = 9.75148 21.27483 15.51315
#
# Velocity S-wave (km/s) = 2.11728 3.12735 2.67051
# Velocity P-wave (km/s) = 5.23059 6.28473 5.78174
#
# Compressibility (1/GPa) = 0.02150012
#
# Stress axis : x y z
#
# Youngs Moduli (GPa) = 56.12311 56.12311 77.86465
#
# Poissons Ratio (x) = 0.73786 0.01332
# Poissons Ratio (y) = 0.73786 0.01332
# Poissons Ratio (z) = 0.00960 0.00960
#
# Static dielectric constant tensor:
#      x y z
#    x 1.767930 0.000000 0.000000 
#    y 0.000000 1.767930 0.000000 
#    z 0.000000 0.000000 1.881900 
# 
# From -- ./inp_files/1329.got.cif
#   From: 2010.05.17/outbox.cif.g08.bks.cpg/sg83_1_cif.got.tgz:1329.got - 2010.06.03 18:55:12.
