data_PCOD9543619
_publ_section_title
;
Structure prediction by ZEFSAII (Michael W. Deem and Ramdas Pophale) SiO2 
 PCOD9543619
Probable space group: P 4/M
;
_chemical_formula_sum "Si O2"
_cell_formula_units_Z 60
_cell_length_a 11.073057
_cell_length_b 11.073057
_cell_length_c 21.246142
_cell_angle_alpha 90.000000
_cell_angle_beta 90.000000
_cell_angle_gamma 90.000000
_cell_volume 2605.044526
_symmetry_space_group_name_H-M "P 4/M"
_symmetry_group_IT_number 83
_symmetry_cell_setting 'tetragonal'
loop_
_space_group_symop_operation_xyz
x,y,z
-y,x,z
-x,-y,z
y,-x,z
-x,-y,-z
y,-x,-z
x,y,-z
-y,x,-z
loop_
_atom_site_type_symbol
_atom_site_label
_atom_site_fract_x
_atom_site_fract_y
_atom_site_fract_z
Si Si1 0.948808 0.365177 0.929409
Si Si2 0.622007 0.658370 0.500000
Si Si3 0.088621 0.183315 0.694754
Si Si4 0.946464 0.802313 0.170983
Si Si5 0.687494 0.428785 0.723047
Si Si6 0.576033 0.687765 0.872713
Si Si7 0.101383 0.330253 0.426742
Si Si8 0.164884 0.606705 0.605625
O O1 0.041326 0.292898 0.884421
O O2 0.809679 0.376237 0.905355
O O3 0.000000 0.500000 0.931377
O O4 0.948712 0.313189 0.000000
O O5 0.477949 0.658605 0.500000
O O6 0.655305 0.725527 0.563658
O O7 0.096026 0.252304 0.761723
O O8 0.152104 0.053523 0.694276
O O9 0.134385 0.249714 0.633297
O O10 0.859849 0.918573 0.167621
O O11 0.649417 0.567305 0.708806
O O12 0.709774 0.417642 0.797329
O O13 0.797723 0.392045 0.678501
O O14 0.435203 0.652464 0.886868
O O15 0.125405 0.298629 0.500000
O O16 0.142390 0.466727 0.412882
O O17 0.955580 0.330221 0.418102
#
# Coordination Sequence:
#
# PCOD9543619 Si02
#       8
#     8   4   8   8   8   8   8   8
#     4  11  26  42  63 101 141 173 215 265 315 379
#     4  11  22  35  54  78 106 145 190 239 294 358
#     4   9  21  42  64  88 115 147 198 256 307 366
#     4   9  21  45  72  96 127 168 216 269 328 387
#     4   9  19  37  60  88 119 150 197 255 303 359
#     4   9  21  43  67  93 131 177 220 262 319 387
#     4  11  23  40  55  78 118 158 199 243 299 366
#     4  11  21  38  53  77 116 152 193 245 298 357
#
# _framework density 23.032233999999999
#
# number of rings (size 3 to 8) (size 9 to 14) (size 15 to 20)
#    0.000    2.067    1.333    2.800    3.733    5.867 
#    4.800    2.000    0.000    0.000    0.000    0.000 
#    0.000    0.000    0.000    0.000    0.000    0.000 
#
# Total GULP energy -335297.610982 kJ/mol
# GULP energy per Si atom -5588.293516 kJ/mol
# Density = 2.297981 g / cm^3
# Si number density = 23.032234 Si / 1000 Ang^3
#
#
#
# Elastic Constant Matrix: (Units=GPa)
#
#
# Indices 1 2 3 4 5 6 
#
# 1 71.9448 -4.2659 41.6093 0.0000 0.0000 6.0281
# 2 -4.2659 71.9448 41.6093 0.0000 0.0000 -6.0281
# 3 41.6093 41.6093 145.8543 0.0000 0.0000 0.0000
# 4 0.0000 0.0000 0.0000 23.8813 0.0000 0.0000
# 5 0.0000 0.0000 0.0000 0.0000 23.8813 0.0000
# 6 6.0281 -6.0281 0.0000 0.0000 0.0000 25.3687
#
#
#
# Elastic Compliance Matrix: (Units=1/GPa)
#
#
# Indices 1 2 3 4 5 6 
#
# 1 0.018197 0.004563 -0.006493 0.000000 0.000000 -0.003240
# 2 0.004563 0.018197 -0.006493 0.000000 0.000000 0.003240
# 3 -0.006493 -0.006493 0.010561 0.000000 0.000000 0.000000
# 4 0.000000 0.000000 0.000000 0.041874 0.000000 0.000000
# 5 0.000000 0.000000 0.000000 0.000000 0.041874 0.000000
# 6 -0.003240 0.003240 0.000000 0.000000 0.000000 0.040958
#
#
# Mechanical properties :
#
#
# Convention : Reuss Voigt Hill
#
# Bulk Modulus (GPa) = 33.21370 49.73882 41.47626
# Shear Modulus (GPa) = 25.18366 28.67900 26.93133
#
# Velocity S-wave (km/s) = 3.31026 3.53252 3.42320
# Velocity P-wave (km/s) = 5.39094 6.18712 5.80270
#
# Compressibility (1/GPa) = 0.03010806
#
# Stress axis : x y z
#
# Youngs Moduli (GPa) = 54.95533 54.95533 94.69115
#
# Poissons Ratio (x) = -0.25074 0.61480
# Poissons Ratio (y) = -0.25074 0.61480
# Poissons Ratio (z) = 0.35681 0.35681
#
# Static dielectric constant tensor:
#      x y z
#    x 1.896280 0.000000 0.000000 
#    y 0.000000 1.896280 0.000000 
#    z 0.000000 0.000000 1.863490 
# 
# From -- ./inp_files/3060.got.cif
#   From: 2010.05.17/outbox.cif.g08.bks.cpg/sg83_2_cif.got.tgz:3060.got - 2010.06.03 18:55:12.
