data_PCOD9543570
_publ_section_title
;
Structure prediction by ZEFSAII (Michael W. Deem and Ramdas Pophale) SiO2 
 PCOD9543570
Probable space group: P 4/M
;
_chemical_formula_sum "Si O2"
_cell_formula_units_Z 44
_cell_length_a 8.053624
_cell_length_b 8.053624
_cell_length_c 30.334364
_cell_angle_alpha 90.000000
_cell_angle_beta 90.000000
_cell_angle_gamma 90.000000
_cell_volume 1967.512922
_symmetry_space_group_name_H-M "P 4/M"
_symmetry_group_IT_number 83
_symmetry_cell_setting 'tetragonal'
loop_
_space_group_symop_operation_xyz
x,y,z
-y,x,z
-x,-y,z
y,-x,z
-x,-y,-z
y,-x,-z
x,y,-z
-y,x,-z
loop_
_atom_site_type_symbol
_atom_site_label
_atom_site_fract_x
_atom_site_fract_y
_atom_site_fract_z
Si Si1 0.409132 0.235362 0.325006
Si Si2 0.735910 0.907140 0.236925
Si Si3 0.586067 0.233651 0.000000
Si Si4 0.234762 0.588589 0.500000
Si Si5 0.409698 0.235319 0.851214
Si Si6 0.734926 0.910834 0.587371
Si Si7 0.500000 0.000000 0.924487
O O1 0.597945 0.296957 0.324944
O O2 0.362003 0.135262 0.281328
O O3 0.364774 0.134648 0.368775
O O4 0.631361 0.856773 0.194163
O O5 0.903362 0.795972 0.236245
O O6 0.700304 0.395371 0.000000
O O7 0.602572 0.120504 0.043187
O O8 0.297823 0.400409 0.500000
O O9 0.134249 0.633704 0.543743
O O10 0.599938 0.297715 0.853223
O O11 0.388613 0.112577 0.892293
O O12 0.900826 0.797595 0.587267
#
# Coordination Sequence:
#
# PCOD9543570 Si02
#       7
#     8   8   4   4   8   8   4
#     4  11  24  41  62  90 123 163 212 261 313 380
#     4  11  24  41  62  92 129 167 210 264 324 384
#     4  10  22  42  68  98 132 174 222 269 322 385
#     4  11  24  41  62  90 122 157 202 255 312 382
#     4  11  23  40  64  93 126 169 219 267 321 387
#     4  11  24  41  62  90 122 158 204 258 317 381
#     4  11  22  38  66  98 130 168 216 273 324 370
#
# _framework density 22.363258999999999
#
# number of rings (size 3 to 8) (size 9 to 14) (size 15 to 20)
#    0.000    1.091    0.000    6.000    0.000   13.818 
#    0.000    0.000    0.000   18.545    0.000    0.000 
#    0.000    0.000    0.000    0.000    0.000    0.000 
#
# Total GULP energy -246773.520515 kJ/mol
# GULP energy per Si atom -5608.489103 kJ/mol
# Density = 2.231236 g / cm^3
# Si number density = 22.363259 Si / 1000 Ang^3
#
#
#
# Elastic Constant Matrix: (Units=GPa)
#
#
# Indices 1 2 3 4 5 6 
#
# 1 119.8891 62.6556 71.5858 0.0000 0.0000 1.6281
# 2 62.6556 119.8891 71.5858 0.0000 0.0000 -1.6281
# 3 71.5858 71.5858 227.1529 0.0000 0.0000 0.0000
# 4 0.0000 0.0000 0.0000 62.7230 0.0000 0.0000
# 5 0.0000 0.0000 0.0000 0.0000 62.7230 0.0000
# 6 1.6281 -1.6281 0.0000 0.0000 0.0000 41.6271
#
#
#
# Elastic Compliance Matrix: (Units=1/GPa)
#
#
# Indices 1 2 3 4 5 6 
#
# 1 0.012394 -0.005117 -0.002293 0.000000 0.000000 -0.000685
# 2 -0.005117 0.012394 -0.002293 0.000000 0.000000 0.000685
# 3 -0.002293 -0.002293 0.005848 0.000000 0.000000 0.000000
# 4 0.000000 0.000000 0.000000 0.015943 0.000000 0.000000
# 5 0.000000 0.000000 0.000000 0.000000 0.015943 0.000000
# 6 -0.000685 0.000685 0.000000 0.000000 0.000000 0.024076
#
#
# Mechanical properties :
#
#
# Convention : Reuss Voigt Hill
#
# Bulk Modulus (GPa) = 89.06091 97.62060 93.34076
# Shear Modulus (GPa) = 45.55877 50.82154 48.19015
#
# Velocity S-wave (km/s) = 4.51845 4.77229 4.64711
# Velocity P-wave (km/s) = 8.19347 8.60891 8.40376
#
# Compressibility (1/GPa) = 0.01122827
#
# Stress axis : x y z
#
# Youngs Moduli (GPa) = 80.68444 80.68444 171.00744
#
# Poissons Ratio (x) = 0.41288 0.39215
# Poissons Ratio (y) = 0.41288 0.39215
# Poissons Ratio (z) = 0.18503 0.18503
#
# Static dielectric constant tensor:
#      x y z
#    x 1.822050 0.000000 0.000000 
#    y 0.000000 1.822050 0.000000 
#    z 0.000000 0.000000 1.760490 
# 
# From -- ./inp_files/3401.got.cif
#   From: 2010.05.17/outbox.cif.g08.bks.cpg/sg83_2_cif.got.tgz:3401.got - 2010.06.03 18:55:12.
