data_PCOD9543575
_publ_section_title
;
Structure prediction by ZEFSAII (Michael W. Deem and Ramdas Pophale) SiO2 
 PCOD9543575
Probable space group: P 4/M
;
_chemical_formula_sum "Si O2"
_cell_formula_units_Z 60
_cell_length_a 11.715716
_cell_length_b 11.715716
_cell_length_c 22.186287
_cell_angle_alpha 90.000000
_cell_angle_beta 90.000000
_cell_angle_gamma 90.000000
_cell_volume 3045.245412
_symmetry_space_group_name_H-M "P 4/M"
_symmetry_group_IT_number 83
_symmetry_cell_setting 'tetragonal'
loop_
_space_group_symop_operation_xyz
x,y,z
-y,x,z
-x,-y,z
y,-x,z
-x,-y,-z
y,-x,-z
x,y,-z
-y,x,-z
loop_
_atom_site_type_symbol
_atom_site_label
_atom_site_fract_x
_atom_site_fract_y
_atom_site_fract_z
Si Si1 0.194426 0.010751 0.326787
Si Si2 0.056129 0.375231 0.568467
Si Si3 0.891039 0.840769 0.000000
Si Si4 0.272623 0.881825 0.874220
Si Si5 0.485007 0.866690 0.806228
Si Si6 0.105209 0.734548 0.803775
Si Si7 0.553363 0.324644 0.274663
Si Si8 0.437964 0.677761 0.417879
O O1 0.249633 0.042420 0.261013
O O2 0.103734 0.116161 0.331812
O O3 0.289402 0.991417 0.379535
O O4 0.023809 0.337319 0.500000
O O5 0.194830 0.394172 0.566905
O O6 0.000000 0.500000 0.578680
O O7 0.854794 0.776085 0.939356
O O8 0.029205 0.847925 0.000000
O O9 0.404440 0.850037 0.863602
O O10 0.195336 0.829666 0.821108
O O11 0.264284 0.014556 0.858026
O O12 0.614959 0.830870 0.810565
O O13 0.424778 0.797417 0.753308
O O14 0.500000 0.000000 0.792526
O O15 0.635066 0.427108 0.256569
O O16 0.559532 0.319963 0.345904
O O17 0.357733 0.568862 0.435345
#
# Coordination Sequence:
#
# PCOD9543575 Si02
#       8
#     8   8   4   8   8   8   8   8
#     4  11  26  45  70  98 127 174 218 272 342 394
#     4  11  28  46  65  94 129 171 224 276 328 402
#     4  11  22  38  65  91 119 174 221 264 319 373
#     4  11  22  39  61  93 130 163 216 265 312 383
#     4  10  23  34  52  89 128 168 194 250 327 376
#     4  11  22  39  64  95 131 164 209 268 322 390
#     4   9  18  34  57  86 119 157 203 250 304 376
#     4   9  21  40  66  97 127 164 212 272 337 398
#
# _framework density 19.702843999999999
#
# number of rings (size 3 to 8) (size 9 to 14) (size 15 to 20)
#    0.000    1.667    2.667    1.600    7.467    2.400 
#    0.000    5.000    0.000    0.000    0.000    0.000 
#    0.000    3.200    0.000    0.000    0.000    0.000 
#
# Total GULP energy -334094.289675 kJ/mol
# GULP energy per Si atom -5568.238161 kJ/mol
# Density = 1.965800 g / cm^3
# Si number density = 19.702844 Si / 1000 Ang^3
#
#
#
# Elastic Constant Matrix: (Units=GPa)
#
#
# Indices 1 2 3 4 5 6 
#
# 1 53.6356 38.4962 56.3091 0.0000 0.0000 -49.5113
# 2 38.4962 53.6356 56.3091 0.0000 0.0000 49.5113
# 3 56.3091 56.3091 123.8761 0.0000 0.0000 0.0000
# 4 0.0000 0.0000 0.0000 29.4321 0.0000 0.0000
# 5 0.0000 0.0000 0.0000 0.0000 29.4321 0.0000
# 6 -49.5113 49.5113 0.0000 0.0000 0.0000 -70.2961
#
#
#
# Elastic Compliance Matrix: (Units=1/GPa)
#
#
# Indices 1 2 3 4 5 6 
#
# 1 0.018103 0.006323 -0.011103 0.000000 0.000000 -0.008298
# 2 0.006323 0.018103 -0.011103 0.000000 0.000000 0.008298
# 3 -0.011103 -0.011103 0.018167 0.000000 0.000000 0.000000
# 4 0.000000 0.000000 0.000000 0.033977 0.000000 0.000000
# 5 0.000000 0.000000 0.000000 0.000000 0.033977 0.000000
# 6 -0.008298 0.008298 0.000000 0.000000 0.000000 -0.002537
#
#
# Mechanical properties :
#
#
# Convention : Reuss Voigt Hill
#
# Bulk Modulus (GPa) = 44.23549 59.26399 51.74974
# Shear Modulus (GPa) = 31.42838 3.04914 17.23876
#
# Velocity S-wave (km/s) = 3.99823 1.24536 2.96114
# Velocity P-wave (km/s) = 6.61925 5.67557 6.16549
#
# Compressibility (1/GPa) = 0.02260628
#
# Stress axis : x y z
#
# Youngs Moduli (GPa) = 55.23818 55.23818 55.04607
#
# Poissons Ratio (x) = -0.34925 0.61118
# Poissons Ratio (y) = -0.34925 0.61118
# Poissons Ratio (z) = 0.61331 0.61331
#
# Static dielectric constant tensor:
#      x y z
#    x 1.755400 0.000000 0.000000 
#    y 0.000000 1.755400 0.000000 
#    z 0.000000 0.000000 1.684370 
# 
# From -- ./inp_files/3043.got.cif
#   From: 2010.05.17/outbox.cif.g08.bks.cpg/sg83_2_cif.got.tgz:3043.got - 2010.06.03 18:55:12.
