data_PCOD9543647
_publ_section_title
;
Structure prediction by ZEFSAII (Michael W. Deem and Ramdas Pophale) SiO2 
 PCOD9543647
Probable space group: P 4/M
;
_chemical_formula_sum "Si O2"
_cell_formula_units_Z 48
_cell_length_a 9.575968
_cell_length_b 9.575968
_cell_length_c 29.371197
_cell_angle_alpha 90.000000
_cell_angle_beta 90.000000
_cell_angle_gamma 90.000000
_cell_volume 2693.314185
_symmetry_space_group_name_H-M "P 4/M"
_symmetry_group_IT_number 83
_symmetry_cell_setting 'tetragonal'
loop_
_space_group_symop_operation_xyz
x,y,z
-y,x,z
-x,-y,z
y,-x,z
-x,-y,-z
y,-x,-z
x,y,-z
-y,x,-z
loop_
_atom_site_type_symbol
_atom_site_label
_atom_site_fract_x
_atom_site_fract_y
_atom_site_fract_z
Si Si1 0.206362 0.884076 0.451253
Si Si2 0.876831 0.352325 0.143163
Si Si3 0.294979 0.385819 0.719398
Si Si4 0.830261 0.641281 0.180064
Si Si5 0.037240 0.766284 0.949329
Si Si6 0.882373 0.793149 0.350035
O O1 0.274832 0.846143 0.500000
O O2 0.263667 0.851442 0.401273
O O3 0.050983 0.818323 0.451625
O O4 0.802199 0.498532 0.152824
O O5 0.770786 0.229912 0.152894
O O6 0.939159 0.335956 0.092863
O O7 0.002738 0.344118 0.179523
O O8 0.447858 0.316113 0.712887
O O9 0.239733 0.364459 0.770730
O O10 0.185476 0.311435 0.685932
O O11 0.889334 0.846586 0.946178
O O12 0.047544 0.703360 0.000000
O O13 0.050092 0.816595 0.345412
#
# Coordination Sequence:
#
# PCOD9543647 Si02
#       6
#     8   8   8   8   8   8
#     4   7  10  21  44  75 111 146 177 216 273 334
#     4  11  22  39  59  88 115 146 186 226 277 325
#     4  11  24  41  57  75 105 152 193 228 281 339
#     4  11  24  38  59  83 112 146 189 231 275 332
#     4   9  17  33  59  88 118 151 184 225 278 330
#     4   9  19  33  54  87 118 143 181 235 285 327
#
# _framework density 17.821909999999999
#
# number of rings (size 3 to 8) (size 9 to 14) (size 15 to 20)
#    0.000    2.333    3.333    2.000    2.333    1.333 
#    0.000    2.500    0.000    1.000    0.000    7.000 
#    0.000    0.000    0.000    0.000    0.000    0.000 
#
# Total GULP energy -267327.597548 kJ/mol
# GULP energy per Si atom -5569.324949 kJ/mol
# Density = 1.778135 g / cm^3
# Si number density = 17.821910 Si / 1000 Ang^3
#
#
#
# Elastic Constant Matrix: (Units=GPa)
#
#
# Indices 1 2 3 4 5 6 
#
# 1 47.1719 18.8575 29.2102 0.0000 0.0000 0.4622
# 2 18.8575 47.1719 29.2102 0.0000 0.0000 -0.4622
# 3 29.2102 29.2102 132.4109 0.0000 0.0000 0.0000
# 4 0.0000 0.0000 0.0000 9.5849 0.0000 0.0000
# 5 0.0000 0.0000 0.0000 0.0000 9.5849 0.0000
# 6 0.4622 -0.4622 0.0000 0.0000 0.0000 26.9958
#
#
#
# Elastic Compliance Matrix: (Units=1/GPa)
#
#
# Indices 1 2 3 4 5 6 
#
# 1 0.027078 -0.008260 -0.004151 0.000000 0.000000 -0.000605
# 2 -0.008260 0.027078 -0.004151 0.000000 0.000000 0.000605
# 3 -0.004151 -0.004151 0.009384 0.000000 0.000000 0.000000
# 4 0.000000 0.000000 0.000000 0.104331 0.000000 0.000000
# 5 0.000000 0.000000 0.000000 0.000000 0.104331 0.000000
# 6 -0.000605 0.000605 0.000000 0.000000 0.000000 0.037064
#
#
# Mechanical properties :
#
#
# Convention : Reuss Voigt Hill
#
# Bulk Modulus (GPa) = 32.87941 42.36781 37.62361
# Shear Modulus (GPa) = 14.18330 19.19822 16.69076
#
# Velocity S-wave (km/s) = 2.82412 3.28567 3.06360
# Velocity P-wave (km/s) = 5.39658 6.18213 5.80266
#
# Compressibility (1/GPa) = 0.03041417
#
# Stress axis : x y z
#
# Youngs Moduli (GPa) = 36.93094 36.93094 106.56678
#
# Poissons Ratio (x) = 0.30505 0.44238
# Poissons Ratio (y) = 0.30505 0.44238
# Poissons Ratio (z) = 0.15331 0.15331
#
# Static dielectric constant tensor:
#      x y z
#    x 1.612880 0.000000 0.000000 
#    y 0.000000 1.612880 0.000000 
#    z 0.000000 0.000000 1.639340 
# 
# From -- ./inp_files/3424.got.cif
#   From: 2010.05.17/outbox.cif.g08.bks.cpg/sg83_2_cif.got.tgz:3424.got - 2010.06.03 18:55:12.
