data_PCOD9543810
_publ_section_title
;
Structure prediction by ZEFSAII (Michael W. Deem and Ramdas Pophale) SiO2 
 PCOD9543810
Probable space group: P 4/M
;
_chemical_formula_sum "Si O2"
_cell_formula_units_Z 33
_cell_length_a 8.429351
_cell_length_b 8.429351
_cell_length_c 21.435195
_cell_angle_alpha 90.000000
_cell_angle_beta 90.000000
_cell_angle_gamma 90.000000
_cell_volume 1523.055451
_symmetry_space_group_name_H-M "P 4/M"
_symmetry_group_IT_number 83
_symmetry_cell_setting 'tetragonal'
loop_
_space_group_symop_operation_xyz
x,y,z
-y,x,z
-x,-y,z
y,-x,z
-x,-y,-z
y,-x,-z
x,y,-z
-y,x,-z
loop_
_atom_site_type_symbol
_atom_site_label
_atom_site_fract_x
_atom_site_fract_y
_atom_site_fract_z
Si Si1 0.620738 0.261862 0.374332
Si Si2 0.411617 0.753042 0.000000
Si Si3 0.673777 0.075520 0.500000
Si Si4 0.612451 0.255242 0.235276
Si Si5 0.250165 0.906028 0.883532
Si Si6 0.000000 0.000000 0.500000
O O1 0.704231 0.433019 0.377748
O O2 0.673758 0.163123 0.433183
O O3 0.648161 0.193276 0.305090
O O4 0.305382 0.592490 0.000000
O O5 0.364850 0.852454 0.939126
O O6 0.500000 0.000000 0.500000
O O7 0.814744 0.947752 0.500000
O O8 0.701866 0.425721 0.229183
O O9 0.668924 0.137271 0.181950
O O10 0.088133 0.803000 0.888288
#
# Coordination Sequence:
#
# PCOD9543810 Si02
#       6
#     8   4   4   8   8   1
#     4   9  18  37  65  92 122 169 221 271 329 398
#     4  11  24  41  66  94 120 155 204 261 312 368
#     4  12  24  43  64  93 136 176 216 276 346 404
#     4   9  19  38  62  89 121 159 213 264 309 376
#     4  11  24  41  58  89 127 166 204 252 315 380
#     4  12  28  44  60 104 132 164 220 286 324 400
#
# _framework density 21.666971
#
# number of rings (size 3 to 8) (size 9 to 14) (size 15 to 20)
#    0.000    1.818    0.000    5.818    0.000    8.727 
#   13.091    0.000    0.000    0.000    0.000    0.000 
#    0.000    0.000    0.000    0.000    0.000    0.000 
#
# Total GULP energy -184354.127920 kJ/mol
# GULP energy per Si atom -5586.488725 kJ/mol
# Density = 2.161766 g / cm^3
# Si number density = 21.666971 Si / 1000 Ang^3
#
#
#
# Elastic Constant Matrix: (Units=GPa)
#
#
# Indices 1 2 3 4 5 6 
#
# 1 43.4168 19.1392 39.6790 0.0000 0.0000 4.5208
# 2 19.1392 43.4168 39.6790 0.0000 0.0000 -4.5208
# 3 39.6790 39.6790 180.4442 0.0000 0.0000 0.0000
# 4 0.0000 0.0000 0.0000 -5.7531 0.0000 0.0000
# 5 0.0000 0.0000 0.0000 0.0000 -5.7531 0.0000
# 6 4.5208 -4.5208 0.0000 0.0000 0.0000 25.8627
#
#
#
# Elastic Compliance Matrix: (Units=1/GPa)
#
#
# Indices 1 2 3 4 5 6 
#
# 1 0.033114 -0.010944 -0.004875 0.000000 0.000000 -0.007701
# 2 -0.010944 0.033114 -0.004875 0.000000 0.000000 0.007701
# 3 -0.004875 -0.004875 0.007686 0.000000 0.000000 0.000000
# 4 0.000000 0.000000 0.000000 -0.173820 0.000000 0.000000
# 5 0.000000 0.000000 0.000000 0.000000 -0.173820 0.000000
# 6 -0.007701 0.007701 0.000000 0.000000 0.000000 0.041358
#
#
# Mechanical properties :
#
#
# Convention : Reuss Voigt Hill
#
# Bulk Modulus (GPa) = 30.74478 51.58579 41.16528
# Shear Modulus (GPa) = -27.75688 14.12334 -6.81677
#
# Velocity S-wave (km/s) = -3.58309 2.55588 -1.77567
# Velocity P-wave (km/s) = 1.70220 5.70703 3.85180
#
# Compressibility (1/GPa) = 0.03252585
#
# Stress axis : x y z
#
# Youngs Moduli (GPa) = 30.19835 30.19835 130.10777
#
# Poissons Ratio (x) = 0.33049 0.63430
# Poissons Ratio (y) = 0.33049 0.63430
# Poissons Ratio (z) = 0.14722 0.14722
#
# Static dielectric constant tensor:
#      x y z
#    x 1.901220 0.000000 0.000000 
#    y 0.000000 1.901220 0.000000 
#    z 0.000000 0.000000 1.755120 
# 
# From -- ./inp_files/2872.got.cif
#   From: 2010.05.17/outbox.cif.g08.bks.cpg/sg83_2_cif.got.tgz:2872.got - 2010.06.03 18:55:12.
