data_PCOD9543177
_publ_section_title
;
Structure prediction by ZEFSAII (Michael W. Deem and Ramdas Pophale) SiO2 
 PCOD9543177
Probable space group: I -4 
;
_chemical_formula_sum "Si O2"
_cell_formula_units_Z 60
_cell_length_a 12.166023
_cell_length_b 12.166023
_cell_length_c 20.770778
_cell_angle_alpha 90.000000
_cell_angle_beta 90.000000
_cell_angle_gamma 90.000000
_cell_volume 3074.326795
_symmetry_space_group_name_H-M "I -4 "
_symmetry_group_IT_number 82
_symmetry_cell_setting 'tetragonal'
loop_
_space_group_symop_operation_xyz
x,y,z
y,-x,-z
-x,-y,z
-y,x,-z
1/2+x,1/2+y,1/2+z
1/2+y,1/2-x,1/2-z
1/2-x,1/2-y,1/2+z
1/2-y,1/2+x,1/2-z
loop_
_atom_site_type_symbol
_atom_site_label
_atom_site_fract_x
_atom_site_fract_y
_atom_site_fract_z
Si Si1 0.545937 0.619509 0.924939
Si Si2 0.619904 0.555758 0.595901
Si Si3 0.434594 0.770988 0.032054
Si Si4 0.795394 0.147592 0.029295
Si Si5 0.772047 0.514348 0.180492
Si Si6 0.242880 0.606717 0.316375
Si Si7 0.581667 0.149932 0.592598
Si Si8 0.500000 0.000000 0.478422
O O1 0.500000 0.500000 0.937923
O O2 0.676289 0.602898 0.919536
O O3 0.490635 0.662809 0.861076
O O4 0.512785 0.707795 0.980844
O O5 0.500000 0.500000 0.606857
O O6 0.616486 0.627480 0.530470
O O7 0.703430 0.456507 0.577910
O O8 0.647145 0.640758 0.653808
O O9 0.320778 0.812370 0.000823
O O10 0.482271 0.885316 0.058321
O O11 0.841995 0.251088 0.068769
O O12 0.752178 0.452732 0.247392
O O13 0.810181 0.639854 0.188000
O O14 0.858385 0.442311 0.136947
O O15 0.202493 0.514083 0.365876
O O16 0.532478 0.095924 0.528476
#
# Coordination Sequence:
#
# PCOD9543177 Si02
#       8
#     8   8   8   8   8   8   8   4
#     4  12  24  44  65  94 136 182 219 267 333 412
#     4  12  22  38  58  92 132 172 206 259 342 414
#     4  12  22  39  64  94 130 171 218 268 325 397
#     4  12  22  38  62  93 131 166 209 267 333 405
#     4  12  24  42  64  96 127 172 227 281 333 395
#     4  12  24  41  66  91 130 171 221 284 341 394
#     4  12  21  36  62  92 130 161 209 273 336 387
#     4  12  22  34  61 100 126 167 210 268 336 390
#
# _framework density 19.516469000000001
#
# number of rings (size 3 to 8) (size 9 to 14) (size 15 to 20)
#    0.000    0.000    9.333    2.400    0.000    0.533 
#    2.400    0.000    0.000    0.000    0.000    0.000 
#    0.000    0.000    0.000    0.000    0.000    0.000 
#
# Total GULP energy -167379.339753 kJ/mol
# GULP energy per Si atom -5579.311325 kJ/mol
# Density = 1.947205 g / cm^3
# Si number density = 19.516469 Si / 1000 Ang^3
#
#
#
# Elastic Constant Matrix: (Units=GPa)
#
#
# Indices 1 2 3 4 5 6 
#
# 1 113.0956 32.5136 25.1659 0.0000 0.0000 -8.2442
# 2 32.5136 113.0956 25.1659 0.0000 0.0000 8.2442
# 3 25.1659 25.1659 57.9031 0.0000 0.0000 0.0000
# 4 0.0000 0.0000 0.0000 16.8486 0.0000 0.0000
# 5 0.0000 0.0000 0.0000 0.0000 16.8486 0.0000
# 6 -8.2442 8.2442 0.0000 0.0000 0.0000 30.0516
#
#
#
# Elastic Compliance Matrix: (Units=1/GPa)
#
#
# Indices 1 2 3 4 5 6 
#
# 1 0.010615 -0.002533 -0.003513 0.000000 0.000000 0.003607
# 2 -0.002533 0.010615 -0.003513 0.000000 0.000000 -0.003607
# 3 -0.003513 -0.003513 0.020323 0.000000 0.000000 0.000000
# 4 0.000000 0.000000 0.000000 0.059352 0.000000 0.000000
# 5 0.000000 0.000000 0.000000 0.000000 0.059352 0.000000
# 6 0.003607 -0.003607 0.000000 0.000000 0.000000 0.035255
#
#
# Mechanical properties :
#
#
# Convention : Reuss Voigt Hill
#
# Bulk Modulus (GPa) = 44.56918 49.97610 47.27264
# Shear Modulus (GPa) = 22.51160 26.16634 24.33897
#
# Velocity S-wave (km/s) = 3.39996 3.66557 3.53526
# Velocity P-wave (km/s) = 6.18864 6.60136 6.39833
#
# Compressibility (1/GPa) = 0.02243703
#
# Stress axis : x y z
#
# Youngs Moduli (GPa) = 94.20809 94.20809 49.20418
#
# Poissons Ratio (x) = 0.23862 0.17283
# Poissons Ratio (y) = 0.23862 0.17283
# Poissons Ratio (z) = 0.33091 0.33091
#
# Static dielectric constant tensor:
#      x y z
#    x 1.753620 0.000000 0.000000 
#    y 0.000000 1.753620 0.000000 
#    z 0.000000 0.000000 1.652240 
# 
# From -- ./inp_files/3176.got.cif
#   From: 2010.05.17/outbox.cif.g08.bks.cpg/sg82_2_cif.got.tgz:3176.got - 2010.06.03 18:52:26.
