data_PCOD9543879
_publ_section_title
;
Structure prediction by ZEFSAII (Michael W. Deem and Ramdas Pophale) SiO2 
 PCOD9543879
Probable space group: P 4/M
;
_chemical_formula_sum "Si O2"
_cell_formula_units_Z 40
_cell_length_a 7.021124
_cell_length_b 7.021124
_cell_length_c 29.053161
_cell_angle_alpha 90.000000
_cell_angle_beta 90.000000
_cell_angle_gamma 90.000000
_cell_volume 1432.209919
_symmetry_space_group_name_H-M "P 4/M"
_symmetry_group_IT_number 83
_symmetry_cell_setting 'tetragonal'
loop_
_space_group_symop_operation_xyz
x,y,z
-y,x,z
-x,-y,z
y,-x,z
-x,-y,-z
y,-x,-z
x,y,-z
-y,x,-z
loop_
_atom_site_type_symbol
_atom_site_label
_atom_site_fract_x
_atom_site_fract_y
_atom_site_fract_z
Si Si1 0.838286 0.719552 0.351980
Si Si2 0.847575 0.716551 0.252596
Si Si3 0.279499 0.835798 0.549356
Si Si4 0.782042 0.342027 0.000000
Si Si5 0.000000 0.500000 0.823920
Si Si6 0.216061 0.651385 0.900634
O O1 0.795080 0.629525 0.302434
O O2 0.787760 0.629390 0.401292
O O3 0.066842 0.752489 0.351996
O O4 0.075366 0.756868 0.251383
O O5 0.831420 0.584042 0.208302
O O6 0.369827 0.786537 0.500000
O O7 0.064830 0.751799 0.549349
O O8 0.746407 0.569910 0.000000
O O9 0.871860 0.297588 0.049520
O O10 0.915902 0.331869 0.856257
O O11 0.257168 0.423775 0.899417
#
# Coordination Sequence:
#
# PCOD9543879 Si02
#       6
#     8   8   8   4   4   8
#     4   7  10  18  31  45  66  98 129 157 193 236
#     4   9  18  31  43  57  82 114 143 169 201 244
#     4   7   8  10  20  41  65  86 114 155 196 230
#     4   7  12  27  48  64  82 110 136 160 198 246
#     4  12  20  27  44  68  87 108 140 176 206 232
#     4   9  18  32  48  66  88 111 136 168 205 244
#
# _framework density 27.928865999999999
#
# number of rings (size 3 to 8) (size 9 to 14) (size 15 to 20)
#    0.000    3.700    0.000    5.400    0.000    0.400 
#    0.000    0.000    0.000    0.000    0.000    0.700 
#    0.000   12.800    0.000    0.000    0.000    0.400 
#
# Total GULP energy -223513.311746 kJ/mol
# GULP energy per Si atom -5587.832794 kJ/mol
# Density = 2.786530 g / cm^3
# Si number density = 27.928866 Si / 1000 Ang^3
#
#
#
# Elastic Constant Matrix: (Units=GPa)
#
#
# Indices 1 2 3 4 5 6 
#
# 1 91.7658 7.6124 15.9438 0.0000 0.0000 8.3878
# 2 7.6124 91.7658 15.9438 0.0000 0.0000 -8.3878
# 3 15.9438 15.9438 276.9607 0.0000 0.0000 0.0000
# 4 0.0000 0.0000 0.0000 5.7354 0.0000 0.0000
# 5 0.0000 0.0000 0.0000 0.0000 5.7354 0.0000
# 6 8.3878 -8.3878 0.0000 0.0000 0.0000 11.0441
#
#
#
# Elastic Compliance Matrix: (Units=1/GPa)
#
#
# Indices 1 2 3 4 5 6 
#
# 1 0.012128 -0.001876 -0.000590 0.000000 0.000000 -0.010635
# 2 -0.001876 0.012128 -0.000590 0.000000 0.000000 0.010635
# 3 -0.000590 -0.000590 0.003679 0.000000 0.000000 0.000000
# 4 0.000000 0.000000 0.000000 0.174357 0.000000 0.000000
# 5 0.000000 0.000000 0.000000 0.000000 0.174357 0.000000
# 6 -0.010635 0.010635 0.000000 0.000000 0.000000 0.106701
#
#
# Mechanical properties :
#
#
# Convention : Reuss Voigt Hill
#
# Bulk Modulus (GPa) = 45.82581 59.94358 52.88470
# Shear Modulus (GPa) = 10.06574 32.56911 21.31742
#
# Velocity S-wave (km/s) = 1.90050 3.41859 2.76574
# Velocity P-wave (km/s) = 4.61080 6.09031 5.40145
#
# Compressibility (1/GPa) = 0.02182176
#
# Stress axis : x y z
#
# Youngs Moduli (GPa) = 82.45699 82.45699 271.84482
#
# Poissons Ratio (x) = 0.15466 0.16044
# Poissons Ratio (y) = 0.15466 0.16044
# Poissons Ratio (z) = 0.04866 0.04866
#
# Static dielectric constant tensor:
#      x y z
#    x 2.137540 0.000000 0.000000 
#    y 0.000000 2.137540 0.000000 
#    z 0.000000 0.000000 2.306820 
# 
# From -- ./inp_files/3278.got.cif
#   From: 2010.05.17/outbox.cif.g08.bks.cpg/sg83_2_cif.got.tgz:3278.got - 2010.06.03 18:55:12.
