data_PCOD9543194
_publ_section_title
;
Structure prediction by ZEFSAII (Michael W. Deem and Ramdas Pophale) SiO2 
 PCOD9543194
Probable space group: I -4 
;
_chemical_formula_sum "Si O2"
_cell_formula_units_Z 46
_cell_length_a 11.694101
_cell_length_b 11.694101
_cell_length_c 14.145200
_cell_angle_alpha 90.000000
_cell_angle_beta 90.000000
_cell_angle_gamma 90.000000
_cell_volume 1934.384365
_symmetry_space_group_name_H-M "I -4 "
_symmetry_group_IT_number 82
_symmetry_cell_setting 'tetragonal'
loop_
_space_group_symop_operation_xyz
x,y,z
y,-x,-z
-x,-y,z
-y,x,-z
1/2+x,1/2+y,1/2+z
1/2+y,1/2-x,1/2-z
1/2-x,1/2-y,1/2+z
1/2-y,1/2+x,1/2-z
loop_
_atom_site_type_symbol
_atom_site_label
_atom_site_fract_x
_atom_site_fract_y
_atom_site_fract_z
Si Si1 0.156006 0.799160 0.280569
Si Si2 0.976902 0.382367 0.403765
Si Si3 0.000000 0.000000 0.761921
Si Si4 0.392704 0.712470 0.365973
Si Si5 0.500000 0.000000 0.250000
Si Si6 0.872013 0.390218 0.601152
Si Si7 0.771787 0.689747 0.428836
O O1 0.289731 0.778615 0.310041
O O2 0.136147 0.769571 0.169967
O O3 0.093002 0.704981 0.342526
O O4 0.089010 0.918666 0.294847
O O5 0.908275 0.421336 0.496235
O O6 0.819665 0.266023 0.588645
O O7 0.000000 0.500000 0.350947
O O8 0.094230 0.325702 0.437456
O O9 0.079433 0.912514 0.823447
O O10 0.513005 0.781888 0.365335
O O11 0.354691 0.710448 0.476351
O O12 0.399093 0.028272 0.322767
#
# Coordination Sequence:
#
# PCOD9543194 Si02
#       7
#     8   8   4   8   2   8   8
#     4  12  29  51  79 119 162 214 271 342 411 504
#     4  12  27  49  76 115 160 208 262 332 419 483
#     4  12  30  53  82 125 162 226 272 347 423 486
#     4  12  27  52  81 118 165 200 287 338 407 495
#     4  12  24  44  80 112 142 204 268 320 392 480
#     4  12  25  49  80 112 156 207 263 340 401 482
#     4  12  27  47  78 118 155 210 267 336 405 488
#
# _framework density 23.780177999999999
#
# number of rings (size 3 to 8) (size 9 to 14) (size 15 to 20)
#    0.000    0.000    6.087    2.087    7.304    0.696 
#    6.261    0.000    0.000    1.043    0.000    0.000 
#    0.000    0.000    0.000    0.000    0.000    0.000 
#
# Total GULP energy -128599.140870 kJ/mol
# GULP energy per Si atom -5591.266994 kJ/mol
# Density = 2.372605 g / cm^3
# Si number density = 23.780178 Si / 1000 Ang^3
#
#
#
# Elastic Constant Matrix: (Units=GPa)
#
#
# Indices 1 2 3 4 5 6 
#
# 1 112.8501 57.1661 25.7804 0.0000 0.0000 -1.8882
# 2 57.1661 112.8501 25.7804 0.0000 0.0000 1.8882
# 3 25.7804 25.7804 135.3399 0.0000 0.0000 0.0000
# 4 0.0000 0.0000 0.0000 31.1855 0.0000 0.0000
# 5 0.0000 0.0000 0.0000 0.0000 31.1855 0.0000
# 6 -1.8882 1.8882 0.0000 0.0000 0.0000 57.8181
#
#
#
# Elastic Compliance Matrix: (Units=1/GPa)
#
#
# Indices 1 2 3 4 5 6 
#
# 1 0.012120 -0.005878 -0.001189 0.000000 0.000000 0.000588
# 2 -0.005878 0.012120 -0.001189 0.000000 0.000000 -0.000588
# 3 -0.001189 -0.001189 0.007842 0.000000 0.000000 0.000000
# 4 0.000000 0.000000 0.000000 0.032066 0.000000 0.000000
# 5 0.000000 0.000000 0.000000 0.000000 0.032066 0.000000
# 6 0.000588 -0.000588 0.000000 0.000000 0.000000 0.017334
#
#
# Mechanical properties :
#
#
# Convention : Reuss Voigt Hill
#
# Bulk Modulus (GPa) = 64.22499 64.27709 64.25104
# Shear Modulus (GPa) = 36.96822 40.85871 38.91347
#
# Velocity S-wave (km/s) = 3.94710 4.14959 4.04961
# Velocity P-wave (km/s) = 6.91659 7.07441 6.99594
#
# Compressibility (1/GPa) = 0.01557026
#
# Stress axis : x y z
#
# Youngs Moduli (GPa) = 82.50577 82.50578 127.52146
#
# Poissons Ratio (x) = 0.48497 0.15163
# Poissons Ratio (y) = 0.48497 0.15163
# Poissons Ratio (z) = 0.09811 0.09811
#
# Static dielectric constant tensor:
#      x y z
#    x 1.949520 0.000000 0.000000 
#    y 0.000000 1.949520 0.000000 
#    z 0.000000 0.000000 1.909560 
# 
# From -- ./inp_files/2672.got.cif
#   From: 2010.05.17/outbox.cif.g08.bks.cpg/sg82_2_cif.got.tgz:2672.got - 2010.06.03 18:52:26.
