data_PCOD9543134
_publ_section_title
;
Structure prediction by ZEFSAII (Michael W. Deem and Ramdas Pophale) SiO2 
 PCOD9543134
Probable space group: I -4 
;
_chemical_formula_sum "Si O2"
_cell_formula_units_Z 34
_cell_length_a 11.595040
_cell_length_b 11.595040
_cell_length_c 11.213699
_cell_angle_alpha 90.000000
_cell_angle_beta 90.000000
_cell_angle_gamma 90.000000
_cell_volume 1507.625231
_symmetry_space_group_name_H-M "I -4 "
_symmetry_group_IT_number 82
_symmetry_cell_setting 'tetragonal'
loop_
_space_group_symop_operation_xyz
x,y,z
y,-x,-z
-x,-y,z
-y,x,-z
1/2+x,1/2+y,1/2+z
1/2+y,1/2-x,1/2-z
1/2-x,1/2-y,1/2+z
1/2-y,1/2+x,1/2-z
loop_
_atom_site_type_symbol
_atom_site_label
_atom_site_fract_x
_atom_site_fract_y
_atom_site_fract_z
Si Si1 0.174430 0.973435 0.452857
Si Si2 0.668534 0.044773 0.805319
Si Si3 0.586314 0.331446 0.303636
Si Si4 0.926238 0.393182 0.946875
Si Si5 0.500000 0.500000 0.500000
O O1 0.168545 0.012258 0.315823
O O2 0.128242 0.083545 0.525329
O O3 0.301695 0.936950 0.489361
O O4 0.636214 0.932007 0.726929
O O5 0.792875 0.101678 0.785392
O O6 0.656094 0.999180 0.941206
O O7 0.601176 0.201429 0.347737
O O8 0.520979 0.394487 0.411489
O O9 0.000000 0.500000 0.899568
#
# Coordination Sequence:
#
# PCOD9543134 Si02
#       5
#     8   8   8   8   2
#     4  11  28  50  76 112 155 206 259 322 391 462
#     4  11  24  48  79 112 154 209 261 310 386 472
#     4  12  28  48  81 114 159 201 264 331 389 467
#     4  12  28  50  77 115 156 203 262 319 392 464
#     4  12  24  48  78 120 152 204 264 326 404 452
#
# _framework density 22.552026000000001
#
# number of rings (size 3 to 8) (size 9 to 14) (size 15 to 20)
#    0.000    0.471    4.706    2.824    6.588    3.765 
#    0.000    0.000    0.000    0.000    0.000    0.000 
#    0.000    0.000    0.000    0.000    0.000    0.000 
#
# Total GULP energy -95260.373171 kJ/mol
# GULP energy per Si atom -5603.551363 kJ/mol
# Density = 2.250070 g / cm^3
# Si number density = 22.552026 Si / 1000 Ang^3
#
#
#
# Elastic Constant Matrix: (Units=GPa)
#
#
# Indices 1 2 3 4 5 6 
#
# 1 71.3422 26.7736 27.5123 0.0000 0.0000 -3.3912
# 2 26.7736 71.3422 27.5123 0.0000 0.0000 3.3912
# 3 27.5123 27.5123 126.0335 0.0000 0.0000 0.0000
# 4 0.0000 0.0000 0.0000 20.3596 0.0000 0.0000
# 5 0.0000 0.0000 0.0000 0.0000 20.3596 0.0000
# 6 -3.3912 3.3912 0.0000 0.0000 0.0000 19.3317
#
#
#
# Elastic Compliance Matrix: (Units=1/GPa)
#
#
# Indices 1 2 3 4 5 6 
#
# 1 0.017333 -0.005719 -0.002535 0.000000 0.000000 0.004044
# 2 -0.005719 0.017333 -0.002535 0.000000 0.000000 -0.004044
# 3 -0.002535 -0.002535 0.009041 0.000000 0.000000 0.000000
# 4 0.000000 0.000000 0.000000 0.049117 0.000000 0.000000
# 5 0.000000 0.000000 0.000000 0.000000 0.049117 0.000000
# 6 0.004044 -0.004044 0.000000 0.000000 0.000000 0.053147
#
#
# Mechanical properties :
#
#
# Convention : Reuss Voigt Hill
#
# Bulk Modulus (GPa) = 45.19159 48.03490 46.61324
# Shear Modulus (GPa) = 22.31697 24.47149 23.39423
#
# Velocity S-wave (km/s) = 3.14917 3.29768 3.22428
# Velocity P-wave (km/s) = 5.77108 5.98710 5.88008
#
# Compressibility (1/GPa) = 0.02212801
#
# Stress axis : x y z
#
# Youngs Moduli (GPa) = 57.69245 57.69245 110.60425
#
# Poissons Ratio (x) = 0.32997 0.28041
# Poissons Ratio (y) = 0.32997 0.28041
# Poissons Ratio (z) = 0.14626 0.14626
#
# Static dielectric constant tensor:
#      x y z
#    x 1.839720 0.000000 0.000000 
#    y 0.000000 1.839720 0.000000 
#    z 0.000000 0.000000 1.833790 
# 
# From -- ./inp_files/1583.got.cif
#   From: 2010.05.17/outbox.cif.g08.bks.cpg/sg82_1_cif.got.tgz:1583.got - 2010.06.03 18:52:26.
