data_PCOD9543280
_publ_section_title
;
Structure prediction by ZEFSAII (Michael W. Deem and Ramdas Pophale) SiO2 
 PCOD9543280
Probable space group: P 4/M
;
_chemical_formula_sum "Si O2"
_cell_formula_units_Z 56
_cell_length_a 19.043815
_cell_length_b 19.043815
_cell_length_c 7.394894
_cell_angle_alpha 90.000000
_cell_angle_beta 90.000000
_cell_angle_gamma 90.000000
_cell_volume 2681.883207
_symmetry_space_group_name_H-M "P 4/M"
_symmetry_group_IT_number 83
_symmetry_cell_setting 'tetragonal'
loop_
_space_group_symop_operation_xyz
x,y,z
-y,x,z
-x,-y,z
y,-x,z
-x,-y,-z
y,-x,-z
x,y,-z
-y,x,-z
loop_
_atom_site_type_symbol
_atom_site_label
_atom_site_fract_x
_atom_site_fract_y
_atom_site_fract_z
Si Si1 0.218455 0.808475 0.290723
Si Si2 0.074009 0.469025 0.785515
Si Si3 0.405262 0.439055 0.780048
Si Si4 0.186406 0.573440 0.793504
Si Si5 0.938481 0.695335 0.718017
Si Si6 0.692104 0.326885 0.219846
Si Si7 0.289909 0.097227 0.279445
O O1 0.202865 0.823951 0.500000
O O2 0.253119 0.878055 0.211300
O O3 0.275920 0.746241 0.282940
O O4 0.147719 0.773063 0.216173
O O5 0.143034 0.508743 0.711787
O O6 0.076018 0.385782 0.763147
O O7 0.000000 0.500000 0.713508
O O8 0.074115 0.484846 0.000000
O O9 0.480173 0.406094 0.723583
O O10 0.343807 0.386993 0.723330
O O11 0.404639 0.440100 0.000000
O O12 0.256299 0.610004 0.716871
O O13 0.130745 0.637656 0.789870
O O14 0.205287 0.554198 0.000000
O O15 0.937835 0.699201 0.500000
O O16 0.016815 0.715098 0.777284
O O17 0.695246 0.325774 0.000000
O O18 0.293044 0.100335 0.500000
#
# Coordination Sequence:
#
# PCOD9543280 Si02
#       7
#     8   8   8   8   8   8   8
#     4   9  19  34  48  67  94 119 149 189 230 274
#     4  10  19  30  45  69 101 130 153 187 233 274
#     4   8  14  25  42  64  87 112 148 193 233 265
#     4   9  17  29  44  66  95 125 155 188 226 270
#     4  10  20  32  49  71  93 123 159 193 229 277
#     4   9  17  29  47  68  90 119 155 191 228 275
#     4   9  17  31  50  66  87 122 156 186 225 273
#
# _framework density 20.880848
#
# number of rings (size 3 to 8) (size 9 to 14) (size 15 to 20)
#    0.000    2.857    1.429    0.429    0.000    2.571 
#    0.000    2.857    0.000    1.286    0.000    4.000 
#    0.000    0.000    0.000    8.429    0.000    8.857 
#
# Total GULP energy -312393.510876 kJ/mol
# GULP energy per Si atom -5578.455551 kJ/mol
# Density = 2.083332 g / cm^3
# Si number density = 20.880848 Si / 1000 Ang^3
#
#
#
# Elastic Constant Matrix: (Units=GPa)
#
#
# Indices 1 2 3 4 5 6 
#
# 1 68.5659 33.8551 -12.1846 0.0000 0.0000 -13.7387
# 2 33.8551 68.5659 -12.1846 0.0000 0.0000 13.7387
# 3 -12.1846 -12.1846 71.7669 0.0000 0.0000 0.0000
# 4 0.0000 0.0000 0.0000 -1.4551 0.0000 0.0000
# 5 0.0000 0.0000 0.0000 0.0000 -1.4551 0.0000
# 6 -13.7387 13.7387 0.0000 0.0000 0.0000 32.4714
#
#
#
# Elastic Compliance Matrix: (Units=1/GPa)
#
#
# Indices 1 2 3 4 5 6 
#
# 1 0.026746 -0.016572 0.001727 0.000000 0.000000 0.018328
# 2 -0.016572 0.026746 0.001727 0.000000 0.000000 -0.018328
# 3 0.001727 0.001727 0.014521 0.000000 0.000000 0.000000
# 4 0.000000 0.000000 0.000000 -0.687222 0.000000 0.000000
# 5 0.000000 0.000000 0.000000 0.000000 -0.687222 0.000000
# 6 0.018328 -0.018328 0.000000 0.000000 0.000000 0.046305
#
#
# Mechanical properties :
#
#
# Convention : Reuss Voigt Hill
#
# Bulk Modulus (GPa) = 23.93507 25.31893 24.62700
# Shear Modulus (GPa) = -4.09848 19.20642 7.55397
#
# Velocity S-wave (km/s) = -1.40252 3.03613 1.90408
# Velocity P-wave (km/s) = 2.97739 4.94394 4.08089
#
# Compressibility (1/GPa) = 0.04177969
#
# Stress axis : x y z
#
# Youngs Moduli (GPa) = 37.38839 37.38839 68.86775
#
# Poissons Ratio (x) = 0.61959 -0.11897
# Poissons Ratio (y) = 0.61959 -0.11897
# Poissons Ratio (z) = -0.06459 -0.06459
#
# Static dielectric constant tensor:
#      x y z
#    x 1.737780 0.000000 0.000000 
#    y 0.000000 1.737780 0.000000 
#    z 0.000000 0.000000 1.824650 
# 
# From -- ./inp_files/1981.got.cif
#   From: 2010.05.17/outbox.cif.g08.bks.cpg/sg83_1_cif.got.tgz:1981.got - 2010.06.03 18:55:12.
