data_PCOD9543534
_publ_section_title
;
Structure prediction by ZEFSAII (Michael W. Deem and Ramdas Pophale) SiO2 
 PCOD9543534
Probable space group: P 4/M
;
_chemical_formula_sum "Si O2"
_cell_formula_units_Z 32
_cell_length_a 8.141865
_cell_length_b 8.141865
_cell_length_c 22.811812
_cell_angle_alpha 90.000000
_cell_angle_beta 90.000000
_cell_angle_gamma 90.000000
_cell_volume 1512.194235
_symmetry_space_group_name_H-M "P 4/M"
_symmetry_group_IT_number 83
_symmetry_cell_setting 'tetragonal'
loop_
_space_group_symop_operation_xyz
x,y,z
-y,x,z
-x,-y,z
y,-x,z
-x,-y,-z
y,-x,-z
x,y,-z
-y,x,-z
loop_
_atom_site_type_symbol
_atom_site_label
_atom_site_fract_x
_atom_site_fract_y
_atom_site_fract_z
Si Si1 0.764321 0.416794 0.064155
Si Si2 0.000000 0.500000 0.400790
Si Si3 0.737233 0.911554 0.695080
Si Si4 0.764310 0.584312 0.500000
Si Si5 0.914987 0.263554 0.824660
O O1 0.697360 0.601930 0.066525
O O2 0.870987 0.372909 0.120094
O O3 0.842561 0.388213 0.000000
O O4 0.891197 0.387848 0.357796
O O5 0.880686 0.602775 0.443400
O O6 0.662563 0.886185 0.759968
O O7 0.899910 0.800771 0.691307
O O8 0.604787 0.699140 0.500000
O O9 0.100549 0.198014 0.827546
#
# Coordination Sequence:
#
# PCOD9543534 Si02
#       5
#     8   4   8   4   8
#     4   9  19  35  52  72 101 136 175 219 263 310
#     4  11  20  34  60  82 101 144 184 206 251 312
#     4   9  19  35  53  77 108 137 172 219 262 305
#     4  10  22  38  54  80 116 142 170 216 258 296
#     4   9  19  34  51  74 104 135 169 216 268 312
#
# _framework density 21.161304000000001
#
# number of rings (size 3 to 8) (size 9 to 14) (size 15 to 20)
#    0.000    2.625    0.000    3.750    0.000    6.000 
#    0.000    3.750    0.000    9.000    0.000    0.000 
#    0.000    0.000    0.000    0.000    0.000    0.000 
#
# Total GULP energy -178774.014357 kJ/mol
# GULP energy per Si atom -5586.687949 kJ/mol
# Density = 2.111314 g / cm^3
# Si number density = 21.161304 Si / 1000 Ang^3
#
#
#
# Elastic Constant Matrix: (Units=GPa)
#
#
# Indices 1 2 3 4 5 6 
#
# 1 37.2085 2.8390 39.8400 0.0000 0.0000 -2.8055
# 2 2.8390 37.2085 39.8400 0.0000 0.0000 2.8055
# 3 39.8400 39.8400 203.7364 0.0000 0.0000 0.0000
# 4 0.0000 0.0000 0.0000 47.5635 0.0000 0.0000
# 5 0.0000 0.0000 0.0000 0.0000 47.5635 0.0000
# 6 -2.8055 2.8055 0.0000 0.0000 0.0000 28.6595
#
#
#
# Elastic Compliance Matrix: (Units=1/GPa)
#
#
# Indices 1 2 3 4 5 6 
#
# 1 0.035220 0.005652 -0.007992 0.000000 0.000000 0.002894
# 2 0.005652 0.035220 -0.007992 0.000000 0.000000 -0.002894
# 3 -0.007992 -0.007992 0.008034 0.000000 0.000000 0.000000
# 4 0.000000 0.000000 0.000000 0.021025 0.000000 0.000000
# 5 0.000000 0.000000 0.000000 0.000000 0.021025 0.000000
# 6 0.002894 -0.002894 0.000000 0.000000 0.000000 0.035459
#
#
# Mechanical properties :
#
#
# Convention : Reuss Voigt Hill
#
# Bulk Modulus (GPa) = 17.29835 49.24348 33.27091
# Shear Modulus (GPa) = 25.52088 37.79957 31.66022
#
# Velocity S-wave (km/s) = 3.47654 4.23100 3.87219
# Velocity P-wave (km/s) = 4.93025 6.86946 5.97900
#
# Compressibility (1/GPa) = 0.05780899
#
# Stress axis : x y z
#
# Youngs Moduli (GPa) = 28.39277 28.39277 124.46949
#
# Poissons Ratio (x) = -0.16048 0.99482
# Poissons Ratio (y) = -0.16048 0.99482
# Poissons Ratio (z) = 0.22693 0.22693
#
# Static dielectric constant tensor:
#      x y z
#    x 1.771500 0.000000 0.000000 
#    y 0.000000 1.771500 0.000000 
#    z 0.000000 0.000000 1.768160 
# 
# From -- ./inp_files/2809.got.cif
#   From: 2010.05.17/outbox.cif.g08.bks.cpg/sg83_2_cif.got.tgz:2809.got - 2010.06.03 18:55:12.
