data_PCOD9543236
_publ_section_title
;
Structure prediction by ZEFSAII (Michael W. Deem and Ramdas Pophale) SiO2 
 PCOD9543236
Probable space group: P 4/M
;
_chemical_formula_sum "Si O2"
_cell_formula_units_Z 56
_cell_length_a 19.184530
_cell_length_b 19.184530
_cell_length_c 8.410571
_cell_angle_alpha 90.000000
_cell_angle_beta 90.000000
_cell_angle_gamma 90.000000
_cell_volume 3095.478623
_symmetry_space_group_name_H-M "P 4/M"
_symmetry_group_IT_number 83
_symmetry_cell_setting 'tetragonal'
loop_
_space_group_symop_operation_xyz
x,y,z
-y,x,z
-x,-y,z
y,-x,z
-x,-y,-z
y,-x,-z
x,y,-z
-y,x,-z
loop_
_atom_site_type_symbol
_atom_site_label
_atom_site_fract_x
_atom_site_fract_y
_atom_site_fract_z
Si Si1 0.404305 0.560535 0.691855
Si Si2 0.981751 0.288705 0.308257
Si Si3 0.381354 0.812037 0.685747
Si Si4 0.246079 0.172608 0.310296
Si Si5 0.689119 0.319806 0.813490
Si Si6 0.563623 0.047221 0.694143
Si Si7 0.756192 0.117865 0.185713
O O1 0.406838 0.479333 0.740167
O O2 0.401638 0.562141 0.500000
O O3 0.341502 0.606766 0.756717
O O4 0.986431 0.284361 0.500000
O O5 0.901824 0.277520 0.263298
O O6 0.009078 0.364988 0.258499
O O7 0.037625 0.235563 0.233483
O O8 0.393747 0.797619 0.500000
O O9 0.368968 0.739312 0.772734
O O10 0.434940 0.871464 0.744468
O O11 0.307596 0.852056 0.708457
O O12 0.236079 0.173221 0.500000
O O13 0.294687 0.238793 0.266994
O O14 0.171649 0.182903 0.225586
O O15 0.701053 0.320244 0.000000
O O16 0.562532 0.049183 0.500000
O O17 0.500000 0.000000 0.748811
O O18 0.737779 0.123680 0.000000
#
# Coordination Sequence:
#
# PCOD9543236 Si02
#       7
#     8   8   8   8   8   8   8
#     4   9  19  38  61  79  96 126 173 221 262 312
#     4   9  18  32  51  74  99 132 171 211 253 302
#     4   9  16  29  49  70  95 131 175 212 244 291
#     4  10  19  33  53  76 104 136 178 220 252 295
#     4  11  21  33  51  76 108 136 167 210 263 317
#     4   8  14  27  47  71  98 126 163 207 250 293
#     4  10  18  29  49  73  99 132 167 206 256 307
#
# _framework density 18.090900999999999
#
# number of rings (size 3 to 8) (size 9 to 14) (size 15 to 20)
#    0.000    2.571    0.000    6.429    0.000    1.714 
#    2.571    0.714    0.000   11.143    0.000    3.000 
#    0.000    0.000    0.000    0.000    0.000    0.000 
#
# Total GULP energy -311990.861956 kJ/mol
# GULP energy per Si atom -5571.265392 kJ/mol
# Density = 1.804972 g / cm^3
# Si number density = 18.090901 Si / 1000 Ang^3
#
#
#
# Elastic Constant Matrix: (Units=GPa)
#
#
# Indices 1 2 3 4 5 6 
#
# 1 63.9571 27.6283 10.3916 0.0000 0.0000 6.1974
# 2 27.6283 63.9571 10.3916 0.0000 0.0000 -6.1974
# 3 10.3916 10.3916 28.7301 0.0000 0.0000 0.0000
# 4 0.0000 0.0000 0.0000 -13.7680 0.0000 0.0000
# 5 0.0000 0.0000 0.0000 0.0000 -13.7680 0.0000
# 6 6.1974 -6.1974 0.0000 0.0000 0.0000 23.2338
#
#
#
# Elastic Compliance Matrix: (Units=1/GPa)
#
#
# Indices 1 2 3 4 5 6 
#
# 1 0.021089 -0.009194 -0.004302 0.000000 0.000000 -0.008078
# 2 -0.009194 0.021089 -0.004302 0.000000 0.000000 0.008078
# 3 -0.004302 -0.004302 0.037919 0.000000 0.000000 0.000000
# 4 0.000000 0.000000 0.000000 -0.072632 0.000000 0.000000
# 5 0.000000 0.000000 0.000000 0.000000 -0.072632 0.000000
# 6 -0.008078 0.008078 0.000000 0.000000 0.000000 0.047350
#
#
# Mechanical properties :
#
#
# Convention : Reuss Voigt Hill
#
# Bulk Modulus (GPa) = 22.47214 28.16301 25.31757
# Shear Modulus (GPa) = 153.32016 6.35510 79.83763
#
# Velocity S-wave (km/s) = 9.21596 1.87630 6.65035
# Velocity P-wave (km/s) = 11.21133 4.50503 8.54369
#
# Compressibility (1/GPa) = 0.04449955
#
# Stress axis : x y z
#
# Youngs Moduli (GPa) = 47.41874 47.41874 26.37202
#
# Poissons Ratio (x) = 0.43595 0.11346
# Poissons Ratio (y) = 0.43595 0.11346
# Poissons Ratio (z) = 0.20401 0.20401
#
# Static dielectric constant tensor:
#      x y z
#    x 1.646620 0.000000 0.000000 
#    y 0.000000 1.646620 0.000000 
#    z 0.000000 0.000000 1.613090 
# 
# From -- ./inp_files/1200.got.cif
#   From: 2010.05.17/outbox.cif.g08.bks.cpg/sg83_1_cif.got.tgz:1200.got - 2010.06.03 18:55:12.
