data_PCOD9543486
_publ_section_title
;
Structure prediction by ZEFSAII (Michael W. Deem and Ramdas Pophale) SiO2 
 PCOD9543486
Probable space group: P 4/M
;
_chemical_formula_sum "Si O2"
_cell_formula_units_Z 36
_cell_length_a 15.118558
_cell_length_b 15.118558
_cell_length_c 7.571678
_cell_angle_alpha 90.000000
_cell_angle_beta 90.000000
_cell_angle_gamma 90.000000
_cell_volume 1730.664468
_symmetry_space_group_name_H-M "P 4/M"
_symmetry_group_IT_number 83
_symmetry_cell_setting 'tetragonal'
loop_
_space_group_symop_operation_xyz
x,y,z
-y,x,z
-x,-y,z
y,-x,z
-x,-y,-z
y,-x,-z
x,y,-z
-y,x,-z
loop_
_atom_site_type_symbol
_atom_site_label
_atom_site_fract_x
_atom_site_fract_y
_atom_site_fract_z
Si Si1 0.927213 0.749247 0.288881
Si Si2 0.127707 0.767232 0.284279
Si Si3 0.456497 0.908516 0.211694
Si Si4 0.236358 0.593136 0.203634
Si Si5 0.420304 0.375049 0.500000
O O1 0.929332 0.759456 0.500000
O O2 0.851311 0.815156 0.224416
O O3 0.905671 0.647027 0.251217
O O4 0.026016 0.770329 0.224987
O O5 0.129356 0.763477 0.500000
O O6 0.173184 0.678247 0.215974
O O7 0.511145 0.823048 0.272510
O O8 0.500000 0.000000 0.279850
O O9 0.467508 0.909362 0.000000
O O10 0.319817 0.607799 0.328495
O O11 0.261916 0.578221 0.000000
O O12 0.526556 0.382715 0.500000
#
# Coordination Sequence:
#
# PCOD9543486 Si02
#       5
#     8   8   8   8   4
#     4  10  22  36  61  90 126 175 217 269 327 389
#     4  10  21  39  59  92 132 173 223 269 325 388
#     4  10  21  37  58  89 123 155 204 268 327 379
#     4  11  24  41  68 100 130 167 218 276 327 387
#     4  11  28  50  69  92 132 175 214 265 327 402
#
# _framework density 20.801259000000002
#
# number of rings (size 3 to 8) (size 9 to 14) (size 15 to 20)
#    0.000    1.667    3.333    0.000    4.667    2.667 
#    0.000    3.333    0.000    0.000    0.000    3.111 
#    0.000    0.000    0.000    0.000    0.000    0.000 
#
# Total GULP energy -201300.610533 kJ/mol
# GULP energy per Si atom -5591.683626 kJ/mol
# Density = 2.075391 g / cm^3
# Si number density = 20.801259 Si / 1000 Ang^3
#
#
#
# Elastic Constant Matrix: (Units=GPa)
#
#
# Indices 1 2 3 4 5 6 
#
# 1 101.1644 50.0810 -0.0127 0.0000 0.0000 -8.7634
# 2 50.0810 101.1644 -0.0127 0.0000 0.0000 8.7634
# 3 -0.0127 -0.0127 69.2648 0.0000 0.0000 0.0000
# 4 0.0000 0.0000 0.0000 -79.0177 0.0000 0.0000
# 5 0.0000 0.0000 0.0000 0.0000 -79.0177 0.0000
# 6 -8.7634 8.7634 0.0000 0.0000 0.0000 32.3799
#
#
#
# Elastic Compliance Matrix: (Units=1/GPa)
#
#
# Indices 1 2 3 4 5 6 
#
# 1 0.014096 -0.007484 0.000001 0.000000 0.000000 0.005840
# 2 -0.007484 0.014096 0.000001 0.000000 0.000000 -0.005840
# 3 0.000001 0.000001 0.014437 0.000000 0.000000 0.000000
# 4 0.000000 0.000000 0.000000 -0.012655 0.000000 0.000000
# 5 0.000000 0.000000 0.000000 0.000000 -0.012655 0.000000
# 6 0.005840 -0.005840 0.000000 0.000000 0.000000 0.034045
#
#
# Mechanical properties :
#
#
# Convention : Reuss Voigt Hill
#
# Bulk Modulus (GPa) = 36.14581 41.30056 38.72318
# Shear Modulus (GPa) = 66.18333 -10.36191 27.91071
#
# Velocity S-wave (km/s) = 5.64677 -2.23432 3.66701
# Velocity P-wave (km/s) = 7.74140 3.63891 6.04859
#
# Compressibility (1/GPa) = 0.02766572
#
# Stress axis : x y z
#
# Youngs Moduli (GPa) = 70.94348 70.94348 69.26478
#
# Poissons Ratio (x) = 0.53094 -0.00008
# Poissons Ratio (y) = 0.53094 -0.00008
# Poissons Ratio (z) = -0.00009 -0.00009
#
# Static dielectric constant tensor:
#      x y z
#    x 1.719860 0.000000 0.000000 
#    y 0.000000 1.719860 0.000000 
#    z 0.000000 0.000000 1.749210 
# 
# From -- ./inp_files/503.got.cif
#   From: 2010.05.17/outbox.cif.g08.bks.cpg/sg83_1_cif.got.tgz:503.got - 2010.06.03 18:55:12.
