data_PCOD9543074
_publ_section_title
;
Structure prediction by ZEFSAII (Michael W. Deem and Ramdas Pophale) SiO2 
 PCOD9543074
Probable space group: I -4 
;
_chemical_formula_sum "Si O2"
_cell_formula_units_Z 40
_cell_length_a 10.719892
_cell_length_b 10.719892
_cell_length_c 14.617811
_cell_angle_alpha 90.000000
_cell_angle_beta 90.000000
_cell_angle_gamma 90.000000
_cell_volume 1679.821604
_symmetry_space_group_name_H-M "I -4 "
_symmetry_group_IT_number 82
_symmetry_cell_setting 'tetragonal'
loop_
_space_group_symop_operation_xyz
x,y,z
y,-x,-z
-x,-y,z
-y,x,-z
1/2+x,1/2+y,1/2+z
1/2+y,1/2-x,1/2-z
1/2-x,1/2-y,1/2+z
1/2-y,1/2+x,1/2-z
loop_
_atom_site_type_symbol
_atom_site_label
_atom_site_fract_x
_atom_site_fract_y
_atom_site_fract_z
Si Si1 0.153135 0.147266 0.875418
Si Si2 0.647267 0.346866 0.124582
Si Si3 0.886001 0.734055 0.674871
Si Si4 0.765945 0.386001 0.325129
Si Si5 0.500000 0.500000 0.000000
Si Si6 0.500000 0.000000 0.750000
Si Si7 0.000000 0.500000 0.750000
Si Si8 0.000000 0.000000 0.000000
O O1 0.250000 0.250000 0.911261
O O2 0.121534 0.193905 0.772965
O O3 0.217262 0.011368 0.871201
O O4 0.032781 0.117912 0.936011
O O5 0.511368 0.282740 0.128799
O O6 0.693905 0.378467 0.227035
O O7 0.617912 0.467220 0.063989
O O8 0.750000 0.750000 0.631486
O O9 0.908850 0.587910 0.692947
O O10 0.912091 0.408849 0.307052
#
# Coordination Sequence:
#
# PCOD9543074 Si02
#       8
#     8   8   8   8   2   2   2   2
#     4  11  24  45  65 100 135 178 223 277 338 396
#     4  11  24  45  65 100 135 178 223 277 338 396
#     4  11  22  42  75 104 130 167 232 290 337 390
#     4  11  22  42  75 104 130 167 232 290 337 390
#     4  12  28  42  60  92 148 186 220 260 332 422
#     4  12  20  40  72 110 132 164 224 302 344 380
#     4  12  20  40  72 110 132 164 224 302 344 380
#     4  12  28  42  60  92 148 186 220 260 332 422
#
# _framework density 23.812054
#
# number of rings (size 3 to 8) (size 9 to 14) (size 15 to 20)
#    0.000    0.800    8.000    2.400    0.000    1.600 
#    0.000    0.000    0.000    0.000    0.000    0.000 
#    0.000    0.000    0.000    0.000    0.000    0.000 
#
# Total GULP energy -111845.847350 kJ/mol
# GULP energy per Si atom -5592.292367 kJ/mol
# Density = 2.375786 g / cm^3
# Si number density = 23.812054 Si / 1000 Ang^3
#
#
#
# Elastic Constant Matrix: (Units=GPa)
#
#
# Indices 1 2 3 4 5 6 
#
# 1 170.0458 52.5142 18.1795 0.0000 0.0000 6.5468
# 2 52.5142 170.0458 18.1795 0.0000 0.0000 -6.5468
# 3 18.1795 18.1795 69.9042 0.0000 0.0000 0.0000
# 4 0.0000 0.0000 0.0000 7.7595 0.0000 0.0000
# 5 0.0000 0.0000 0.0000 0.0000 7.7595 0.0000
# 6 6.5468 -6.5468 0.0000 0.0000 0.0000 63.9784
#
#
#
# Elastic Compliance Matrix: (Units=1/GPa)
#
#
# Indices 1 2 3 4 5 6 
#
# 1 0.006650 -0.001957 -0.001220 0.000000 0.000000 -0.000881
# 2 -0.001957 0.006650 -0.001220 0.000000 0.000000 0.000881
# 3 -0.001220 -0.001220 0.014940 0.000000 0.000000 0.000000
# 4 0.000000 0.000000 0.000000 0.128875 0.000000 0.000000
# 5 0.000000 0.000000 0.000000 0.000000 0.128875 0.000000
# 6 -0.000881 0.000881 0.000000 0.000000 0.000000 0.015811
#
#
# Mechanical properties :
#
#
# Convention : Reuss Voigt Hill
#
# Bulk Modulus (GPa) = 51.43058 65.30466 58.36762
# Shear Modulus (GPa) = 15.76910 37.30765 26.53837
#
# Velocity S-wave (km/s) = 2.57618 3.96252 3.34202
# Velocity P-wave (km/s) = 5.52217 6.95845 6.28149
#
# Compressibility (1/GPa) = 0.01944369
#
# Stress axis : x y z
#
# Youngs Moduli (GPa) = 150.38722 150.38722 66.93431
#
# Poissons Ratio (x) = 0.29430 0.08168
# Poissons Ratio (y) = 0.29430 0.08168
# Poissons Ratio (z) = 0.18353 0.18353
#
# Static dielectric constant tensor:
#      x y z
#    x 1.972140 0.000000 0.000000 
#    y 0.000000 1.972140 0.000000 
#    z 0.000000 0.000000 1.955200 
# 
# From -- ./inp_files/2252.got.cif
#   From: 2010.05.17/outbox.cif.g08.bks.cpg/sg82_2_cif.got.tgz:2252.got - 2010.06.03 18:52:26.
