data_PCOD9543255
_publ_section_title
;
Structure prediction by ZEFSAII (Michael W. Deem and Ramdas Pophale) SiO2 
 PCOD9543255
Probable space group: P 4/M
;
_chemical_formula_sum "Si O2"
_cell_formula_units_Z 64
_cell_length_a 13.860189
_cell_length_b 13.860189
_cell_length_c 18.604031
_cell_angle_alpha 90.000000
_cell_angle_beta 90.000000
_cell_angle_gamma 90.000000
_cell_volume 3573.924382
_symmetry_space_group_name_H-M "P 4/M"
_symmetry_group_IT_number 83
_symmetry_cell_setting 'tetragonal'
loop_
_space_group_symop_operation_xyz
x,y,z
-y,x,z
-x,-y,z
y,-x,z
-x,-y,-z
y,-x,-z
x,y,-z
-y,x,-z
loop_
_atom_site_type_symbol
_atom_site_label
_atom_site_fract_x
_atom_site_fract_y
_atom_site_fract_z
Si Si1 0.656118 0.516281 0.612336
Si Si2 0.849369 0.943681 0.084822
Si Si3 0.715672 0.904321 0.786455
Si Si4 0.062395 0.412068 0.288724
Si Si5 0.650506 0.173539 0.577512
Si Si6 0.214530 0.561692 0.279985
Si Si7 0.944469 0.151753 0.651715
Si Si8 0.686609 0.835301 0.420146
O O1 0.580906 0.600464 0.591639
O O2 0.756222 0.557189 0.582282
O O3 0.684827 0.486104 0.694793
O O4 0.762639 0.912872 0.135945
O O5 0.945433 0.880428 0.099588
O O6 0.828222 0.935743 0.000000
O O7 0.650725 0.808272 0.773233
O O8 0.801887 0.915140 0.728478
O O9 0.646793 0.994766 0.764945
O O10 0.104540 0.351009 0.354043
O O11 0.150985 0.470809 0.254608
O O12 0.000000 0.500000 0.320633
O O13 0.651871 0.124219 0.500000
O O14 0.740512 0.245752 0.582540
O O15 0.175627 0.611726 0.354722
O O16 0.919040 0.236457 0.596195
O O17 0.054776 0.118597 0.644186
O O18 0.644466 0.843518 0.500000
#
# Coordination Sequence:
#
# PCOD9543255 Si02
#       8
#     8   8   8   8   8   8   8   8
#     4  10  19  33  51  69  93 122 160 218 281 328
#     4   9  18  33  54  85 121 146 166 195 231 280
#     4  10  18  32  54  75 103 137 171 199 237 292
#     4   9  19  34  49  68  95 131 172 214 253 305
#     4  10  20  32  47  67  93 125 169 220 272 320
#     4   9  19  34  50  71  99 127 168 217 263 305
#     4  10  20  32  48  70  95 126 167 207 247 297
#     4  10  20  34  48  64  90 123 166 217 268 313
#
# _framework density 17.907485999999999
#
# number of rings (size 3 to 8) (size 9 to 14) (size 15 to 20)
#    0.000    2.375    1.250    1.875    0.000    5.250 
#    0.000    8.750    0.000    3.375    0.000    0.000 
#    0.000    0.000    0.000    1.375    0.000    0.000 
#
# Total GULP energy -356315.055422 kJ/mol
# GULP energy per Si atom -5567.422741 kJ/mol
# Density = 1.786673 g / cm^3
# Si number density = 17.907486 Si / 1000 Ang^3
#
#
#
# Elastic Constant Matrix: (Units=GPa)
#
#
# Indices 1 2 3 4 5 6 
#
# 1 59.8450 8.7747 16.0062 0.0000 0.0000 0.7253
# 2 8.7747 59.8450 16.0062 0.0000 0.0000 -0.7253
# 3 16.0062 16.0062 61.9311 0.0000 0.0000 0.0000
# 4 0.0000 0.0000 0.0000 15.8443 0.0000 0.0000
# 5 0.0000 0.0000 0.0000 0.0000 15.8443 0.0000
# 6 0.7253 -0.7253 0.0000 0.0000 0.0000 29.0930
#
#
#
# Elastic Compliance Matrix: (Units=1/GPa)
#
#
# Indices 1 2 3 4 5 6 
#
# 1 0.018083 -0.001512 -0.004283 0.000000 0.000000 -0.000489
# 2 -0.001512 0.018083 -0.004283 0.000000 0.000000 0.000489
# 3 -0.004283 -0.004283 0.018361 0.000000 0.000000 0.000000
# 4 0.000000 0.000000 0.000000 0.063114 0.000000 0.000000
# 5 0.000000 0.000000 0.000000 0.000000 0.063114 0.000000
# 6 -0.000489 0.000489 0.000000 0.000000 0.000000 0.034397
#
#
# Mechanical properties :
#
#
# Convention : Reuss Voigt Hill
#
# Bulk Modulus (GPa) = 29.09374 29.24393 29.16883
# Shear Modulus (GPa) = 20.26229 21.54526 20.90377
#
# Velocity S-wave (km/s) = 3.36742 3.47240 3.42031
# Velocity P-wave (km/s) = 5.60369 5.69585 5.64996
#
# Compressibility (1/GPa) = 0.03437166
#
# Stress axis : x y z
#
# Youngs Moduli (GPa) = 55.30080 55.30080 54.46388
#
# Poissons Ratio (x) = 0.08360 0.23326
# Poissons Ratio (y) = 0.08360 0.23326
# Poissons Ratio (z) = 0.23684 0.23684
#
# Static dielectric constant tensor:
#      x y z
#    x 1.677040 0.000000 0.000000 
#    y 0.000000 1.677040 0.000000 
#    z 0.000000 0.000000 1.597960 
# 
# From -- ./inp_files/2751.got.cif
#   From: 2010.05.17/outbox.cif.g08.bks.cpg/sg83_2_cif.got.tgz:2751.got - 2010.06.03 18:55:12.
