data_PCOD9543299
_publ_section_title
;
Structure prediction by ZEFSAII (Michael W. Deem and Ramdas Pophale) SiO2 
 PCOD9543299
Probable space group: P 4/M
;
_chemical_formula_sum "Si O2"
_cell_formula_units_Z 52
_cell_length_a 18.932863
_cell_length_b 18.932863
_cell_length_c 8.200064
_cell_angle_alpha 90.000000
_cell_angle_beta 90.000000
_cell_angle_gamma 90.000000
_cell_volume 2939.340012
_symmetry_space_group_name_H-M "P 4/M"
_symmetry_group_IT_number 83
_symmetry_cell_setting 'tetragonal'
loop_
_space_group_symop_operation_xyz
x,y,z
-y,x,z
-x,-y,z
y,-x,z
-x,-y,-z
y,-x,-z
x,y,-z
-y,x,-z
loop_
_atom_site_type_symbol
_atom_site_label
_atom_site_fract_x
_atom_site_fract_y
_atom_site_fract_z
Si Si1 0.435321 0.401745 0.500000
Si Si2 0.247224 0.253732 0.816196
Si Si3 0.988958 0.419234 0.196324
Si Si4 0.363038 0.861654 0.800759
Si Si5 0.627585 0.835395 0.692751
Si Si6 0.615811 0.356066 0.821438
Si Si7 0.487975 0.758017 0.303713
O O1 0.518279 0.407881 0.500000
O O2 0.405441 0.370104 0.666470
O O3 0.176869 0.290668 0.745183
O O4 0.294944 0.194096 0.733997
O O5 0.300055 0.320778 0.823956
O O6 0.231377 0.229934 0.000000
O O7 0.056847 0.372903 0.244782
O O8 0.000000 0.500000 0.255955
O O9 0.914575 0.387522 0.249827
O O10 0.988580 0.422263 0.000000
O O11 0.430510 0.819648 0.730957
O O12 0.365461 0.855375 0.000000
O O13 0.619258 0.833402 0.500000
O O14 0.563818 0.785521 0.758878
O O15 0.545846 0.309530 0.785733
O O16 0.610590 0.390302 0.000000
O O17 0.490404 0.746107 0.500000
#
# Coordination Sequence:
#
# PCOD9543299 Si02
#       7
#     4   8   8   8   8   8   8
#     4  11  26  42  54  70  96 123 167 231 283 333
#     4   9  20  35  52  75 101 134 178 221 259 315
#     4  10  19  33  54  77 107 143 176 218 271 327
#     4   9  18  34  52  73 102 140 181 217 267 328
#     4  11  23  32  49  79 109 138 176 222 266 317
#     4  10  22  38  58  76  96 132 175 220 277 336
#     4  10  19  31  49  74 103 136 172 219 266 317
#
# _framework density 17.691044999999999
#
# number of rings (size 3 to 8) (size 9 to 14) (size 15 to 20)
#    0.000    2.077    2.308    1.846    3.231    4.000 
#    0.000    0.769    0.000    0.000    0.000    0.000 
#    0.000    0.615    0.000    7.077    0.000    2.769 
#
# Total GULP energy -290171.584895 kJ/mol
# GULP energy per Si atom -5580.222786 kJ/mol
# Density = 1.765078 g / cm^3
# Si number density = 17.691045 Si / 1000 Ang^3
#
#
#
# Elastic Constant Matrix: (Units=GPa)
#
#
# Indices 1 2 3 4 5 6 
#
# 1 103.5006 39.9430 13.9803 0.0000 0.0000 1.2453
# 2 39.9430 103.5006 13.9803 0.0000 0.0000 -1.2453
# 3 13.9803 13.9803 54.0448 0.0000 0.0000 0.0000
# 4 0.0000 0.0000 0.0000 16.7816 0.0000 0.0000
# 5 0.0000 0.0000 0.0000 0.0000 16.7816 0.0000
# 6 1.2453 -1.2453 0.0000 0.0000 0.0000 22.0300
#
#
#
# Elastic Compliance Matrix: (Units=1/GPa)
#
#
# Indices 1 2 3 4 5 6 
#
# 1 0.011555 -0.004214 -0.001899 0.000000 0.000000 -0.000891
# 2 -0.004214 0.011555 -0.001899 0.000000 0.000000 0.000891
# 3 -0.001899 -0.001899 0.019486 0.000000 0.000000 0.000000
# 4 0.000000 0.000000 0.000000 0.059589 0.000000 0.000000
# 5 0.000000 0.000000 0.000000 0.000000 0.059589 0.000000
# 6 -0.000891 0.000891 0.000000 0.000000 0.000000 0.045493
#
#
# Mechanical properties :
#
#
# Convention : Reuss Voigt Hill
#
# Bulk Modulus (GPa) = 37.63312 44.09482 40.86397
# Shear Modulus (GPa) = 21.53795 23.99481 22.76638
#
# Velocity S-wave (km/s) = 3.49298 3.68683 3.59121
# Velocity P-wave (km/s) = 6.13078 6.56526 6.35174
#
# Compressibility (1/GPa) = 0.02657234
#
# Stress axis : x y z
#
# Youngs Moduli (GPa) = 86.54164 86.54164 51.31974
#
# Poissons Ratio (x) = 0.36465 0.09746
# Poissons Ratio (y) = 0.36465 0.09746
# Poissons Ratio (z) = 0.16435 0.16435
#
# Static dielectric constant tensor:
#      x y z
#    x 1.618340 0.000000 0.000000 
#    y 0.000000 1.618340 0.000000 
#    z 0.000000 0.000000 1.653700 
# 
# From -- ./inp_files/999.got.cif
#   From: 2010.05.17/outbox.cif.g08.bks.cpg/sg83_1_cif.got.tgz:999.got - 2010.06.03 18:55:12.
