data_PCOD9543079
_publ_section_title
;
Structure prediction by ZEFSAII (Michael W. Deem and Ramdas Pophale) SiO2 
 PCOD9543079
Probable space group: I -4 
;
_chemical_formula_sum "Si O2"
_cell_formula_units_Z 58
_cell_length_a 15.645250
_cell_length_b 15.645250
_cell_length_c 9.790469
_cell_angle_alpha 90.000000
_cell_angle_beta 90.000000
_cell_angle_gamma 90.000000
_cell_volume 2396.450767
_symmetry_space_group_name_H-M "I -4 "
_symmetry_group_IT_number 82
_symmetry_cell_setting 'tetragonal'
loop_
_space_group_symop_operation_xyz
x,y,z
y,-x,-z
-x,-y,z
-y,x,-z
1/2+x,1/2+y,1/2+z
1/2+y,1/2-x,1/2-z
1/2-x,1/2-y,1/2+z
1/2-y,1/2+x,1/2-z
loop_
_atom_site_type_symbol
_atom_site_label
_atom_site_fract_x
_atom_site_fract_y
_atom_site_fract_z
Si Si1 0.729063 0.523681 0.619169
Si Si2 0.396183 0.487153 0.178776
Si Si3 0.612079 0.678499 0.591787
Si Si4 0.000000 0.500000 0.750000
Si Si5 0.184493 0.946669 0.396620
Si Si6 0.043027 0.637408 0.093849
Si Si7 0.840903 0.644046 0.152172
Si Si8 0.853665 0.495923 0.967213
O O1 0.664334 0.593838 0.564956
O O2 0.707895 0.434934 0.545132
O O3 0.710484 0.515466 0.779409
O O4 0.820972 0.546729 0.557221
O O5 0.500000 0.500000 0.195945
O O6 0.346365 0.540475 0.294284
O O7 0.384730 0.384463 0.173487
O O8 0.364241 0.521577 0.032185
O O9 0.673986 0.755186 0.640700
O O10 0.915847 0.514468 0.841689
O O11 0.280055 0.925109 0.443751
O O12 0.100336 0.684603 0.206352
O O13 0.944915 0.641009 0.137892
O O14 0.083712 0.544642 0.079153
O O15 0.812144 0.581679 0.029662
#
# Coordination Sequence:
#
# PCOD9543079 Si02
#       8
#     8   8   8   2   8   8   8   8
#     4  11  25  44  66 103 142 175 236 288 362 423
#     4  12  22  46  73 100 143 193 242 281 362 447
#     4  11  25  45  70 103 141 190 238 298 358 437
#     4  12  24  44  70 100 136 188 232 302 384 436
#     4  12  24  42  71 106 141 192 234 293 357 449
#     4  11  22  44  71  99 128 184 237 297 354 433
#     4  11  23  44  69  98 134 183 248 292 363 440
#     4  12  25  42  71  99 139 184 239 298 365 445
#
# _framework density 24.202459999999999
#
# number of rings (size 3 to 8) (size 9 to 14) (size 15 to 20)
#    0.000    0.552    5.517    2.483    3.862    0.000 
#    4.966    0.000    0.000    0.000    0.000    0.000 
#    0.000    0.000    0.000    0.000    0.000    0.000 
#
# Total GULP energy -162009.203858 kJ/mol
# GULP energy per Si atom -5586.524271 kJ/mol
# Density = 2.414737 g / cm^3
# Si number density = 24.202460 Si / 1000 Ang^3
#
#
#
# Elastic Constant Matrix: (Units=GPa)
#
#
# Indices 1 2 3 4 5 6 
#
# 1 58.5373 -16.0048 6.7941 0.0000 0.0000 -8.3042
# 2 -16.0048 58.5373 6.7941 0.0000 0.0000 8.3042
# 3 6.7941 6.7941 119.9848 0.0000 0.0000 0.0000
# 4 0.0000 0.0000 0.0000 27.8367 0.0000 0.0000
# 5 0.0000 0.0000 0.0000 0.0000 27.8367 0.0000
# 6 -8.3042 8.3042 0.0000 0.0000 0.0000 21.7637
#
#
#
# Elastic Compliance Matrix: (Units=1/GPa)
#
#
# Indices 1 2 3 4 5 6 
#
# 1 0.019303 0.004641 -0.001356 0.000000 0.000000 0.005594
# 2 0.004641 0.019303 -0.001356 0.000000 0.000000 -0.005594
# 3 -0.001356 -0.001356 0.008488 0.000000 0.000000 0.000000
# 4 0.000000 0.000000 0.000000 0.035924 0.000000 0.000000
# 5 0.000000 0.000000 0.000000 0.000000 0.035924 0.000000
# 6 0.005594 -0.005594 0.000000 0.000000 0.000000 0.050217
#
#
# Mechanical properties :
#
#
# Convention : Reuss Voigt Hill
#
# Bulk Modulus (GPa) = 19.62564 25.80290 22.71427
# Shear Modulus (GPa) = 27.42974 31.45251 29.44113
#
# Velocity S-wave (km/s) = 3.37017 3.60885 3.49155
# Velocity P-wave (km/s) = 4.82396 5.29618 5.06558
#
# Compressibility (1/GPa) = 0.05095374
#
# Stress axis : x y z
#
# Youngs Moduli (GPa) = 51.80506 51.80506 117.81428
#
# Poissons Ratio (x) = -0.24045 0.15974
# Poissons Ratio (y) = -0.24045 0.15974
# Poissons Ratio (z) = 0.07024 0.07024
#
# Static dielectric constant tensor:
#      x y z
#    x 1.989900 0.000000 0.000000 
#    y 0.000000 1.989900 0.000000 
#    z 0.000000 0.000000 1.955640 
# 
# From -- ./inp_files/1190.got.cif
#   From: 2010.05.17/outbox.cif.g08.bks.cpg/sg82_1_cif.got.tgz:1190.got - 2010.06.03 18:52:26.
