data_PCOD9543672
_publ_section_title
;
Structure prediction by ZEFSAII (Michael W. Deem and Ramdas Pophale) SiO2 
 PCOD9543672
Probable space group: P 4/M
;
_chemical_formula_sum "Si O2"
_cell_formula_units_Z 60
_cell_length_a 11.624515
_cell_length_b 11.624515
_cell_length_c 20.174688
_cell_angle_alpha 90.000000
_cell_angle_beta 90.000000
_cell_angle_gamma 90.000000
_cell_volume 2726.192455
_symmetry_space_group_name_H-M "P 4/M"
_symmetry_group_IT_number 83
_symmetry_cell_setting 'tetragonal'
loop_
_space_group_symop_operation_xyz
x,y,z
-y,x,z
-x,-y,z
y,-x,z
-x,-y,-z
y,-x,-z
x,y,-z
-y,x,-z
loop_
_atom_site_type_symbol
_atom_site_label
_atom_site_fract_x
_atom_site_fract_y
_atom_site_fract_z
Si Si1 0.995992 0.641227 0.229580
Si Si2 0.242419 0.626997 0.796645
Si Si3 0.682193 0.448080 0.657750
Si Si4 0.477698 0.136462 0.930182
Si Si5 0.292340 0.825888 0.118143
Si Si6 0.393767 0.085291 0.422953
Si Si7 0.805444 0.020217 0.346310
Si Si8 0.869512 0.142408 0.000000
O O1 0.940903 0.688897 0.161641
O O2 0.000000 0.500000 0.233512
O O3 0.127427 0.680350 0.233796
O O4 0.943623 0.710724 0.290570
O O5 0.298786 0.556775 0.737645
O O6 0.192157 0.568908 0.863348
O O7 0.314587 0.729708 0.826507
O O8 0.638574 0.576872 0.641224
O O9 0.800054 0.410692 0.621688
O O10 0.604994 0.185825 0.932916
O O11 0.500000 0.000000 0.925197
O O12 0.414863 0.158366 0.000000
O O13 0.180745 0.817475 0.071643
O O14 0.395845 0.118791 0.500000
O O15 0.278767 0.012128 0.407210
O O16 0.500000 0.000000 0.409175
O O17 0.880785 0.902117 0.342634
O O18 0.005864 0.159451 0.000000
#
# Coordination Sequence:
#
# PCOD9543672 Si02
#       8
#     8   8   8   8   8   8   8   4
#     4  12  23  40  65 100 134 180 239 299 358 429
#     4  12  23  38  67  97 131 177 233 295 360 430
#     4  11  27  49  76 110 151 194 242 306 371 434
#     4  11  23  39  59  87 123 168 235 291 344 425
#     4  12  23  39  64  91 130 180 234 295 368 436
#     4  11  27  48  79 114 149 194 241 291 356 440
#     4  11  26  45  70 106 148 192 238 292 358 432
#     4  11  26  42  59  89 135 182 231 304 383 444
#
# _framework density 22.008717000000001
#
# number of rings (size 3 to 8) (size 9 to 14) (size 15 to 20)
#    0.000    0.600    4.667    2.800    2.800    1.600 
#    0.000    2.667    0.000    0.000    0.000    2.800 
#    0.000    0.000    0.000    0.000    0.000    0.000 
#
# Total GULP energy -334382.052314 kJ/mol
# GULP energy per Si atom -5573.034205 kJ/mol
# Density = 2.195862 g / cm^3
# Si number density = 22.008717 Si / 1000 Ang^3
#
#
#
# Elastic Constant Matrix: (Units=GPa)
#
#
# Indices 1 2 3 4 5 6 
#
# 1 74.0242 19.6221 41.2522 0.0000 0.0000 0.3992
# 2 19.6221 74.0242 41.2522 0.0000 0.0000 -0.3992
# 3 41.2522 41.2522 116.0783 0.0000 0.0000 0.0000
# 4 0.0000 0.0000 0.0000 33.2658 0.0000 0.0000
# 5 0.0000 0.0000 0.0000 0.0000 33.2658 0.0000
# 6 0.3992 -0.3992 0.0000 0.0000 0.0000 20.5000
#
#
#
# Elastic Compliance Matrix: (Units=1/GPa)
#
#
# Indices 1 2 3 4 5 6 
#
# 1 0.016966 -0.001421 -0.005525 0.000000 0.000000 -0.000358
# 2 -0.001421 0.016966 -0.005525 0.000000 0.000000 0.000358
# 3 -0.005525 -0.005525 0.012542 0.000000 0.000000 0.000000
# 4 0.000000 0.000000 0.000000 0.030061 0.000000 0.000000
# 5 0.000000 0.000000 0.000000 0.000000 0.030061 0.000000
# 6 -0.000358 0.000358 0.000000 0.000000 0.000000 0.048794
#
#
# Mechanical properties :
#
#
# Convention : Reuss Voigt Hill
#
# Bulk Modulus (GPa) = 46.43709 52.04217 49.23963
# Shear Modulus (GPa) = 26.66541 28.20633 27.43587
#
# Velocity S-wave (km/s) = 3.48456 3.58383 3.53454
# Velocity P-wave (km/s) = 6.11022 6.38925 6.25129
#
# Compressibility (1/GPa) = 0.02153451
#
# Stress axis : x y z
#
# Youngs Moduli (GPa) = 58.94002 58.94002 79.73429
#
# Poissons Ratio (x) = 0.08372 0.44051
# Poissons Ratio (y) = 0.08372 0.44051
# Poissons Ratio (z) = 0.32563 0.32563
#
# Static dielectric constant tensor:
#      x y z
#    x 1.838600 0.000000 0.000000 
#    y 0.000000 1.838600 0.000000 
#    z 0.000000 0.000000 1.864300 
# 
# From -- ./inp_files/3039.got.cif
#   From: 2010.05.17/outbox.cif.g08.bks.cpg/sg83_2_cif.got.tgz:3039.got - 2010.06.03 18:55:12.
