data_PCOD9543191
_publ_section_title
;
Structure prediction by ZEFSAII (Michael W. Deem and Ramdas Pophale) SiO2 
 PCOD9543191
Probable space group: I -4 
;
_chemical_formula_sum "Si O2"
_cell_formula_units_Z 28
_cell_length_a 13.242702
_cell_length_b 13.242702
_cell_length_c 6.901271
_cell_angle_alpha 90.000000
_cell_angle_beta 90.000000
_cell_angle_gamma 90.000000
_cell_volume 1210.270072
_symmetry_space_group_name_H-M "I -4 "
_symmetry_group_IT_number 82
_symmetry_cell_setting 'tetragonal'
loop_
_space_group_symop_operation_xyz
x,y,z
y,-x,-z
-x,-y,z
-y,x,-z
1/2+x,1/2+y,1/2+z
1/2+y,1/2-x,1/2-z
1/2-x,1/2-y,1/2+z
1/2-y,1/2+x,1/2-z
loop_
_atom_site_type_symbol
_atom_site_label
_atom_site_fract_x
_atom_site_fract_y
_atom_site_fract_z
Si Si1 0.000000 0.000000 0.000000
Si Si2 0.184181 0.822302 0.521444
Si Si3 0.302074 0.896090 0.880076
Si Si4 0.997438 0.811812 0.777288
Si Si5 0.500000 0.000000 0.750000
O O1 0.913553 0.957263 0.132863
O O2 0.253559 0.888756 0.665422
O O3 0.229133 0.716093 0.453416
O O4 0.163737 0.894576 0.338252
O O5 0.082725 0.783319 0.625802
O O6 0.419695 0.927014 0.859328
O O7 0.259033 0.972829 0.041191
#
# Coordination Sequence:
#
# PCOD9543191 Si02
#       5
#     2   8   8   8   2
#     4  12  24  42  68 112 146 180 252 314 388 440
#     4  12  26  48  78 110 151 204 256 321 383 463
#     4  12  28  50  76 110 158 203 261 312 392 470
#     4  12  26  45  76 110 149 194 256 321 384 457
#     4  12  32  48  78 116 160 214 252 320 406 472
#
# _framework density 23.135331000000001
#
# number of rings (size 3 to 8) (size 9 to 14) (size 15 to 20)
#    0.000    0.000    5.714    3.429    8.000    2.286 
#    0.000    1.429    0.000    0.000    0.000    0.000 
#    0.000    0.000    0.000    0.000    0.000    0.000 
#
# Total GULP energy -78164.294219 kJ/mol
# GULP energy per Si atom -5583.163873 kJ/mol
# Density = 2.308267 g / cm^3
# Si number density = 23.135331 Si / 1000 Ang^3
#
#
#
# Elastic Constant Matrix: (Units=GPa)
#
#
# Indices 1 2 3 4 5 6 
#
# 1 83.5489 -1.5940 22.7212 0.0000 0.0000 7.4261
# 2 -1.5940 83.5489 22.7212 0.0000 0.0000 -7.4261
# 3 22.7212 22.7212 83.0566 0.0000 0.0000 0.0000
# 4 0.0000 0.0000 0.0000 34.5941 0.0000 0.0000
# 5 0.0000 0.0000 0.0000 0.0000 34.5941 0.0000
# 6 7.4261 -7.4261 0.0000 0.0000 0.0000 34.3533
#
#
#
# Elastic Compliance Matrix: (Units=1/GPa)
#
#
# Indices 1 2 3 4 5 6 
#
# 1 0.013294 0.001089 -0.003935 0.000000 0.000000 -0.002638
# 2 0.001089 0.013294 -0.003935 0.000000 0.000000 0.002638
# 3 -0.003935 -0.003935 0.014193 0.000000 0.000000 0.000000
# 4 0.000000 0.000000 0.000000 0.028907 0.000000 0.000000
# 5 0.000000 0.000000 0.000000 0.000000 0.028907 0.000000
# 6 -0.002638 0.002638 0.000000 0.000000 0.000000 0.030250
#
#
# Mechanical properties :
#
#
# Convention : Reuss Voigt Hill
#
# Bulk Modulus (GPa) = 36.73667 37.53903 37.13785
# Shear Modulus (GPa) = 33.00779 34.46203 33.73491
#
# Velocity S-wave (km/s) = 3.78130 3.86370 3.82272
# Velocity P-wave (km/s) = 5.91421 6.01376 5.96419
#
# Compressibility (1/GPa) = 0.02722076
#
# Stress axis : x y z
#
# Youngs Moduli (GPa) = 75.21961 75.21961 70.45809
#
# Poissons Ratio (x) = -0.08193 0.27724
# Poissons Ratio (y) = -0.08193 0.27724
# Poissons Ratio (z) = 0.29598 0.29598
#
# Static dielectric constant tensor:
#      x y z
#    x 1.830100 0.000000 0.000000 
#    y 0.000000 1.830100 0.000000 
#    z 0.000000 0.000000 1.917710 
# 
# From -- ./inp_files/118.got.cif
#   From: 2010.05.17/outbox.cif.g08.bks.cpg/sg82_1_cif.got.tgz:118.got - 2010.06.03 18:52:26.
