data_PCOD9543119
_publ_section_title
;
Structure prediction by ZEFSAII (Michael W. Deem and Ramdas Pophale) SiO2 
 PCOD9543119
Probable space group: I -4 
;
_chemical_formula_sum "Si O2"
_cell_formula_units_Z 26
_cell_length_a 8.430320
_cell_length_b 8.430320
_cell_length_c 14.719209
_cell_angle_alpha 90.000000
_cell_angle_beta 90.000000
_cell_angle_gamma 90.000000
_cell_volume 1046.098530
_symmetry_space_group_name_H-M "I -4 "
_symmetry_group_IT_number 82
_symmetry_cell_setting 'tetragonal'
loop_
_space_group_symop_operation_xyz
x,y,z
y,-x,-z
-x,-y,z
-y,x,-z
1/2+x,1/2+y,1/2+z
1/2+y,1/2-x,1/2-z
1/2-x,1/2-y,1/2+z
1/2-y,1/2+x,1/2-z
loop_
_atom_site_type_symbol
_atom_site_label
_atom_site_fract_x
_atom_site_fract_y
_atom_site_fract_z
Si Si1 0.000000 0.000000 0.000000
Si Si2 0.692607 0.219645 0.454354
Si Si3 0.291885 0.865277 0.780054
Si Si4 0.420083 0.676223 0.121586
O O1 0.963469 0.170715 0.955161
O O2 0.801540 0.319724 0.384594
O O3 0.774550 0.189385 0.551119
O O4 0.693630 0.048786 0.406944
O O5 0.446757 0.796627 0.731635
O O6 0.140403 0.806463 0.724243
O O7 0.500000 0.500000 0.111453
#
# Coordination Sequence:
#
# PCOD9543119 Si02
#       4
#     2   8   8   8
#     4  12  32  44  72 112 152 198 268 324 396 452
#     4  12  25  49  76 110 156 202 263 321 385 468
#     4  11  24  42  74 115 160 204 257 315 389 464
#     4  12  23  48  81 111 149 211 257 309 392 470
#
# _framework density 24.854253
#
# number of rings (size 3 to 8) (size 9 to 14) (size 15 to 20)
#    0.000    0.308    6.154    1.846    2.154    6.154 
#    0.000    0.000    0.000    0.000    0.000    0.000 
#    0.000    0.000    0.000    0.000    0.000    0.000 
#
# Total GULP energy -72668.414035 kJ/mol
# GULP energy per Si atom -5589.878003 kJ/mol
# Density = 2.479768 g / cm^3
# Si number density = 24.854253 Si / 1000 Ang^3
#
#
#
# Elastic Constant Matrix: (Units=GPa)
#
#
# Indices 1 2 3 4 5 6 
#
# 1 96.3463 26.4879 16.2714 0.0000 0.0000 7.5236
# 2 26.4879 96.3463 16.2714 0.0000 0.0000 -7.5236
# 3 16.2714 16.2714 94.3241 0.0000 0.0000 0.0000
# 4 0.0000 0.0000 0.0000 25.2720 0.0000 0.0000
# 5 0.0000 0.0000 0.0000 0.0000 25.2720 0.0000
# 6 7.5236 -7.5236 0.0000 0.0000 0.0000 43.1212
#
#
#
# Elastic Compliance Matrix: (Units=1/GPa)
#
#
# Indices 1 2 3 4 5 6 
#
# 1 0.011702 -0.003171 -0.001472 0.000000 0.000000 -0.002595
# 2 -0.003171 0.011702 -0.001472 0.000000 0.000000 0.002595
# 3 -0.001472 -0.001472 0.011109 0.000000 0.000000 0.000000
# 4 0.000000 0.000000 0.000000 0.039569 0.000000 0.000000
# 5 0.000000 0.000000 0.000000 0.000000 0.039569 0.000000
# 6 -0.002595 0.002595 0.000000 0.000000 0.000000 0.024096
#
#
# Mechanical properties :
#
#
# Convention : Reuss Voigt Hill
#
# Bulk Modulus (GPa) = 44.87359 45.00868 44.94114
# Shear Modulus (GPa) = 31.76491 33.93212 32.84852
#
# Velocity S-wave (km/s) = 3.57886 3.69893 3.63939
# Velocity P-wave (km/s) = 5.93056 6.03251 5.98175
#
# Compressibility (1/GPa) = 0.02228482
#
# Stress axis : x y z
#
# Youngs Moduli (GPa) = 85.45343 85.45343 90.01329
#
# Poissons Ratio (x) = 0.27100 0.13247
# Poissons Ratio (y) = 0.27100 0.13247
# Poissons Ratio (z) = 0.12576 0.12576
#
# Static dielectric constant tensor:
#      x y z
#    x 2.054650 0.000000 0.000000 
#    y 0.000000 2.054650 0.000000 
#    z 0.000000 0.000000 1.941520 
# 
# From -- ./inp_files/2425.got.cif
#   From: 2010.05.17/outbox.cif.g08.bks.cpg/sg82_2_cif.got.tgz:2425.got - 2010.06.03 18:52:26.
