data_PCOD9543189
_publ_section_title
;
Structure prediction by ZEFSAII (Michael W. Deem and Ramdas Pophale) SiO2 
 PCOD9543189
Probable space group: I -4 
;
_chemical_formula_sum "Si O2"
_cell_formula_units_Z 34
_cell_length_a 10.337742
_cell_length_b 10.337742
_cell_length_c 8.759483
_cell_angle_alpha 90.000000
_cell_angle_beta 90.000000
_cell_angle_gamma 90.000000
_cell_volume 936.116397
_symmetry_space_group_name_H-M "I -4 "
_symmetry_group_IT_number 82
_symmetry_cell_setting 'tetragonal'
loop_
_space_group_symop_operation_xyz
x,y,z
y,-x,-z
-x,-y,z
-y,x,-z
1/2+x,1/2+y,1/2+z
1/2+y,1/2-x,1/2-z
1/2-x,1/2-y,1/2+z
1/2-y,1/2+x,1/2-z
loop_
_atom_site_type_symbol
_atom_site_label
_atom_site_fract_x
_atom_site_fract_y
_atom_site_fract_z
Si Si1 0.826382 0.326382 0.750000
Si Si2 0.500000 0.349574 0.739943
Si Si3 0.500000 0.000000 0.750000
Si Si4 0.830268 0.830268 0.000000
Si Si5 0.000000 0.299899 0.518424
O O1 0.835834 0.325109 0.554429
O O2 0.674891 0.164166 0.445570
O O3 0.821346 0.160982 0.798148
O O4 0.823074 0.500000 0.785869
O O5 0.500000 0.500000 0.724102
O O6 0.500000 0.321125 0.530980
O O7 0.660982 0.321346 0.701851
O O8 0.500000 0.330020 0.923639
O O9 0.383527 0.999999 0.638455
#
# Coordination Sequence:
#
# PCOD9543189 Si02
#       5
#     8   8   2   8   8
#     4  12  26  46  72 106 147 197 248 314 372 446
#     4  12  25  47  75 111 153 200 246 315 394 467
#     4  12  24  50  80 116 148 206 264 320 372 450
#     4  12  23  48  66 110 147 196 248 304 380 456
#     4  12  26  47  76 111 150 198 259 313 382 450
#
# _framework density 36.320265999999997
#
# number of rings (size 3 to 8) (size 9 to 14) (size 15 to 20)
#    0.000    0.000    2.353    8.471    0.000    0.000 
#    4.235    0.000    0.000    0.000    0.000    0.000 
#    0.000    0.000    0.000    0.000    0.000    0.000 
#
# Total GULP energy -95249.568094 kJ/mol
# GULP energy per Si atom -5602.915770 kJ/mol
# Density = 3.623760 g / cm^3
# Si number density = 36.320266 Si / 1000 Ang^3
#
#
#
# Elastic Constant Matrix: (Units=GPa)
#
#
# Indices 1 2 3 4 5 6 
#
# 1 387.0719 146.2396 218.5106 0.0000 0.0000 0.0001
# 2 146.2396 387.0719 218.5106 0.0000 0.0000 -0.0001
# 3 218.5106 218.5106 468.7213 0.0000 0.0000 0.0000
# 4 0.0000 0.0000 0.0000 173.5610 0.0000 0.0000
# 5 0.0000 0.0000 0.0000 0.0000 173.5610 0.0000
# 6 0.0001 -0.0001 0.0000 0.0000 0.0000 111.0521
#
#
#
# Elastic Compliance Matrix: (Units=1/GPa)
#
#
# Indices 1 2 3 4 5 6 
#
# 1 0.003593 -0.000559 -0.001414 0.000000 0.000000 0.000000
# 2 -0.000559 0.003593 -0.001414 0.000000 0.000000 0.000000
# 3 -0.001414 -0.001414 0.003452 0.000000 0.000000 0.000000
# 4 0.000000 0.000000 0.000000 0.005762 0.000000 0.000000
# 5 0.000000 0.000000 0.000000 0.000000 0.005762 0.000000
# 6 0.000000 0.000000 0.000000 0.000000 0.000000 0.009005
#
#
# Mechanical properties :
#
#
# Convention : Reuss Voigt Hill
#
# Bulk Modulus (GPa) = 258.88663 267.70961 263.29812
# Shear Modulus (GPa) = 127.45208 135.60844 131.53026
#
# Velocity S-wave (km/s) = 5.93021 6.11702 6.02434
# Velocity P-wave (km/s) = 10.87766 11.12468 11.00186
#
# Compressibility (1/GPa) = 0.00386269
#
# Stress axis : x y z
#
# Youngs Moduli (GPa) = 278.30186 278.30186 289.66318
#
# Poissons Ratio (x) = 0.15558 0.40972
# Poissons Ratio (y) = 0.15558 0.40972
# Poissons Ratio (z) = 0.39365 0.39365
#
# Static dielectric constant tensor:
#      x y z
#    x 2.666590 0.000000 0.000000 
#    y 0.000000 2.666590 0.000000 
#    z 0.000000 0.000000 2.686130 
# 
# From -- ./inp_files/797.got.cif
#   From: 2010.05.17/outbox.cif.g08.bks.cpg/sg82_1_cif.got.tgz:797.got - 2010.06.03 18:52:26.
