data_PCOD9543174
_publ_section_title
;
Structure prediction by ZEFSAII (Michael W. Deem and Ramdas Pophale) SiO2 
 PCOD9543174
Probable space group: I -4 
;
_chemical_formula_sum "Si O2"
_cell_formula_units_Z 42
_cell_length_a 13.910128
_cell_length_b 13.910128
_cell_length_c 9.519321
_cell_angle_alpha 90.000000
_cell_angle_beta 90.000000
_cell_angle_gamma 90.000000
_cell_volume 1841.909232
_symmetry_space_group_name_H-M "I -4 "
_symmetry_group_IT_number 82
_symmetry_cell_setting 'tetragonal'
loop_
_space_group_symop_operation_xyz
x,y,z
y,-x,-z
-x,-y,z
-y,x,-z
1/2+x,1/2+y,1/2+z
1/2+y,1/2-x,1/2-z
1/2-x,1/2-y,1/2+z
1/2-y,1/2+x,1/2-z
loop_
_atom_site_type_symbol
_atom_site_label
_atom_site_fract_x
_atom_site_fract_y
_atom_site_fract_z
Si Si1 0.000000 0.000000 0.500000
Si Si2 0.386593 0.658768 0.666034
Si Si3 0.140293 0.889817 0.850621
Si Si4 0.104892 0.478311 0.006650
Si Si5 0.300663 0.506715 0.837304
Si Si6 0.346539 0.870899 0.748951
O O1 0.896325 0.982539 0.427009
O O2 0.345512 0.632490 0.514090
O O3 0.496300 0.618665 0.669878
O O4 0.318528 0.614781 0.785846
O O5 0.390540 0.770974 0.697254
O O6 0.231913 0.867284 0.754718
O O7 0.056728 0.818873 0.800658
O O8 0.105785 0.378583 0.091963
O O9 0.118935 0.551527 0.136803
O O10 0.000000 0.500000 0.941952
O O11 0.198608 0.488431 0.909106
#
# Coordination Sequence:
#
# PCOD9543174 Si02
#       6
#     2   8   8   8   8   8
#     4  12  20  40  70 120 156 176 260 314 388 456
#     4  12  25  47  76 109 150 193 253 322 404 474
#     4  12  25  47  76 109 150 193 253 322 404 474
#     4  12  24  49  76 103 152 208 259 302 381 468
#     4  12  26  42  76 116 146 197 245 328 385 463
#     4  12  25  48  74 104 141 212 252 306 386 474
#
# _framework density 22.802427999999999
#
# number of rings (size 3 to 8) (size 9 to 14) (size 15 to 20)
#    0.000    0.000    7.619    2.286    5.333    0.000 
#    0.000    0.000    4.190    0.000    0.000    0.000 
#    0.000    0.000    0.000    0.000    0.000    0.000 
#
# Total GULP energy -117435.526531 kJ/mol
# GULP energy per Si atom -5592.167930 kJ/mol
# Density = 2.275053 g / cm^3
# Si number density = 22.802428 Si / 1000 Ang^3
#
#
#
# Elastic Constant Matrix: (Units=GPa)
#
#
# Indices 1 2 3 4 5 6 
#
# 1 118.8862 -5.8258 23.1186 0.0000 0.0000 1.3691
# 2 -5.8258 118.8862 23.1186 0.0000 0.0000 -1.3691
# 3 23.1186 23.1186 65.8623 0.0000 0.0000 0.0000
# 4 0.0000 0.0000 0.0000 34.0795 0.0000 0.0000
# 5 0.0000 0.0000 0.0000 0.0000 34.0795 0.0000
# 6 1.3691 -1.3691 0.0000 0.0000 0.0000 22.0731
#
#
#
# Elastic Compliance Matrix: (Units=1/GPa)
#
#
# Indices 1 2 3 4 5 6 
#
# 1 0.009178 0.001149 -0.003625 0.000000 0.000000 -0.000498
# 2 0.001149 0.009178 -0.003625 0.000000 0.000000 0.000498
# 3 -0.003625 -0.003625 0.017728 0.000000 0.000000 0.000000
# 4 0.000000 0.000000 0.000000 0.029343 0.000000 0.000000
# 5 0.000000 0.000000 0.000000 0.000000 0.029343 0.000000
# 6 -0.000498 0.000498 0.000000 0.000000 0.000000 0.045366
#
#
# Mechanical properties :
#
#
# Convention : Reuss Voigt Hill
#
# Bulk Modulus (GPa) = 41.87156 42.71752 42.29454
# Shear Modulus (GPa) = 31.19152 35.59463 33.39308
#
# Velocity S-wave (km/s) = 3.70253 3.95524 3.83097
# Velocity P-wave (km/s) = 6.05648 6.29547 6.17713
#
# Compressibility (1/GPa) = 0.02388256
#
# Stress axis : x y z
#
# Youngs Moduli (GPa) = 108.95178 108.95178 56.40772
#
# Poissons Ratio (x) = -0.12518 0.20448
# Poissons Ratio (y) = -0.12518 0.20448
# Poissons Ratio (z) = 0.39495 0.39495
#
# Static dielectric constant tensor:
#      x y z
#    x 1.855370 0.000000 0.000000 
#    y 0.000000 1.855370 0.000000 
#    z 0.000000 0.000000 1.848370 
# 
# From -- ./inp_files/971.got.cif
#   From: 2010.05.17/outbox.cif.g08.bks.cpg/sg82_1_cif.got.tgz:971.got - 2010.06.03 18:52:26.
