data_PCOD9543683
_publ_section_title
;
Structure prediction by ZEFSAII (Michael W. Deem and Ramdas Pophale) SiO2 
 PCOD9543683
Probable space group: P 4/M
;
_chemical_formula_sum "Si O2"
_cell_formula_units_Z 44
_cell_length_a 7.913781
_cell_length_b 7.913781
_cell_length_c 30.767725
_cell_angle_alpha 90.000000
_cell_angle_beta 90.000000
_cell_angle_gamma 90.000000
_cell_volume 1926.918919
_symmetry_space_group_name_H-M "P 4/M"
_symmetry_group_IT_number 83
_symmetry_cell_setting 'tetragonal'
loop_
_space_group_symop_operation_xyz
x,y,z
-y,x,z
-x,-y,z
y,-x,z
-x,-y,-z
y,-x,-z
x,y,-z
-y,x,-z
loop_
_atom_site_type_symbol
_atom_site_label
_atom_site_fract_x
_atom_site_fract_y
_atom_site_fract_z
Si Si1 0.730762 0.082786 0.773271
Si Si2 0.230836 0.404425 0.313404
Si Si3 0.393338 0.767117 0.592940
Si Si4 0.395156 0.767825 0.046443
Si Si5 0.769372 0.594885 0.859891
Si Si6 0.609464 0.233551 0.500000
O O1 0.635392 0.124748 0.728951
O O2 0.634845 0.124776 0.817508
O O3 0.893680 0.203569 0.773311
O O4 0.402544 0.293768 0.311978
O O5 0.147435 0.364282 0.360392
O O6 0.290634 0.589940 0.592950
O O7 0.355985 0.853396 0.546495
O O8 0.291268 0.591348 0.046451
O O9 0.365710 0.853060 0.093118
O O10 0.359547 0.854829 0.000000
O O11 0.597972 0.705993 0.858480
O O12 0.710365 0.412089 0.500000
#
# Coordination Sequence:
#
# PCOD9543683 Si02
#       6
#     8   8   8   8   8   4
#     4  11  24  37  46  60  86 121 159 195 230 269
#     4   9  17  30  49  72  94 115 145 186 228 270
#     4   7  10  17  32  58  90 117 138 165 206 258
#     4   7  10  19  39  69 100 121 137 166 211 259
#     4   9  17  30  51  77  98 117 146 183 222 266
#     4   7   8  12  26  52  88 121 138 154 196 257
#
# _framework density 22.834382999999999
#
# number of rings (size 3 to 8) (size 9 to 14) (size 15 to 20)
#    0.000    3.545    0.000    4.909    0.000    4.364 
#    0.000    0.000    0.000    1.091    0.000    7.636 
#    0.000    8.727    0.000    0.000    0.000    0.000 
#
# Total GULP energy -245545.588577 kJ/mol
# GULP energy per Si atom -5580.581559 kJ/mol
# Density = 2.278241 g / cm^3
# Si number density = 22.834383 Si / 1000 Ang^3
#
#
#
# Elastic Constant Matrix: (Units=GPa)
#
#
# Indices 1 2 3 4 5 6 
#
# 1 31.3330 33.7756 50.4884 0.0000 0.0000 -14.6622
# 2 33.7756 31.3330 50.4884 0.0000 0.0000 14.6622
# 3 50.4884 50.4884 311.3560 0.0000 0.0000 0.0000
# 4 0.0000 0.0000 0.0000 -61.9317 0.0000 0.0000
# 5 0.0000 0.0000 0.0000 0.0000 -61.9317 0.0000
# 6 -14.6622 14.6622 0.0000 0.0000 0.0000 16.9461
#
#
#
# Elastic Compliance Matrix: (Units=1/GPa)
#
#
# Indices 1 2 3 4 5 6 
#
# 1 -0.007716 0.028236 -0.003327 0.000000 0.000000 -0.031107
# 2 0.028236 -0.007716 -0.003327 0.000000 0.000000 0.031107
# 3 -0.003327 -0.003327 0.004291 0.000000 0.000000 0.000000
# 4 0.000000 0.000000 0.000000 -0.016147 0.000000 0.000000
# 5 0.000000 0.000000 0.000000 0.000000 -0.016147 0.000000
# 6 -0.031107 0.031107 0.000000 0.000000 0.000000 0.005182
#
#
# Mechanical properties :
#
#
# Convention : Reuss Voigt Hill
#
# Bulk Modulus (GPa) = 31.23032 71.50295 51.36663
# Shear Modulus (GPa) = -70.67934 -5.43215 -38.05574
#
# Velocity S-wave (km/s) = -5.56958 -1.54405 -4.08683
# Velocity P-wave (km/s) = 5.25868 5.31064 0.52401
#
# Compressibility (1/GPa) = 0.03202017
#
# Stress axis : x y z
#
# Youngs Moduli (GPa) = -129.59500 -129.59500 233.05363
#
# Poissons Ratio (x) = 3.65920 0.77545
# Poissons Ratio (y) = 3.65920 0.77545
# Poissons Ratio (z) = -0.43121 -0.43121
#
# Static dielectric constant tensor:
#      x y z
#    x 1.812790 0.000000 0.000000 
#    y 0.000000 1.812790 0.000000 
#    z 0.000000 0.000000 1.929470 
# 
# From -- ./inp_files/3356.got.cif
#   From: 2010.05.17/outbox.cif.g08.bks.cpg/sg83_2_cif.got.tgz:3356.got - 2010.06.03 18:55:12.
