data_PCOD9543338
_publ_section_title
;
Structure prediction by ZEFSAII (Michael W. Deem and Ramdas Pophale) SiO2 
 PCOD9543338
Probable space group: P 4/M
;
_chemical_formula_sum "Si O2"
_cell_formula_units_Z 44
_cell_length_a 15.593035
_cell_length_b 15.593035
_cell_length_c 10.754156
_cell_angle_alpha 90.000000
_cell_angle_beta 90.000000
_cell_angle_gamma 90.000000
_cell_volume 2614.794962
_symmetry_space_group_name_H-M "P 4/M"
_symmetry_group_IT_number 83
_symmetry_cell_setting 'tetragonal'
loop_
_space_group_symop_operation_xyz
x,y,z
-y,x,z
-x,-y,z
y,-x,z
-x,-y,-z
y,-x,-z
x,y,-z
-y,x,-z
loop_
_atom_site_type_symbol
_atom_site_label
_atom_site_fract_x
_atom_site_fract_y
_atom_site_fract_z
Si Si1 0.325257 0.331458 0.743387
Si Si2 0.613684 0.406513 0.000000
Si Si3 0.986009 0.245449 0.650558
Si Si4 0.568448 0.929208 0.348756
Si Si5 0.255355 0.508444 0.355587
Si Si6 0.198876 0.820590 0.651617
O O1 0.286584 0.424195 0.712982
O O2 0.408473 0.314938 0.657637
O O3 0.253108 0.258689 0.713967
O O4 0.365321 0.339613 0.880695
O O5 0.616528 0.511104 0.000000
O O6 0.990185 0.245351 0.500000
O O7 0.959286 0.339424 0.694919
O O8 0.902262 0.189387 0.681580
O O9 0.082742 0.224197 0.689652
O O10 0.572750 0.924670 0.500000
O O11 0.539886 0.836288 0.305147
O O12 0.500000 0.000000 0.314694
O O13 0.245611 0.485165 0.500000
O O14 0.208734 0.810798 0.500000
#
# Coordination Sequence:
#
# PCOD9543338 Si02
#       6
#     8   4   8   8   8   8
#     4  12  22  37  56  77 108 146 186 233 267 327
#     4  11  24  44  58  72 100 149 200 226 276 331
#     4   9  17  29  48  77 118 153 178 216 271 339
#     4   9  16  28  45  71 108 147 180 210 262 331
#     4  11  21  32  52  83 112 141 177 226 282 326
#     4  10  19  33  54  85 117 148 184 225 279 334
#
# _framework density 16.827321999999999
#
# number of rings (size 3 to 8) (size 9 to 14) (size 15 to 20)
#    0.000    1.727    3.636    2.727    0.000    3.636 
#    0.000    2.727    0.000    1.091    0.000    3.818 
#    0.000    1.455    0.000    0.000    0.000    0.000 
#
# Total GULP energy -245104.408914 kJ/mol
# GULP energy per Si atom -5570.554748 kJ/mol
# Density = 1.678902 g / cm^3
# Si number density = 16.827322 Si / 1000 Ang^3
#
#
#
# Elastic Constant Matrix: (Units=GPa)
#
#
# Indices 1 2 3 4 5 6 
#
# 1 94.6195 29.8008 2.3917 0.0000 0.0000 -3.0743
# 2 29.8008 94.6195 2.3917 0.0000 0.0000 3.0743
# 3 2.3917 2.3917 34.6275 0.0000 0.0000 0.0000
# 4 0.0000 0.0000 0.0000 2.4954 0.0000 0.0000
# 5 0.0000 0.0000 0.0000 0.0000 2.4954 0.0000
# 6 -3.0743 3.0743 0.0000 0.0000 0.0000 27.9698
#
#
#
# Elastic Compliance Matrix: (Units=1/GPa)
#
#
# Indices 1 2 3 4 5 6 
#
# 1 0.011824 -0.003766 -0.000557 0.000000 0.000000 0.001714
# 2 -0.003766 0.011824 -0.000557 0.000000 0.000000 -0.001714
# 3 -0.000557 -0.000557 0.028956 0.000000 0.000000 0.000000
# 4 0.000000 0.000000 0.000000 0.400737 0.000000 0.000000
# 5 0.000000 0.000000 0.000000 0.000000 0.400737 0.000000
# 6 0.001714 -0.001714 0.000000 0.000000 0.000000 0.036130
#
#
# Mechanical properties :
#
#
# Convention : Reuss Voigt Hill
#
# Bulk Modulus (GPa) = 23.33911 32.55946 27.94928
# Shear Modulus (GPa) = 5.46897 19.21092 12.33995
#
# Velocity S-wave (km/s) = 1.80475 3.38250 2.71094
# Velocity P-wave (km/s) = 4.27115 5.88610 5.14242
#
# Compressibility (1/GPa) = 0.04284653
#
# Stress axis : x y z
#
# Youngs Moduli (GPa) = 84.57058 84.57058 34.53559
#
# Poissons Ratio (x) = 0.31847 0.01922
# Poissons Ratio (y) = 0.31847 0.01922
# Poissons Ratio (z) = 0.04707 0.04707
#
# Static dielectric constant tensor:
#      x y z
#    x 1.586930 0.000000 0.000000 
#    y 0.000000 1.586930 0.000000 
#    z 0.000000 0.000000 1.553100 
# 
# From -- ./inp_files/1732.got.cif
#   From: 2010.05.17/outbox.cif.g08.bks.cpg/sg83_1_cif.got.tgz:1732.got - 2010.06.03 18:55:12.
