data_PCOD9543840
_publ_section_title
;
Structure prediction by ZEFSAII (Michael W. Deem and Ramdas Pophale) SiO2 
 PCOD9543840
Probable space group: P 4/M
;
_chemical_formula_sum "Si O2"
_cell_formula_units_Z 50
_cell_length_a 9.556595
_cell_length_b 9.556595
_cell_length_c 27.792940
_cell_angle_alpha 90.000000
_cell_angle_beta 90.000000
_cell_angle_gamma 90.000000
_cell_volume 2538.287743
_symmetry_space_group_name_H-M "P 4/M"
_symmetry_group_IT_number 83
_symmetry_cell_setting 'tetragonal'
loop_
_space_group_symop_operation_xyz
x,y,z
-y,x,z
-x,-y,z
y,-x,z
-x,-y,-z
y,-x,-z
x,y,-z
-y,x,-z
loop_
_atom_site_type_symbol
_atom_site_label
_atom_site_fract_x
_atom_site_fract_y
_atom_site_fract_z
Si Si1 0.315757 0.356642 0.443378
Si Si2 0.580469 0.712331 0.057911
Si Si3 0.073988 0.783763 0.100260
Si Si4 0.275265 0.745310 0.262272
Si Si5 0.144309 0.185907 0.366118
Si Si6 0.500000 0.500000 0.261479
Si Si7 0.658237 0.980305 0.798130
O O1 0.476571 0.310998 0.434226
O O2 0.286943 0.334378 0.500000
O O3 0.212955 0.272716 0.409237
O O4 0.422107 0.674732 0.073469
O O5 0.648195 0.853977 0.077187
O O6 0.580516 0.715286 0.000000
O O7 0.064143 0.754577 0.157173
O O8 0.916470 0.828425 0.086706
O O9 0.247070 0.801905 0.315678
O O10 0.408304 0.645653 0.261493
O O11 0.139666 0.665300 0.242005
O O12 0.295475 0.876895 0.226944
O O13 0.976463 0.189225 0.368562
O O14 0.500000 0.000000 0.816147
#
# Coordination Sequence:
#
# PCOD9543840 Si02
#       7
#     8   8   8   8   8   2   8
#     4   9  21  42  67  94 128 170 215 272 336 394
#     4   9  21  44  70  97 133 177 222 272 333 396
#     4  11  25  40  63  99 132 172 218 268 326 390
#     4  12  25  45  67  94 130 176 221 275 328 394
#     4  11  25  41  64  95 128 173 221 263 324 396
#     4  12  28  44  64 100 129 164 225 276 332 384
#     4  12  25  43  68  94 134 176 224 270 335 393
#
# _framework density 19.698318
#
# number of rings (size 3 to 8) (size 9 to 14) (size 15 to 20)
#    0.000    1.280    4.800    0.960    4.480    2.240 
#    0.000    4.800    0.000    0.000    0.000    0.000 
#    0.000    0.000    0.000    0.000    0.000    0.000 
#
# Total GULP energy -278832.769640 kJ/mol
# GULP energy per Si atom -5576.655393 kJ/mol
# Density = 1.965348 g / cm^3
# Si number density = 19.698318 Si / 1000 Ang^3
#
#
#
# Elastic Constant Matrix: (Units=GPa)
#
#
# Indices 1 2 3 4 5 6 
#
# 1 80.5151 45.9518 26.6768 0.0000 0.0000 -6.1430
# 2 45.9518 80.5151 26.6768 0.0000 0.0000 6.1430
# 3 26.6768 26.6768 40.9447 0.0000 0.0000 0.0000
# 4 0.0000 0.0000 0.0000 19.4106 0.0000 0.0000
# 5 0.0000 0.0000 0.0000 0.0000 19.4106 0.0000
# 6 -6.1430 6.1430 0.0000 0.0000 0.0000 44.8721
#
#
#
# Elastic Compliance Matrix: (Units=1/GPa)
#
#
# Indices 1 2 3 4 5 6 
#
# 1 0.020658 -0.009754 -0.007105 0.000000 0.000000 0.004163
# 2 -0.009754 0.020658 -0.007105 0.000000 0.000000 -0.004163
# 3 -0.007105 -0.007105 0.033681 0.000000 0.000000 0.000000
# 4 0.000000 0.000000 0.000000 0.051518 0.000000 0.000000
# 5 0.000000 0.000000 0.000000 0.000000 0.051518 0.000000
# 6 0.004163 -0.004163 0.000000 0.000000 0.000000 0.023425
#
#
# Mechanical properties :
#
#
# Convention : Reuss Voigt Hill
#
# Bulk Modulus (GPa) = 36.93929 44.50952 40.72441
# Shear Modulus (GPa) = 19.34909 23.58330 21.46620
#
# Velocity S-wave (km/s) = 3.13752 3.46385 3.30471
# Velocity P-wave (km/s) = 5.64965 6.21629 5.93973
#
# Compressibility (1/GPa) = 0.02707145
#
# Stress axis : x y z
#
# Youngs Moduli (GPa) = 48.40644 48.40644 29.69031
#
# Poissons Ratio (x) = 0.47215 0.21094
# Poissons Ratio (y) = 0.47215 0.21094
# Poissons Ratio (z) = 0.34391 0.34391
#
# Static dielectric constant tensor:
#      x y z
#    x 1.697630 0.000000 0.000000 
#    y 0.000000 1.697630 0.000000 
#    z 0.000000 0.000000 1.663550 
# 
# From -- ./inp_files/3475.got.cif
#   From: 2010.05.17/outbox.cif.g08.bks.cpg/sg83_2_cif.got.tgz:3475.got - 2010.06.03 18:55:12.
