data_PCOD9543604
_publ_section_title
;
Structure prediction by ZEFSAII (Michael W. Deem and Ramdas Pophale) SiO2 
 PCOD9543604
Probable space group: P 4/M
;
_chemical_formula_sum "Si O2"
_cell_formula_units_Z 48
_cell_length_a 11.691240
_cell_length_b 11.691240
_cell_length_c 19.885567
_cell_angle_alpha 90.000000
_cell_angle_beta 90.000000
_cell_angle_gamma 90.000000
_cell_volume 2718.060570
_symmetry_space_group_name_H-M "P 4/M"
_symmetry_group_IT_number 83
_symmetry_cell_setting 'tetragonal'
loop_
_space_group_symop_operation_xyz
x,y,z
-y,x,z
-x,-y,z
y,-x,z
-x,-y,-z
y,-x,-z
x,y,-z
-y,x,-z
loop_
_atom_site_type_symbol
_atom_site_label
_atom_site_fract_x
_atom_site_fract_y
_atom_site_fract_z
Si Si1 0.312839 0.492717 0.729698
Si Si2 0.811417 0.638509 0.924224
Si Si3 0.638637 0.001071 0.184466
Si Si4 0.396962 0.917693 0.329919
Si Si5 0.939181 0.821531 0.580725
Si Si6 0.595897 0.767098 0.130998
O O1 0.394726 0.385811 0.714040
O O2 0.197014 0.463185 0.691955
O O3 0.283737 0.518726 0.807980
O O4 0.904613 0.678030 0.869110
O O5 0.809965 0.500255 0.920512
O O6 0.686277 0.683129 0.902725
O O7 0.838214 0.675595 0.000000
O O8 0.662005 0.033636 0.261381
O O9 0.500000 0.000000 0.182303
O O10 0.667403 0.872838 0.162290
O O11 0.295497 0.904957 0.383009
O O12 0.500000 0.000000 0.352790
O O13 0.934536 0.808684 0.500000
O O14 0.069547 0.859170 0.598274
#
# Coordination Sequence:
#
# PCOD9543604 Si02
#       6
#     8   8   8   8   8   8
#     4  11  21  35  56  80 118 156 184 234 299 355
#     4  11  22  33  50  74 103 142 186 236 291 346
#     4   9  19  35  51  75 105 140 180 233 283 335
#     4  11  20  34  61  91 114 151 202 242 287 353
#     4   9  21  41  63  90 125 160 194 241 295 339
#     4  11  19  35  52  73 104 140 186 235 286 348
#
# _framework density 17.659649999999999
#
# number of rings (size 3 to 8) (size 9 to 14) (size 15 to 20)
#    0.000    1.667    6.667    1.000    2.333    5.667 
#    0.000    0.833    0.000    0.500    0.000    2.333 
#    0.000    0.000    0.000    0.000    0.000    0.000 
#
# Total GULP energy -267362.805708 kJ/mol
# GULP energy per Si atom -5570.058452 kJ/mol
# Density = 1.761946 g / cm^3
# Si number density = 17.659650 Si / 1000 Ang^3
#
#
#
# Elastic Constant Matrix: (Units=GPa)
#
#
# Indices 1 2 3 4 5 6 
#
# 1 23.9006 32.8171 16.8811 0.0000 0.0000 -8.8433
# 2 32.8171 23.9006 16.8811 0.0000 0.0000 8.8433
# 3 16.8811 16.8811 49.2179 0.0000 0.0000 0.0000
# 4 0.0000 0.0000 0.0000 18.5718 0.0000 0.0000
# 5 0.0000 0.0000 0.0000 0.0000 18.5718 0.0000
# 6 -8.8433 8.8433 0.0000 0.0000 0.0000 7.7433
#
#
#
# Elastic Compliance Matrix: (Units=1/GPa)
#
#
# Indices 1 2 3 4 5 6 
#
# 1 -0.006096 0.028250 -0.007599 0.000000 0.000000 -0.039225
# 2 0.028250 -0.006096 -0.007599 0.000000 0.000000 0.039225
# 3 -0.007599 -0.007599 0.025530 0.000000 0.000000 0.000000
# 4 0.000000 0.000000 0.000000 0.053845 0.000000 0.000000
# 5 0.000000 0.000000 0.000000 0.000000 0.053845 0.000000
# 6 -0.039225 0.039225 0.000000 0.000000 0.000000 0.039550
#
#
# Mechanical properties :
#
#
# Convention : Reuss Voigt Hill
#
# Bulk Modulus (GPa) = 25.35211 25.57530 25.46370
# Shear Modulus (GPa) = 33.87051 11.00670 22.43861
#
# Velocity S-wave (km/s) = 4.38420 2.49924 3.56844
# Velocity P-wave (km/s) = 6.32578 4.77934 5.60614
#
# Compressibility (1/GPa) = 0.03944445
#
# Stress axis : x y z
#
# Youngs Moduli (GPa) = -164.04734 -164.04734 39.16910
#
# Poissons Ratio (x) = 4.63438 0.29763
# Poissons Ratio (y) = 4.63438 0.29763
# Poissons Ratio (z) = -1.24655 -1.24655
#
# Static dielectric constant tensor:
#      x y z
#    x 1.622610 0.000000 0.000000 
#    y 0.000000 1.622610 0.000000 
#    z 0.000000 0.000000 1.631670 
# 
# From -- ./inp_files/2630.got.cif
#   From: 2010.05.17/outbox.cif.g08.bks.cpg/sg83_2_cif.got.tgz:2630.got - 2010.06.03 18:55:12.
