data_PCOD9543948
_publ_section_title
;
Structure prediction by ZEFSAII (Michael W. Deem and Ramdas Pophale) SiO2 
 PCOD9543948
Probable space group: P 42/M
;
_chemical_formula_sum "Si O2"
_cell_formula_units_Z 48
_cell_length_a 9.132912
_cell_length_b 9.132912
_cell_length_c 30.835283
_cell_angle_alpha 90.000000
_cell_angle_beta 90.000000
_cell_angle_gamma 90.000000
_cell_volume 2571.973471
_symmetry_space_group_name_H-M "P 42/M"
_symmetry_group_IT_number 84
_symmetry_cell_setting 'tetragonal'
loop_
_space_group_symop_operation_xyz
x,y,z
-y,x,1/2+z
-x,-y,z
y,-x,1/2+z
-x,-y,-z
y,-x,1/2-z
x,y,-z
-y,x,1/2-z
loop_
_atom_site_type_symbol
_atom_site_label
_atom_site_fract_x
_atom_site_fract_y
_atom_site_fract_z
Si Si1 0.877351 0.806048 0.886182
Si Si2 0.412054 0.349165 0.624501
Si Si3 0.426436 0.840234 0.310282
Si Si4 0.788457 0.111386 0.237237
Si Si5 0.216365 0.880891 0.134130
Si Si6 0.835812 0.562794 0.049010
O O1 0.833784 0.702174 0.846116
O O2 0.847063 0.724271 0.930939
O O3 0.052126 0.827697 0.879192
O O4 0.785914 0.954806 0.883551
O O5 0.500000 0.500000 0.623777
O O6 0.454422 0.270882 0.670228
O O7 0.236684 0.338128 0.620211
O O8 0.472116 0.256166 0.583930
O O9 0.346442 0.820803 0.264202
O O10 0.500000 0.000000 0.311061
O O11 0.772974 0.110257 0.185958
O O12 0.942124 0.191165 0.247935
O O13 0.000000 0.500000 0.049126
O O14 0.778715 0.557826 0.000000
#
# Coordination Sequence:
#
# PCOD9543948 Si02
#       6
#     8   8   8   8   8   8
#     4  10  17  34  63  85 111 139 197 251 290 339
#     4  11  23  41  57  83 124 161 191 238 311 370
#     4  11  19  37  57  79 111 158 201 244 285 345
#     4  11  18  32  56  86 110 148 206 252 290 334
#     4  11  19  35  57  86 116 153 196 246 300 346
#     4  10  20  39  66  90 113 149 198 239 294 374
#
# _framework density 18.662713
#
# number of rings (size 3 to 8) (size 9 to 14) (size 15 to 20)
#    0.000    1.333    6.667    2.000    0.000    0.333 
#    6.000    5.833    0.000    1.000    0.000    0.000 
#    0.000    0.000    0.000    0.000    0.000    0.000 
#
# Total GULP energy -267735.303011 kJ/mol
# GULP energy per Si atom -5577.818813 kJ/mol
# Density = 1.862024 g / cm^3
# Si number density = 18.662713 Si / 1000 Ang^3
#
#
#
# Elastic Constant Matrix: (Units=GPa)
#
#
# Indices 1 2 3 4 5 6 
#
# 1 82.8563 17.2197 25.1833 0.0000 0.0000 1.4916
# 2 17.2197 82.8563 25.1833 0.0000 0.0000 -1.4916
# 3 25.1833 25.1833 110.8910 0.0000 0.0000 0.0000
# 4 0.0000 0.0000 0.0000 4.8873 0.0000 0.0000
# 5 0.0000 0.0000 0.0000 0.0000 4.8873 0.0000
# 6 1.4916 -1.4916 0.0000 0.0000 0.0000 26.4988
#
#
#
# Elastic Compliance Matrix: (Units=1/GPa)
#
#
# Indices 1 2 3 4 5 6 
#
# 1 0.013278 -0.001996 -0.002562 0.000000 0.000000 -0.000860
# 2 -0.001996 0.013278 -0.002562 0.000000 0.000000 0.000860
# 3 -0.002562 -0.002562 0.010182 0.000000 0.000000 0.000000
# 4 0.000000 0.000000 0.000000 0.204611 0.000000 0.000000
# 5 0.000000 0.000000 0.000000 0.000000 0.204611 0.000000
# 6 -0.000860 0.000860 0.000000 0.000000 0.000000 0.037834
#
#
# Mechanical properties :
#
#
# Convention : Reuss Voigt Hill
#
# Bulk Modulus (GPa) = 44.45061 45.75292 45.10176
# Shear Modulus (GPa) = 9.89053 21.18918 15.53985
#
# Velocity S-wave (km/s) = 2.30459 3.37319 2.88873
# Velocity P-wave (km/s) = 5.56337 6.30398 5.94522
#
# Compressibility (1/GPa) = 0.02249688
#
# Stress axis : x y z
#
# Youngs Moduli (GPa) = 75.31154 75.31154 98.21669
#
# Poissons Ratio (x) = 0.15034 0.25164
# Poissons Ratio (y) = 0.15034 0.25164
# Poissons Ratio (z) = 0.19296 0.19296
#
# Static dielectric constant tensor:
#      x y z
#    x 1.745450 0.000000 0.000000 
#    y 0.000000 1.745450 0.000000 
#    z 0.000000 0.000000 1.616480 
# 
# From -- ./inp_files/5805.got.cif
#   From: 2010.05.17/outbox.cif.g08.bks.cpg/sg84_3_cif.got.tgz:5805.got - 2010.06.03 18:57:40.
