data_PCOD9543402
_publ_section_title
;
Structure prediction by ZEFSAII (Michael W. Deem and Ramdas Pophale) SiO2 
 PCOD9543402
Probable space group: P 4/M
;
_chemical_formula_sum "Si O2"
_cell_formula_units_Z 36
_cell_length_a 13.716427
_cell_length_b 13.716427
_cell_length_c 8.287125
_cell_angle_alpha 90.000000
_cell_angle_beta 90.000000
_cell_angle_gamma 90.000000
_cell_volume 1559.142761
_symmetry_space_group_name_H-M "P 4/M"
_symmetry_group_IT_number 83
_symmetry_cell_setting 'tetragonal'
loop_
_space_group_symop_operation_xyz
x,y,z
-y,x,z
-x,-y,z
y,-x,z
-x,-y,-z
y,-x,-z
x,y,-z
-y,x,-z
loop_
_atom_site_type_symbol
_atom_site_label
_atom_site_fract_x
_atom_site_fract_y
_atom_site_fract_z
Si Si1 0.028034 0.266958 0.316670
Si Si2 0.393707 0.382997 0.805637
Si Si3 0.848954 0.058370 0.000000
Si Si4 0.350473 0.186075 0.690970
Si Si5 0.893380 0.547278 0.822348
O O1 0.034200 0.227769 0.500000
O O2 0.913136 0.289121 0.276487
O O3 0.071585 0.205456 0.169738
O O4 0.088252 0.367716 0.304897
O O5 0.506929 0.368425 0.753177
O O6 0.324206 0.295427 0.746585
O O7 0.392586 0.381726 0.000000
O O8 0.945574 0.120977 0.000000
O O9 0.360828 0.187482 0.500000
O O10 0.455575 0.169854 0.772011
O O11 0.000000 0.500000 0.838181
O O12 0.863332 0.584355 0.000000
#
# Coordination Sequence:
#
# PCOD9543402 Si02
#       5
#     8   8   4   8   8
#     4  10  21  40  64  93 125 152 194 252 304 364
#     4   9  19  36  54  75 111 162 209 241 281 339
#     4  11  26  48  69  90 118 155 200 245 311 391
#     4  10  20  33  55  89 123 158 199 245 302 354
#     4   9  16  30  57  87 118 157 192 235 299 353
#
# _framework density 23.089611000000001
#
# number of rings (size 3 to 8) (size 9 to 14) (size 15 to 20)
#    0.000    2.333    1.111    2.000    3.111    4.444 
#    4.000    2.222    0.000    0.000    0.000    0.000 
#    0.000    0.000    0.000    0.000    0.000    0.000 
#
# Total GULP energy -200850.814845 kJ/mol
# GULP energy per Si atom -5579.189301 kJ/mol
# Density = 2.303706 g / cm^3
# Si number density = 23.089611 Si / 1000 Ang^3
#
#
#
# Elastic Constant Matrix: (Units=GPa)
#
#
# Indices 1 2 3 4 5 6 
#
# 1 59.5532 -21.2093 9.7621 0.0000 0.0000 -28.2642
# 2 -21.2093 59.5532 9.7621 0.0000 0.0000 28.2642
# 3 9.7621 9.7621 84.6039 0.0000 0.0000 0.0000
# 4 0.0000 0.0000 0.0000 0.8089 0.0000 0.0000
# 5 0.0000 0.0000 0.0000 0.0000 0.8089 0.0000
# 6 -28.2642 28.2642 0.0000 0.0000 0.0000 63.5149
#
#
#
# Elastic Compliance Matrix: (Units=1/GPa)
#
#
# Indices 1 2 3 4 5 6 
#
# 1 0.022845 0.004862 -0.003197 0.000000 0.000000 0.008003
# 2 0.004862 0.022845 -0.003197 0.000000 0.000000 -0.008003
# 3 -0.003197 -0.003197 0.012558 0.000000 0.000000 0.000000
# 4 0.000000 0.000000 0.000000 1.236242 0.000000 0.000000
# 5 0.000000 0.000000 0.000000 0.000000 1.236242 0.000000
# 6 0.008003 -0.008003 0.000000 0.000000 0.000000 0.022867
#
#
# Mechanical properties :
#
#
# Convention : Reuss Voigt Hill
#
# Bulk Modulus (GPa) = 18.12098 22.26000 20.19049
# Shear Modulus (GPa) = 1.94170 26.71958 14.33064
#
# Velocity S-wave (km/s) = 0.91802 3.40547 2.49399
# Velocity P-wave (km/s) = 2.99814 5.01245 4.12998
#
# Compressibility (1/GPa) = 0.05518465
#
# Stress axis : x y z
#
# Youngs Moduli (GPa) = 43.77236 43.77236 79.63317
#
# Poissons Ratio (x) = -0.21283 0.25459
# Poissons Ratio (y) = -0.21283 0.25459
# Poissons Ratio (z) = 0.13994 0.13994
#
# Static dielectric constant tensor:
#      x y z
#    x 1.896210 0.000000 0.000000 
#    y 0.000000 1.896210 0.000000 
#    z 0.000000 0.000000 1.819660 
# 
# From -- ./inp_files/499.got.cif
#   From: 2010.05.17/outbox.cif.g08.bks.cpg/sg83_1_cif.got.tgz:499.got - 2010.06.03 18:55:12.
