data_PCOD9543667
_publ_section_title
;
Structure prediction by ZEFSAII (Michael W. Deem and Ramdas Pophale) SiO2 
 PCOD9543667
Probable space group: P 4/M
;
_chemical_formula_sum "Si O2"
_cell_formula_units_Z 60
_cell_length_a 14.825344
_cell_length_b 14.825344
_cell_length_c 15.210691
_cell_angle_alpha 90.000000
_cell_angle_beta 90.000000
_cell_angle_gamma 90.000000
_cell_volume 3343.170319
_symmetry_space_group_name_H-M "P 4/M"
_symmetry_group_IT_number 83
_symmetry_cell_setting 'tetragonal'
loop_
_space_group_symop_operation_xyz
x,y,z
-y,x,z
-x,-y,z
y,-x,z
-x,-y,-z
y,-x,-z
x,y,-z
-y,x,-z
loop_
_atom_site_type_symbol
_atom_site_label
_atom_site_fract_x
_atom_site_fract_y
_atom_site_fract_z
Si Si1 0.454276 0.902597 0.900784
Si Si2 0.659756 0.686357 0.107275
Si Si3 0.938243 0.861102 0.500000
Si Si4 0.062014 0.140992 0.311977
Si Si5 0.652731 0.510386 0.398308
Si Si6 0.515405 0.261043 0.206524
Si Si7 0.771599 0.862923 0.097235
Si Si8 0.934246 0.753005 0.853534
O O1 0.495908 0.842669 0.823144
O O2 0.347395 0.912615 0.884150
O O3 0.500000 0.000000 0.900245
O O4 0.468375 0.863541 0.000000
O O5 0.712565 0.607661 0.157134
O O6 0.562551 0.687013 0.153120
O O7 0.709861 0.780683 0.129228
O O8 0.658128 0.676552 0.000000
O O9 0.919212 0.817985 0.407602
O O10 0.043378 0.887201 0.500000
O O11 0.091805 0.215974 0.243872
O O12 0.955745 0.113139 0.303612
O O13 0.581052 0.592846 0.391764
O O14 0.689997 0.512821 0.500000
O O15 0.715620 0.514478 0.310615
O O16 0.873019 0.823989 0.093556
O O17 0.767358 0.958800 0.142903
O O18 0.737285 0.883496 0.000000
#
# Coordination Sequence:
#
# PCOD9543667 Si02
#       8
#     8   8   4   8   8   8   8   8
#     4  11  24  42  60  80 112 162 209 234 274 357
#     4  11  23  37  55  85 122 153 189 241 296 352
#     4   7  12  24  46  70 103 138 168 210 270 337
#     4   9  16  29  48  79 108 134 171 220 281 336
#     4   9  18  35  59  91 125 153 187 234 297 371
#     4  12  21  37  62  89 117 153 194 244 297 349
#     4  11  23  37  52  77 113 153 195 239 284 338
#     4  12  21  35  56  80 110 148 190 236 289 340
#
# _framework density 17.947037000000002
#
# number of rings (size 3 to 8) (size 9 to 14) (size 15 to 20)
#    0.000    1.533    4.000    4.400    0.000    2.667 
#    0.000    1.333    1.467    0.400    8.667    0.000 
#    0.000    0.000    0.000    0.000    0.000    0.000 
#
# Total GULP energy -334036.752394 kJ/mol
# GULP energy per Si atom -5567.279207 kJ/mol
# Density = 1.790619 g / cm^3
# Si number density = 17.947037 Si / 1000 Ang^3
#
#
#
# Elastic Constant Matrix: (Units=GPa)
#
#
# Indices 1 2 3 4 5 6 
#
# 1 54.8496 0.4668 33.2394 0.0000 0.0000 -0.1440
# 2 0.4668 54.8496 33.2394 0.0000 0.0000 0.1440
# 3 33.2394 33.2394 161.4103 0.0000 0.0000 0.0000
# 4 0.0000 0.0000 0.0000 16.5289 0.0000 0.0000
# 5 0.0000 0.0000 0.0000 0.0000 16.5289 0.0000
# 6 -0.1440 0.1440 0.0000 0.0000 0.0000 16.6137
#
#
#
# Elastic Compliance Matrix: (Units=1/GPa)
#
#
# Indices 1 2 3 4 5 6 
#
# 1 0.021206 0.002817 -0.004947 0.000000 0.000000 0.000159
# 2 0.002817 0.021206 -0.004947 0.000000 0.000000 -0.000159
# 3 -0.004947 -0.004947 0.008233 0.000000 0.000000 0.000000
# 4 0.000000 0.000000 0.000000 0.060500 0.000000 0.000000
# 5 0.000000 0.000000 0.000000 0.000000 0.060500 0.000000
# 6 0.000159 -0.000159 0.000000 0.000000 0.000000 0.060194
#
#
# Mechanical properties :
#
#
# Convention : Reuss Voigt Hill
#
# Bulk Modulus (GPa) = 27.40414 45.00008 36.20211
# Shear Modulus (GPa) = 19.36801 23.54521 21.45661
#
# Velocity S-wave (km/s) = 3.28864 3.62598 3.46143
# Velocity P-wave (km/s) = 5.45187 6.53135 6.01587
#
# Compressibility (1/GPa) = 0.03649084
#
# Stress axis : x y z
#
# Youngs Moduli (GPa) = 47.15622 47.15622 121.46355
#
# Poissons Ratio (x) = -0.13284 0.60089
# Poissons Ratio (y) = -0.13284 0.60089
# Poissons Ratio (z) = 0.23329 0.23329
#
# Static dielectric constant tensor:
#      x y z
#    x 1.658900 0.000000 0.000000 
#    y 0.000000 1.658900 0.000000 
#    z 0.000000 0.000000 1.667950 
# 
# From -- ./inp_files/2474.got.cif
#   From: 2010.05.17/outbox.cif.g08.bks.cpg/sg83_2_cif.got.tgz:2474.got - 2010.06.03 18:55:12.
