data_PCOD9543723
_publ_section_title
;
Structure prediction by ZEFSAII (Michael W. Deem and Ramdas Pophale) SiO2 
 PCOD9543723
Probable space group: P 4/M
;
_chemical_formula_sum "Si O2"
_cell_formula_units_Z 44
_cell_length_a 8.155923
_cell_length_b 8.155923
_cell_length_c 30.610693
_cell_angle_alpha 90.000000
_cell_angle_beta 90.000000
_cell_angle_gamma 90.000000
_cell_volume 2036.195136
_symmetry_space_group_name_H-M "P 4/M"
_symmetry_group_IT_number 83
_symmetry_cell_setting 'tetragonal'
loop_
_space_group_symop_operation_xyz
x,y,z
-y,x,z
-x,-y,z
y,-x,z
-x,-y,-z
y,-x,-z
x,y,-z
-y,x,-z
loop_
_atom_site_type_symbol
_atom_site_label
_atom_site_fract_x
_atom_site_fract_y
_atom_site_fract_z
Si Si1 0.410829 0.237852 0.213951
Si Si2 0.260545 0.907337 0.549243
Si Si3 0.500000 0.000000 0.381513
Si Si4 0.763194 0.413261 0.951404
Si Si5 0.263561 0.077595 0.868765
Si Si6 0.408686 0.238725 0.311901
O O1 0.597206 0.300948 0.210305
O O2 0.361310 0.119870 0.175047
O O3 0.384868 0.170772 0.262893
O O4 0.325729 0.883002 0.500000
O O5 0.096705 0.799256 0.553208
O O6 0.394279 0.884482 0.586552
O O7 0.614747 0.893863 0.349492
O O8 0.698135 0.599056 0.948180
O O9 0.879049 0.364336 0.911989
O O10 0.834030 0.387490 0.000000
O O11 0.105301 0.196159 0.869044
O O12 0.597785 0.299739 0.315648
#
# Coordination Sequence:
#
# PCOD9543723 Si02
#       6
#     8   8   4   8   8   8
#     4   9  19  37  58  76  98 134 179 219 260 318
#     4   9  19  35  52  74 108 146 183 222 263 314
#     4  12  19  30  56  84 104 136 181 224 270 320
#     4   9  19  37  60  84 108 137 178 223 264 315
#     4  11  24  37  51  78 113 143 174 218 268 314
#     4   9  20  36  52  76 108 137 170 219 273 322
#
# _framework density 21.608930000000001
#
# number of rings (size 3 to 8) (size 9 to 14) (size 15 to 20)
#    0.000    2.364    0.000    4.636    0.000    8.000 
#    0.000    2.727    0.000    2.182    0.000    7.636 
#    0.000    0.000    0.000    0.000    0.000    0.000 
#
# Total GULP energy -246083.893963 kJ/mol
# GULP energy per Si atom -5592.815772 kJ/mol
# Density = 2.155975 g / cm^3
# Si number density = 21.608930 Si / 1000 Ang^3
#
#
#
# Elastic Constant Matrix: (Units=GPa)
#
#
# Indices 1 2 3 4 5 6 
#
# 1 47.7257 19.9801 49.1539 0.0000 0.0000 3.7241
# 2 19.9801 47.7257 49.1539 0.0000 0.0000 -3.7241
# 3 49.1539 49.1539 191.8661 0.0000 0.0000 0.0000
# 4 0.0000 0.0000 0.0000 -360.2760 0.0000 0.0000
# 5 0.0000 0.0000 0.0000 0.0000 -360.2760 0.0000
# 6 3.7241 -3.7241 0.0000 0.0000 0.0000 30.0879
#
#
#
# Elastic Compliance Matrix: (Units=1/GPa)
#
#
# Indices 1 2 3 4 5 6 
#
# 1 0.030399 -0.006881 -0.006025 0.000000 0.000000 -0.004614
# 2 -0.006881 0.030399 -0.006025 0.000000 0.000000 0.004614
# 3 -0.006025 -0.006025 0.008299 0.000000 0.000000 0.000000
# 4 0.000000 0.000000 0.000000 -0.002776 0.000000 0.000000
# 5 0.000000 0.000000 0.000000 0.000000 -0.002776 0.000000
# 6 -0.004614 0.004614 0.000000 0.000000 0.000000 0.034378
#
#
# Mechanical properties :
#
#
# Convention : Reuss Voigt Hill
#
# Bulk Modulus (GPa) = 32.01539 58.21035 45.11287
# Shear Modulus (GPa) = 34.20004 -126.82417 -46.31206
#
# Velocity S-wave (km/s) = 3.98261 -7.66929 -4.63448
# Velocity P-wave (km/s) = 5.99968 7.17130 2.77770
#
# Compressibility (1/GPa) = 0.03123497
#
# Stress axis : x y z
#
# Youngs Moduli (GPa) = 32.89557 32.89557 120.49549
#
# Poissons Ratio (x) = 0.22636 0.72599
# Poissons Ratio (y) = 0.22636 0.72599
# Poissons Ratio (z) = 0.19820 0.19820
#
# Static dielectric constant tensor:
#      x y z
#    x 1.781710 0.000000 0.000000 
#    y 0.000000 1.781710 0.000000 
#    z 0.000000 0.000000 1.770320 
# 
# From -- ./inp_files/3374.got.cif
#   From: 2010.05.17/outbox.cif.g08.bks.cpg/sg83_2_cif.got.tgz:3374.got - 2010.06.03 18:55:12.
