data_PCOD9543958
_publ_section_title
;
Structure prediction by ZEFSAII (Michael W. Deem and Ramdas Pophale) SiO2 
 PCOD9543958
Probable space group: P 42/M
;
_chemical_formula_sum "Si O2"
_cell_formula_units_Z 64
_cell_length_a 21.575892
_cell_length_b 21.575892
_cell_length_c 7.720378
_cell_angle_alpha 90.000000
_cell_angle_beta 90.000000
_cell_angle_gamma 90.000000
_cell_volume 3593.983539
_symmetry_space_group_name_H-M "P 42/M"
_symmetry_group_IT_number 84
_symmetry_cell_setting 'tetragonal'
loop_
_space_group_symop_operation_xyz
x,y,z
-y,x,1/2+z
-x,-y,z
y,-x,1/2+z
-x,-y,-z
y,-x,1/2-z
x,y,-z
-y,x,1/2-z
loop_
_atom_site_type_symbol
_atom_site_label
_atom_site_fract_x
_atom_site_fract_y
_atom_site_fract_z
Si Si1 0.184489 0.295016 0.206796
Si Si2 0.389190 0.707967 0.801529
Si Si3 0.921908 0.353050 0.288732
Si Si4 0.504889 0.906056 0.803725
Si Si5 0.629908 0.060822 0.208776
Si Si6 0.773824 0.495767 0.804071
Si Si7 0.365732 0.278706 0.710888
Si Si8 0.261165 0.183010 0.802190
O O1 0.233719 0.342181 0.290197
O O2 0.117058 0.325213 0.236820
O O3 0.203314 0.224887 0.268036
O O4 0.195179 0.295336 0.000000
O O5 0.449341 0.725262 0.697561
O O6 0.348475 0.650547 0.739618
O O7 0.407389 0.698788 0.000000
O O8 0.914606 0.353598 0.500000
O O9 0.908267 0.424584 0.230595
O O10 0.876597 0.297836 0.224268
O O11 0.993768 0.342792 0.245516
O O12 0.442146 0.936007 0.725462
O O13 0.487486 0.833702 0.805411
O O14 0.511025 0.930100 0.000000
O O15 0.625083 0.064332 0.000000
O O16 0.743385 0.433155 0.740068
O O17 0.796492 0.486281 0.000000
O O18 0.358989 0.274538 0.500000
O O19 0.316207 0.233424 0.795987
O O20 0.244671 0.166344 0.000000
#
# Coordination Sequence:
#
# PCOD9543958 Si02
#       8
#     8   8   8   8   8   8   8   8
#     4  10  19  30  45  67  93 118 148 190 231 263
#     4  10  19  32  48  65  85 115 151 186 225 273
#     4   9  17  30  47  67  91 123 162 192 215 258
#     4  10  18  29  45  65  91 124 158 186 214 257
#     4  10  19  30  46  67  93 126 159 188 220 263
#     4  11  20  30  46  68  93 115 143 188 232 272
#     4   9  19  32  46  65  89 113 144 187 233 272
#     4   9  17  30  48  67  88 117 154 190 222 261
#
# _framework density 17.807539999999999
#
# number of rings (size 3 to 8) (size 9 to 14) (size 15 to 20)
#    0.000    2.250    2.500    1.500    0.000    3.000 
#    0.000    1.250    0.000    1.875    0.000    2.625 
#    0.000    0.500    0.000    6.250    0.000    0.000 
#
# Total GULP energy -356358.025564 kJ/mol
# GULP energy per Si atom -5568.094149 kJ/mol
# Density = 1.776701 g / cm^3
# Si number density = 17.807540 Si / 1000 Ang^3
#
#
#
# Elastic Constant Matrix: (Units=GPa)
#
#
# Indices 1 2 3 4 5 6 
#
# 1 63.5378 23.1303 1.7263 0.0000 0.0000 -0.5558
# 2 23.1303 63.5378 1.7263 0.0000 0.0000 0.5558
# 3 1.7263 1.7263 30.7088 0.0000 0.0000 0.0000
# 4 0.0000 0.0000 0.0000 19.2246 0.0000 0.0000
# 5 0.0000 0.0000 0.0000 0.0000 19.2246 0.0000
# 6 -0.5558 0.5558 0.0000 0.0000 0.0000 18.7794
#
#
#
# Elastic Compliance Matrix: (Units=1/GPa)
#
#
# Indices 1 2 3 4 5 6 
#
# 1 0.018166 -0.006602 -0.000650 0.000000 0.000000 0.000733
# 2 -0.006602 0.018166 -0.000650 0.000000 0.000000 -0.000733
# 3 -0.000650 -0.000650 0.032637 0.000000 0.000000 0.000000
# 4 0.000000 0.000000 0.000000 0.052017 0.000000 0.000000
# 5 0.000000 0.000000 0.000000 0.000000 0.052017 0.000000
# 6 0.000733 -0.000733 0.000000 0.000000 0.000000 0.053293
#
#
# Mechanical properties :
#
#
# Convention : Reuss Voigt Hill
#
# Bulk Modulus (GPa) = 18.80938 23.43894 21.12416
# Shear Modulus (GPa) = 19.24398 20.19250 19.71824
#
# Velocity S-wave (km/s) = 3.29091 3.37104 3.33122
# Velocity P-wave (km/s) = 5.00257 5.32380 5.16568
#
# Compressibility (1/GPa) = 0.05316496
#
# Stress axis : x y z
#
# Youngs Moduli (GPa) = 55.04762 55.04762 30.64007
#
# Poissons Ratio (x) = 0.36342 0.01992
# Poissons Ratio (y) = 0.36342 0.01992
# Poissons Ratio (z) = 0.03579 0.03579
#
# Static dielectric constant tensor:
#      x y z
#    x 1.622680 0.000000 0.000000 
#    y 0.000000 1.622680 0.000000 
#    z 0.000000 0.000000 1.612970 
# 
# From -- ./inp_files/1417.got.cif
#   From: 2010.05.17/outbox.cif.g08.bks.cpg/sg84_1_cif.got.tgz:1417.got - 2010.06.03 18:57:40.
