data_PCOD9543603
_publ_section_title
;
Structure prediction by ZEFSAII (Michael W. Deem and Ramdas Pophale) SiO2 
 PCOD9543603
Probable space group: P 4/M
;
_chemical_formula_sum "Si O2"
_cell_formula_units_Z 56
_cell_length_a 11.463813
_cell_length_b 11.463813
_cell_length_c 24.406917
_cell_angle_alpha 90.000000
_cell_angle_beta 90.000000
_cell_angle_gamma 90.000000
_cell_volume 3207.532833
_symmetry_space_group_name_H-M "P 4/M"
_symmetry_group_IT_number 83
_symmetry_cell_setting 'tetragonal'
loop_
_space_group_symop_operation_xyz
x,y,z
-y,x,z
-x,-y,z
y,-x,z
-x,-y,-z
y,-x,-z
x,y,-z
-y,x,-z
loop_
_atom_site_type_symbol
_atom_site_label
_atom_site_fract_x
_atom_site_fract_y
_atom_site_fract_z
Si Si1 0.352849 0.816409 0.149527
Si Si2 0.407604 0.226775 0.186884
Si Si3 0.931111 0.819627 0.434549
Si Si4 0.605318 0.080609 0.357754
Si Si5 0.823373 0.077486 0.934628
Si Si6 0.000582 0.358615 0.241650
Si Si7 0.510049 0.309326 0.699466
O O1 0.493469 0.821054 0.145920
O O2 0.312954 0.683421 0.159133
O O3 0.283837 0.871752 0.099144
O O4 0.319336 0.894597 0.202781
O O5 0.331609 0.123511 0.214643
O O6 0.485612 0.280194 0.236553
O O7 0.923954 0.801765 0.500000
O O8 0.894958 0.704575 0.401890
O O9 0.065623 0.854202 0.421581
O O10 0.539224 0.192583 0.332753
O O11 0.500000 0.000000 0.379088
O O12 0.668814 0.020162 0.305140
O O13 0.942153 0.148758 0.921349
O O14 0.805821 0.085063 0.000000
O O15 0.000000 0.500000 0.240952
O O16 0.618091 0.394007 0.686802
#
# Coordination Sequence:
#
# PCOD9543603 Si02
#       7
#     8   8   8   8   8   8   8
#     4  11  20  32  52  78 109 144 184 221 269 333
#     4  11  19  32  52  76 109 148 180 218 270 331
#     4   9  21  41  61  82 111 149 194 244 298 351
#     4  11  20  33  58  86 113 146 190 240 288 336
#     4   9  19  38  60  79 102 138 184 234 288 338
#     4   9  18  32  46  76 111 140 171 223 273 321
#     4  11  21  35  53  78 116 156 191 219 271 348
#
# _framework density 17.458901000000001
#
# number of rings (size 3 to 8) (size 9 to 14) (size 15 to 20)
#    0.000    1.857    5.714    1.714    2.000    1.714 
#    0.000    0.714    0.000    7.286    0.000    2.000 
#    0.000    0.000    0.000    0.000    0.000    0.000 
#
# Total GULP energy -311993.893559 kJ/mol
# GULP energy per Si atom -5571.319528 kJ/mol
# Density = 1.741916 g / cm^3
# Si number density = 17.458901 Si / 1000 Ang^3
#
#
#
# Elastic Constant Matrix: (Units=GPa)
#
#
# Indices 1 2 3 4 5 6 
#
# 1 53.6964 33.2500 22.4718 0.0000 0.0000 -1.9314
# 2 33.2500 53.6964 22.4718 0.0000 0.0000 1.9314
# 3 22.4718 22.4718 43.8813 0.0000 0.0000 0.0000
# 4 0.0000 0.0000 0.0000 26.7338 0.0000 0.0000
# 5 0.0000 0.0000 0.0000 0.0000 26.7338 0.0000
# 6 -1.9314 1.9314 0.0000 0.0000 0.0000 13.2615
#
#
#
# Elastic Compliance Matrix: (Units=1/GPa)
#
#
# Indices 1 2 3 4 5 6 
#
# 1 0.032967 -0.017325 -0.008010 0.000000 0.000000 0.007324
# 2 -0.017325 0.032967 -0.008010 0.000000 0.000000 -0.007324
# 3 -0.008010 -0.008010 0.030993 0.000000 0.000000 0.000000
# 4 0.000000 0.000000 0.000000 0.037406 0.000000 0.000000
# 5 0.000000 0.000000 0.000000 0.000000 0.037406 0.000000
# 6 0.007324 -0.007324 0.000000 0.000000 0.000000 0.077540
#
#
# Mechanical properties :
#
#
# Convention : Reuss Voigt Hill
#
# Bulk Modulus (GPa) = 33.07352 34.18457 33.62904
# Shear Modulus (GPa) = 15.33514 18.21786 16.77650
#
# Velocity S-wave (km/s) = 2.96692 3.23378 3.10322
# Velocity P-wave (km/s) = 5.54271 5.79359 5.66954
#
# Compressibility (1/GPa) = 0.03023567
#
# Stress axis : x y z
#
# Youngs Moduli (GPa) = 30.33326 30.33326 32.26541
#
# Poissons Ratio (x) = 0.52553 0.25846
# Poissons Ratio (y) = 0.52553 0.25846
# Poissons Ratio (z) = 0.24298 0.24298
#
# Static dielectric constant tensor:
#      x y z
#    x 1.623520 0.000000 0.000000 
#    y 0.000000 1.623520 0.000000 
#    z 0.000000 0.000000 1.598910 
# 
# From -- ./inp_files/3005.got.cif
#   From: 2010.05.17/outbox.cif.g08.bks.cpg/sg83_2_cif.got.tgz:3005.got - 2010.06.03 18:55:12.
