data_PCOD9543947
_publ_section_title
;
Structure prediction by ZEFSAII (Michael W. Deem and Ramdas Pophale) SiO2 
 PCOD9543947
Probable space group: P 42/M
;
_chemical_formula_sum "Si O2"
_cell_formula_units_Z 40
_cell_length_a 11.236989
_cell_length_b 11.236989
_cell_length_c 14.845708
_cell_angle_alpha 90.000000
_cell_angle_beta 90.000000
_cell_angle_gamma 90.000000
_cell_volume 1874.566388
_symmetry_space_group_name_H-M "P 42/M"
_symmetry_group_IT_number 84
_symmetry_cell_setting 'tetragonal'
loop_
_space_group_symop_operation_xyz
x,y,z
-y,x,1/2+z
-x,-y,z
y,-x,1/2+z
-x,-y,-z
y,-x,1/2-z
x,y,-z
-y,x,1/2-z
loop_
_atom_site_type_symbol
_atom_site_label
_atom_site_fract_x
_atom_site_fract_y
_atom_site_fract_z
Si Si1 0.907698 0.609414 0.848607
Si Si2 0.841475 0.585564 0.641254
Si Si3 0.090103 0.682148 0.597288
Si Si4 0.597574 0.295322 0.500000
Si Si5 0.180403 0.042567 0.261891
Si Si6 0.419266 0.654415 0.000000
O O1 0.854222 0.588958 0.748385
O O2 0.990114 0.727765 0.834500
O O3 0.000000 0.500000 0.869744
O O4 0.795440 0.619982 0.916026
O O5 0.948277 0.663748 0.601563
O O6 0.721685 0.618265 0.591356
O O7 0.864441 0.450774 0.610527
O O8 0.126883 0.730892 0.500000
O O9 0.120817 0.753506 0.686662
O O10 0.462391 0.339920 0.500000
O O11 0.648735 0.433544 0.500000
O O12 0.120964 0.931029 0.208665
#
# Coordination Sequence:
#
# PCOD9543947 Si02
#       6
#     8   8   8   4   8   4
#     4  11  23  44  66  91 127 178 216 255 328 401
#     4  10  18  36  66  91 118 157 210 271 313 363
#     4  10  17  34  62  95 114 154 214 261 317 365
#     4  11  29  42  58  94 135 176 211 265 323 397
#     4  10  23  41  60  94 133 164 210 268 324 393
#     4  11  24  43  62  97 131 157 225 280 317 376
#
# _framework density 21.338269
#
# number of rings (size 3 to 8) (size 9 to 14) (size 15 to 20)
#    0.000    1.600    6.000    0.900    2.800    4.800 
#    1.800    3.000    0.000    0.000    0.000    0.000 
#    0.000    0.000    0.000    0.000    0.000    0.000 
#
# Total GULP energy -222777.094092 kJ/mol
# GULP energy per Si atom -5569.427352 kJ/mol
# Density = 2.128970 g / cm^3
# Si number density = 21.338269 Si / 1000 Ang^3
#
#
#
# Elastic Constant Matrix: (Units=GPa)
#
#
# Indices 1 2 3 4 5 6 
#
# 1 87.5334 19.3282 11.5489 0.0000 0.0000 1.8131
# 2 19.3282 87.5334 11.5489 0.0000 0.0000 -1.8131
# 3 11.5489 11.5489 105.6165 0.0000 0.0000 0.0000
# 4 0.0000 0.0000 0.0000 107.7255 0.0000 0.0000
# 5 0.0000 0.0000 0.0000 0.0000 107.7255 0.0000
# 6 1.8131 -1.8131 0.0000 0.0000 0.0000 6.5486
#
#
#
# Elastic Compliance Matrix: (Units=1/GPa)
#
#
# Indices 1 2 3 4 5 6 
#
# 1 0.012233 -0.002648 -0.001048 0.000000 0.000000 -0.004120
# 2 -0.002648 0.012233 -0.001048 0.000000 0.000000 0.004120
# 3 -0.001048 -0.001048 0.009697 0.000000 0.000000 0.000000
# 4 0.000000 0.000000 0.000000 0.009283 0.000000 0.000000
# 5 0.000000 0.000000 0.000000 0.000000 0.009283 0.000000
# 6 -0.004120 0.004120 0.000000 0.000000 0.000000 0.154986
#
#
# Mechanical properties :
#
#
# Convention : Reuss Voigt Hill
#
# Bulk Modulus (GPa) = 40.52827 40.61504 40.57165
# Shear Modulus (GPa) = 22.18011 60.28371 41.23191
#
# Velocity S-wave (km/s) = 3.22755 5.32098 4.40056
# Velocity P-wave (km/s) = 5.73794 7.53828 6.69886
#
# Compressibility (1/GPa) = 0.02467414
#
# Stress axis : x y z
#
# Youngs Moduli (GPa) = 81.74905 81.74905 103.12019
#
# Poissons Ratio (x) = 0.21648 0.10807
# Poissons Ratio (y) = 0.21648 0.10807
# Poissons Ratio (z) = 0.08568 0.08568
#
# Static dielectric constant tensor:
#      x y z
#    x 1.815080 0.000000 0.000000 
#    y 0.000000 1.815080 0.000000 
#    z 0.000000 0.000000 1.801720 
# 
# From -- ./inp_files/2978.got.cif
#   From: 2010.05.17/outbox.cif.g08.bks.cpg/sg84_2_cif.got.tgz:2978.got - 2010.06.03 18:57:40.
