data_PCOD9543833
_publ_section_title
;
Structure prediction by ZEFSAII (Michael W. Deem and Ramdas Pophale) SiO2 
 PCOD9543833
Probable space group: P 4/M
;
_chemical_formula_sum "Si O2"
_cell_formula_units_Z 33
_cell_length_a 8.409022
_cell_length_b 8.409022
_cell_length_c 22.564117
_cell_angle_alpha 90.000000
_cell_angle_beta 90.000000
_cell_angle_gamma 90.000000
_cell_volume 1595.545966
_symmetry_space_group_name_H-M "P 4/M"
_symmetry_group_IT_number 83
_symmetry_cell_setting 'tetragonal'
loop_
_space_group_symop_operation_xyz
x,y,z
-y,x,z
-x,-y,z
y,-x,z
-x,-y,-z
y,-x,-z
x,y,-z
-y,x,-z
loop_
_atom_site_type_symbol
_atom_site_label
_atom_site_fract_x
_atom_site_fract_y
_atom_site_fract_z
Si Si1 0.243570 0.902188 0.371633
Si Si2 0.500000 0.000000 0.288595
Si Si3 0.080650 0.742422 0.806744
Si Si4 0.500000 0.500000 0.500000
Si Si5 0.914885 0.256430 0.936685
Si Si6 0.617682 0.147462 0.500000
O O1 0.397276 0.882900 0.330471
O O2 0.282938 0.868103 0.439807
O O3 0.085824 0.802479 0.359440
O O4 0.384508 0.097137 0.244799
O O5 0.190371 0.899288 0.801923
O O6 0.108684 0.668214 0.872231
O O7 0.513615 0.305777 0.500000
O O8 0.096181 0.191865 0.936812
O O9 0.885683 0.340433 0.000000
O O10 0.500000 0.000000 0.500000
#
# Coordination Sequence:
#
# PCOD9543833 Si02
#       6
#     8   4   8   1   8   4
#     4  11  24  43  66  90 121 164 210 260 324 388
#     4  12  22  33  55  84 114 156 208 250 302 382
#     4   9  18  34  53  75 108 149 192 244 307 374
#     4  12  28  44  84 112 144 180 224 272 346 400
#     4   7  10  20  43  72  99 133 181 236 297 366
#     4  12  24  47  70 106 138 170 210 274 329 389
#
# _framework density 20.682576999999998
#
# number of rings (size 3 to 8) (size 9 to 14) (size 15 to 20)
#    0.000    2.182    1.212    5.818    0.000    2.909 
#    0.000    0.606    0.000    6.545    0.000    0.000 
#    0.000    0.000    0.000   48.485    0.000    3.879 
#
# Total GULP energy -183819.611982 kJ/mol
# GULP energy per Si atom -5570.291272 kJ/mol
# Density = 2.063550 g / cm^3
# Si number density = 20.682577 Si / 1000 Ang^3
#
#
#
# Elastic Constant Matrix: (Units=GPa)
#
#
# Indices 1 2 3 4 5 6 
#
# 1 65.6694 0.2492 28.6161 0.0000 0.0000 0.3495
# 2 0.2492 65.6694 28.6161 0.0000 0.0000 -0.3495
# 3 28.6161 28.6161 187.2885 0.0000 0.0000 0.0000
# 4 0.0000 0.0000 0.0000 15.9201 0.0000 0.0000
# 5 0.0000 0.0000 0.0000 0.0000 15.9201 0.0000
# 6 0.3495 -0.3495 0.0000 0.0000 0.0000 11.0000
#
#
#
# Elastic Compliance Matrix: (Units=1/GPa)
#
#
# Indices 1 2 3 4 5 6 
#
# 1 0.016391 0.001100 -0.002672 0.000000 0.000000 -0.000486
# 2 0.001100 0.016391 -0.002672 0.000000 0.000000 0.000486
# 3 -0.002672 -0.002672 0.006156 0.000000 0.000000 0.000000
# 4 0.000000 0.000000 0.000000 0.062814 0.000000 0.000000
# 5 0.000000 0.000000 0.000000 0.000000 0.062814 0.000000
# 6 -0.000486 0.000486 0.000000 0.000000 0.000000 0.090940
#
#
# Mechanical properties :
#
#
# Convention : Reuss Voigt Hill
#
# Bulk Modulus (GPa) = 32.84357 48.17666 40.51012
# Shear Modulus (GPa) = 18.23860 25.97777 22.10818
#
# Velocity S-wave (km/s) = 2.97279 3.54788 3.27299
# Velocity P-wave (km/s) = 5.26285 6.33461 5.82344
#
# Compressibility (1/GPa) = 0.03044736
#
# Stress axis : x y z
#
# Youngs Moduli (GPa) = 61.01007 61.01007 162.44328
#
# Poissons Ratio (x) = -0.06709 0.43411
# Poissons Ratio (y) = -0.06709 0.43411
# Poissons Ratio (z) = 0.16304 0.16304
#
# Static dielectric constant tensor:
#      x y z
#    x 1.694290 0.000000 0.000000 
#    y 0.000000 1.694290 0.000000 
#    z 0.000000 0.000000 1.856290 
# 
# From -- ./inp_files/3083.got.cif
#   From: 2010.05.17/outbox.cif.g08.bks.cpg/sg83_2_cif.got.tgz:3083.got - 2010.06.03 18:55:12.
