data_PCOD9543317
_publ_section_title
;
Structure prediction by ZEFSAII (Michael W. Deem and Ramdas Pophale) SiO2 
 PCOD9543317
Probable space group: P 4/M
;
_chemical_formula_sum "Si O2"
_cell_formula_units_Z 56
_cell_length_a 18.149558
_cell_length_b 18.149558
_cell_length_c 7.329101
_cell_angle_alpha 90.000000
_cell_angle_beta 90.000000
_cell_angle_gamma 90.000000
_cell_volume 2414.253183
_symmetry_space_group_name_H-M "P 4/M"
_symmetry_group_IT_number 83
_symmetry_cell_setting 'tetragonal'
loop_
_space_group_symop_operation_xyz
x,y,z
-y,x,z
-x,-y,z
y,-x,z
-x,-y,-z
y,-x,-z
x,y,-z
-y,x,-z
loop_
_atom_site_type_symbol
_atom_site_label
_atom_site_fract_x
_atom_site_fract_y
_atom_site_fract_z
Si Si1 0.493974 0.379896 0.222142
Si Si2 0.786839 0.164958 0.780418
Si Si3 0.690040 0.847140 0.776178
Si Si4 0.713619 0.015703 0.796777
Si Si5 0.936344 0.556089 0.285345
Si Si6 0.788387 0.469200 0.781226
Si Si7 0.090329 0.070936 0.219937
O O1 0.568112 0.424590 0.276264
O O2 0.487754 0.294683 0.283171
O O3 0.494345 0.378818 0.000000
O O4 0.783921 0.250021 0.722807
O O5 0.751031 0.089018 0.710500
O O6 0.872507 0.152105 0.735893
O O7 0.773531 0.163786 0.000000
O O8 0.609638 0.819930 0.717272
O O9 0.705394 0.932640 0.718941
O O10 0.691004 0.850288 0.000000
O O11 0.631372 0.045611 0.811810
O O12 0.748673 0.006430 0.000000
O O13 0.947110 0.568913 0.500000
O O14 0.853461 0.527193 0.259163
O O15 0.000000 0.500000 0.225228
O O16 0.783301 0.464624 0.000000
O O17 0.011402 0.099463 0.285024
O O18 0.086337 0.069129 0.000000
#
# Coordination Sequence:
#
# PCOD9543317 Si02
#       7
#     8   8   8   8   8   8   8
#     4   8  15  29  51  82 117 148 179 219 270 327
#     4   9  16  25  40  67 101 133 165 206 254 299
#     4   9  17  28  44  72 107 137 172 219 262 302
#     4  10  19  32  53  77 104 138 175 216 260 307
#     4  11  23  38  55  74  99 134 174 216 266 325
#     4  10  19  32  55  81 106 136 175 221 265 315
#     4   8  12  18  30  51  85 128 165 194 233 287
#
# _framework density 23.195578999999999
#
# number of rings (size 3 to 8) (size 9 to 14) (size 15 to 20)
#    0.000    2.714    1.429    2.143    0.000    5.143 
#    0.000    4.286    0.000    4.286    0.000    1.000 
#    0.000    0.000    0.000    4.429    0.000    4.286 
#
# Total GULP energy -312008.962397 kJ/mol
# GULP energy per Si atom -5571.588614 kJ/mol
# Density = 2.314278 g / cm^3
# Si number density = 23.195579 Si / 1000 Ang^3
#
#
#
# Elastic Constant Matrix: (Units=GPa)
#
#
# Indices 1 2 3 4 5 6 
#
# 1 145.8489 66.0012 7.0888 0.0000 0.0000 -12.8711
# 2 66.0012 145.8489 7.0888 0.0000 0.0000 12.8711
# 3 7.0888 7.0888 87.2687 0.0000 0.0000 0.0000
# 4 0.0000 0.0000 0.0000 -32.7292 0.0000 0.0000
# 5 0.0000 0.0000 0.0000 0.0000 -32.7292 0.0000
# 6 -12.8711 12.8711 0.0000 0.0000 0.0000 36.7868
#
#
#
# Elastic Compliance Matrix: (Units=1/GPa)
#
#
# Indices 1 2 3 4 5 6 
#
# 1 0.009431 -0.004685 -0.000386 0.000000 0.000000 0.004939
# 2 -0.004685 0.009431 -0.000386 0.000000 0.000000 -0.004939
# 3 -0.000386 -0.000386 0.011521 0.000000 0.000000 0.000000
# 4 0.000000 0.000000 0.000000 -0.030554 0.000000 0.000000
# 5 0.000000 0.000000 0.000000 0.000000 -0.030554 0.000000
# 6 0.004939 -0.004939 0.000000 0.000000 0.000000 0.030640
#
#
# Mechanical properties :
#
#
# Convention : Reuss Voigt Hill
#
# Bulk Modulus (GPa) = 51.35678 59.92491 55.64084
# Shear Modulus (GPa) = 288.70646 14.18487 151.44566
#
# Velocity S-wave (km/s) = 11.16854 2.47560 8.08903
# Velocity P-wave (km/s) = 13.72968 5.83628 10.54908
#
# Compressibility (1/GPa) = 0.01947163
#
# Stress axis : x y z
#
# Youngs Moduli (GPa) = 106.03192 106.03192 86.79431
#
# Poissons Ratio (x) = 0.49676 0.03346
# Poissons Ratio (y) = 0.49676 0.03346
# Poissons Ratio (z) = 0.04088 0.04088
#
# Static dielectric constant tensor:
#      x y z
#    x 1.915990 0.000000 0.000000 
#    y 0.000000 1.915990 0.000000 
#    z 0.000000 0.000000 1.851300 
# 
# From -- ./inp_files/2004.got.cif
#   From: 2010.05.17/outbox.cif.g08.bks.cpg/sg83_2_cif.got.tgz:2004.got - 2010.06.03 18:55:12.
