data_PCOD9543602
_publ_section_title
;
Structure prediction by ZEFSAII (Michael W. Deem and Ramdas Pophale) SiO2 
 PCOD9543602
Probable space group: P 4/M
;
_chemical_formula_sum "Si O2"
_cell_formula_units_Z 64
_cell_length_a 15.305329
_cell_length_b 15.305329
_cell_length_c 19.319718
_cell_angle_alpha 90.000000
_cell_angle_beta 90.000000
_cell_angle_gamma 90.000000
_cell_volume 4525.703751
_symmetry_space_group_name_H-M "P 4/M"
_symmetry_group_IT_number 83
_symmetry_cell_setting 'tetragonal'
loop_
_space_group_symop_operation_xyz
x,y,z
-y,x,z
-x,-y,z
y,-x,z
-x,-y,-z
y,-x,-z
x,y,-z
-y,x,-z
loop_
_atom_site_type_symbol
_atom_site_label
_atom_site_fract_x
_atom_site_fract_y
_atom_site_fract_z
Si Si1 0.404713 0.098767 0.818065
Si Si2 0.397437 0.898564 0.191268
Si Si3 0.870261 0.928647 0.921584
Si Si4 0.743677 0.609617 0.082764
Si Si5 0.408428 0.256832 0.918711
Si Si6 0.084011 0.233661 0.714882
Si Si7 0.781062 0.897698 0.779691
Si Si8 0.859322 0.042616 0.419248
O O1 0.501247 0.112041 0.787033
O O2 0.398869 0.164664 0.881439
O O3 0.321724 0.119092 0.770568
O O4 0.393307 0.997305 0.838470
O O5 0.375843 0.827546 0.132116
O O6 0.329694 0.896508 0.254752
O O7 0.808261 0.895921 0.860581
O O8 0.966785 0.885831 0.914720
O O9 0.838981 0.911008 0.000000
O O10 0.665575 0.674595 0.103093
O O11 0.714294 0.508829 0.093011
O O12 0.763280 0.620252 0.000000
O O13 0.397827 0.245099 0.000000
O O14 0.161373 0.171344 0.739521
O O15 0.995228 0.201545 0.752438
O O16 0.067198 0.216824 0.633987
O O17 0.835261 0.049799 0.500000
O O18 0.895201 0.944010 0.407302
#
# Coordination Sequence:
#
# PCOD9543602 Si02
#       8
#     8   8   8   8   8   8   8   8
#     4   9  19  32  43  56  81 112 150 189 219 249
#     4   9  19  33  44  60  81 113 153 188 217 249
#     4   9  17  28  38  53  84 118 142 177 224 268
#     4   9  17  30  46  63  83 107 138 186 236 278
#     4   9  17  29  45  61  79 104 138 183 237 283
#     4  11  19  28  46  69  90 115 146 176 213 257
#     4  11  19  27  44  66  86 115 151 183 219 266
#     4   9  17  29  45  70 102 126 139 163 208 260
#
# _framework density 14.141446999999999
#
# number of rings (size 3 to 8) (size 9 to 14) (size 15 to 20)
#    0.000    2.500    2.500    1.500    0.000    1.500 
#    0.000    6.250    0.000    0.000    0.000    7.875 
#    0.000    0.000    0.000    0.000    0.000    0.000 
#
# Total GULP energy -356390.952557 kJ/mol
# GULP energy per Si atom -5568.608634 kJ/mol
# Density = 1.410926 g / cm^3
# Si number density = 14.141447 Si / 1000 Ang^3
#
#
#
# Elastic Constant Matrix: (Units=GPa)
#
#
# Indices 1 2 3 4 5 6 
#
# 1 70.0897 52.3556 35.5616 0.0000 0.0000 -2.8275
# 2 52.3556 70.0897 35.5616 0.0000 0.0000 2.8275
# 3 35.5616 35.5616 75.5822 0.0000 0.0000 0.0000
# 4 0.0000 0.0000 0.0000 11.2184 0.0000 0.0000
# 5 0.0000 0.0000 0.0000 0.0000 11.2184 0.0000
# 6 -2.8275 2.8275 0.0000 0.0000 0.0000 20.6470
#
#
#
# Elastic Compliance Matrix: (Units=1/GPa)
#
#
# Indices 1 2 3 4 5 6 
#
# 1 0.035101 -0.023863 -0.005288 0.000000 0.000000 0.008075
# 2 -0.023863 0.035101 -0.005288 0.000000 0.000000 -0.008075
# 3 -0.005288 -0.005288 0.018206 0.000000 0.000000 0.000000
# 4 0.000000 0.000000 0.000000 0.089139 0.000000 0.000000
# 5 0.000000 0.000000 0.000000 0.000000 0.089139 0.000000
# 6 0.008075 -0.008075 0.000000 0.000000 0.000000 0.050645
#
#
# Mechanical properties :
#
#
# Convention : Reuss Voigt Hill
#
# Bulk Modulus (GPa) = 51.19715 51.41321 51.30518
# Shear Modulus (GPa) = 12.73182 14.76897 13.75040
#
# Velocity S-wave (km/s) = 3.00379 3.23519 3.12163
# Velocity P-wave (km/s) = 6.95072 7.09863 7.02507
#
# Compressibility (1/GPa) = 0.01953234
#
# Stress axis : x y z
#
# Youngs Moduli (GPa) = 28.48940 28.48940 54.92603
#
# Poissons Ratio (x) = 0.67983 0.29043
# Poissons Ratio (y) = 0.67983 0.29043
# Poissons Ratio (z) = 0.15064 0.15064
#
# Static dielectric constant tensor:
#      x y z
#    x 1.486290 0.000000 0.000000 
#    y 0.000000 1.486290 0.000000 
#    z 0.000000 0.000000 1.445200 
# 
# From -- ./inp_files/2734.got.cif
#   From: 2010.05.17/outbox.cif.g08.bks.cpg/sg83_2_cif.got.tgz:2734.got - 2010.06.03 18:55:12.
