data_PCOD9543362
_publ_section_title
;
Structure prediction by ZEFSAII (Michael W. Deem and Ramdas Pophale) SiO2 
 PCOD9543362
Probable space group: P 4/M
;
_chemical_formula_sum "Si O2"
_cell_formula_units_Z 40
_cell_length_a 15.633552
_cell_length_b 15.633552
_cell_length_c 8.005149
_cell_angle_alpha 90.000000
_cell_angle_beta 90.000000
_cell_angle_gamma 90.000000
_cell_volume 1956.522042
_symmetry_space_group_name_H-M "P 4/M"
_symmetry_group_IT_number 83
_symmetry_cell_setting 'tetragonal'
loop_
_space_group_symop_operation_xyz
x,y,z
-y,x,z
-x,-y,z
y,-x,z
-x,-y,-z
y,-x,-z
x,y,-z
-y,x,-z
loop_
_atom_site_type_symbol
_atom_site_label
_atom_site_fract_x
_atom_site_fract_y
_atom_site_fract_z
Si Si1 0.160374 0.203108 0.204347
Si Si2 0.315455 0.325616 0.808527
Si Si3 0.249007 0.030539 0.203664
Si Si4 0.559557 0.919881 0.201236
Si Si5 0.735742 0.495756 0.312197
O O1 0.235771 0.268610 0.257440
O O2 0.065321 0.228134 0.261671
O O3 0.185344 0.106680 0.254161
O O4 0.159351 0.206440 0.000000
O O5 0.292003 0.425204 0.801508
O O6 0.405463 0.309958 0.719795
O O7 0.328560 0.297554 0.000000
O O8 0.343920 0.059448 0.253441
O O9 0.247992 0.028060 0.000000
O O10 0.523702 0.835137 0.283795
O O11 0.500000 0.000000 0.239202
O O12 0.559154 0.907150 0.000000
O O13 0.719225 0.524654 0.500000
#
# Coordination Sequence:
#
# PCOD9543362 Si02
#       5
#     8   8   8   8   8
#     4   9  17  30  53  84 120 153 195 249 302 351
#     4  11  22  41  64  87 117 162 209 248 296 367
#     4   9  16  28  49  83 119 154 194 247 302 351
#     4  10  19  35  59  86 117 159 213 259 300 358
#     4  12  25  40  60  90 125 158 196 253 318 369
#
# _framework density 20.444441999999999
#
# number of rings (size 3 to 8) (size 9 to 14) (size 15 to 20)
#    0.000    1.800    2.000    3.600    0.000    4.400 
#    0.000    4.000    0.000    0.000    0.000    0.000 
#    0.000    1.600    0.000    0.000    0.000    0.000 
#
# Total GULP energy -223464.831733 kJ/mol
# GULP energy per Si atom -5586.620793 kJ/mol
# Density = 2.039791 g / cm^3
# Si number density = 20.444442 Si / 1000 Ang^3
#
#
#
# Elastic Constant Matrix: (Units=GPa)
#
#
# Indices 1 2 3 4 5 6 
#
# 1 109.3504 34.1173 2.3208 0.0000 0.0000 -0.7067
# 2 34.1173 109.3504 2.3208 0.0000 0.0000 0.7067
# 3 2.3208 2.3208 17.8121 0.0000 0.0000 0.0000
# 4 0.0000 0.0000 0.0000 97.3364 0.0000 0.0000
# 5 0.0000 0.0000 0.0000 0.0000 97.3364 0.0000
# 6 -0.7067 0.7067 0.0000 0.0000 0.0000 42.6706
#
#
#
# Elastic Compliance Matrix: (Units=1/GPa)
#
#
# Indices 1 2 3 4 5 6 
#
# 1 0.010148 -0.003148 -0.000912 0.000000 0.000000 0.000220
# 2 -0.003148 0.010148 -0.000912 0.000000 0.000000 -0.000220
# 3 -0.000912 -0.000912 0.056379 0.000000 0.000000 0.000000
# 4 0.000000 0.000000 0.000000 0.010274 0.000000 0.000000
# 5 0.000000 0.000000 0.000000 0.000000 0.010274 0.000000
# 6 0.000220 -0.000220 0.000000 0.000000 0.000000 0.023443
#
#
# Mechanical properties :
#
#
# Convention : Reuss Voigt Hill
#
# Bulk Modulus (GPa) = 14.98561 34.89228 24.93895
# Shear Modulus (GPa) = 32.71115 60.65228 46.68171
#
# Velocity S-wave (km/s) = 4.00434 5.45264 4.78362
# Velocity P-wave (km/s) = 5.35962 7.53297 6.53724
#
# Compressibility (1/GPa) = 0.06673068
#
# Stress axis : x y z
#
# Youngs Moduli (GPa) = 98.54214 98.54214 17.73702
#
# Poissons Ratio (x) = 0.31023 0.01618
# Poissons Ratio (y) = 0.31023 0.01618
# Poissons Ratio (z) = 0.08987 0.08987
#
# Static dielectric constant tensor:
#      x y z
#    x 1.692320 0.000000 0.000000 
#    y 0.000000 1.692320 0.000000 
#    z 0.000000 0.000000 1.738610 
# 
# From -- ./inp_files/625.got.cif
#   From: 2010.05.17/outbox.cif.g08.bks.cpg/sg83_1_cif.got.tgz:625.got - 2010.06.03 18:55:12.
