data_PCOD9543281
_publ_section_title
;
Structure prediction by ZEFSAII (Michael W. Deem and Ramdas Pophale) SiO2 
 PCOD9543281
Probable space group: P 4/M
;
_chemical_formula_sum "Si O2"
_cell_formula_units_Z 64
_cell_length_a 18.440971
_cell_length_b 18.440971
_cell_length_c 7.259791
_cell_angle_alpha 90.000000
_cell_angle_beta 90.000000
_cell_angle_gamma 90.000000
_cell_volume 2468.832852
_symmetry_space_group_name_H-M "P 4/M"
_symmetry_group_IT_number 83
_symmetry_cell_setting 'tetragonal'
loop_
_space_group_symop_operation_xyz
x,y,z
-y,x,z
-x,-y,z
y,-x,z
-x,-y,-z
y,-x,-z
x,y,-z
-y,x,-z
loop_
_atom_site_type_symbol
_atom_site_label
_atom_site_fract_x
_atom_site_fract_y
_atom_site_fract_z
Si Si1 0.027859 0.886889 0.276462
Si Si2 0.270593 0.867723 0.292668
Si Si3 0.388092 0.464638 0.224334
Si Si4 0.773933 0.361642 0.277655
Si Si5 0.635757 0.268665 0.208774
Si Si6 0.032258 0.389037 0.725164
Si Si7 0.886267 0.468085 0.723916
Si Si8 0.223584 0.136334 0.724599
O O1 0.026150 0.886658 0.500000
O O2 0.060050 0.809999 0.217819
O O3 0.949487 0.915141 0.219398
O O4 0.249370 0.889408 0.500000
O O5 0.328324 0.801002 0.302137
O O6 0.313385 0.935018 0.210094
O O7 0.199408 0.831538 0.211240
O O8 0.454793 0.411995 0.279849
O O9 0.311366 0.433053 0.288521
O O10 0.386067 0.463854 0.000000
O O11 0.767206 0.361593 0.500000
O O12 0.698640 0.330595 0.205924
O O13 0.808792 0.437309 0.216558
O O14 0.834987 0.302170 0.224249
O O15 0.620463 0.246516 0.000000
O O16 0.032018 0.386457 0.500000
O O17 0.087984 0.452640 0.780420
O O18 0.952545 0.414986 0.778821
O O19 0.885477 0.468050 0.500000
O O20 0.224356 0.136632 0.500000
#
# Coordination Sequence:
#
# PCOD9543281 Si02
#       8
#     8   8   8   8   8   8   8   8
#     4   8  13  20  30  48  76 104 127 159 205 245
#     4   9  17  29  44  63  88 116 144 176 214 255
#     4   8  15  29  47  65  85 110 143 183 223 263
#     4   9  17  29  44  63  88 116 144 176 214 255
#     4  10  19  30  46  67  89 114 145 182 222 265
#     4   8  14  25  42  65  90 114 143 179 217 259
#     4   8  14  25  42  65  90 114 143 179 217 259
#     4   8  14  23  34  50  74 104 135 162 192 237
#
# _framework density 25.923183000000002
#
# number of rings (size 3 to 8) (size 9 to 14) (size 15 to 20)
#    0.000    3.500    0.000    2.625    0.000    2.000 
#    0.000    5.000    0.000    3.000    0.000    5.250 
#    0.000    0.000    0.000   22.000    0.000   20.000 
#
# Total GULP energy -357538.564002 kJ/mol
# GULP energy per Si atom -5586.540063 kJ/mol
# Density = 2.586418 g / cm^3
# Si number density = 25.923183 Si / 1000 Ang^3
#
#
#
# Elastic Constant Matrix: (Units=GPa)
#
#
# Indices 1 2 3 4 5 6 
#
# 1 43.1424 84.0008 -5.2264 0.0000 0.0000 3.6804
# 2 84.0008 43.1424 -5.2264 0.0000 0.0000 -3.6804
# 3 -5.2264 -5.2264 119.2621 0.0000 0.0000 0.0000
# 4 0.0000 0.0000 0.0000 -0.9275 0.0000 0.0000
# 5 0.0000 0.0000 0.0000 0.0000 -0.9275 0.0000
# 6 3.6804 -3.6804 0.0000 0.0000 0.0000 71.5908
#
#
#
# Elastic Compliance Matrix: (Units=1/GPa)
#
#
# Indices 1 2 3 4 5 6 
#
# 1 -0.008178 0.016072 0.000346 0.000000 0.000000 0.001247
# 2 0.016072 -0.008178 0.000346 0.000000 0.000000 -0.001247
# 3 0.000346 0.000346 0.008415 0.000000 0.000000 0.000000
# 4 0.000000 0.000000 0.000000 -1.078215 0.000000 0.000000
# 5 0.000000 0.000000 0.000000 0.000000 -1.078215 0.000000
# 6 0.001247 -0.001247 0.000000 0.000000 0.000000 0.013840
#
#
# Mechanical properties :
#
#
# Convention : Reuss Voigt Hill
#
# Bulk Modulus (GPa) = 39.08379 39.18256 39.13317
# Shear Modulus (GPa) = -2.29829 22.74711 10.22441
#
# Velocity S-wave (km/s) = -0.94260 2.96544 1.98813
# Velocity P-wave (km/s) = 3.73160 5.18390 4.51651
#
# Compressibility (1/GPa) = 0.02558605
#
# Stress axis : x y z
#
# Youngs Moduli (GPa) = -122.27494 -122.27494 118.83244
#
# Poissons Ratio (x) = 1.96519 -0.04111
# Poissons Ratio (y) = 1.96519 -0.04111
# Poissons Ratio (z) = 0.04230 0.04230
#
# Static dielectric constant tensor:
#      x y z
#    x 1.997120 0.000000 0.000000 
#    y 0.000000 1.997120 0.000000 
#    z 0.000000 0.000000 2.021120 
# 
# From -- ./inp_files/1305.got.cif
#   From: 2010.05.17/outbox.cif.g08.bks.cpg/sg83_1_cif.got.tgz:1305.got - 2010.06.03 18:55:12.
