data_PCOD9543234
_publ_section_title
;
Structure prediction by ZEFSAII (Michael W. Deem and Ramdas Pophale) SiO2 
 PCOD9543234
Probable space group: P 4/M
;
_chemical_formula_sum "Si O2"
_cell_formula_units_Z 56
_cell_length_a 20.633918
_cell_length_b 20.633918
_cell_length_c 9.306346
_cell_angle_alpha 90.000000
_cell_angle_beta 90.000000
_cell_angle_gamma 90.000000
_cell_volume 3962.256584
_symmetry_space_group_name_H-M "P 4/M"
_symmetry_group_IT_number 83
_symmetry_cell_setting 'tetragonal'
loop_
_space_group_symop_operation_xyz
x,y,z
-y,x,z
-x,-y,z
y,-x,z
-x,-y,-z
y,-x,-z
x,y,-z
-y,x,-z
loop_
_atom_site_type_symbol
_atom_site_label
_atom_site_fract_x
_atom_site_fract_y
_atom_site_fract_z
Si Si1 0.857186 0.062977 0.837977
Si Si2 0.078140 0.501187 0.664374
Si Si3 0.634108 0.923909 0.827254
Si Si4 0.368822 0.923149 0.826657
Si Si5 0.172731 0.252675 0.836203
Si Si6 0.945101 0.149028 0.338466
Si Si7 0.739065 0.837392 0.663741
O O1 0.806444 0.121495 0.843343
O O2 0.916747 0.086277 0.741060
O O3 0.824875 0.002449 0.760191
O O4 0.876588 0.046857 0.000000
O O5 0.102688 0.504488 0.500000
O O6 0.093465 0.564625 0.757829
O O7 0.095372 0.434933 0.745839
O O8 0.000000 0.500000 0.656300
O O9 0.685989 0.875118 0.758108
O O10 0.647192 0.000789 0.792885
O O11 0.633327 0.918404 0.000000
O O12 0.313177 0.871405 0.787369
O O13 0.377078 0.920855 0.000000
O O14 0.231107 0.226916 0.737455
O O15 0.195244 0.264878 0.000000
O O16 0.967342 0.135728 0.500000
O O17 0.888066 0.201324 0.344713
O O18 0.716707 0.825648 0.500000
#
# Coordination Sequence:
#
# PCOD9543234 Si02
#       7
#     8   8   8   8   8   8   8
#     4  10  19  31  45  58  71  91 123 160 197 241
#     4   9  17  28  42  63  88 110 134 166 205 248
#     4  10  18  29  46  64  84 110 139 172 209 247
#     4   9  17  29  45  64  84 108 138 171 208 249
#     4   9  18  31  45  60  79 103 133 167 201 241
#     4  10  20  32  43  56  74  94 118 155 203 248
#     4  10  20  31  43  60  81 104 132 165 202 245
#
# _framework density 14.13336
#
# number of rings (size 3 to 8) (size 9 to 14) (size 15 to 20)
#    0.000    2.429    0.000    3.000    0.000    6.571 
#    0.000    1.429    0.000    0.000    0.000    0.000 
#    0.000    0.000    0.000    0.000    0.000    0.714 
#
# Total GULP energy -311881.668483 kJ/mol
# GULP energy per Si atom -5569.315509 kJ/mol
# Density = 1.410119 g / cm^3
# Si number density = 14.133360 Si / 1000 Ang^3
#
#
#
# Elastic Constant Matrix: (Units=GPa)
#
#
# Indices 1 2 3 4 5 6 
#
# 1 66.3386 25.0559 44.0682 0.0000 0.0000 1.6587
# 2 25.0559 66.3386 44.0682 0.0000 0.0000 -1.6587
# 3 44.0682 44.0682 85.6704 0.0000 0.0000 0.0000
# 4 0.0000 0.0000 0.0000 16.5377 0.0000 0.0000
# 5 0.0000 0.0000 0.0000 0.0000 16.5377 0.0000
# 6 1.6587 -1.6587 0.0000 0.0000 0.0000 11.0184
#
#
#
# Elastic Compliance Matrix: (Units=1/GPa)
#
#
# Indices 1 2 3 4 5 6 
#
# 1 0.023116 -0.001404 -0.011168 0.000000 0.000000 -0.003691
# 2 -0.001404 0.023116 -0.011168 0.000000 0.000000 0.003691
# 3 -0.011168 -0.011168 0.023162 0.000000 0.000000 0.000000
# 4 0.000000 0.000000 0.000000 0.060468 0.000000 0.000000
# 5 0.000000 0.000000 0.000000 0.000000 0.060468 0.000000
# 6 -0.003691 0.003691 0.000000 0.000000 0.000000 0.091869
#
#
# Mechanical properties :
#
#
# Convention : Reuss Voigt Hill
#
# Bulk Modulus (GPa) = 45.63587 49.41469 47.52528
# Shear Modulus (GPa) = 14.83749 15.82913 15.33331
#
# Velocity S-wave (km/s) = 3.24361 3.35025 3.29736
# Velocity P-wave (km/s) = 6.81084 7.07139 6.94234
#
# Compressibility (1/GPa) = 0.02191259
#
# Stress axis : x y z
#
# Youngs Moduli (GPa) = 43.26039 43.26039 43.17324
#
# Poissons Ratio (x) = 0.06074 0.48218
# Poissons Ratio (y) = 0.06074 0.48218
# Poissons Ratio (z) = 0.48315 0.48315
#
# Static dielectric constant tensor:
#      x y z
#    x 1.462410 0.000000 0.000000 
#    y 0.000000 1.462410 0.000000 
#    z 0.000000 0.000000 1.494050 
# 
# From -- ./inp_files/1194.got.cif
#   From: 2010.05.17/outbox.cif.g08.bks.cpg/sg83_1_cif.got.tgz:1194.got - 2010.06.03 18:55:12.
