data_PCOD9543953
_publ_section_title
;
Structure prediction by ZEFSAII (Michael W. Deem and Ramdas Pophale) SiO2 
 PCOD9543953
Probable space group: P 42/M
;
_chemical_formula_sum "Si O2"
_cell_formula_units_Z 64
_cell_length_a 17.179654
_cell_length_b 17.179654
_cell_length_c 12.555272
_cell_angle_alpha 90.000000
_cell_angle_beta 90.000000
_cell_angle_gamma 90.000000
_cell_volume 3705.569401
_symmetry_space_group_name_H-M "P 42/M"
_symmetry_group_IT_number 84
_symmetry_cell_setting 'tetragonal'
loop_
_space_group_symop_operation_xyz
x,y,z
-y,x,1/2+z
-x,-y,z
y,-x,1/2+z
-x,-y,-z
y,-x,1/2-z
x,y,-z
-y,x,1/2-z
loop_
_atom_site_type_symbol
_atom_site_label
_atom_site_fract_x
_atom_site_fract_y
_atom_site_fract_z
Si Si1 0.312717 0.071694 0.884712
Si Si2 0.230682 0.613667 0.375158
Si Si3 0.122359 0.162316 0.373439
Si Si4 0.794248 0.981959 0.713856
Si Si5 0.055772 0.427447 0.327718
Si Si6 0.233758 0.440453 0.379012
Si Si7 0.716054 0.235338 0.753131
Si Si8 0.088856 0.337245 0.121974
O O1 0.378758 0.136782 0.873581
O O2 0.251785 0.077454 0.790856
O O3 0.352385 0.987614 0.875795
O O4 0.275421 0.082521 0.000000
O O5 0.253586 0.623539 0.500000
O O6 0.255470 0.527255 0.339323
O O7 0.256209 0.685640 0.302708
O O8 0.107925 0.175222 0.500000
O O9 0.047204 0.173763 0.296344
O O10 0.189073 0.223539 0.331394
O O11 0.149413 0.073150 0.353232
O O12 0.731608 0.026400 0.640867
O O13 0.139744 0.438685 0.377293
O O14 0.067004 0.406371 0.203273
O O15 0.000000 0.500000 0.343982
O O16 0.261511 0.433593 0.500000
O O17 0.255594 0.364436 0.313050
O O18 0.695594 0.171409 0.662864
O O19 0.091159 0.360858 0.000000
#
# Coordination Sequence:
#
# PCOD9543953 Si02
#       8
#     8   8   8   8   8   8   8   8
#     4  10  18  30  50  76 105 136 172 213 266 325
#     4  10  19  32  56  84 109 138 176 220 265 320
#     4  11  22  38  57  76 106 143 183 231 277 324
#     4  10  21  36  51  75 101 136 186 229 274 314
#     4  10  18  28  47  75 111 140 168 215 266 323
#     4  10  20  33  53  83 112 141 175 219 272 323
#     4  10  20  36  57  79 110 142 180 219 271 327
#     4   9  19  33  49  69 100 142 182 217 259 317
#
# _framework density 17.2713
#
# number of rings (size 3 to 8) (size 9 to 14) (size 15 to 20)
#    0.000    2.000    2.500    2.625    0.000    1.000 
#    0.000    2.500    0.000    7.875    0.000    1.750 
#    0.000    0.000    0.000    0.000    0.000    0.000 
#
# Total GULP energy -356544.661560 kJ/mol
# GULP energy per Si atom -5571.010337 kJ/mol
# Density = 1.723199 g / cm^3
# Si number density = 17.271300 Si / 1000 Ang^3
#
#
#
# Elastic Constant Matrix: (Units=GPa)
#
#
# Indices 1 2 3 4 5 6 
#
# 1 60.5655 13.9238 10.6572 0.0000 0.0000 -1.5968
# 2 13.9238 60.5655 10.6572 0.0000 0.0000 1.5968
# 3 10.6572 10.6572 77.0771 0.0000 0.0000 0.0000
# 4 0.0000 0.0000 0.0000 12.2212 0.0000 0.0000
# 5 0.0000 0.0000 0.0000 0.0000 12.2212 0.0000
# 6 -1.5968 1.5968 0.0000 0.0000 0.0000 24.7797
#
#
#
# Elastic Compliance Matrix: (Units=1/GPa)
#
#
# Indices 1 2 3 4 5 6 
#
# 1 0.017756 -0.003779 -0.001933 0.000000 0.000000 0.001388
# 2 -0.003779 0.017756 -0.001933 0.000000 0.000000 -0.001388
# 3 -0.001933 -0.001933 0.013508 0.000000 0.000000 0.000000
# 4 0.000000 0.000000 0.000000 0.081825 0.000000 0.000000
# 5 0.000000 0.000000 0.000000 0.000000 0.081825 0.000000
# 6 0.001388 -0.001388 0.000000 0.000000 0.000000 0.040534
#
#
# Mechanical properties :
#
#
# Convention : Reuss Voigt Hill
#
# Bulk Modulus (GPa) = 29.64428 29.85386 29.74907
# Shear Modulus (GPa) = 17.87384 20.70908 19.29146
#
# Velocity S-wave (km/s) = 3.22046 3.46648 3.34573
# Velocity P-wave (km/s) = 5.57042 5.77449 5.67337
#
# Compressibility (1/GPa) = 0.03373332
#
# Stress axis : x y z
#
# Youngs Moduli (GPa) = 56.31772 56.31772 74.02767
#
# Poissons Ratio (x) = 0.21280 0.14307
# Poissons Ratio (y) = 0.21280 0.14307
# Poissons Ratio (z) = 0.10884 0.10884
#
# Static dielectric constant tensor:
#      x y z
#    x 1.595400 0.000000 0.000000 
#    y 0.000000 1.595400 0.000000 
#    z 0.000000 0.000000 1.598520 
# 
# From -- ./inp_files/2365.got.cif
#   From: 2010.05.17/outbox.cif.g08.bks.cpg/sg84_2_cif.got.tgz:2365.got - 2010.06.03 18:57:40.
