data_PCOD9543917
_publ_section_title
;
Structure prediction by ZEFSAII (Michael W. Deem and Ramdas Pophale) SiO2 
 PCOD9543917
Probable space group: P 4/M
;
_chemical_formula_sum "Si O2"
_cell_formula_units_Z 40
_cell_length_a 16.465645
_cell_length_b 16.465645
_cell_length_c 7.430600
_cell_angle_alpha 90.000000
_cell_angle_beta 90.000000
_cell_angle_gamma 90.000000
_cell_volume 2014.565437
_symmetry_space_group_name_H-M "P 4/M"
_symmetry_group_IT_number 83
_symmetry_cell_setting 'tetragonal'
loop_
_space_group_symop_operation_xyz
x,y,z
-y,x,z
-x,-y,z
y,-x,z
-x,-y,-z
y,-x,-z
x,y,-z
-y,x,-z
loop_
_atom_site_type_symbol
_atom_site_label
_atom_site_fract_x
_atom_site_fract_y
_atom_site_fract_z
Si Si1 0.181613 0.160381 0.719810
Si Si2 0.441451 0.384796 0.784249
Si Si3 0.015233 0.241526 0.719134
Si Si4 0.042855 0.582027 0.719761
Si Si5 0.643811 0.785283 0.713737
O O1 0.179700 0.161941 0.500000
O O2 0.193861 0.066472 0.772923
O O3 0.263338 0.207156 0.779583
O O4 0.098358 0.200931 0.781878
O O5 0.534646 0.393763 0.719835
O O6 0.398669 0.300356 0.742991
O O7 0.443954 0.389751 0.000000
O O8 0.016205 0.240926 0.500000
O O9 0.003525 0.335401 0.772790
O O10 0.042399 0.579728 0.500000
O O11 0.136311 0.593482 0.779595
O O12 0.000000 0.500000 0.782257
O O13 0.649382 0.796391 0.500000
#
# Coordination Sequence:
#
# PCOD9543917 Si02
#       5
#     8   8   8   8   8
#     4   8  14  23  35  56  85 113 142 177 214 252
#     4   9  19  35  50  63  84 115 145 172 211 264
#     4   8  13  21  32  49  79 115 145 173 209 255
#     4   8  14  24  37  56  85 118 144 168 211 266
#     4   9  17  28  44  68  91 110 142 185 217 245
#
# _framework density 19.855398999999998
#
# number of rings (size 3 to 8) (size 9 to 14) (size 15 to 20)
#    0.000    3.600    0.000    3.000    0.000    2.800 
#    0.000    7.000    0.000    0.600    0.000    5.600 
#    0.000    0.000    0.000    7.200    0.000    8.000 
#
# Total GULP energy -222958.439714 kJ/mol
# GULP energy per Si atom -5573.960993 kJ/mol
# Density = 1.981021 g / cm^3
# Si number density = 19.855399 Si / 1000 Ang^3
#
#
#
# Elastic Constant Matrix: (Units=GPa)
#
#
# Indices 1 2 3 4 5 6 
#
# 1 205.8069 159.7186 2.9319 0.0000 0.0000 -19.0320
# 2 159.7186 205.8069 2.9319 0.0000 0.0000 19.0320
# 3 2.9319 2.9319 57.7176 0.0000 0.0000 0.0000
# 4 0.0000 0.0000 0.0000 39.5065 0.0000 0.0000
# 5 0.0000 0.0000 0.0000 0.0000 39.5065 0.0000
# 6 -19.0320 19.0320 0.0000 0.0000 0.0000 34.1588
#
#
#
# Elastic Compliance Matrix: (Units=1/GPa)
#
#
# Indices 1 2 3 4 5 6 
#
# 1 0.021465 -0.018727 -0.000139 0.000000 0.000000 0.022394
# 2 -0.018727 0.021465 -0.000139 0.000000 0.000000 -0.022394
# 3 -0.000139 -0.000139 0.017340 0.000000 0.000000 0.000000
# 4 0.000000 0.000000 0.000000 0.025312 0.000000 0.000000
# 5 0.000000 0.000000 0.000000 0.000000 0.025312 0.000000
# 6 0.022394 -0.022394 0.000000 0.000000 0.000000 0.054229
#
#
# Mechanical properties :
#
#
# Convention : Reuss Voigt Hill
#
# Bulk Modulus (GPa) = 44.92450 88.94402 66.93426
# Shear Modulus (GPa) = 23.74689 42.88430 33.31559
#
# Velocity S-wave (km/s) = 3.46206 4.65244 4.10068
# Velocity P-wave (km/s) = 6.21741 8.58798 7.49698
#
# Compressibility (1/GPa) = 0.02225957
#
# Stress axis : x y z
#
# Youngs Moduli (GPa) = 46.58716 46.58716 57.67056
#
# Poissons Ratio (x) = 0.87244 0.00802
# Poissons Ratio (y) = 0.87244 0.00802
# Poissons Ratio (z) = 0.00648 0.00648
#
# Static dielectric constant tensor:
#      x y z
#    x 1.679340 0.000000 0.000000 
#    y 0.000000 1.679340 0.000000 
#    z 0.000000 0.000000 1.757990 
# 
# From -- ./inp_files/1664.got.cif
#   From: 2010.05.17/outbox.cif.g08.bks.cpg/sg83_1_cif.got.tgz:1664.got - 2010.06.03 18:55:12.
