data_PCOD9543734
_publ_section_title
;
Structure prediction by ZEFSAII (Michael W. Deem and Ramdas Pophale) SiO2 
 PCOD9543734
Probable space group: P 4/M
;
_chemical_formula_sum "Si O2"
_cell_formula_units_Z 33
_cell_length_a 8.605428
_cell_length_b 8.605428
_cell_length_c 21.162400
_cell_angle_alpha 90.000000
_cell_angle_beta 90.000000
_cell_angle_gamma 90.000000
_cell_volume 1567.147483
_symmetry_space_group_name_H-M "P 4/M"
_symmetry_group_IT_number 83
_symmetry_cell_setting 'tetragonal'
loop_
_space_group_symop_operation_xyz
x,y,z
-y,x,z
-x,-y,z
y,-x,z
-x,-y,-z
y,-x,-z
x,y,-z
-y,x,-z
loop_
_atom_site_type_symbol
_atom_site_label
_atom_site_fract_x
_atom_site_fract_y
_atom_site_fract_z
Si Si1 0.604699 0.262195 0.368443
Si Si2 0.414841 0.748280 0.000000
Si Si3 0.659350 0.094249 0.500000
Si Si4 0.755651 0.092858 0.255424
Si Si5 0.246068 0.906379 0.887594
Si Si6 0.000000 0.000000 0.500000
O O1 0.697071 0.423800 0.363510
O O2 0.651586 0.191531 0.435553
O O3 0.647470 0.147664 0.311561
O O4 0.309427 0.591790 0.000000
O O5 0.367629 0.848174 0.938892
O O6 0.500000 0.000000 0.500000
O O7 0.809717 0.984213 0.500000
O O8 0.695220 0.115883 0.184141
O O9 0.914522 0.192150 0.261137
O O10 0.085645 0.807548 0.895139
#
# Coordination Sequence:
#
# PCOD9543734 Si02
#       6
#     8   4   4   8   8   1
#     4  11  25  43  63  92 132 173 210 267 335 395
#     4  11  24  37  54  84 124 165 208 259 314 382
#     4  12  28  47  70 103 132 171 225 280 334 402
#     4   9  21  39  64  93 125 160 212 267 319 392
#     4   9  19  39  62  89 119 158 206 265 320 376
#     4  12  28  44  76 104 124 180 228 270 340 400
#
# _framework density 21.057369000000001
#
# number of rings (size 3 to 8) (size 9 to 14) (size 15 to 20)
#    0.000    1.818    0.000    4.364    6.788    5.818 
#    0.000    7.273    0.000    0.000    0.000    0.000 
#    0.000    0.000    0.000    0.000    0.000    0.000 
#
# Total GULP energy -184415.101098 kJ/mol
# GULP energy per Si atom -5588.336397 kJ/mol
# Density = 2.100944 g / cm^3
# Si number density = 21.057369 Si / 1000 Ang^3
#
#
#
# Elastic Constant Matrix: (Units=GPa)
#
#
# Indices 1 2 3 4 5 6 
#
# 1 45.0018 32.0160 42.6815 0.0000 0.0000 2.7771
# 2 32.0160 45.0018 42.6815 0.0000 0.0000 -2.7771
# 3 42.6815 42.6815 148.7040 0.0000 0.0000 0.0000
# 4 0.0000 0.0000 0.0000 1126.1115 0.0000 0.0000
# 5 0.0000 0.0000 0.0000 0.0000 1126.1115 0.0000
# 6 2.7771 -2.7771 0.0000 0.0000 0.0000 33.8086
#
#
#
# Elastic Compliance Matrix: (Units=1/GPa)
#
#
# Indices 1 2 3 4 5 6 
#
# 1 0.049426 -0.030385 -0.005465 0.000000 0.000000 -0.006556
# 2 -0.030385 0.049426 -0.005465 0.000000 0.000000 0.006556
# 3 -0.005465 -0.005465 0.009862 0.000000 0.000000 0.000000
# 4 0.000000 0.000000 0.000000 0.000888 0.000000 0.000000
# 5 0.000000 0.000000 0.000000 0.000000 0.000888 0.000000
# 6 -0.006556 0.006556 0.000000 0.000000 0.000000 0.030655
#
#
# Mechanical properties :
#
#
# Convention : Reuss Voigt Hill
#
# Bulk Modulus (GPa) = 38.33793 52.60730 45.47262
# Shear Modulus (GPa) = 21.50798 465.29489 243.40143
#
# Velocity S-wave (km/s) = 3.19940 14.88103 10.76293
# Velocity P-wave (km/s) = 5.64749 17.89685 13.27010
#
# Compressibility (1/GPa) = 0.02608383
#
# Stress axis : x y z
#
# Youngs Moduli (GPa) = 20.23212 20.23212 101.39769
#
# Poissons Ratio (x) = 0.61475 0.55418
# Poissons Ratio (y) = 0.61475 0.55418
# Poissons Ratio (z) = 0.11058 0.11058
#
# Static dielectric constant tensor:
#      x y z
#    x 1.756820 0.000000 0.000000 
#    y 0.000000 1.756820 0.000000 
#    z 0.000000 0.000000 1.729710 
# 
# From -- ./inp_files/2866.got.cif
#   From: 2010.05.17/outbox.cif.g08.bks.cpg/sg83_2_cif.got.tgz:2866.got - 2010.06.03 18:55:12.
