data_PCOD9543409
_publ_section_title
;
Structure prediction by ZEFSAII (Michael W. Deem and Ramdas Pophale) SiO2 
 PCOD9543409
Probable space group: P 4/M
;
_chemical_formula_sum "Si O2"
_cell_formula_units_Z 52
_cell_length_a 17.109301
_cell_length_b 17.109301
_cell_length_c 7.746548
_cell_angle_alpha 90.000000
_cell_angle_beta 90.000000
_cell_angle_gamma 90.000000
_cell_volume 2267.632903
_symmetry_space_group_name_H-M "P 4/M"
_symmetry_group_IT_number 83
_symmetry_cell_setting 'tetragonal'
loop_
_space_group_symop_operation_xyz
x,y,z
-y,x,z
-x,-y,z
y,-x,z
-x,-y,-z
y,-x,-z
x,y,-z
-y,x,-z
loop_
_atom_site_type_symbol
_atom_site_label
_atom_site_fract_x
_atom_site_fract_y
_atom_site_fract_z
Si Si1 0.665571 0.681706 0.500000
Si Si2 0.054771 0.787939 0.300829
Si Si3 0.937896 0.391544 0.703220
Si Si4 0.803576 0.109471 0.802426
Si Si5 0.626164 0.108004 0.793302
Si Si6 0.771404 0.397670 0.807087
Si Si7 0.280463 0.432081 0.795208
O O1 0.660153 0.749872 0.653230
O O2 0.669788 0.614600 0.655234
O O3 0.031729 0.782298 0.500000
O O4 0.064680 0.699438 0.236323
O O5 0.133277 0.836717 0.286448
O O6 0.981608 0.826692 0.205400
O O7 0.923756 0.397387 0.500000
O O8 0.861831 0.426261 0.794663
O O9 0.028181 0.414681 0.732750
O O10 0.715853 0.111303 0.727721
O O11 0.799027 0.135935 0.000000
O O12 0.590776 0.191159 0.747717
O O13 0.628305 0.102236 0.000000
O O14 0.717676 0.474295 0.778985
O O15 0.759332 0.366345 0.000000
O O16 0.293627 0.413744 0.000000
#
# Coordination Sequence:
#
# PCOD9543409 Si02
#       7
#     4   8   8   8   8   8   8
#     4  12  24  42  68 101 136 172 209 268 328 382
#     4  10  21  35  52  76 111 154 205 260 313 368
#     4  10  21  37  59  91 130 173 218 269 326 380
#     4  10  20  34  53  76 107 151 205 258 312 369
#     4   9  20  38  59  88 127 171 217 269 326 380
#     4  11  24  43  68 100 135 173 220 267 324 399
#     4  10  24  44  68 100 134 174 220 267 326 398
#
# _framework density 22.931403
#
# number of rings (size 3 to 8) (size 9 to 14) (size 15 to 20)
#    0.000    1.846    0.769    2.308    3.231    3.385 
#    0.000    4.615    0.000    3.692    0.000    8.615 
#    0.000    0.000    0.000    0.000    0.000    0.000 
#
# Total GULP energy -289493.723384 kJ/mol
# GULP energy per Si atom -5567.186988 kJ/mol
# Density = 2.287921 g / cm^3
# Si number density = 22.931403 Si / 1000 Ang^3
#
#
#
# Elastic Constant Matrix: (Units=GPa)
#
#
# Indices 1 2 3 4 5 6 
#
# 1 49.3966 16.4772 19.9795 0.0000 0.0000 12.5663
# 2 16.4772 49.3966 19.9795 0.0000 0.0000 -12.5663
# 3 19.9795 19.9795 114.7309 0.0000 0.0000 0.0000
# 4 0.0000 0.0000 0.0000 16.0557 0.0000 0.0000
# 5 0.0000 0.0000 0.0000 0.0000 16.0557 0.0000
# 6 12.5663 -12.5663 0.0000 0.0000 0.0000 20.8955
#
#
#
# Elastic Compliance Matrix: (Units=1/GPa)
#
#
# Indices 1 2 3 4 5 6 
#
# 1 0.036569 -0.019595 -0.002956 0.000000 0.000000 -0.033777
# 2 -0.019595 0.036569 -0.002956 0.000000 0.000000 0.033777
# 3 -0.002956 -0.002956 0.009746 0.000000 0.000000 0.000000
# 4 0.000000 0.000000 0.000000 0.062283 0.000000 0.000000
# 5 0.000000 0.000000 0.000000 0.000000 0.062283 0.000000
# 6 -0.033777 0.033777 0.000000 0.000000 0.000000 0.088483
#
#
# Mechanical properties :
#
#
# Convention : Reuss Voigt Hill
#
# Bulk Modulus (GPa) = 31.37814 36.26629 33.82222
# Shear Modulus (GPa) = 13.98328 21.07392 17.52860
#
# Velocity S-wave (km/s) = 2.47207 3.03479 2.76776
# Velocity P-wave (km/s) = 4.67561 5.30371 4.99953
#
# Compressibility (1/GPa) = 0.03186932
#
# Stress axis : x y z
#
# Youngs Moduli (GPa) = 27.34559 27.34559 102.61137
#
# Poissons Ratio (x) = 0.53585 0.30330
# Poissons Ratio (y) = 0.53585 0.30330
# Poissons Ratio (z) = 0.08083 0.08083
#
# Static dielectric constant tensor:
#      x y z
#    x 1.896430 0.000000 0.000000 
#    y 0.000000 1.896430 0.000000 
#    z 0.000000 0.000000 1.815700 
# 
# From -- ./inp_files/996.got.cif
#   From: 2010.05.17/outbox.cif.g08.bks.cpg/sg83_1_cif.got.tgz:996.got - 2010.06.03 18:55:12.
