data_PCOD9543646
_publ_section_title
;
Structure prediction by ZEFSAII (Michael W. Deem and Ramdas Pophale) SiO2 
 PCOD9543646
Probable space group: P 4/M
;
_chemical_formula_sum "Si O2"
_cell_formula_units_Z 52
_cell_length_a 16.604007
_cell_length_b 16.604007
_cell_length_c 7.497991
_cell_angle_alpha 90.000000
_cell_angle_beta 90.000000
_cell_angle_gamma 90.000000
_cell_volume 2067.143996
_symmetry_space_group_name_H-M "P 4/M"
_symmetry_group_IT_number 83
_symmetry_cell_setting 'tetragonal'
loop_
_space_group_symop_operation_xyz
x,y,z
-y,x,z
-x,-y,z
y,-x,z
-x,-y,-z
y,-x,-z
x,y,-z
-y,x,-z
loop_
_atom_site_type_symbol
_atom_site_label
_atom_site_fract_x
_atom_site_fract_y
_atom_site_fract_z
Si Si1 0.124946 0.020034 0.714109
Si Si2 0.241146 0.142295 0.789029
Si Si3 0.370282 0.470450 0.000000
Si Si4 0.410852 0.212946 0.217341
Si Si5 0.146524 0.289210 0.797886
Si Si6 0.083613 0.456239 0.218389
Si Si7 0.687844 0.632377 0.295087
O O1 0.121371 0.016618 0.500000
O O2 0.212532 0.051200 0.761289
O O3 0.062383 0.087676 0.781798
O O4 0.331161 0.161026 0.729333
O O5 0.173978 0.204459 0.708957
O O6 0.240760 0.157620 0.000000
O O7 0.443556 0.407973 0.000000
O O8 0.326496 0.447363 0.180891
O O9 0.487996 0.159870 0.273501
O O10 0.383786 0.301280 0.285321
O O11 0.414731 0.218934 0.000000
O O12 0.093942 0.363097 0.720824
O O13 0.235673 0.328207 0.799610
O O14 0.117357 0.274144 0.000000
O O15 0.000000 0.500000 0.268915
O O16 0.085209 0.453431 0.000000
O O17 0.704297 0.615517 0.500000
#
# Coordination Sequence:
#
# PCOD9543646 Si02
#       7
#     8   8   4   8   8   8   8
#     4   9  19  35  52  70  96 135 182 231 290 357
#     4   9  18  31  50  80 111 145 185 232 286 343
#     4  11  26  44  62  88 124 158 192 247 314 356
#     4   9  18  35  57  82 119 155 194 243 293 350
#     4   9  18  35  57  82 119 155 194 243 293 350
#     4   9  18  32  57  89 117 157 203 240 293 360
#     4  11  22  38  65  92 115 158 210 244 291 362
#
# _framework density 25.155481000000002
#
# number of rings (size 3 to 8) (size 9 to 14) (size 15 to 20)
#    0.000    2.538    1.538    1.385    2.154    4.923 
#    0.000    4.615    0.000    1.846    0.000    0.000 
#    0.000    0.000    0.000    0.000    0.000    0.000 
#
# Total GULP energy -290263.644827 kJ/mol
# GULP energy per Si atom -5581.993170 kJ/mol
# Density = 2.509823 g / cm^3
# Si number density = 25.155481 Si / 1000 Ang^3
#
#
#
# Elastic Constant Matrix: (Units=GPa)
#
#
# Indices 1 2 3 4 5 6 
#
# 1 70.2940 31.4441 1.4864 0.0000 0.0000 -13.5532
# 2 31.4441 70.2940 1.4864 0.0000 0.0000 13.5532
# 3 1.4864 1.4864 106.4862 0.0000 0.0000 0.0000
# 4 0.0000 0.0000 0.0000 35.0549 0.0000 0.0000
# 5 0.0000 0.0000 0.0000 0.0000 35.0549 0.0000
# 6 -13.5532 13.5532 0.0000 0.0000 0.0000 53.0493
#
#
#
# Elastic Compliance Matrix: (Units=1/GPa)
#
#
# Indices 1 2 3 4 5 6 
#
# 1 0.020578 -0.010745 -0.000137 0.000000 0.000000 0.008003
# 2 -0.010745 0.020578 -0.000137 0.000000 0.000000 -0.008003
# 3 -0.000137 -0.000137 0.009395 0.000000 0.000000 0.000000
# 4 0.000000 0.000000 0.000000 0.028527 0.000000 0.000000
# 5 0.000000 0.000000 0.000000 0.000000 0.028527 0.000000
# 6 0.008003 -0.008003 0.000000 0.000000 0.000000 0.022940
#
#
# Mechanical properties :
#
#
# Convention : Reuss Voigt Hill
#
# Bulk Modulus (GPa) = 35.07291 35.10088 35.08689
# Shear Modulus (GPa) = 30.84743 38.80897 34.82820
#
# Velocity S-wave (km/s) = 3.50561 3.93206 3.72495
# Velocity P-wave (km/s) = 5.50985 5.88207 5.69900
#
# Compressibility (1/GPa) = 0.02851204
#
# Stress axis : x y z
#
# Youngs Moduli (GPa) = 48.59455 48.59455 106.44278
#
# Poissons Ratio (x) = 0.52216 0.01461
# Poissons Ratio (y) = 0.52216 0.01461
# Poissons Ratio (z) = 0.00667 0.00667
#
# Static dielectric constant tensor:
#      x y z
#    x 2.020150 0.000000 0.000000 
#    y 0.000000 2.020150 0.000000 
#    z 0.000000 0.000000 1.939640 
# 
# From -- ./inp_files/1039.got.cif
#   From: 2010.05.17/outbox.cif.g08.bks.cpg/sg83_1_cif.got.tgz:1039.got - 2010.06.03 18:55:12.
