data_PCOD9543169
_publ_section_title
;
Structure prediction by ZEFSAII (Michael W. Deem and Ramdas Pophale) SiO2 
 PCOD9543169
Probable space group: I -4 
;
_chemical_formula_sum "Si O2"
_cell_formula_units_Z 20
_cell_length_a 5.286520
_cell_length_b 5.286520
_cell_length_c 28.263902
_cell_angle_alpha 90.000000
_cell_angle_beta 90.000000
_cell_angle_gamma 90.000000
_cell_volume 789.899571
_symmetry_space_group_name_H-M "I -4 "
_symmetry_group_IT_number 82
_symmetry_cell_setting 'tetragonal'
loop_
_space_group_symop_operation_xyz
x,y,z
y,-x,-z
-x,-y,z
-y,x,-z
1/2+x,1/2+y,1/2+z
1/2+y,1/2-x,1/2-z
1/2-x,1/2-y,1/2+z
1/2-y,1/2+x,1/2-z
loop_
_atom_site_type_symbol
_atom_site_label
_atom_site_fract_x
_atom_site_fract_y
_atom_site_fract_z
Si Si1 0.251393 0.170379 0.323102
Si Si2 0.500000 0.500000 0.000000
Si Si3 0.240857 0.837865 0.069517
Si Si4 0.500000 0.000000 0.750000
O O1 0.260385 0.286981 0.375702
O O2 0.213313 0.383009 0.283747
O O3 0.500000 0.000000 0.316038
O O4 0.000000 0.000000 0.321042
O O5 0.285910 0.605219 0.034724
O O6 0.500000 0.000000 0.067250
O O7 0.000000 0.000000 0.055809
#
# Coordination Sequence:
#
# PCOD9543169 Si02
#       4
#     8   2   8   2
#     4  11  29  55  81 125 170 227 282 352 424 503
#     4  12  28  52  84 128 168 224 292 340 436 498
#     4  11  29  53  85 120 174 224 284 351 426 505
#     4  12  32  48  92 120 176 216 296 336 436 498
#
# _framework density 25.319676000000001
#
# number of rings (size 3 to 8) (size 9 to 14) (size 15 to 20)
#    0.000    0.800    2.000    0.000   22.400    0.000 
#    0.000    0.000    0.000    0.000    0.000    0.000 
#    0.000    0.000    0.000    0.000    0.000    0.000 
#
# Total GULP energy -56207.846839 kJ/mol
# GULP energy per Si atom -5620.784684 kJ/mol
# Density = 2.526205 g / cm^3
# Si number density = 25.319676 Si / 1000 Ang^3
#
#
#
# Elastic Constant Matrix: (Units=GPa)
#
#
# Indices 1 2 3 4 5 6 
#
# 1 153.7648 66.9215 69.3715 0.0000 0.0000 -8.9436
# 2 66.9215 153.7647 69.3715 0.0000 0.0000 8.9436
# 3 69.3715 69.3715 229.2039 0.0000 0.0000 0.0000
# 4 0.0000 0.0000 0.0000 -60.1335 0.0000 0.0000
# 5 0.0000 0.0000 0.0000 0.0000 -60.1335 0.0000
# 6 -8.9436 8.9436 0.0000 0.0000 0.0000 61.8149
#
#
#
# Elastic Compliance Matrix: (Units=1/GPa)
#
#
# Indices 1 2 3 4 5 6 
#
# 1 0.008732 -0.003136 -0.001694 0.000000 0.000000 0.001717
# 2 -0.003136 0.008732 -0.001694 0.000000 0.000000 -0.001717
# 3 -0.001694 -0.001694 0.005388 0.000000 0.000000 0.000000
# 4 0.000000 0.000000 0.000000 -0.016630 0.000000 0.000000
# 5 0.000000 0.000000 0.000000 0.000000 -0.016630 0.000000
# 6 0.001717 -0.001717 0.000000 0.000000 0.000000 0.016674
#
#
# Mechanical properties :
#
#
# Convention : Reuss Voigt Hill
#
# Bulk Modulus (GPa) = 101.98336 105.34027 103.66181
# Shear Modulus (GPa) = 221.39560 10.38083 115.88821
#
# Velocity S-wave (km/s) = 9.36109 2.02702 6.77269
# Velocity P-wave (km/s) = 12.53817 6.86825 10.10887
#
# Compressibility (1/GPa) = 0.00980552
#
# Stress axis : x y z
#
# Youngs Moduli (GPa) = 114.51569 114.51569 185.59083
#
# Poissons Ratio (x) = 0.35915 0.31434
# Poissons Ratio (y) = 0.35915 0.31434
# Poissons Ratio (z) = 0.19396 0.19396
#
# Static dielectric constant tensor:
#      x y z
#    x 2.038080 0.000000 0.000000 
#    y 0.000000 2.038080 0.000000 
#    z 0.000000 0.000000 1.957930 
# 
# From -- ./inp_files/3580.got.cif
#   From: 2010.05.17/outbox.cif.g08.bks.cpg/sg82_2_cif.got.tgz:3580.got - 2010.06.03 18:52:26.
