data_PCOD9543132
_publ_section_title
;
Structure prediction by ZEFSAII (Michael W. Deem and Ramdas Pophale) SiO2 
 PCOD9543132
Probable space group: I -4 
;
_chemical_formula_sum "Si O2"
_cell_formula_units_Z 40
_cell_length_a 17.215524
_cell_length_b 17.215524
_cell_length_c 5.225528
_cell_angle_alpha 90.000000
_cell_angle_beta 90.000000
_cell_angle_gamma 90.000000
_cell_volume 1548.712029
_symmetry_space_group_name_H-M "I -4 "
_symmetry_group_IT_number 82
_symmetry_cell_setting 'tetragonal'
loop_
_space_group_symop_operation_xyz
x,y,z
y,-x,-z
-x,-y,z
-y,x,-z
1/2+x,1/2+y,1/2+z
1/2+y,1/2-x,1/2-z
1/2-x,1/2-y,1/2+z
1/2-y,1/2+x,1/2-z
loop_
_atom_site_type_symbol
_atom_site_label
_atom_site_fract_x
_atom_site_fract_y
_atom_site_fract_z
Si Si1 0.216636 0.581414 0.067311
Si Si2 0.446655 0.612702 0.581192
Si Si3 0.331274 0.379102 0.906938
Si Si4 0.395096 0.956980 0.171770
Si Si5 0.910241 0.319338 0.290515
O O1 0.159634 0.655678 0.103668
O O2 0.205595 0.501985 0.240784
O O3 0.301613 0.617070 0.086310
O O4 0.189890 0.549522 0.790304
O O5 0.534281 0.598427 0.495984
O O6 0.436329 0.628826 0.881468
O O7 0.410019 0.674258 0.383279
O O8 0.246395 0.372714 0.027475
O O9 0.456780 0.923878 0.383592
O O10 0.414063 0.898744 0.949295
#
# Coordination Sequence:
#
# PCOD9543132 Si02
#       5
#     8   8   8   8   8
#     4  11  25  43  69 103 144 192 244 304 371 442
#     4  11  24  47  74 103 144 199 256 304 362 444
#     4  12  28  44  74 111 150 189 243 313 380 440
#     4   9  20  40  66  96 134 186 243 294 356 440
#     4  11  25  43  69 103 144 192 244 304 371 442
#
# _framework density 25.827911
#
# number of rings (size 3 to 8) (size 9 to 14) (size 15 to 20)
#    0.000    1.200    0.000    4.800    8.400    3.600 
#    0.000    0.000    0.000    0.000    0.000    0.000 
#    0.000    0.000    0.000    0.000    0.000    0.000 
#
# Total GULP energy -111679.555166 kJ/mol
# GULP energy per Si atom -5583.977758 kJ/mol
# Density = 2.576913 g / cm^3
# Si number density = 25.827911 Si / 1000 Ang^3
#
#
#
# Elastic Constant Matrix: (Units=GPa)
#
#
# Indices 1 2 3 4 5 6 
#
# 1 114.7748 21.1087 5.9938 0.0000 0.0000 10.2532
# 2 21.1087 114.7748 5.9938 0.0000 0.0000 -10.2532
# 3 5.9938 5.9938 70.5911 0.0000 0.0000 0.0000
# 4 0.0000 0.0000 0.0000 28.1055 0.0000 0.0000
# 5 0.0000 0.0000 0.0000 0.0000 28.1055 0.0000
# 6 10.2532 -10.2532 0.0000 0.0000 0.0000 48.9255
#
#
#
# Elastic Compliance Matrix: (Units=1/GPa)
#
#
# Indices 1 2 3 4 5 6 
#
# 1 0.009302 -0.001887 -0.000630 0.000000 0.000000 -0.002345
# 2 -0.001887 0.009302 -0.000630 0.000000 0.000000 0.002345
# 3 -0.000630 -0.000630 0.014273 0.000000 0.000000 0.000000
# 4 0.000000 0.000000 0.000000 0.035580 0.000000 0.000000
# 5 0.000000 0.000000 0.000000 0.000000 0.035580 0.000000
# 6 -0.002345 0.002345 0.000000 0.000000 0.000000 0.021422
#
#
# Mechanical properties :
#
#
# Convention : Reuss Voigt Hill
#
# Bulk Modulus (GPa) = 37.61624 40.70370 39.15997
# Shear Modulus (GPa) = 35.55823 38.83027 37.19425
#
# Velocity S-wave (km/s) = 3.71447 3.88161 3.79896
# Velocity P-wave (km/s) = 5.74388 5.99024 5.86835
#
# Compressibility (1/GPa) = 0.02658426
#
# Stress axis : x y z
#
# Youngs Moduli (GPa) = 107.50147 107.50147 70.06228
#
# Poissons Ratio (x) = 0.20290 0.04411
# Poissons Ratio (y) = 0.20290 0.04411
# Poissons Ratio (z) = 0.06768 0.06768
#
# Static dielectric constant tensor:
#      x y z
#    x 2.085520 0.000000 0.000000 
#    y 0.000000 2.085520 0.000000 
#    z 0.000000 0.000000 2.174770 
# 
# From -- ./inp_files/217.got.cif
#   From: 2010.05.17/outbox.cif.g08.bks.cpg/sg82_1_cif.got.tgz:217.got - 2010.06.03 18:52:26.
