data_PCOD9543439
_publ_section_title
;
Structure prediction by ZEFSAII (Michael W. Deem and Ramdas Pophale) SiO2 
 PCOD9543439
Probable space group: P 4/M
;
_chemical_formula_sum "Si O2"
_cell_formula_units_Z 34
_cell_length_a 11.923467
_cell_length_b 11.923467
_cell_length_c 10.412653
_cell_angle_alpha 90.000000
_cell_angle_beta 90.000000
_cell_angle_gamma 90.000000
_cell_volume 1480.357144
_symmetry_space_group_name_H-M "P 4/M"
_symmetry_group_IT_number 83
_symmetry_cell_setting 'tetragonal'
loop_
_space_group_symop_operation_xyz
x,y,z
-y,x,z
-x,-y,z
y,-x,z
-x,-y,-z
y,-x,-z
x,y,-z
-y,x,-z
loop_
_atom_site_type_symbol
_atom_site_label
_atom_site_fract_x
_atom_site_fract_y
_atom_site_fract_z
Si Si1 0.675231 0.533604 0.153769
Si Si2 0.000000 0.000000 0.313297
Si Si3 0.870127 0.682597 0.781929
Si Si4 0.192781 0.629057 0.500000
Si Si5 0.754411 0.901449 0.253474
Si Si6 0.811718 0.636534 0.500000
O O1 0.585577 0.627576 0.200619
O O2 0.799866 0.571776 0.186398
O O3 0.668558 0.530548 0.000000
O O4 0.954403 0.130216 0.306885
O O5 0.795541 0.790526 0.822438
O O6 0.870955 0.682957 0.626797
O O7 0.997929 0.695891 0.825123
O O8 0.134654 0.676715 0.371795
O O9 0.315189 0.685892 0.500000
O O10 0.189812 0.496412 0.500000
#
# Coordination Sequence:
#
# PCOD9543439 Si02
#       6
#     8   2   8   4   8   4
#     4   9  20  40  62  81 107 147 191 230 276 338
#     4   8  16  33  52  72 101 156 198 228 249 337
#     4  10  20  36  56  83 111 152 184 233 274 335
#     4  10  21  37  47  77 115 157 190 226 270 337
#     4   9  19  33  53  78 113 146 192 225 278 325
#     4  10  23  34  51  79 119 152 188 219 281 332
#
# _framework density 22.967431000000001
#
# number of rings (size 3 to 8) (size 9 to 14) (size 15 to 20)
#    0.000    2.588    0.000    1.412    6.588    5.412 
#    0.000    1.176    0.000    2.824    0.000    4.941 
#    0.000    0.000    0.000    0.000    0.000    0.000 
#
# Total GULP energy -189361.693215 kJ/mol
# GULP energy per Si atom -5569.461565 kJ/mol
# Density = 2.291516 g / cm^3
# Si number density = 22.967431 Si / 1000 Ang^3
#
#
#
# Elastic Constant Matrix: (Units=GPa)
#
#
# Indices 1 2 3 4 5 6 
#
# 1 116.6222 15.7531 -6.3079 0.0000 0.0000 11.7203
# 2 15.7531 116.6222 -6.3079 0.0000 0.0000 -11.7203
# 3 -6.3079 -6.3079 28.4415 0.0000 0.0000 0.0000
# 4 0.0000 0.0000 0.0000 -2.4564 0.0000 0.0000
# 5 0.0000 0.0000 0.0000 0.0000 -2.4564 0.0000
# 6 11.7203 -11.7203 0.0000 0.0000 0.0000 38.1057
#
#
#
# Elastic Compliance Matrix: (Units=1/GPa)
#
#
# Indices 1 2 3 4 5 6 
#
# 1 0.009197 -0.001480 0.001712 0.000000 0.000000 -0.003284
# 2 -0.001480 0.009197 0.001712 0.000000 0.000000 0.003284
# 3 0.001712 0.001712 0.035919 0.000000 0.000000 0.000000
# 4 0.000000 0.000000 0.000000 -0.407100 0.000000 0.000000
# 5 0.000000 0.000000 0.000000 0.000000 -0.407100 0.000000
# 6 -0.003284 0.003284 0.000000 0.000000 0.000000 0.028263
#
#
# Mechanical properties :
#
#
# Convention : Reuss Voigt Hill
#
# Bulk Modulus (GPa) = 17.18202 29.77338 23.47770
# Shear Modulus (GPa) = -6.98216 23.87516 8.44650
#
# Velocity S-wave (km/s) = -1.74546 3.22766 1.91979
# Velocity P-wave (km/s) = 1.85340 5.18477 3.89339
#
# Compressibility (1/GPa) = 0.05820038
#
# Stress axis : x y z
#
# Youngs Moduli (GPa) = 108.72884 108.72884 27.84031
#
# Poissons Ratio (x) = 0.16090 -0.04765
# Poissons Ratio (y) = 0.16090 -0.04765
# Poissons Ratio (z) = -0.18610 -0.18610
#
# Static dielectric constant tensor:
#      x y z
#    x 1.880170 0.000000 0.000000 
#    y 0.000000 1.880170 0.000000 
#    z 0.000000 0.000000 1.884290 
# 
# From -- ./inp_files/1633.got.cif
#   From: 2010.05.17/outbox.cif.g08.bks.cpg/sg83_1_cif.got.tgz:1633.got - 2010.06.03 18:55:12.
