data_PCOD9543571
_publ_section_title
;
Structure prediction by ZEFSAII (Michael W. Deem and Ramdas Pophale) SiO2 
 PCOD9543571
Probable space group: P 4/M
;
_chemical_formula_sum "Si O2"
_cell_formula_units_Z 44
_cell_length_a 14.994474
_cell_length_b 14.994474
_cell_length_c 10.284969
_cell_angle_alpha 90.000000
_cell_angle_beta 90.000000
_cell_angle_gamma 90.000000
_cell_volume 2312.413297
_symmetry_space_group_name_H-M "P 4/M"
_symmetry_group_IT_number 83
_symmetry_cell_setting 'tetragonal'
loop_
_space_group_symop_operation_xyz
x,y,z
-y,x,z
-x,-y,z
y,-x,z
-x,-y,-z
y,-x,-z
x,y,-z
-y,x,-z
loop_
_atom_site_type_symbol
_atom_site_label
_atom_site_fract_x
_atom_site_fract_y
_atom_site_fract_z
Si Si1 0.595817 0.744111 0.854075
Si Si2 0.598208 0.954482 0.846596
Si Si3 0.353630 0.477176 0.500000
Si Si4 0.928491 0.878312 0.657009
Si Si5 0.591118 0.274388 0.756056
Si Si6 0.679896 0.096663 0.659278
O O1 0.598815 0.848639 0.814258
O O2 0.655656 0.671532 0.777990
O O3 0.490504 0.719973 0.856191
O O4 0.631998 0.740045 0.000000
O O5 0.500000 0.000000 0.841022
O O6 0.653679 0.006897 0.736333
O O7 0.627045 0.964234 0.000000
O O8 0.429635 0.402479 0.500000
O O9 0.296591 0.461899 0.625508
O O10 0.930580 0.883629 0.500000
O O11 0.885496 0.784274 0.685560
O O12 0.031321 0.881772 0.703031
O O13 0.628230 0.176104 0.730889
O O14 0.665979 0.093089 0.500000
#
# Coordination Sequence:
#
# PCOD9543571 Si02
#       6
#     8   8   4   8   8   8
#     4  11  25  43  64  90 120 165 213 255 305 368
#     4  10  22  43  63  83 120 164 201 245 303 359
#     4  11  22  40  58  81 127 170 195 248 328 378
#     4   8  16  33  55  82 119 156 191 239 297 358
#     4  12  23  40  62  91 125 160 206 262 309 367
#     4  11  23  37  62  96 122 156 203 252 308 371
#
# _framework density 19.027740999999999
#
# number of rings (size 3 to 8) (size 9 to 14) (size 15 to 20)
#    0.000    1.545    4.545    1.091    2.545    1.455 
#    3.273    0.909    0.000    0.000    0.000    1.273 
#    0.000    0.000    0.000    0.000    0.000    0.000 
#
# Total GULP energy -244971.432295 kJ/mol
# GULP energy per Si atom -5567.532552 kJ/mol
# Density = 1.898443 g / cm^3
# Si number density = 19.027741 Si / 1000 Ang^3
#
#
#
# Elastic Constant Matrix: (Units=GPa)
#
#
# Indices 1 2 3 4 5 6 
#
# 1 77.9807 8.5172 10.1658 0.0000 0.0000 -3.1630
# 2 8.5172 77.9807 10.1658 0.0000 0.0000 3.1630
# 3 10.1658 10.1658 57.5836 0.0000 0.0000 0.0000
# 4 0.0000 0.0000 0.0000 15.3633 0.0000 0.0000
# 5 0.0000 0.0000 0.0000 0.0000 15.3633 0.0000
# 6 -3.1630 3.1630 0.0000 0.0000 0.0000 26.8814
#
#
#
# Elastic Compliance Matrix: (Units=1/GPa)
#
#
# Indices 1 2 3 4 5 6 
#
# 1 0.013307 -0.001245 -0.002129 0.000000 0.000000 0.001712
# 2 -0.001245 0.013307 -0.002129 0.000000 0.000000 -0.001712
# 3 -0.002129 -0.002129 0.018118 0.000000 0.000000 0.000000
# 4 0.000000 0.000000 0.000000 0.065090 0.000000 0.000000
# 5 0.000000 0.000000 0.000000 0.000000 0.065090 0.000000
# 6 0.001712 -0.001712 0.000000 0.000000 0.000000 0.037603
#
#
# Mechanical properties :
#
#
# Convention : Reuss Voigt Hill
#
# Bulk Modulus (GPa) = 29.65292 30.13808 29.89550
# Shear Modulus (GPa) = 21.29795 23.83467 22.56631
#
# Velocity S-wave (km/s) = 3.34924 3.54309 3.44753
# Velocity P-wave (km/s) = 5.52941 5.71064 5.62076
#
# Compressibility (1/GPa) = 0.03372349
#
# Stress axis : x y z
#
# Youngs Moduli (GPa) = 75.14992 75.14992 55.19412
#
# Poissons Ratio (x) = 0.09358 0.11753
# Poissons Ratio (y) = 0.09358 0.11753
# Poissons Ratio (z) = 0.16002 0.16002
#
# Static dielectric constant tensor:
#      x y z
#    x 1.667000 0.000000 0.000000 
#    y 0.000000 1.667000 0.000000 
#    z 0.000000 0.000000 1.662880 
# 
# From -- ./inp_files/1720.got.cif
#   From: 2010.05.17/outbox.cif.g08.bks.cpg/sg83_1_cif.got.tgz:1720.got - 2010.06.03 18:55:12.
