data_PCOD9543100
_publ_section_title
;
Structure prediction by ZEFSAII (Michael W. Deem and Ramdas Pophale) SiO2 
 PCOD9543100
Probable space group: I -4 
;
_chemical_formula_sum "Si O2"
_cell_formula_units_Z 40
_cell_length_a 9.751713
_cell_length_b 9.751713
_cell_length_c 15.829630
_cell_angle_alpha 90.000000
_cell_angle_beta 90.000000
_cell_angle_gamma 90.000000
_cell_volume 1505.333013
_symmetry_space_group_name_H-M "I -4 "
_symmetry_group_IT_number 82
_symmetry_cell_setting 'tetragonal'
loop_
_space_group_symop_operation_xyz
x,y,z
y,-x,-z
-x,-y,z
-y,x,-z
1/2+x,1/2+y,1/2+z
1/2+y,1/2-x,1/2-z
1/2-x,1/2-y,1/2+z
1/2-y,1/2+x,1/2-z
loop_
_atom_site_type_symbol
_atom_site_label
_atom_site_fract_x
_atom_site_fract_y
_atom_site_fract_z
Si Si1 0.351598 0.620711 0.954319
Si Si2 0.059858 0.182200 0.305998
Si Si3 0.720272 0.993836 0.225717
Si Si4 0.339454 0.041788 0.858713
Si Si5 0.337248 0.035594 0.044814
O O1 0.435666 0.663929 0.871575
O O2 0.199993 0.676744 0.954814
O O3 0.456262 0.662122 0.030058
O O4 0.145877 0.051558 0.275447
O O5 0.157149 0.294357 0.350768
O O6 0.013630 0.252722 0.218632
O O7 0.617408 0.863083 0.232245
O O8 0.740069 0.021033 0.126535
O O9 0.500000 0.000000 0.850242
O O10 0.294976 0.990665 0.950999
O O11 0.500000 0.000000 0.054812
#
# Coordination Sequence:
#
# PCOD9543100 Si02
#       5
#     8   8   8   8   8
#     4  11  26  42  72 119 148 191 263 329 376 453
#     4  12  23  47  76 110 153 198 258 326 386 463
#     4  11  26  47  70 107 157 210 260 321 397 461
#     4  11  23  44  72 109 151 198 253 322 394 468
#     4  11  24  45  73 108 156 202 252 318 394 473
#
# _framework density 26.572195000000001
#
# number of rings (size 3 to 8) (size 9 to 14) (size 15 to 20)
#    0.000    0.800    6.000    1.200    5.600    0.000 
#    3.600    0.000    0.000    0.000    0.000    0.000 
#    0.000    0.000    0.000    0.000    0.000    0.000 
#
# Total GULP energy -112215.789685 kJ/mol
# GULP energy per Si atom -5610.789484 kJ/mol
# Density = 2.651172 g / cm^3
# Si number density = 26.572195 Si / 1000 Ang^3
#
#
#
# Elastic Constant Matrix: (Units=GPa)
#
#
# Indices 1 2 3 4 5 6 
#
# 1 104.3130 22.2745 35.5377 0.0000 0.0000 -6.6957
# 2 22.2745 104.3130 35.5377 0.0000 0.0000 6.6957
# 3 35.5377 35.5377 231.6098 0.0000 0.0000 0.0000
# 4 0.0000 0.0000 0.0000 39.2673 0.0000 0.0000
# 5 0.0000 0.0000 0.0000 0.0000 39.2673 0.0000
# 6 -6.6957 6.6957 0.0000 0.0000 0.0000 24.0362
#
#
#
# Elastic Compliance Matrix: (Units=1/GPa)
#
#
# Indices 1 2 3 4 5 6 
#
# 1 0.010707 -0.002063 -0.001326 0.000000 0.000000 0.003557
# 2 -0.002063 0.010707 -0.001326 0.000000 0.000000 -0.003557
# 3 -0.001326 -0.001326 0.004725 0.000000 0.000000 0.000000
# 4 0.000000 0.000000 0.000000 0.025467 0.000000 0.000000
# 5 0.000000 0.000000 0.000000 0.000000 0.025467 0.000000
# 6 0.003557 -0.003557 0.000000 0.000000 0.000000 0.043586
#
#
# Mechanical properties :
#
#
# Convention : Reuss Voigt Hill
#
# Bulk Modulus (GPa) = 59.85183 69.65952 64.75568
# Shear Modulus (GPa) = 36.85729 43.63987 40.24858
#
# Velocity S-wave (km/s) = 3.72837 4.05694 3.89612
# Velocity P-wave (km/s) = 6.41151 6.94386 6.68299
#
# Compressibility (1/GPa) = 0.01670793
#
# Stress axis : x y z
#
# Youngs Moduli (GPa) = 93.39481 93.39481 211.65635
#
# Poissons Ratio (x) = 0.19266 0.28074
# Poissons Ratio (y) = 0.19266 0.28074
# Poissons Ratio (z) = 0.12388 0.12388
#
# Static dielectric constant tensor:
#      x y z
#    x 2.085100 0.000000 0.000000 
#    y 0.000000 2.085100 0.000000 
#    z 0.000000 0.000000 2.080520 
# 
# From -- ./inp_files/2205.got.cif
#   From: 2010.05.17/outbox.cif.g08.bks.cpg/sg82_2_cif.got.tgz:2205.got - 2010.06.03 18:52:26.
