data_PCOD9543610
_publ_section_title
;
Structure prediction by ZEFSAII (Michael W. Deem and Ramdas Pophale) SiO2 
 PCOD9543610
Probable space group: P 4/M
;
_chemical_formula_sum "Si O2"
_cell_formula_units_Z 48
_cell_length_a 11.485325
_cell_length_b 11.485325
_cell_length_c 18.203234
_cell_angle_alpha 90.000000
_cell_angle_beta 90.000000
_cell_angle_gamma 90.000000
_cell_volume 2401.237570
_symmetry_space_group_name_H-M "P 4/M"
_symmetry_group_IT_number 83
_symmetry_cell_setting 'tetragonal'
loop_
_space_group_symop_operation_xyz
x,y,z
-y,x,z
-x,-y,z
y,-x,z
-x,-y,-z
y,-x,-z
x,y,-z
-y,x,-z
loop_
_atom_site_type_symbol
_atom_site_label
_atom_site_fract_x
_atom_site_fract_y
_atom_site_fract_z
Si Si1 0.401407 0.339189 0.706195
Si Si2 0.373456 0.232063 0.136549
Si Si3 0.640668 0.003896 0.791654
Si Si4 0.022448 0.355305 0.381709
Si Si5 0.736426 0.777469 0.419332
Si Si6 0.628789 0.172595 0.080162
O O1 0.537149 0.344694 0.690008
O O2 0.392216 0.312255 0.791991
O O3 0.341192 0.252037 0.651345
O O4 0.318778 0.116832 0.173101
O O5 0.494410 0.199618 0.098129
O O6 0.290476 0.298616 0.081724
O O7 0.500000 0.000000 0.793882
O O8 0.666776 0.023327 0.706545
O O9 0.675622 0.101665 0.849782
O O10 0.143315 0.296317 0.409886
O O11 0.000000 0.500000 0.393305
O O12 0.918153 0.277146 0.415960
O O13 0.689362 0.742906 0.500000
O O14 0.637702 0.114673 0.000000
#
# Coordination Sequence:
#
# PCOD9543610 Si02
#       6
#     8   8   8   8   8   8
#     4  11  22  38  62  90 126 171 218 269 329 409
#     4  11  20  38  60  87 123 165 210 257 320 398
#     4   9  21  38  63  86 117 164 214 257 310 386
#     4  11  24  45  71  99 134 178 227 279 340 410
#     4  12  26  42  67  98 133 173 222 282 343 396
#     4  11  23  36  59  93 128 162 206 267 330 387
#
# _framework density 19.989692999999999
#
# number of rings (size 3 to 8) (size 9 to 14) (size 15 to 20)
#    0.000    1.167    3.333    3.000    2.333    7.667 
#    0.000    2.500    0.000    0.500    0.000    1.167 
#    0.000    0.000    0.000    0.000    0.000    0.000 
#
# Total GULP energy -267437.984453 kJ/mol
# GULP energy per Si atom -5571.624676 kJ/mol
# Density = 1.994420 g / cm^3
# Si number density = 19.989693 Si / 1000 Ang^3
#
#
#
# Elastic Constant Matrix: (Units=GPa)
#
#
# Indices 1 2 3 4 5 6 
#
# 1 64.8879 -5.4245 12.4520 0.0000 0.0000 2.2309
# 2 -5.4245 64.8879 12.4520 0.0000 0.0000 -2.2309
# 3 12.4520 12.4520 126.2082 0.0000 0.0000 0.0000
# 4 0.0000 0.0000 0.0000 -7.3686 0.0000 0.0000
# 5 0.0000 0.0000 0.0000 0.0000 -7.3686 0.0000
# 6 2.2309 -2.2309 0.0000 0.0000 0.0000 25.0232
#
#
#
# Elastic Compliance Matrix: (Units=1/GPa)
#
#
# Indices 1 2 3 4 5 6 
#
# 1 0.015923 0.001619 -0.001731 0.000000 0.000000 -0.001275
# 2 0.001619 0.015923 -0.001731 0.000000 0.000000 0.001275
# 3 -0.001731 -0.001731 0.008265 0.000000 0.000000 0.000000
# 4 0.000000 0.000000 0.000000 -0.135710 0.000000 0.000000
# 5 0.000000 0.000000 0.000000 0.000000 -0.135710 0.000000
# 6 -0.001275 0.001275 0.000000 0.000000 0.000000 0.040190
#
#
# Mechanical properties :
#
#
# Convention : Reuss Voigt Hill
#
# Bulk Modulus (GPa) = 27.45303 32.77146 30.11224
# Shear Modulus (GPa) = -28.52343 17.82414 -5.34964
#
# Velocity S-wave (km/s) = -3.78154 2.98932 -1.63768
# Velocity P-wave (km/s) = 2.30289 5.32395 3.39420
#
# Compressibility (1/GPa) = 0.03642585
#
# Stress axis : x y z
#
# Youngs Moduli (GPa) = 62.80405 62.80405 120.99313
#
# Poissons Ratio (x) = -0.10170 0.20941
# Poissons Ratio (y) = -0.10170 0.20941
# Poissons Ratio (z) = 0.10870 0.10870
#
# Static dielectric constant tensor:
#      x y z
#    x 1.763110 0.000000 0.000000 
#    y 0.000000 1.763110 0.000000 
#    z 0.000000 0.000000 1.727430 
# 
# From -- ./inp_files/2658.got.cif
#   From: 2010.05.17/outbox.cif.g08.bks.cpg/sg83_2_cif.got.tgz:2658.got - 2010.06.03 18:55:12.
