data_PCOD9543942
_publ_section_title
;
Structure prediction by ZEFSAII (Michael W. Deem and Ramdas Pophale) SiO2 
 PCOD9543942
Probable space group: P 42/M
;
_chemical_formula_sum "Si O2"
_cell_formula_units_Z 60
_cell_length_a 15.554110
_cell_length_b 15.554110
_cell_length_c 13.605090
_cell_angle_alpha 90.000000
_cell_angle_beta 90.000000
_cell_angle_gamma 90.000000
_cell_volume 3291.484021
_symmetry_space_group_name_H-M "P 42/M"
_symmetry_group_IT_number 84
_symmetry_cell_setting 'tetragonal'
loop_
_space_group_symop_operation_xyz
x,y,z
-y,x,1/2+z
-x,-y,z
y,-x,1/2+z
-x,-y,-z
y,-x,1/2-z
x,y,-z
-y,x,1/2-z
loop_
_atom_site_type_symbol
_atom_site_label
_atom_site_fract_x
_atom_site_fract_y
_atom_site_fract_z
Si Si1 0.017665 0.312962 0.800411
Si Si2 0.432861 0.293153 0.733941
Si Si3 0.500000 0.000000 0.225636
Si Si4 0.518927 0.168061 0.887546
Si Si5 0.193968 0.260356 0.890024
Si Si6 0.334853 0.408138 0.113641
Si Si7 0.115876 0.281826 0.608402
Si Si8 0.267244 0.178028 0.301217
O O1 0.094233 0.281164 0.870257
O O2 0.045463 0.276908 0.693426
O O3 0.020136 0.416398 0.789830
O O4 0.921187 0.284957 0.823466
O O5 0.489901 0.239681 0.811628
O O6 0.493907 0.318580 0.644241
O O7 0.395436 0.369683 0.800965
O O8 0.354679 0.233641 0.696505
O O9 0.479469 0.079860 0.154563
O O10 0.621526 0.154487 0.885198
O O11 0.492454 0.184816 0.000000
O O12 0.248892 0.348833 0.879293
O O13 0.230229 0.195365 0.808566
O O14 0.207735 0.228315 0.000000
O O15 0.365149 0.400491 0.000000
O O16 0.079823 0.269732 0.500000
O O17 0.194312 0.217956 0.629347
#
# Coordination Sequence:
#
# PCOD9543942 Si02
#       8
#     8   8   4   8   8   8   8   8
#     4  10  19  33  56  83 109 140 177 224 271 324
#     4  11  20  37  55  78 108 147 184 232 269 320
#     4  10  17  30  47  82 116 136 169 224 277 316
#     4  10  18  30  51  78 110 144 176 220 273 321
#     4   9  20  38  55  77 113 149 179 221 274 329
#     4  10  22  39  57  78 107 146 188 229 278 330
#     4   9  20  36  52  76 111 142 172 219 275 320
#     4  10  20  34  57  81 106 141 184 218 264 325
#
# _framework density 18.228860000000001
#
# number of rings (size 3 to 8) (size 9 to 14) (size 15 to 20)
#    0.000    2.133    1.333    3.800    0.000    2.933 
#    0.000    2.333    0.000    6.400    0.000    7.467 
#    0.000    0.000    0.000    0.000    0.000    0.000 
#
# Total GULP energy -334682.743782 kJ/mol
# GULP energy per Si atom -5578.045730 kJ/mol
# Density = 1.818737 g / cm^3
# Si number density = 18.228860 Si / 1000 Ang^3
#
#
#
# Elastic Constant Matrix: (Units=GPa)
#
#
# Indices 1 2 3 4 5 6 
#
# 1 40.3186 -4.9735 -7.7882 0.0000 0.0000 2.5350
# 2 -4.9735 40.3186 -7.7882 0.0000 0.0000 -2.5350
# 3 -7.7882 -7.7882 15.2009 0.0000 0.0000 0.0000
# 4 0.0000 0.0000 0.0000 11.3166 0.0000 0.0000
# 5 0.0000 0.0000 0.0000 0.0000 11.3166 0.0000
# 6 2.5350 -2.5350 0.0000 0.0000 0.0000 2.6502
#
#
#
# Elastic Compliance Matrix: (Units=1/GPa)
#
#
# Indices 1 2 3 4 5 6 
#
# 1 0.030635 0.005909 0.018723 0.000000 0.000000 -0.023651
# 2 0.005909 0.030635 0.018723 0.000000 0.000000 0.023651
# 3 0.018723 0.018723 0.084971 0.000000 0.000000 0.000000
# 4 0.000000 0.000000 0.000000 0.088366 0.000000 0.000000
# 5 0.000000 0.000000 0.000000 0.000000 0.088366 0.000000
# 6 -0.023651 0.023651 0.000000 0.000000 0.000000 0.422574
#
#
# Mechanical properties :
#
#
# Convention : Reuss Voigt Hill
#
# Bulk Modulus (GPa) = 4.29275 6.08205 5.18740
# Shear Modulus (GPa) = 6.78898 12.81587 9.80243
#
# Velocity S-wave (km/s) = 1.93194 2.65439 2.32144
# Velocity P-wave (km/s) = 2.70861 3.56905 3.16818
#
# Compressibility (1/GPa) = 0.23295091
#
# Stress axis : x y z
#
# Youngs Moduli (GPa) = 32.64238 32.64238 11.76869
#
# Poissons Ratio (x) = -0.19287 -0.22035
# Poissons Ratio (y) = -0.19287 -0.22035
# Poissons Ratio (z) = -0.61117 -0.61117
#
# Static dielectric constant tensor:
#      x y z
#    x 1.632360 0.000000 0.000000 
#    y 0.000000 1.632360 0.000000 
#    z 0.000000 0.000000 1.626040 
# 
# From -- ./inp_files/3180.got.cif
#   From: 2010.05.17/outbox.cif.g08.bks.cpg/sg84_2_cif.got.tgz:3180.got - 2010.06.03 18:57:40.
