data_PCOD9543631
_publ_section_title
;
Structure prediction by ZEFSAII (Michael W. Deem and Ramdas Pophale) SiO2 
 PCOD9543631
Probable space group: P 4/M
;
_chemical_formula_sum "Si O2"
_cell_formula_units_Z 36
_cell_length_a 13.836017
_cell_length_b 13.836017
_cell_length_c 9.173868
_cell_angle_alpha 90.000000
_cell_angle_beta 90.000000
_cell_angle_gamma 90.000000
_cell_volume 1756.202782
_symmetry_space_group_name_H-M "P 4/M"
_symmetry_group_IT_number 83
_symmetry_cell_setting 'tetragonal'
loop_
_space_group_symop_operation_xyz
x,y,z
-y,x,z
-x,-y,z
y,-x,z
-x,-y,-z
y,-x,-z
x,y,-z
-y,x,-z
loop_
_atom_site_type_symbol
_atom_site_label
_atom_site_fract_x
_atom_site_fract_y
_atom_site_fract_z
Si Si1 0.286453 0.139064 0.831738
Si Si2 0.377974 0.393939 0.339698
Si Si3 0.791521 0.668854 0.830842
Si Si4 0.885038 0.487875 0.333884
Si Si5 0.837930 0.984871 0.000000
O O1 0.208866 0.219336 0.779734
O O2 0.384757 0.136383 0.741559
O O3 0.231566 0.036968 0.860857
O O4 0.311432 0.166976 0.000000
O O5 0.490450 0.369581 0.334583
O O6 0.340841 0.361367 0.500000
O O7 0.320820 0.353307 0.203650
O O8 0.844276 0.583079 0.745576
O O9 0.818734 0.663407 0.000000
O O10 0.849324 0.485367 0.500000
O O11 0.000000 0.500000 0.334248
O O12 0.917268 0.897988 0.000000
#
# Coordination Sequence:
#
# PCOD9543631 Si02
#       5
#     8   8   8   8   4
#     4   9  22  38  63  93 124 163 209 261 319 376
#     4   9  18  32  50  72 105 150 196 242 293 351
#     4  11  22  35  55  85 117 156 200 249 303 368
#     4  11  25  41  60  88 124 167 210 258 321 386
#     4   9  20  40  69  99 125 158 209 269 331 387
#
# _framework density 20.498771000000001
#
# number of rings (size 3 to 8) (size 9 to 14) (size 15 to 20)
#    0.667    1.444    0.000    3.333    3.111    8.000 
#    0.000    1.111    0.000    0.000    0.000    1.556 
#    0.000    0.000    0.000    0.000    0.000    0.000 
#
# Total GULP energy -200562.229919 kJ/mol
# GULP energy per Si atom -5571.173053 kJ/mol
# Density = 2.045211 g / cm^3
# Si number density = 20.498771 Si / 1000 Ang^3
#
#
#
# Elastic Constant Matrix: (Units=GPa)
#
#
# Indices 1 2 3 4 5 6 
#
# 1 74.0289 16.6924 20.8603 0.0000 0.0000 5.4546
# 2 16.6924 74.0289 20.8603 0.0000 0.0000 -5.4546
# 3 20.8603 20.8603 57.4991 0.0000 0.0000 0.0000
# 4 0.0000 0.0000 0.0000 24.8706 0.0000 0.0000
# 5 0.0000 0.0000 0.0000 0.0000 24.8706 0.0000
# 6 5.4546 -5.4546 0.0000 0.0000 0.0000 35.6916
#
#
#
# Elastic Compliance Matrix: (Units=1/GPa)
#
#
# Indices 1 2 3 4 5 6 
#
# 1 0.015597 -0.002367 -0.004800 0.000000 0.000000 -0.002745
# 2 -0.002367 0.015597 -0.004800 0.000000 0.000000 0.002745
# 3 -0.004800 -0.004800 0.020874 0.000000 0.000000 0.000000
# 4 0.000000 0.000000 0.000000 0.040208 0.000000 0.000000
# 5 0.000000 0.000000 0.000000 0.000000 0.040208 0.000000
# 6 -0.002745 0.002745 0.000000 0.000000 0.000000 0.028857
#
#
# Mechanical properties :
#
#
# Convention : Reuss Voigt Hill
#
# Bulk Modulus (GPa) = 35.54259 35.82031 35.68145
# Shear Modulus (GPa) = 25.68695 26.89615 26.29155
#
# Velocity S-wave (km/s) = 3.54375 3.62620 3.58521
# Velocity P-wave (km/s) = 5.84130 5.91986 5.88071
#
# Compressibility (1/GPa) = 0.02813526
#
# Stress axis : x y z
#
# Youngs Moduli (GPa) = 64.11638 64.11638 47.90598
#
# Poissons Ratio (x) = 0.15174 0.22994
# Poissons Ratio (y) = 0.15174 0.22994
# Poissons Ratio (z) = 0.30774 0.30774
#
# Static dielectric constant tensor:
#      x y z
#    x 1.786940 0.000000 0.000000 
#    y 0.000000 1.786940 0.000000 
#    z 0.000000 0.000000 1.714830 
# 
# From -- ./inp_files/566.got.cif
#   From: 2010.05.17/outbox.cif.g08.bks.cpg/sg83_1_cif.got.tgz:566.got - 2010.06.03 18:55:12.
