data_PCOD9543680
_publ_section_title
;
Structure prediction by ZEFSAII (Michael W. Deem and Ramdas Pophale) SiO2 
 PCOD9543680
Probable space group: P 4/M
;
_chemical_formula_sum "Si O2"
_cell_formula_units_Z 38
_cell_length_a 8.488251
_cell_length_b 8.488251
_cell_length_c 24.107380
_cell_angle_alpha 90.000000
_cell_angle_beta 90.000000
_cell_angle_gamma 90.000000
_cell_volume 1736.946493
_symmetry_space_group_name_H-M "P 4/M"
_symmetry_group_IT_number 83
_symmetry_cell_setting 'tetragonal'
loop_
_space_group_symop_operation_xyz
x,y,z
-y,x,z
-x,-y,z
y,-x,z
-x,-y,-z
y,-x,-z
x,y,-z
-y,x,-z
loop_
_atom_site_type_symbol
_atom_site_label
_atom_site_fract_x
_atom_site_fract_y
_atom_site_fract_z
Si Si1 0.754991 0.577875 0.179757
Si Si2 0.159131 0.405359 0.389903
Si Si3 0.754485 0.086373 0.274786
Si Si4 0.849464 0.781633 0.500000
Si Si5 0.581899 0.244824 0.940631
Si Si6 0.500000 0.500000 0.630456
O O1 0.598890 0.687894 0.182486
O O2 0.860957 0.622567 0.231456
O O3 0.833364 0.606280 0.119234
O O4 0.111599 0.299002 0.337623
O O5 0.203689 0.308982 0.445049
O O6 0.306022 0.512278 0.371253
O O7 0.000000 0.500000 0.403886
O O8 0.907972 0.193384 0.265310
O O9 0.039508 0.789761 0.500000
O O10 0.689207 0.402844 0.940637
O O11 0.609865 0.162078 0.000000
#
# Coordination Sequence:
#
# PCOD9543680 Si02
#       6
#     8   8   8   4   8   2
#     4   9  19  32  56  88 118 154 203 257 311 378
#     4  12  27  46  70 103 135 173 221 278 336 391
#     4  11  25  42  59  84 122 166 210 259 324 394
#     4  11  23  45  74 102 141 183 222 273 334 400
#     4   7  10  21  43  76 114 148 187 245 311 368
#     4  12  28  45  76 104 136 180 225 276 326 416
#
# _framework density 21.877475
#
# number of rings (size 3 to 8) (size 9 to 14) (size 15 to 20)
#    0.000    2.000    0.000    6.000    5.895    2.947 
#    0.000    0.000    0.000    1.263    0.000    7.368 
#    0.000    0.000    0.000    0.000    0.000    0.000 
#
# Total GULP energy -211872.359124 kJ/mol
# GULP energy per Si atom -5575.588398 kJ/mol
# Density = 2.182768 g / cm^3
# Si number density = 21.877475 Si / 1000 Ang^3
#
#
#
# Elastic Constant Matrix: (Units=GPa)
#
#
# Indices 1 2 3 4 5 6 
#
# 1 49.2690 23.2386 10.1458 0.0000 0.0000 -11.5825
# 2 23.2386 49.2690 10.1458 0.0000 0.0000 11.5825
# 3 10.1458 10.1458 134.8115 0.0000 0.0000 0.0000
# 4 0.0000 0.0000 0.0000 468.1465 0.0000 0.0000
# 5 0.0000 0.0000 0.0000 0.0000 468.1465 0.0000
# 6 -11.5825 11.5825 0.0000 0.0000 0.0000 29.8199
#
#
#
# Elastic Compliance Matrix: (Units=1/GPa)
#
#
# Indices 1 2 3 4 5 6 
#
# 1 0.036400 -0.022311 -0.001060 0.000000 0.000000 0.022804
# 2 -0.022311 0.036400 -0.001060 0.000000 0.000000 -0.022804
# 3 -0.001060 -0.001060 0.007577 0.000000 0.000000 0.000000
# 4 0.000000 0.000000 0.000000 0.002136 0.000000 0.000000
# 5 0.000000 0.000000 0.000000 0.000000 0.002136 0.000000
# 6 0.022804 -0.022804 0.000000 0.000000 0.000000 0.051250
#
#
# Mechanical properties :
#
#
# Convention : Reuss Voigt Hill
#
# Bulk Modulus (GPa) = 31.73292 35.60108 33.66700
# Shear Modulus (GPa) = 25.60605 205.87719 115.74162
#
# Velocity S-wave (km/s) = 3.42487 9.71128 7.28144
# Velocity P-wave (km/s) = 5.49326 11.91862 9.27980
#
# Compressibility (1/GPa) = 0.03151302
#
# Stress axis : x y z
#
# Youngs Moduli (GPa) = 27.47283 27.47283 131.97218
#
# Poissons Ratio (x) = 0.61295 0.13993
# Poissons Ratio (y) = 0.61295 0.13993
# Poissons Ratio (z) = 0.02913 0.02913
#
# Static dielectric constant tensor:
#      x y z
#    x 1.801630 0.000000 0.000000 
#    y 0.000000 1.801630 0.000000 
#    z 0.000000 0.000000 1.826390 
# 
# From -- ./inp_files/3104.got.cif
#   From: 2010.05.17/outbox.cif.g08.bks.cpg/sg83_2_cif.got.tgz:3104.got - 2010.06.03 18:55:12.
