data_PCOD9543742
_publ_section_title
;
Structure prediction by ZEFSAII (Michael W. Deem and Ramdas Pophale) SiO2 
 PCOD9543742
Probable space group: P 4/M
;
_chemical_formula_sum "Si O2"
_cell_formula_units_Z 38
_cell_length_a 7.931224
_cell_length_b 7.931224
_cell_length_c 27.708009
_cell_angle_alpha 90.000000
_cell_angle_beta 90.000000
_cell_angle_gamma 90.000000
_cell_volume 1742.953302
_symmetry_space_group_name_H-M "P 4/M"
_symmetry_group_IT_number 83
_symmetry_cell_setting 'tetragonal'
loop_
_space_group_symop_operation_xyz
x,y,z
-y,x,z
-x,-y,z
y,-x,z
-x,-y,-z
y,-x,-z
x,y,-z
-y,x,-z
loop_
_atom_site_type_symbol
_atom_site_label
_atom_site_fract_x
_atom_site_fract_y
_atom_site_fract_z
Si Si1 0.401314 0.766232 0.307012
Si Si2 0.770461 0.590772 0.415746
Si Si3 0.734542 0.907325 0.849146
Si Si4 0.000000 0.500000 0.500000
Si Si5 0.500000 0.000000 0.229134
Si Si6 0.765153 0.395406 0.946829
O O1 0.292619 0.596698 0.302824
O O2 0.379604 0.834184 0.361354
O O3 0.375752 0.899520 0.264827
O O4 0.602270 0.703426 0.421227
O O5 0.904374 0.611170 0.457509
O O6 0.601017 0.877227 0.806775
O O7 0.656647 0.876176 0.901671
O O8 0.899597 0.793208 0.844560
O O9 0.709393 0.590340 0.944040
O O10 0.841013 0.364043 0.000000
#
# Coordination Sequence:
#
# PCOD9543742 Si02
#       6
#     8   8   8   2   4   8
#     4   9  19  36  57  79 103 136 181 228 272 318
#     4   9  19  35  53  77 108 139 177 225 270 315
#     4  11  24  38  53  80 116 150 182 220 273 335
#     4  12  18  26  52  82 104 140 176 206 258 322
#     4  12  21  36  57  81 108 141 180 228 274 322
#     4   9  19  38  63  87 110 140 181 228 275 323
#
# _framework density 21.802073
#
# number of rings (size 3 to 8) (size 9 to 14) (size 15 to 20)
#    0.000    2.105    0.000    5.684    0.000    1.684 
#    0.000    5.789    0.000    5.053    0.000   17.684 
#    0.000    0.000    0.000    0.000    0.000    0.000 
#
# Total GULP energy -211877.795735 kJ/mol
# GULP energy per Si atom -5575.731467 kJ/mol
# Density = 2.175245 g / cm^3
# Si number density = 21.802073 Si / 1000 Ang^3
#
#
#
# Elastic Constant Matrix: (Units=GPa)
#
#
# Indices 1 2 3 4 5 6 
#
# 1 46.6223 -4.7408 32.8557 0.0000 0.0000 -8.2740
# 2 -4.7408 46.6223 32.8557 0.0000 0.0000 8.2740
# 3 32.8557 32.8557 196.2512 0.0000 0.0000 0.0000
# 4 0.0000 0.0000 0.0000 -18.7119 0.0000 0.0000
# 5 0.0000 0.0000 0.0000 0.0000 -18.7119 0.0000
# 6 -8.2740 8.2740 0.0000 0.0000 0.0000 20.2829
#
#
#
# Elastic Compliance Matrix: (Units=1/GPa)
#
#
# Indices 1 2 3 4 5 6 
#
# 1 0.027399 0.004984 -0.005421 0.000000 0.000000 0.009144
# 2 0.004984 0.027399 -0.005421 0.000000 0.000000 -0.009144
# 3 -0.005421 -0.005421 0.006911 0.000000 0.000000 0.000000
# 4 0.000000 0.000000 0.000000 -0.053442 0.000000 0.000000
# 5 0.000000 0.000000 0.000000 0.000000 -0.053442 0.000000
# 6 0.009144 -0.009144 0.000000 0.000000 0.000000 0.056763
#
#
# Mechanical properties :
#
#
# Convention : Reuss Voigt Hill
#
# Bulk Modulus (GPa) = 20.00355 45.71521 32.85938
# Shear Modulus (GPa) = 125.09610 11.80684 68.45147
#
# Velocity S-wave (km/s) = 7.58305 2.32964 5.60936
# Velocity P-wave (km/s) = 9.26635 5.31508 7.55365
#
# Compressibility (1/GPa) = 0.04999112
#
# Stress axis : x y z
#
# Youngs Moduli (GPa) = 36.49752 36.49752 144.70115
#
# Poissons Ratio (x) = -0.18190 0.78449
# Poissons Ratio (y) = -0.18190 0.78449
# Poissons Ratio (z) = 0.19787 0.19787
#
# Static dielectric constant tensor:
#      x y z
#    x 1.822190 0.000000 0.000000 
#    y 0.000000 1.822190 0.000000 
#    z 0.000000 0.000000 1.791680 
# 
# From -- ./inp_files/3139.got.cif
#   From: 2010.05.17/outbox.cif.g08.bks.cpg/sg83_2_cif.got.tgz:3139.got - 2010.06.03 18:55:12.
