data_PCOD9543218
_publ_section_title
;
Structure prediction by ZEFSAII (Michael W. Deem and Ramdas Pophale) SiO2 
 PCOD9543218
Probable space group: I -4 
;
_chemical_formula_sum "Si O2"
_cell_formula_units_Z 24
_cell_length_a 9.000000
_cell_length_b 9.000000
_cell_length_c 30.000000
_cell_angle_alpha 90.000000
_cell_angle_beta 90.000000
_cell_angle_gamma 90.000000
_cell_volume 2430.000000
_symmetry_space_group_name_H-M "I -4 "
_symmetry_group_IT_number 82
_symmetry_cell_setting 'tetragonal'
loop_
_space_group_symop_operation_xyz
x,y,z
y,-x,-z
-x,-y,z
-y,x,-z
1/2+x,1/2+y,1/2+z
1/2+y,1/2-x,1/2-z
1/2-x,1/2-y,1/2+z
1/2-y,1/2+x,1/2-z
loop_
_atom_site_type_symbol
_atom_site_label
_atom_site_fract_x
_atom_site_fract_y
_atom_site_fract_z
Si Si1 0.774639 0.614787 0.301872
Si Si2 0.609948 0.764750 0.116622
Si Si3 0.404695 0.292975 0.481992
Si Si4 0.898994 0.186947 0.477454
Si Si5 0.777316 0.614450 0.198062
Si Si6 0.222022 0.605709 0.618723
O O1 0.728121 0.639039 0.249836
O O2 0.803700 0.437741 0.307474
O O3 0.664533 0.681768 0.339264
O O4 0.938002 0.690259 0.306989
O O5 0.649135 0.673170 0.070826
O O6 0.666719 0.673318 0.159871
O O7 0.434572 0.804328 0.118302
O O8 0.687307 0.928321 0.119299
O O9 0.320006 0.423282 0.508348
O O10 0.348768 0.143811 0.505186
O O11 0.370808 0.297677 0.429569
O O12 0.074297 0.164417 0.484261
#
# Coordination Sequence:
#
# PCOD9543218 Si02
#       6
#     8   8   8   8   8   8
#     4   9  21  42  66  94 126 161 206 258 313 374
#     4  11  24  41  62  91 128 166 207 258 311 366
#     4  11  24  41  62  90 126 166 208 253 306 366
#     4  11  24  41  62  90 126 166 208 253 306 366
#     4   9  21  42  66  94 126 161 206 258 313 374
#     4  11  24  41  62  91 128 166 207 258 311 366
#
# _framework density 9.8765429999999999
#
# number of rings (size 3 to 8) (size 9 to 14) (size 15 to 20)
#    0.000    1.667    3.333    1.000    4.667    3.333 
#    0.000    5.000    0.000    0.000    0.000    0.000 
#    0.000    0.000    0.000    0.000    0.000    0.000 
#
# Total GULP energy -134023.870959 kJ/mol
# GULP energy per Si atom -5584.327957 kJ/mol
# Density = 0.985406 g / cm^3
# Si number density = 9.876543 Si / 1000 Ang^3
#
#
#
# Elastic Constant Matrix: (Units=GPa)
#
#
# Indices 1 2 3 4 5 6 
#
# 1 39.1469 23.4898 44.7912 0.0000 0.0000 -1.9453
# 2 23.4898 39.1468 44.7912 0.0000 0.0000 1.9453
# 3 44.7912 44.7912 190.8556 0.0000 0.0000 0.0000
# 4 0.0000 0.0000 0.0000 42.2205 0.0000 0.0000
# 5 0.0000 0.0000 0.0000 0.0000 42.2205 0.0000
# 6 -1.9453 1.9453 0.0000 0.0000 0.0000 37.5601
#
#
#
# Elastic Compliance Matrix: (Units=1/GPa)
#
#
# Indices 1 2 3 4 5 6 
#
# 1 0.044366 -0.020335 -0.005640 0.000000 0.000000 0.003351
# 2 -0.020335 0.044366 -0.005640 0.000000 0.000000 -0.003351
# 3 -0.005640 -0.005640 0.007887 0.000000 0.000000 0.000000
# 4 0.000000 0.000000 0.000000 0.023685 0.000000 0.000000
# 5 0.000000 0.000000 0.000000 0.000000 0.023685 0.000000
# 6 0.003351 -0.003351 0.000000 0.000000 0.000000 0.026971
#
#
# Mechanical properties :
#
#
# Convention : Reuss Voigt Hill
#
# Bulk Modulus (GPa) = 29.94930 55.03264 42.49097
# Shear Modulus (GPa) = 20.38149 34.80535 27.59342
#
# Velocity S-wave (km/s) = 3.21567 4.20220 3.74159
# Velocity P-wave (km/s) = 5.38350 7.17394 6.34222
#
# Compressibility (1/GPa) = 0.03338976
#
# Stress axis : x y z
#
# Youngs Moduli (GPa) = 22.53960 22.53958 126.79546
#
# Poissons Ratio (x) = 0.45835 0.71510
# Poissons Ratio (y) = 0.45835 0.71510
# Poissons Ratio (z) = 0.12712 0.12712
#
# Static dielectric constant tensor:
#      x y z
#    x 1.705830 0.000000 0.000000 
#    y 0.000000 1.705830 0.000000 
#    z 0.000000 0.000000 1.659240 
# 
# From -- ./inp_files/4041.got.cif
#   From: 2010.05.17/outbox.ucp.g08.bks.cvg/sg82_3_cif.got.tgz:4041.got - 2010.06.11 10:34:38.
