data_PCOD9543381
_publ_section_title
;
Structure prediction by ZEFSAII (Michael W. Deem and Ramdas Pophale) SiO2 
 PCOD9543381
Probable space group: P 4/M
;
_chemical_formula_sum "Si O2"
_cell_formula_units_Z 40
_cell_length_a 16.882109
_cell_length_b 16.882109
_cell_length_c 8.926202
_cell_angle_alpha 90.000000
_cell_angle_beta 90.000000
_cell_angle_gamma 90.000000
_cell_volume 2544.017595
_symmetry_space_group_name_H-M "P 4/M"
_symmetry_group_IT_number 83
_symmetry_cell_setting 'tetragonal'
loop_
_space_group_symop_operation_xyz
x,y,z
-y,x,z
-x,-y,z
y,-x,z
-x,-y,-z
y,-x,-z
x,y,-z
-y,x,-z
loop_
_atom_site_type_symbol
_atom_site_label
_atom_site_fract_x
_atom_site_fract_y
_atom_site_fract_z
Si Si1 0.679625 0.925135 0.319865
Si Si2 0.095546 0.503230 0.330168
Si Si3 0.805706 0.196368 0.172586
Si Si4 0.110104 0.926539 0.663841
Si Si5 0.339526 0.900252 0.820778
O O1 0.683075 0.932646 0.500000
O O2 0.592955 0.889742 0.278441
O O3 0.744749 0.862686 0.263342
O O4 0.684811 0.014541 0.252664
O O5 0.125772 0.492599 0.500000
O O6 0.118230 0.429339 0.228284
O O7 0.000000 0.500000 0.338029
O O8 0.845838 0.110643 0.197344
O O9 0.717174 0.173330 0.224140
O O10 0.804914 0.220684 0.000000
O O11 0.144807 0.903767 0.500000
O O12 0.020578 0.894908 0.667441
O O13 0.333847 0.909144 0.000000
#
# Coordination Sequence:
#
# PCOD9543381 Si02
#       5
#     8   8   8   8   8
#     4  10  20  33  49  67  88 118 154 189 225 264
#     4   8  16  31  49  68  87 111 148 187 222 266
#     4  11  22  31  41  63  91 116 146 182 221 265
#     4   9  18  31  44  57  76 109 152 189 220 255
#     4  10  20  32  47  68  93 120 149 184 227 270
#
# _framework density 15.723160999999999
#
# number of rings (size 3 to 8) (size 9 to 14) (size 15 to 20)
#    0.000    2.400    0.000    4.800    0.000   11.600 
#    0.000    1.000    0.000    0.000    0.000    0.000 
#    0.000    0.800    0.000    8.800    0.000    6.400 
#
# Total GULP energy -222705.510053 kJ/mol
# GULP energy per Si atom -5567.637751 kJ/mol
# Density = 1.568737 g / cm^3
# Si number density = 15.723161 Si / 1000 Ang^3
#
#
#
# Elastic Constant Matrix: (Units=GPa)
#
#
# Indices 1 2 3 4 5 6 
#
# 1 54.3162 39.2567 26.3683 0.0000 0.0000 0.7867
# 2 39.2567 54.3162 26.3683 0.0000 0.0000 -0.7867
# 3 26.3683 26.3683 40.4841 0.0000 0.0000 0.0000
# 4 0.0000 0.0000 0.0000 17.8395 0.0000 0.0000
# 5 0.0000 0.0000 0.0000 0.0000 17.8395 0.0000
# 6 0.7867 -0.7867 0.0000 0.0000 0.0000 15.1063
#
#
#
# Elastic Compliance Matrix: (Units=1/GPa)
#
#
# Indices 1 2 3 4 5 6 
#
# 1 0.041826 -0.024941 -0.010998 0.000000 0.000000 -0.003477
# 2 -0.024941 0.041826 -0.010998 0.000000 0.000000 0.003477
# 3 -0.010998 -0.010998 0.039027 0.000000 0.000000 0.000000
# 4 0.000000 0.000000 0.000000 0.056055 0.000000 0.000000
# 5 0.000000 0.000000 0.000000 0.000000 0.056055 0.000000
# 6 -0.003477 0.003477 0.000000 0.000000 0.000000 0.066559
#
#
# Mechanical properties :
#
#
# Convention : Reuss Voigt Hill
#
# Bulk Modulus (GPa) = 34.71421 37.01142 35.86282
# Shear Modulus (GPa) = 12.35109 13.96530 13.15820
#
# Velocity S-wave (km/s) = 2.80578 2.98350 2.89600
# Velocity P-wave (km/s) = 5.71164 5.95474 5.83446
#
# Compressibility (1/GPa) = 0.02880664
#
# Stress axis : x y z
#
# Youngs Moduli (GPa) = 23.90873 23.90873 25.62325
#
# Poissons Ratio (x) = 0.59630 0.28179
# Poissons Ratio (y) = 0.59630 0.28179
# Poissons Ratio (z) = 0.26294 0.26294
#
# Static dielectric constant tensor:
#      x y z
#    x 1.550420 0.000000 0.000000 
#    y 0.000000 1.550420 0.000000 
#    z 0.000000 0.000000 1.556260 
# 
# From -- ./inp_files/803.got.cif
#   From: 2010.05.17/outbox.cif.g08.bks.cpg/sg83_1_cif.got.tgz:803.got - 2010.06.03 18:55:12.
