data_PCOD9543041
_publ_section_title
;
Structure prediction by ZEFSAII (Michael W. Deem and Ramdas Pophale) SiO2 
 PCOD9543041
Probable space group: I -4 
;
_chemical_formula_sum "Si O2"
_cell_formula_units_Z 34
_cell_length_a 12.024265
_cell_length_b 12.024265
_cell_length_c 12.554811
_cell_angle_alpha 90.000000
_cell_angle_beta 90.000000
_cell_angle_gamma 90.000000
_cell_volume 1815.211596
_symmetry_space_group_name_H-M "I -4 "
_symmetry_group_IT_number 82
_symmetry_cell_setting 'tetragonal'
loop_
_space_group_symop_operation_xyz
x,y,z
y,-x,-z
-x,-y,z
-y,x,-z
1/2+x,1/2+y,1/2+z
1/2+y,1/2-x,1/2-z
1/2-x,1/2-y,1/2+z
1/2-y,1/2+x,1/2-z
loop_
_atom_site_type_symbol
_atom_site_label
_atom_site_fract_x
_atom_site_fract_y
_atom_site_fract_z
Si Si1 0.341151 0.629931 0.639729
Si Si2 0.954751 0.129039 0.363668
Si Si3 0.000000 0.000000 0.000000
Si Si4 0.832231 0.188267 0.582968
Si Si5 0.680075 0.979602 0.249284
O O1 0.383042 0.653235 0.759385
O O2 0.446961 0.594399 0.572742
O O3 0.271151 0.728265 0.586937
O O4 0.260056 0.523281 0.656264
O O5 0.883326 0.158915 0.467921
O O6 0.069569 0.197007 0.365682
O O7 0.000000 0.000000 0.365006
O O8 0.925692 0.248252 0.656288
O O9 0.588605 0.889020 0.214648
#
# Coordination Sequence:
#
# PCOD9543041 Si02
#       5
#     8   8   2   8   8
#     4  11  24  37  63  89 124 168 207 270 328 391
#     4  12  20  40  62  91 126 163 215 268 310 382
#     4  12  24  44  56  86 128 160 208 260 344 394
#     4  11  21  36  64  91 118 170 223 262 316 387
#     4   9  18  34  56  88 125 161 210 269 315 373
#
# _framework density 18.730596999999999
#
# number of rings (size 3 to 8) (size 9 to 14) (size 15 to 20)
#    0.000    1.176    5.882    0.000    0.000    7.529 
#    0.000    0.000    0.000    3.529    0.000    0.000 
#    0.000    0.000    0.000    0.000    0.000    0.000 
#
# Total GULP energy -94875.865615 kJ/mol
# GULP energy per Si atom -5580.933271 kJ/mol
# Density = 1.868797 g / cm^3
# Si number density = 18.730597 Si / 1000 Ang^3
#
#
#
# Elastic Constant Matrix: (Units=GPa)
#
#
# Indices 1 2 3 4 5 6 
#
# 1 77.4582 24.9466 34.4102 0.0000 0.0000 -1.8189
# 2 24.9466 77.4582 34.4102 0.0000 0.0000 1.8189
# 3 34.4102 34.4102 69.4326 0.0000 0.0000 0.0000
# 4 0.0000 0.0000 0.0000 26.2849 0.0000 0.0000
# 5 0.0000 0.0000 0.0000 0.0000 26.2849 0.0000
# 6 -1.8189 1.8189 0.0000 0.0000 0.0000 33.2425
#
#
#
# Elastic Compliance Matrix: (Units=1/GPa)
#
#
# Indices 1 2 3 4 5 6 
#
# 1 0.016879 -0.002237 -0.007256 0.000000 0.000000 0.001046
# 2 -0.002237 0.016879 -0.007256 0.000000 0.000000 -0.001046
# 3 -0.007256 -0.007256 0.021595 0.000000 0.000000 0.000000
# 4 0.000000 0.000000 0.000000 0.038045 0.000000 0.000000
# 5 0.000000 0.000000 0.000000 0.000000 0.038045 0.000000
# 6 0.001046 -0.001046 0.000000 0.000000 0.000000 0.030196
#
#
# Mechanical properties :
#
#
# Convention : Reuss Voigt Hill
#
# Bulk Modulus (GPa) = 45.76033 45.76476 45.76255
# Shear Modulus (GPa) = 24.70090 25.86794 25.28442
#
# Velocity S-wave (km/s) = 3.63539 3.72028 3.67808
# Velocity P-wave (km/s) = 6.48886 6.55288 6.52095
#
# Compressibility (1/GPa) = 0.02185299
#
# Stress axis : x y z
#
# Youngs Moduli (GPa) = 59.24596 59.24596 46.30754
#
# Poissons Ratio (x) = 0.13254 0.33602
# Poissons Ratio (y) = 0.13254 0.33602
# Poissons Ratio (z) = 0.42991 0.42991
#
# Static dielectric constant tensor:
#      x y z
#    x 1.678850 0.000000 0.000000 
#    y 0.000000 1.678850 0.000000 
#    z 0.000000 0.000000 1.635790 
# 
# From -- ./inp_files/1532.got.cif
#   From: 2010.05.17/outbox.cif.g08.bks.cpg/sg82_1_cif.got.tgz:1532.got - 2010.06.03 18:52:26.
