data_PCOD9543814
_publ_section_title
;
Structure prediction by ZEFSAII (Michael W. Deem and Ramdas Pophale) SiO2 
 PCOD9543814
Probable space group: P 4/M
;
_chemical_formula_sum "Si O2"
_cell_formula_units_Z 37
_cell_length_a 8.392530
_cell_length_b 8.392530
_cell_length_c 23.288590
_cell_angle_alpha 90.000000
_cell_angle_beta 90.000000
_cell_angle_gamma 90.000000
_cell_volume 1640.321585
_symmetry_space_group_name_H-M "P 4/M"
_symmetry_group_IT_number 83
_symmetry_cell_setting 'tetragonal'
loop_
_space_group_symop_operation_xyz
x,y,z
-y,x,z
-x,-y,z
y,-x,z
-x,-y,-z
y,-x,-z
x,y,-z
-y,x,-z
loop_
_atom_site_type_symbol
_atom_site_label
_atom_site_fract_x
_atom_site_fract_y
_atom_site_fract_z
Si Si1 0.649898 0.116306 0.000000
Si Si2 0.914097 0.747571 0.227423
Si Si3 0.386434 0.737533 0.123797
Si Si4 0.000000 0.000000 0.000000
Si Si5 0.088478 0.253813 0.565613
Si Si6 0.243359 0.422272 0.330785
O O1 0.640534 0.219345 0.057745
O O2 0.805460 0.006854 0.000000
O O3 0.500000 0.000000 0.000000
O O4 0.875713 0.678518 0.164777
O O5 0.859435 0.623437 0.275383
O O6 0.094044 0.805788 0.234238
O O7 0.295565 0.571999 0.136047
O O8 0.108305 0.310087 0.500000
O O9 0.144973 0.379111 0.612374
O O10 0.906852 0.194560 0.572924
O O11 0.399342 0.308814 0.329993
#
# Coordination Sequence:
#
# PCOD9543814 Si02
#       6
#     4   8   8   1   8   8
#     4  12  28  47  74 107 142 185 225 288 346 398
#     4  11  26  43  66  96 128 168 221 278 336 405
#     4  11  25  45  69 100 137 176 222 274 338 409
#     4  12  28  44  76 104 140 180 244 276 326 448
#     4   9  19  37  62  91 124 163 212 269 326 389
#     4  11  24  41  60  88 128 170 215 269 330 397
#
# _framework density 22.556553000000001
#
# number of rings (size 3 to 8) (size 9 to 14) (size 15 to 20)
#    0.000    1.297    0.000    5.189    6.054   10.378 
#    0.000    3.243    0.000    0.000    0.000    0.000 
#    0.000    0.000    0.000    0.000    0.000    0.000 
#
# Total GULP energy -207186.430562 kJ/mol
# GULP energy per Si atom -5599.633258 kJ/mol
# Density = 2.250521 g / cm^3
# Si number density = 22.556553 Si / 1000 Ang^3
#
#
#
# Elastic Constant Matrix: (Units=GPa)
#
#
# Indices 1 2 3 4 5 6 
#
# 1 80.5968 40.7962 25.7221 0.0000 0.0000 -0.6514
# 2 40.7962 80.5968 25.7221 0.0000 0.0000 0.6514
# 3 25.7221 25.7221 100.3175 0.0000 0.0000 0.0000
# 4 0.0000 0.0000 0.0000 28.9592 0.0000 0.0000
# 5 0.0000 0.0000 0.0000 0.0000 28.9592 0.0000
# 6 -0.6514 0.6514 0.0000 0.0000 0.0000 40.9990
#
#
#
# Elastic Compliance Matrix: (Units=1/GPa)
#
#
# Indices 1 2 3 4 5 6 
#
# 1 0.017190 -0.007948 -0.002370 0.000000 0.000000 0.000399
# 2 -0.007948 0.017190 -0.002370 0.000000 0.000000 -0.000399
# 3 -0.002370 -0.002370 0.011184 0.000000 0.000000 0.000000
# 4 0.000000 0.000000 0.000000 0.034531 0.000000 0.000000
# 5 0.000000 0.000000 0.000000 0.000000 0.034531 0.000000
# 6 0.000399 -0.000399 0.000000 0.000000 0.000000 0.024404
#
#
# Mechanical properties :
#
#
# Convention : Reuss Voigt Hill
#
# Bulk Modulus (GPa) = 49.53274 49.55464 49.54369
# Shear Modulus (GPa) = 29.21675 31.06820 30.14248
#
# Velocity S-wave (km/s) = 3.60289 3.71529 3.65952
# Velocity P-wave (km/s) = 6.27015 6.35777 6.31411
#
# Compressibility (1/GPa) = 0.02018867
#
# Stress axis : x y z
#
# Youngs Moduli (GPa) = 58.17294 58.17294 89.41696
#
# Poissons Ratio (x) = 0.46237 0.21189
# Poissons Ratio (y) = 0.46237 0.21189
# Poissons Ratio (z) = 0.13785 0.13785
#
# Static dielectric constant tensor:
#      x y z
#    x 1.866140 0.000000 0.000000 
#    y 0.000000 1.866140 0.000000 
#    z 0.000000 0.000000 1.786560 
# 
# From -- ./inp_files/3140.got.cif
#   From: 2010.05.17/outbox.cif.g08.bks.cpg/sg83_2_cif.got.tgz:3140.got - 2010.06.03 18:55:12.
