data_PCOD9543039
_publ_section_title
;
Structure prediction by ZEFSAII (Michael W. Deem and Ramdas Pophale) SiO2 
 PCOD9543039
Probable space group: I -4 
;
_chemical_formula_sum "Si O2"
_cell_formula_units_Z 34
_cell_length_a 9.333414
_cell_length_b 9.333414
_cell_length_c 18.520397
_cell_angle_alpha 90.000000
_cell_angle_beta 90.000000
_cell_angle_gamma 90.000000
_cell_volume 1613.360249
_symmetry_space_group_name_H-M "I -4 "
_symmetry_group_IT_number 82
_symmetry_cell_setting 'tetragonal'
loop_
_space_group_symop_operation_xyz
x,y,z
y,-x,-z
-x,-y,z
-y,x,-z
1/2+x,1/2+y,1/2+z
1/2+y,1/2-x,1/2-z
1/2-x,1/2-y,1/2+z
1/2-y,1/2+x,1/2-z
loop_
_atom_site_type_symbol
_atom_site_label
_atom_site_fract_x
_atom_site_fract_y
_atom_site_fract_z
Si Si1 0.263567 0.307350 0.430178
Si Si2 0.088854 0.348873 0.657778
Si Si3 0.035025 0.167860 0.800436
Si Si4 0.000000 0.000000 0.000000
Si Si5 0.831784 0.511482 0.993724
O O1 0.326269 0.291997 0.349657
O O2 0.360704 0.440400 0.457622
O O3 0.091403 0.307878 0.437976
O O4 0.297820 0.176894 0.484709
O O5 0.053470 0.243666 0.723239
O O6 0.251982 0.402671 0.660602
O O7 0.054610 0.274747 0.581741
O O8 0.000000 0.500000 0.665807
O O9 0.000000 0.000000 0.795537
O O10 0.000000 0.500000 0.984337
#
# Coordination Sequence:
#
# PCOD9543039 Si02
#       5
#     8   8   8   2   8
#     4  12  23  40  66 102 131 174 228 281 329 404
#     4  11  20  45  70  91 129 183 222 263 336 406
#     4  12  22  38  75 104 125 174 234 274 326 413
#     4  12  20  36  68  92 124 172 228 254 332 408
#     4  11  23  41  68  98 137 177 222 281 338 399
#
# _framework density 21.074028999999999
#
# number of rings (size 3 to 8) (size 9 to 14) (size 15 to 20)
#    0.000    0.471   10.588    0.000    0.000    0.471 
#    8.471    0.000    0.000    0.000    0.000    0.000 
#    0.000    0.000    0.000    0.000    0.000    0.000 
#
# Total GULP energy -94676.739524 kJ/mol
# GULP energy per Si atom -5569.219972 kJ/mol
# Density = 2.102606 g / cm^3
# Si number density = 21.074029 Si / 1000 Ang^3
#
#
#
# Elastic Constant Matrix: (Units=GPa)
#
#
# Indices 1 2 3 4 5 6 
#
# 1 105.6610 6.9612 20.8772 0.0000 0.0000 -3.6919
# 2 6.9612 105.6610 20.8772 0.0000 0.0000 3.6919
# 3 20.8772 20.8772 83.0860 0.0000 0.0000 0.0000
# 4 0.0000 0.0000 0.0000 47.5681 0.0000 0.0000
# 5 0.0000 0.0000 0.0000 0.0000 47.5681 0.0000
# 6 -3.6919 3.6919 0.0000 0.0000 0.0000 15.8908
#
#
#
# Elastic Compliance Matrix: (Units=1/GPa)
#
#
# Indices 1 2 3 4 5 6 
#
# 1 0.010051 -0.000260 -0.002460 0.000000 0.000000 0.002396
# 2 -0.000260 0.010051 -0.002460 0.000000 0.000000 -0.002396
# 3 -0.002460 -0.002460 0.013272 0.000000 0.000000 0.000000
# 4 0.000000 0.000000 0.000000 0.021023 0.000000 0.000000
# 5 0.000000 0.000000 0.000000 0.000000 0.021023 0.000000
# 6 0.002396 -0.002396 0.000000 0.000000 0.000000 0.064043
#
#
# Mechanical properties :
#
#
# Convention : Reuss Voigt Hill
#
# Bulk Modulus (GPa) = 43.45238 43.53770 43.49504
# Shear Modulus (GPa) = 31.74721 38.58487 35.16604
#
# Velocity S-wave (km/s) = 3.88553 4.28357 4.08939
# Velocity P-wave (km/s) = 6.38697 6.72083 6.55603
#
# Compressibility (1/GPa) = 0.02301370
#
# Stress axis : x y z
#
# Youngs Moduli (GPa) = 99.49088 99.49088 75.34578
#
# Poissons Ratio (x) = 0.02585 0.18537
# Poissons Ratio (y) = 0.02585 0.18537
# Poissons Ratio (z) = 0.24478 0.24478
#
# Static dielectric constant tensor:
#      x y z
#    x 1.722300 0.000000 0.000000 
#    y 0.000000 1.722300 0.000000 
#    z 0.000000 0.000000 1.847870 
# 
# From -- ./inp_files/2965.got.cif
#   From: 2010.05.17/outbox.cif.g08.bks.cpg/sg82_2_cif.got.tgz:2965.got - 2010.06.03 18:52:26.
