data_PCOD9543054
_publ_section_title
;
Structure prediction by ZEFSAII (Michael W. Deem and Ramdas Pophale) SiO2 
 PCOD9543054
Probable space group: I -4 
;
_chemical_formula_sum "Si O2"
_cell_formula_units_Z 32
_cell_length_a 9.351314
_cell_length_b 9.351314
_cell_length_c 18.155964
_cell_angle_alpha 90.000000
_cell_angle_beta 90.000000
_cell_angle_gamma 90.000000
_cell_volume 1587.685919
_symmetry_space_group_name_H-M "I -4 "
_symmetry_group_IT_number 82
_symmetry_cell_setting 'tetragonal'
loop_
_space_group_symop_operation_xyz
x,y,z
y,-x,-z
-x,-y,z
-y,x,-z
1/2+x,1/2+y,1/2+z
1/2+y,1/2-x,1/2-z
1/2-x,1/2-y,1/2+z
1/2-y,1/2+x,1/2-z
loop_
_atom_site_type_symbol
_atom_site_label
_atom_site_fract_x
_atom_site_fract_y
_atom_site_fract_z
Si Si1 0.345977 0.453425 0.190560
Si Si2 0.096616 0.644033 0.170884
Si Si3 0.692342 0.406278 0.962956
Si Si4 0.282941 0.432409 0.480058
O O1 0.500000 0.500000 0.220315
O O2 0.256769 0.587280 0.157975
O O3 0.242299 0.402305 0.256277
O O4 0.377135 0.348830 0.122051
O O5 0.038880 0.735114 0.103119
O O6 0.000000 0.500000 0.174129
O O7 0.570125 0.325547 0.011503
O O8 0.846792 0.344019 0.980935
O O9 0.330274 0.578510 0.518115
#
# Coordination Sequence:
#
# PCOD9543054 Si02
#       4
#     8   8   8   8
#     4  12  23  39  69  96 126 167 223 272 316 397
#     4  12  24  44  67  96 127 181 221 265 332 396
#     4  11  21  42  66  95 127 173 223 262 328 392
#     4  11  26  40  62  99 135 167 217 276 326 383
#
# _framework density 20.155118000000002
#
# number of rings (size 3 to 8) (size 9 to 14) (size 15 to 20)
#    0.000    0.500    7.500    1.500    3.500    0.000 
#    0.000    0.000    0.000    3.750    0.000    0.000 
#    0.000    0.000    0.000    0.000    0.000    0.000 
#
# Total GULP energy -89362.344066 kJ/mol
# GULP energy per Si atom -5585.146504 kJ/mol
# Density = 2.010924 g / cm^3
# Si number density = 20.155118 Si / 1000 Ang^3
#
#
#
# Elastic Constant Matrix: (Units=GPa)
#
#
# Indices 1 2 3 4 5 6 
#
# 1 62.9880 12.8297 21.9002 0.0000 0.0000 -13.4849
# 2 12.8297 62.9880 21.9002 0.0000 0.0000 13.4849
# 3 21.9002 21.9002 136.1498 0.0000 0.0000 0.0000
# 4 0.0000 0.0000 0.0000 34.5790 0.0000 0.0000
# 5 0.0000 0.0000 0.0000 0.0000 34.5790 0.0000
# 6 -13.4849 13.4849 0.0000 0.0000 0.0000 35.4200
#
#
#
# Elastic Compliance Matrix: (Units=1/GPa)
#
#
# Indices 1 2 3 4 5 6 
#
# 1 0.019805 -0.005264 -0.002339 0.000000 0.000000 0.009544
# 2 -0.005264 0.019805 -0.002339 0.000000 0.000000 -0.009544
# 3 -0.002339 -0.002339 0.008097 0.000000 0.000000 0.000000
# 4 0.000000 0.000000 0.000000 0.028919 0.000000 0.000000
# 5 0.000000 0.000000 0.000000 0.000000 0.028919 0.000000
# 6 0.009544 -0.009544 0.000000 0.000000 0.000000 0.035500
#
#
# Mechanical properties :
#
#
# Convention : Reuss Voigt Hill
#
# Bulk Modulus (GPa) = 35.94140 41.70957 38.82549
# Shear Modulus (GPa) = 29.37674 34.61533 31.99604
#
# Velocity S-wave (km/s) = 3.82191 4.14870 3.98865
# Velocity P-wave (km/s) = 6.11122 6.60971 6.36535
#
# Compressibility (1/GPa) = 0.02782307
#
# Stress axis : x y z
#
# Youngs Moduli (GPa) = 50.49317 50.49317 123.49788
#
# Poissons Ratio (x) = 0.26579 0.28885
# Poissons Ratio (y) = 0.26579 0.28885
# Poissons Ratio (z) = 0.11810 0.11810
#
# Static dielectric constant tensor:
#      x y z
#    x 1.724540 0.000000 0.000000 
#    y 0.000000 1.724540 0.000000 
#    z 0.000000 0.000000 1.746690 
# 
# From -- ./inp_files/2878.got.cif
#   From: 2010.05.17/outbox.cif.g08.bks.cpg/sg82_2_cif.got.tgz:2878.got - 2010.06.03 18:52:26.
