data_PCOD9543014
_publ_section_title
;
Structure prediction by ZEFSAII (Michael W. Deem and Ramdas Pophale) SiO2 
 PCOD9543014
Probable space group: I -4 
;
_chemical_formula_sum "Si O2"
_cell_formula_units_Z 56
_cell_length_a 14.262634
_cell_length_b 14.262634
_cell_length_c 14.480019
_cell_angle_alpha 90.000000
_cell_angle_beta 90.000000
_cell_angle_gamma 90.000000
_cell_volume 2945.564975
_symmetry_space_group_name_H-M "I -4 "
_symmetry_group_IT_number 82
_symmetry_cell_setting 'tetragonal'
loop_
_space_group_symop_operation_xyz
x,y,z
y,-x,-z
-x,-y,z
-y,x,-z
1/2+x,1/2+y,1/2+z
1/2+y,1/2-x,1/2-z
1/2-x,1/2-y,1/2+z
1/2-y,1/2+x,1/2-z
loop_
_atom_site_type_symbol
_atom_site_label
_atom_site_fract_x
_atom_site_fract_y
_atom_site_fract_z
Si Si1 0.998166 0.300357 0.248468
Si Si2 0.206088 0.183183 0.660504
Si Si3 0.400000 0.403093 0.453732
Si Si4 0.321573 0.679499 0.226418
Si Si5 0.283833 0.224822 0.968898
Si Si6 0.524047 0.606260 0.244456
Si Si7 0.930720 0.420819 0.090859
O O1 0.899764 0.264090 0.289052
O O2 0.987350 0.340012 0.145439
O O3 0.078099 0.222063 0.248089
O O4 0.031194 0.377757 0.322160
O O5 0.241014 0.277517 0.709392
O O6 0.219857 0.203021 0.553205
O O7 0.100451 0.154031 0.679957
O O8 0.376431 0.509779 0.483697
O O9 0.311858 0.335196 0.466038
O O10 0.433750 0.399797 0.347759
O O11 0.284193 0.701795 0.124240
O O12 0.431023 0.667880 0.240179
O O13 0.369445 0.148323 0.970787
O O14 0.500000 0.500000 0.215086
O O15 0.000000 0.500000 0.049963
#
# Coordination Sequence:
#
# PCOD9543014 Si02
#       7
#     8   8   8   8   8   8   8
#     4  11  18  35  66  97 125 168 212 287 346 380
#     4  12  24  42  65  95 141 177 226 278 341 412
#     4  11  22  40  69 105 132 161 233 290 345 389
#     4  11  24  42  66  96 142 177 225 281 339 412
#     4  11  26  41  62 101 138 182 220 279 350 407
#     4  12  23  42  70  98 133 182 222 280 341 403
#     4  11  19  36  63  98 132 163 222 280 348 400
#
# _framework density 19.011631999999999
#
# number of rings (size 3 to 8) (size 9 to 14) (size 15 to 20)
#    0.000    0.714    8.571    0.857    0.000    3.429 
#    0.000    0.000    0.000    0.000    0.000    0.000 
#    0.000    0.000    0.000    0.000    0.000    0.000 
#
# Total GULP energy -156440.793435 kJ/mol
# GULP energy per Si atom -5587.171194 kJ/mol
# Density = 1.896836 g / cm^3
# Si number density = 19.011632 Si / 1000 Ang^3
#
#
#
# Elastic Constant Matrix: (Units=GPa)
#
#
# Indices 1 2 3 4 5 6 
#
# 1 83.1843 34.5151 15.9718 0.0000 0.0000 7.0932
# 2 34.5151 83.1843 15.9718 0.0000 0.0000 -7.0932
# 3 15.9718 15.9718 61.4096 0.0000 0.0000 0.0000
# 4 0.0000 0.0000 0.0000 15.9672 0.0000 0.0000
# 5 0.0000 0.0000 0.0000 0.0000 15.9672 0.0000
# 6 7.0932 -7.0932 0.0000 0.0000 0.0000 7.3256
#
#
#
# Elastic Compliance Matrix: (Units=1/GPa)
#
#
# Indices 1 2 3 4 5 6 
#
# 1 0.018884 -0.009742 -0.002378 0.000000 0.000000 -0.027718
# 2 -0.009742 0.018884 -0.002378 0.000000 0.000000 0.027718
# 3 -0.002378 -0.002378 0.017521 0.000000 0.000000 0.000000
# 4 0.000000 0.000000 0.000000 0.062629 0.000000 0.000000
# 5 0.000000 0.000000 0.000000 0.000000 0.062629 0.000000
# 6 -0.027718 0.027718 0.000000 0.000000 0.000000 0.190183
#
#
# Mechanical properties :
#
#
# Convention : Reuss Voigt Hill
#
# Bulk Modulus (GPa) = 38.03218 40.07729 39.05473
# Shear Modulus (GPa) = 12.24024 18.60662 15.42343
#
# Velocity S-wave (km/s) = 2.54013 3.13181 2.85136
# Velocity P-wave (km/s) = 5.35268 5.84840 5.60602
#
# Compressibility (1/GPa) = 0.02629353
#
# Stress axis : x y z
#
# Youngs Moduli (GPa) = 52.95530 52.95529 57.07485
#
# Poissons Ratio (x) = 0.51591 0.13570
# Poissons Ratio (y) = 0.51591 0.13570
# Poissons Ratio (z) = 0.12591 0.12591
#
# Static dielectric constant tensor:
#      x y z
#    x 1.685300 0.000000 0.000000 
#    y 0.000000 1.685300 0.000000 
#    z 0.000000 0.000000 1.646360 
# 
# From -- ./inp_files/2314.got.cif
#   From: 2010.05.17/outbox.cif.g08.bks.cpg/sg82_2_cif.got.tgz:2314.got - 2010.06.03 18:52:26.
