data_PCOD9543067
_publ_section_title
;
Structure prediction by ZEFSAII (Michael W. Deem and Ramdas Pophale) SiO2 
 PCOD9543067
Probable space group: I -4 
;
_chemical_formula_sum "Si O2"
_cell_formula_units_Z 40
_cell_length_a 8.329806
_cell_length_b 8.329806
_cell_length_c 25.083307
_cell_angle_alpha 90.000000
_cell_angle_beta 90.000000
_cell_angle_gamma 90.000000
_cell_volume 1740.422012
_symmetry_space_group_name_H-M "I -4 "
_symmetry_group_IT_number 82
_symmetry_cell_setting 'tetragonal'
loop_
_space_group_symop_operation_xyz
x,y,z
y,-x,-z
-x,-y,z
-y,x,-z
1/2+x,1/2+y,1/2+z
1/2+y,1/2-x,1/2-z
1/2-x,1/2-y,1/2+z
1/2-y,1/2+x,1/2-z
loop_
_atom_site_type_symbol
_atom_site_label
_atom_site_fract_x
_atom_site_fract_y
_atom_site_fract_z
Si Si1 0.147684 0.694033 0.823795
Si Si2 0.717578 0.352840 0.422448
Si Si3 0.200078 0.798678 0.128783
Si Si4 0.395547 0.660112 0.214259
Si Si5 0.165663 0.578755 0.532372
O O1 0.252448 0.722978 0.876878
O O2 0.195650 0.520206 0.801029
O O3 0.969847 0.742443 0.845667
O O4 0.171676 0.808986 0.773187
O O5 0.698491 0.515721 0.388632
O O6 0.839431 0.375799 0.470773
O O7 0.556441 0.300536 0.454840
O O8 0.253279 0.668357 0.171591
O O9 0.294071 0.779489 0.072990
O O10 0.500000 0.500000 0.213075
O O11 0.000000 0.500000 0.548968
#
# Coordination Sequence:
#
# PCOD9543067 Si02
#       5
#     8   8   8   8   8
#     4  11  23  41  68  96 132 180 230 281 346 417
#     4  11  23  42  72 102 135 174 232 289 344 420
#     4  11  22  40  73  99 129 178 231 284 339 413
#     4  12  25  43  66 100 141 179 229 291 348 415
#     4  11  22  40  70 104 133 175 225 282 347 420
#
# _framework density 22.98293
#
# number of rings (size 3 to 8) (size 9 to 14) (size 15 to 20)
#    0.000    0.800    4.000    6.600    0.000    1.600 
#    0.000    0.000    0.000    0.000    0.000    0.000 
#    0.000    0.000    0.000    0.000    0.000    0.000 
#
# Total GULP energy -111686.807329 kJ/mol
# GULP energy per Si atom -5584.340366 kJ/mol
# Density = 2.293062 g / cm^3
# Si number density = 22.982930 Si / 1000 Ang^3
#
#
#
# Elastic Constant Matrix: (Units=GPa)
#
#
# Indices 1 2 3 4 5 6 
#
# 1 51.4788 -6.3294 23.4784 0.0000 0.0000 9.2952
# 2 -6.3294 51.4788 23.4784 0.0000 0.0000 -9.2952
# 3 23.4784 23.4784 161.7217 0.0000 0.0000 0.0000
# 4 0.0000 0.0000 0.0000 31.2945 0.0000 0.0000
# 5 0.0000 0.0000 0.0000 0.0000 31.2945 0.0000
# 6 9.2952 -9.2952 0.0000 0.0000 0.0000 18.8178
#
#
#
# Elastic Compliance Matrix: (Units=1/GPa)
#
#
# Indices 1 2 3 4 5 6 
#
# 1 0.023327 0.002761 -0.003787 0.000000 0.000000 -0.010158
# 2 0.002761 0.023327 -0.003787 0.000000 0.000000 0.010158
# 3 -0.003787 -0.003787 0.007283 0.000000 0.000000 0.000000
# 4 0.000000 0.000000 0.000000 0.031954 0.000000 0.000000
# 5 0.000000 0.000000 0.000000 0.000000 0.031954 0.000000
# 6 -0.010158 0.010158 0.000000 0.000000 0.000000 0.063177
#
#
# Mechanical properties :
#
#
# Convention : Reuss Voigt Hill
#
# Bulk Modulus (GPa) = 22.56874 38.43712 30.50293
# Shear Modulus (GPa) = 24.34052 31.21815 27.77934
#
# Velocity S-wave (km/s) = 3.25787 3.68954 3.48040
# Velocity P-wave (km/s) = 4.89823 5.90853 5.42694
#
# Compressibility (1/GPa) = 0.04430907
#
# Stress axis : x y z
#
# Youngs Moduli (GPa) = 42.86960 42.86961 137.30333
#
# Poissons Ratio (x) = -0.11837 0.52002
# Poissons Ratio (y) = -0.11837 0.52002
# Poissons Ratio (z) = 0.16236 0.16236
#
# Static dielectric constant tensor:
#      x y z
#    x 1.909830 0.000000 0.000000 
#    y 0.000000 1.909830 0.000000 
#    z 0.000000 0.000000 1.889190 
# 
# From -- ./inp_files/3354.got.cif
#   From: 2010.05.17/outbox.cif.g08.bks.cpg/sg82_2_cif.got.tgz:3354.got - 2010.06.03 18:52:26.
