data_PCOD9543302
_publ_section_title
;
Structure prediction by ZEFSAII (Michael W. Deem and Ramdas Pophale) SiO2 
 PCOD9543302
Probable space group: P 4/M
;
_chemical_formula_sum "Si O2"
_cell_formula_units_Z 64
_cell_length_a 20.858825
_cell_length_b 20.858825
_cell_length_c 9.411985
_cell_angle_alpha 90.000000
_cell_angle_beta 90.000000
_cell_angle_gamma 90.000000
_cell_volume 4095.066016
_symmetry_space_group_name_H-M "P 4/M"
_symmetry_group_IT_number 83
_symmetry_cell_setting 'tetragonal'
loop_
_space_group_symop_operation_xyz
x,y,z
-y,x,z
-x,-y,z
y,-x,z
-x,-y,-z
y,-x,-z
x,y,-z
-y,x,-z
loop_
_atom_site_type_symbol
_atom_site_label
_atom_site_fract_x
_atom_site_fract_y
_atom_site_fract_z
Si Si1 0.203331 0.130631 0.338830
Si Si2 0.145948 0.426093 0.329120
Si Si3 0.744957 0.006245 0.655204
Si Si4 0.208947 0.883611 0.158828
Si Si5 0.681148 0.225159 0.163270
Si Si6 0.205673 0.687942 0.829862
Si Si7 0.596438 0.993993 0.336767
Si Si8 0.444271 0.131549 0.170600
O O1 0.207111 0.154534 0.500000
O O2 0.139275 0.154255 0.264646
O O3 0.262392 0.159938 0.250998
O O4 0.209685 0.054709 0.339577
O O5 0.152846 0.428986 0.500000
O O6 0.194337 0.373195 0.263371
O O7 0.069681 0.411482 0.301061
O O8 0.157961 0.493413 0.251164
O O9 0.751048 0.039062 0.500000
O O10 0.758955 0.053065 0.782513
O O11 0.672357 0.981993 0.663817
O O12 0.263081 0.828625 0.160881
O O13 0.184669 0.890349 0.000000
O O14 0.721019 0.289664 0.206034
O O15 0.657599 0.232590 0.000000
O O16 0.177891 0.617034 0.800590
O O17 0.200216 0.697941 0.000000
O O18 0.573353 0.984289 0.500000
O O19 0.566781 0.940339 0.234054
O O20 0.453040 0.128156 0.000000
#
# Coordination Sequence:
#
# PCOD9543302 Si02
#       8
#     8   8   8   8   8   8   8   8
#     4  10  19  31  50  71  93 121 156 200 246 294
#     4  11  22  34  49  69  99 135 169 204 241 283
#     4  10  19  32  50  71  95 124 161 200 243 293
#     4  10  20  32  49  71  95 122 155 200 249 296
#     4   9  18  33  50  69  94 123 160 201 242 283
#     4   9  19  34  50  71  97 126 161 204 245 285
#     4  10  20  34  47  67  99 134 170 205 238 280
#     4  11  22  34  50  71 100 135 170 203 241 289
#
# _framework density 15.628563
#
# number of rings (size 3 to 8) (size 9 to 14) (size 15 to 20)
#    0.000    2.000    2.500    2.625    0.000    6.500 
#    0.000    0.000    0.000    0.375    0.000    2.625 
#    0.000    0.500    0.000    5.750    0.000    2.250 
#
# Total GULP energy -356517.375633 kJ/mol
# GULP energy per Si atom -5570.583994 kJ/mol
# Density = 1.559299 g / cm^3
# Si number density = 15.628563 Si / 1000 Ang^3
#
#
#
# Elastic Constant Matrix: (Units=GPa)
#
#
# Indices 1 2 3 4 5 6 
#
# 1 50.3741 29.5645 34.5223 0.0000 0.0000 -1.6195
# 2 29.5645 50.3741 34.5223 0.0000 0.0000 1.6195
# 3 34.5223 34.5223 67.0865 0.0000 0.0000 0.0000
# 4 0.0000 0.0000 0.0000 21.5613 0.0000 0.0000
# 5 0.0000 0.0000 0.0000 0.0000 21.5613 0.0000
# 6 -1.6195 1.6195 0.0000 0.0000 0.0000 14.1420
#
#
#
# Elastic Compliance Matrix: (Units=1/GPa)
#
#
# Indices 1 2 3 4 5 6 
#
# 1 0.035723 -0.013204 -0.011588 0.000000 0.000000 0.005603
# 2 -0.013204 0.035723 -0.011588 0.000000 0.000000 -0.005603
# 3 -0.011588 -0.011588 0.026832 0.000000 0.000000 0.000000
# 4 0.000000 0.000000 0.000000 0.046379 0.000000 0.000000
# 5 0.000000 0.000000 0.000000 0.000000 0.046379 0.000000
# 6 0.005603 -0.005603 0.000000 0.000000 0.000000 0.071994
#
#
# Mechanical properties :
#
#
# Convention : Reuss Voigt Hill
#
# Bulk Modulus (GPa) = 39.18873 40.56142 39.87508
# Shear Modulus (GPa) = 14.52241 16.06798 15.29520
#
# Velocity S-wave (km/s) = 3.05162 3.20990 3.13176
# Velocity P-wave (km/s) = 6.12748 6.30458 6.21666
#
# Compressibility (1/GPa) = 0.02551754
#
# Stress axis : x y z
#
# Youngs Moduli (GPa) = 27.99355 27.99355 37.26892
#
# Poissons Ratio (x) = 0.36964 0.43186
# Poissons Ratio (y) = 0.36964 0.43186
# Poissons Ratio (z) = 0.32438 0.32438
#
# Static dielectric constant tensor:
#      x y z
#    x 1.525830 0.000000 0.000000 
#    y 0.000000 1.525830 0.000000 
#    z 0.000000 0.000000 1.538170 
# 
# From -- ./inp_files/1301.got.cif
#   From: 2010.05.17/outbox.cif.g08.bks.cpg/sg83_1_cif.got.tgz:1301.got - 2010.06.03 18:55:12.
