data_PCOD9543856
_publ_section_title
;
Structure prediction by ZEFSAII (Michael W. Deem and Ramdas Pophale) SiO2 
 PCOD9543856
Probable space group: P 4/M
;
_chemical_formula_sum "Si O2"
_cell_formula_units_Z 45
_cell_length_a 8.345924
_cell_length_b 8.345924
_cell_length_c 29.839017
_cell_angle_alpha 90.000000
_cell_angle_beta 90.000000
_cell_angle_gamma 90.000000
_cell_volume 2078.420241
_symmetry_space_group_name_H-M "P 4/M"
_symmetry_group_IT_number 83
_symmetry_cell_setting 'tetragonal'
loop_
_space_group_symop_operation_xyz
x,y,z
-y,x,z
-x,-y,z
y,-x,z
-x,-y,-z
y,-x,-z
x,y,-z
-y,x,-z
loop_
_atom_site_type_symbol
_atom_site_label
_atom_site_fract_x
_atom_site_fract_y
_atom_site_fract_z
Si Si1 0.891017 0.759296 0.596895
Si Si2 0.383737 0.849733 0.500000
Si Si3 0.258391 0.916289 0.758566
Si Si4 0.742660 0.089422 0.143968
Si Si5 0.500000 0.500000 0.500000
Si Si6 0.420070 0.755589 0.322707
Si Si7 0.908259 0.742714 0.951971
O O1 0.860482 0.717864 0.545344
O O2 0.832039 0.619363 0.629340
O O3 0.076424 0.796428 0.606402
O O4 0.304912 0.496035 0.500000
O O5 0.500000 0.000000 0.500000
O O6 0.336115 0.885263 0.807634
O O7 0.369763 0.871016 0.717491
O O8 0.097723 0.806775 0.756028
O O9 0.659244 0.120924 0.096045
O O10 0.905799 0.194693 0.143938
O O11 0.306902 0.599372 0.319201
O O12 0.092663 0.804468 0.951968
O O13 0.877909 0.659828 0.000000
#
# Coordination Sequence:
#
# PCOD9543856 Si02
#       7
#     8   4   8   8   1   8   8
#     4  11  25  45  69  98 129 161 201 246 294 352
#     4  12  28  47  74 107 138 177 211 256 304 354
#     4   9  17  32  53  77 105 140 183 230 283 344
#     4   7  10  17  32  55  86 125 167 211 262 325
#     4  12  28  44  76 104 140 180 228 260 308 384
#     4  11  26  41  58  83 115 151 194 242 296 357
#     4   7   8  10  19  41  77 120 161 200 249 315
#
# _framework density 21.651060000000001
#
# number of rings (size 3 to 8) (size 9 to 14) (size 15 to 20)
#    0.000    2.667    0.000    5.333    4.978    4.267 
#    0.000    0.000    0.000    0.000    0.000    0.000 
#    0.000    1.422    0.000   15.822    0.000   14.222 
#
# Total GULP energy -251014.532542 kJ/mol
# GULP energy per Si atom -5578.100723 kJ/mol
# Density = 2.160178 g / cm^3
# Si number density = 21.651060 Si / 1000 Ang^3
#
#
#
# Elastic Constant Matrix: (Units=GPa)
#
#
# Indices 1 2 3 4 5 6 
#
# 1 51.9872 29.9111 25.7451 0.0000 0.0000 0.6480
# 2 29.9111 51.9872 25.7451 0.0000 0.0000 -0.6480
# 3 25.7451 25.7451 133.7466 0.0000 0.0000 0.0000
# 4 0.0000 0.0000 0.0000 40.7560 0.0000 0.0000
# 5 0.0000 0.0000 0.0000 0.0000 40.7560 0.0000
# 6 0.6480 -0.6480 0.0000 0.0000 0.0000 24.5035
#
#
#
# Elastic Compliance Matrix: (Units=1/GPa)
#
#
# Indices 1 2 3 4 5 6 
#
# 1 0.029630 -0.015738 -0.002674 0.000000 0.000000 -0.001200
# 2 -0.015738 0.029630 -0.002674 0.000000 0.000000 0.001200
# 3 -0.002674 -0.002674 0.008506 0.000000 0.000000 0.000000
# 4 0.000000 0.000000 0.000000 0.024536 0.000000 0.000000
# 5 0.000000 0.000000 0.000000 0.000000 0.024536 0.000000
# 6 -0.001200 0.001200 0.000000 0.000000 0.000000 0.040874
#
#
# Mechanical properties :
#
#
# Convention : Reuss Voigt Hill
#
# Bulk Modulus (GPa) = 39.07292 44.50264 41.78778
# Shear Modulus (GPa) = 23.99049 31.62444 27.80746
#
# Velocity S-wave (km/s) = 3.33235 3.82598 3.58767
# Velocity P-wave (km/s) = 5.73515 6.33377 6.04188
#
# Compressibility (1/GPa) = 0.02559317
#
# Stress axis : x y z
#
# Youngs Moduli (GPa) = 33.74984 33.74984 117.56040
#
# Poissons Ratio (x) = 0.53117 0.31435
# Poissons Ratio (y) = 0.53117 0.31435
# Poissons Ratio (z) = 0.09025 0.09025
#
# Static dielectric constant tensor:
#      x y z
#    x 1.754140 0.000000 0.000000 
#    y 0.000000 1.754140 0.000000 
#    z 0.000000 0.000000 2.042010 
# 
# From -- ./inp_files/3394.got.cif
#   From: 2010.05.17/outbox.cif.g08.bks.cpg/sg83_2_cif.got.tgz:3394.got - 2010.06.03 18:55:12.
