data_PCOD9543275
_publ_section_title
;
Structure prediction by ZEFSAII (Michael W. Deem and Ramdas Pophale) SiO2 
 PCOD9543275
Probable space group: P 4/M
;
_chemical_formula_sum "Si O2"
_cell_formula_units_Z 48
_cell_length_a 15.193113
_cell_length_b 15.193113
_cell_length_c 13.966452
_cell_angle_alpha 90.000000
_cell_angle_beta 90.000000
_cell_angle_gamma 90.000000
_cell_volume 3223.885649
_symmetry_space_group_name_H-M "P 4/M"
_symmetry_group_IT_number 83
_symmetry_cell_setting 'tetragonal'
loop_
_space_group_symop_operation_xyz
x,y,z
-y,x,z
-x,-y,z
y,-x,z
-x,-y,-z
y,-x,-z
x,y,-z
-y,x,-z
loop_
_atom_site_type_symbol
_atom_site_label
_atom_site_fract_x
_atom_site_fract_y
_atom_site_fract_z
Si Si1 0.882780 0.921802 0.883734
Si Si2 0.111515 0.692244 0.114573
Si Si3 0.555074 0.637941 0.390502
Si Si4 0.275543 0.600437 0.802464
Si Si5 0.055972 0.415648 0.114925
Si Si6 0.741426 0.588436 0.885435
O O1 0.793254 0.874427 0.856108
O O2 0.975863 0.882153 0.853315
O O3 0.883021 0.921801 0.000000
O O4 0.177274 0.629966 0.171101
O O5 0.009846 0.665831 0.130042
O O6 0.128479 0.681917 0.000000
O O7 0.452909 0.609823 0.378485
O O8 0.331811 0.567112 0.500000
O O9 0.583043 0.705282 0.308790
O O10 0.339850 0.677340 0.839270
O O11 0.291937 0.508800 0.857628
O O12 0.156277 0.405246 0.148816
O O13 0.000000 0.500000 0.150577
O O14 0.064353 0.427785 0.000000
O O15 0.739971 0.600005 0.000000
#
# Coordination Sequence:
#
# PCOD9543275 Si02
#       6
#     8   8   8   8   8   8
#     4   8  15  27  41  59  87 123 161 202 242 268
#     4  10  19  29  44  66  95 129 167 198 226 278
#     4   9  18  35  54  69  87 117 159 207 248 287
#     4  12  21  32  47  71  96 126 163 198 241 283
#     4   9  17  31  44  56  85 131 168 190 214 259
#     4  11  22  32  44  67 102 136 162 190 228 281
#
# _framework density 14.888866
#
# number of rings (size 3 to 8) (size 9 to 14) (size 15 to 20)
#    0.000    2.167    3.333    2.500    2.333    0.333 
#    0.000    0.833    0.000    0.000    0.000    3.500 
#    0.000    0.000    0.000    1.833    0.000    0.167 
#
# Total GULP energy -267386.413836 kJ/mol
# GULP energy per Si atom -5570.550288 kJ/mol
# Density = 1.485498 g / cm^3
# Si number density = 14.888866 Si / 1000 Ang^3
#
#
#
# Elastic Constant Matrix: (Units=GPa)
#
#
# Indices 1 2 3 4 5 6 
#
# 1 55.9844 17.1941 16.5928 0.0000 0.0000 6.8091
# 2 17.1941 55.9844 16.5928 0.0000 0.0000 -6.8091
# 3 16.5928 16.5928 56.0436 0.0000 0.0000 0.0000
# 4 0.0000 0.0000 0.0000 6.8535 0.0000 0.0000
# 5 0.0000 0.0000 0.0000 0.0000 6.8535 0.0000
# 6 6.8091 -6.8091 0.0000 0.0000 0.0000 18.0824
#
#
#
# Elastic Compliance Matrix: (Units=1/GPa)
#
#
# Indices 1 2 3 4 5 6 
#
# 1 0.022746 -0.006961 -0.004673 0.000000 0.000000 -0.011186
# 2 -0.006961 0.022746 -0.004673 0.000000 0.000000 0.011186
# 3 -0.004673 -0.004673 0.020610 0.000000 0.000000 0.000000
# 4 0.000000 0.000000 0.000000 0.145912 0.000000 0.000000
# 5 0.000000 0.000000 0.000000 0.000000 0.145912 0.000000
# 6 -0.011186 0.011186 0.000000 0.000000 0.000000 0.063727
#
#
# Mechanical properties :
#
#
# Convention : Reuss Voigt Hill
#
# Bulk Modulus (GPa) = 29.86294 29.86349 29.86322
# Shear Modulus (GPa) = 10.74275 14.20005 12.47140
#
# Velocity S-wave (km/s) = 2.68904 3.09161 2.89733
# Velocity P-wave (km/s) = 5.45363 5.73108 5.59407
#
# Compressibility (1/GPa) = 0.03348632
#
# Stress axis : x y z
#
# Youngs Moduli (GPa) = 43.96432 43.96432 48.51896
#
# Poissons Ratio (x) = 0.30604 0.22674
# Poissons Ratio (y) = 0.30604 0.22674
# Poissons Ratio (z) = 0.20546 0.20546
#
# Static dielectric constant tensor:
#      x y z
#    x 1.521130 0.000000 0.000000 
#    y 0.000000 1.521130 0.000000 
#    z 0.000000 0.000000 1.457850 
# 
# From -- ./inp_files/1805.got.cif
#   From: 2010.05.17/outbox.cif.g08.bks.cpg/sg83_1_cif.got.tgz:1805.got - 2010.06.03 18:55:12.
