data_PCOD9543932
_publ_section_title
;
Structure prediction by ZEFSAII (Michael W. Deem and Ramdas Pophale) SiO2 
 PCOD9543932
Probable space group: P 4/M
;
_chemical_formula_sum "Si O2"
_cell_formula_units_Z 38
_cell_length_a 9.000000
_cell_length_b 9.000000
_cell_length_c 24.000000
_cell_angle_alpha 90.000000
_cell_angle_beta 90.000000
_cell_angle_gamma 90.000000
_cell_volume 1944.000000
_symmetry_space_group_name_H-M "P 4/M"
_symmetry_group_IT_number 83
_symmetry_cell_setting 'tetragonal'
loop_
_space_group_symop_operation_xyz
x,y,z
-y,x,z
-x,-y,z
y,-x,z
-x,-y,-z
y,-x,-z
x,y,-z
-y,x,-z
loop_
_atom_site_type_symbol
_atom_site_label
_atom_site_fract_x
_atom_site_fract_y
_atom_site_fract_z
Si Si1 0.611841 0.725505 0.165366
Si Si2 0.000000 0.000000 0.718761
Si Si3 0.882787 0.222385 0.064704
Si Si4 0.125610 0.779826 0.500000
Si Si5 0.376964 0.279993 0.394811
Si Si6 0.655427 0.904072 0.719348
O O1 0.435222 0.692888 0.163851
O O2 0.668430 0.818886 0.111735
O O3 0.648616 0.811261 0.222757
O O4 0.993649 0.187334 0.718794
O O5 0.059633 0.193590 0.071596
O O6 0.857916 0.269830 0.000000
O O7 0.181586 0.690969 0.445191
O O8 0.946812 0.803758 0.500000
O O9 0.555291 0.304304 0.399049
O O10 0.345802 0.201884 0.335418
O O11 0.500000 0.000000 0.717039
#
# Coordination Sequence:
#
# PCOD9543932 Si02
#       6
#     8   2   8   4   8   8
#     4  11  25  43  65  99 142 183 231 292 363 432
#     4  12  28  44  76 105 141 192 248 288 358 456
#     4   9  21  41  66  97 134 179 236 295 351 423
#     4  11  28  45  70 106 145 184 242 305 350 426
#     4  11  25  47  73 103 143 191 238 293 364 435
#     4  12  28  47  73 110 144 186 237 303 363 433
#
# _framework density 19.547325000000001
#
# number of rings (size 3 to 8) (size 9 to 14) (size 15 to 20)
#    0.000    1.158    0.000    5.053   11.789    4.211 
#    0.000    3.158    0.000    0.000    0.000    0.000 
#    0.000    0.000    0.000    0.000    0.000    0.000 
#
# Total GULP energy -212068.156949 kJ/mol
# GULP energy per Si atom -5580.740972 kJ/mol
# Density = 1.950283 g / cm^3
# Si number density = 19.547325 Si / 1000 Ang^3
#
#
#
# Elastic Constant Matrix: (Units=GPa)
#
#
# Indices 1 2 3 4 5 6 
#
# 1 123.5122 58.8895 67.7037 0.0000 0.0000 2.5373
# 2 58.8895 123.5122 67.7037 0.0000 0.0000 -2.5373
# 3 67.7037 67.7037 194.0149 0.0000 0.0000 0.0000
# 4 0.0000 0.0000 0.0000 42.8301 0.0000 0.0000
# 5 0.0000 0.0000 0.0000 0.0000 42.8301 0.0000
# 6 2.5373 -2.5373 0.0000 0.0000 0.0000 45.4202
#
#
#
# Elastic Compliance Matrix: (Units=1/GPa)
#
#
# Indices 1 2 3 4 5 6 
#
# 1 0.011471 -0.004072 -0.002582 0.000000 0.000000 -0.000868
# 2 -0.004072 0.011471 -0.002582 0.000000 0.000000 0.000868
# 3 -0.002582 -0.002582 0.006956 0.000000 0.000000 0.000000
# 4 0.000000 0.000000 0.000000 0.023348 0.000000 0.000000
# 5 0.000000 0.000000 0.000000 0.000000 0.023348 0.000000
# 6 -0.000868 0.000868 0.000000 0.000000 0.000000 0.022114
#
#
# Mechanical properties :
#
#
# Convention : Reuss Voigt Hill
#
# Bulk Modulus (GPa) = 87.51535 92.18144 89.84839
# Shear Modulus (GPa) = 41.32628 42.66555 41.99592
#
# Velocity S-wave (km/s) = 4.60299 4.67698 4.64014
# Velocity P-wave (km/s) = 8.55092 8.74220 8.64709
#
# Compressibility (1/GPa) = 0.01142657
#
# Stress axis : x y z
#
# Youngs Moduli (GPa) = 87.17697 87.17697 143.75448
#
# Poissons Ratio (x) = 0.35496 0.37118
# Poissons Ratio (y) = 0.35496 0.37118
# Poissons Ratio (z) = 0.22509 0.22509
#
# Static dielectric constant tensor:
#      x y z
#    x 1.693630 0.000000 0.000000 
#    y 0.000000 1.693630 0.000000 
#    z 0.000000 0.000000 1.657110 
# 
# From -- ./inp_files/3135.got.cif
#   From: 2010.05.17/outbox.ucp.g08.bks.cvg/sg83_2_cif.got.tgz:3135.got - 2010.06.11 10:34:49.
