data_PCOD9543700
_publ_section_title
;
Structure prediction by ZEFSAII (Michael W. Deem and Ramdas Pophale) SiO2 
 PCOD9543700
Probable space group: P 4/M
;
_chemical_formula_sum "Si O2"
_cell_formula_units_Z 48
_cell_length_a 8.151983
_cell_length_b 8.151983
_cell_length_c 32.794197
_cell_angle_alpha 90.000000
_cell_angle_beta 90.000000
_cell_angle_gamma 90.000000
_cell_volume 2179.332683
_symmetry_space_group_name_H-M "P 4/M"
_symmetry_group_IT_number 83
_symmetry_cell_setting 'tetragonal'
loop_
_space_group_symop_operation_xyz
x,y,z
-y,x,z
-x,-y,z
y,-x,z
-x,-y,-z
y,-x,-z
x,y,-z
-y,x,-z
loop_
_atom_site_type_symbol
_atom_site_label
_atom_site_fract_x
_atom_site_fract_y
_atom_site_fract_z
Si Si1 0.911549 0.262808 0.545402
Si Si2 0.736368 0.913464 0.877587
Si Si3 0.763377 0.420555 0.377037
Si Si4 0.584752 0.763591 0.044719
Si Si5 0.262709 0.092311 0.789502
Si Si6 0.089451 0.736430 0.700959
O O1 0.885728 0.333188 0.500000
O O2 0.861623 0.378827 0.582098
O O3 0.097887 0.198887 0.548495
O O4 0.629975 0.871110 0.916628
O O5 0.654498 0.879676 0.833304
O O6 0.900558 0.801642 0.879097
O O7 0.697029 0.604132 0.376749
O O8 0.863997 0.375729 0.336742
O O9 0.399367 0.697778 0.046544
O O10 0.613023 0.840840 0.000000
O O11 0.343290 0.121025 0.745556
O O12 0.095704 0.199495 0.789506
O O13 0.902586 0.800839 0.698654
#
# Coordination Sequence:
#
# PCOD9543700 Si02
#       6
#     8   8   8   8   8   8
#     4   9  19  37  60  83 103 125 161 208 251 293
#     4   9  17  30  50  76 102 124 151 194 247 298
#     4  11  24  37  48  70 107 143 170 200 242 290
#     4   9  19  35  50  64  89 128 169 203 237 283
#     4   7  12  26  48  73  99 124 152 193 244 292
#     4   9  17  32  56  79  96 123 167 210 244 285
#
# _framework density 22.025088
#
# number of rings (size 3 to 8) (size 9 to 14) (size 15 to 20)
#    0.000    3.000    0.000    4.000    0.000    6.000 
#    0.000    6.667    0.000    8.000    0.000    0.000 
#    0.000    0.000    0.000    0.000    0.000    0.000 
#
# Total GULP energy -268272.499205 kJ/mol
# GULP energy per Si atom -5589.010400 kJ/mol
# Density = 2.197496 g / cm^3
# Si number density = 22.025088 Si / 1000 Ang^3
#
#
#
# Elastic Constant Matrix: (Units=GPa)
#
#
# Indices 1 2 3 4 5 6 
#
# 1 53.5541 39.3275 66.8234 0.0000 0.0000 -2.2639
# 2 39.3275 53.5541 66.8234 0.0000 0.0000 2.2639
# 3 66.8234 66.8234 259.7942 0.0000 0.0000 0.0000
# 4 0.0000 0.0000 0.0000 -606.2278 0.0000 0.0000
# 5 0.0000 0.0000 0.0000 0.0000 -606.2278 0.0000
# 6 -2.2639 2.2639 0.0000 0.0000 0.0000 36.0053
#
#
#
# Elastic Compliance Matrix: (Units=1/GPa)
#
#
# Indices 1 2 3 4 5 6 
#
# 1 0.044409 -0.027317 -0.004396 0.000000 0.000000 0.004510
# 2 -0.027317 0.044409 -0.004396 0.000000 0.000000 -0.004510
# 3 -0.004396 -0.004396 0.006111 0.000000 0.000000 0.000000
# 4 0.000000 0.000000 0.000000 -0.001650 0.000000 0.000000
# 5 0.000000 0.000000 0.000000 0.000000 -0.001650 0.000000
# 6 0.004510 -0.004510 0.000000 0.000000 0.000000 0.028341
#
#
# Mechanical properties :
#
#
# Convention : Reuss Voigt Hill
#
# Bulk Modulus (GPa) = 44.03360 79.20565 61.61962
# Shear Modulus (GPa) = 25.02992 -222.36151 -98.66580
#
# Velocity S-wave (km/s) = 3.37475 -10.05870 -6.70032
# Velocity P-wave (km/s) = 5.93474 9.94302 5.64103
#
# Compressibility (1/GPa) = 0.02270993
#
# Stress axis : x y z
#
# Youngs Moduli (GPa) = 22.51777 22.51777 163.64248
#
# Poissons Ratio (x) = 0.61512 0.71945
# Poissons Ratio (y) = 0.61512 0.71945
# Poissons Ratio (z) = 0.09900 0.09900
#
# Static dielectric constant tensor:
#      x y z
#    x 1.787390 0.000000 0.000000 
#    y 0.000000 1.787390 0.000000 
#    z 0.000000 0.000000 1.822970 
# 
# From -- ./inp_files/3413.got.cif
#   From: 2010.05.17/outbox.cif.g08.bks.cpg/sg83_2_cif.got.tgz:3413.got - 2010.06.03 18:55:12.
