data_PCOD9543906
_publ_section_title
;
Structure prediction by ZEFSAII (Michael W. Deem and Ramdas Pophale) SiO2 
 PCOD9543906
Probable space group: P 4/M
;
_chemical_formula_sum "Si O2"
_cell_formula_units_Z 32
_cell_length_a 7.596739
_cell_length_b 7.596739
_cell_length_c 22.789140
_cell_angle_alpha 90.000000
_cell_angle_beta 90.000000
_cell_angle_gamma 90.000000
_cell_volume 1315.171375
_symmetry_space_group_name_H-M "P 4/M"
_symmetry_group_IT_number 83
_symmetry_cell_setting 'tetragonal'
loop_
_space_group_symop_operation_xyz
x,y,z
-y,x,z
-x,-y,z
y,-x,z
-x,-y,-z
y,-x,-z
x,y,-z
-y,x,-z
loop_
_atom_site_type_symbol
_atom_site_label
_atom_site_fract_x
_atom_site_fract_y
_atom_site_fract_z
Si Si1 0.624103 0.773246 0.811797
Si Si2 0.370314 0.229382 0.937243
Si Si3 0.775522 0.393466 0.686789
Si Si4 0.898094 0.277063 0.562452
O O1 0.416495 0.721882 0.811939
O O2 0.667986 0.860410 0.874512
O O3 0.655957 0.865585 0.749079
O O4 0.579046 0.276104 0.937266
O O5 0.328814 0.141305 0.000000
O O6 0.717773 0.595851 0.687412
O O7 0.864646 0.363091 0.624769
O O8 0.857007 0.370075 0.500000
O O9 0.099456 0.216254 0.561849
#
# Coordination Sequence:
#
# PCOD9543906 Si02
#       4
#     8   8   8   8
#     4   7  10  17  28  45  74 107 132 157 192 231
#     4   7   8  10  19  37  63  98 135 161 182 217
#     4   9  17  28  43  65  91 115 137 164 202 248
#     4   9  19  35  50  62  79 105 137 173 211 248
#
# _framework density 24.331427999999999
#
# number of rings (size 3 to 8) (size 9 to 14) (size 15 to 20)
#    0.000    4.000    0.000    4.500    0.000    2.000 
#    0.000    3.750    0.000    0.000    0.000    0.000 
#    0.000    2.000    0.000   22.250    0.000   20.000 
#
# Total GULP energy -178407.975504 kJ/mol
# GULP energy per Si atom -5575.249234 kJ/mol
# Density = 2.427605 g / cm^3
# Si number density = 24.331428 Si / 1000 Ang^3
#
#
#
# Elastic Constant Matrix: (Units=GPa)
#
#
# Indices 1 2 3 4 5 6 
#
# 1 28.0066 6.1530 43.2550 0.0000 0.0000 -5.3673
# 2 6.1530 28.0066 43.2550 0.0000 0.0000 5.3673
# 3 43.2550 43.2550 368.8623 0.0000 0.0000 0.0000
# 4 0.0000 0.0000 0.0000 1976.9508 0.0000 0.0000
# 5 0.0000 0.0000 0.0000 0.0000 1976.9508 0.0000
# 6 -5.3673 5.3673 0.0000 0.0000 0.0000 -4.1098
#
#
#
# Elastic Compliance Matrix: (Units=1/GPa)
#
#
# Indices 1 2 3 4 5 6 
#
# 1 0.034759 0.006882 -0.004883 0.000000 0.000000 -0.036406
# 2 0.006882 0.034759 -0.004883 0.000000 0.000000 0.036406
# 3 -0.004883 -0.004883 0.003856 0.000000 0.000000 0.000000
# 4 0.000000 0.000000 0.000000 0.000506 0.000000 0.000000
# 5 0.000000 0.000000 0.000000 0.000000 0.000506 0.000000
# 6 -0.036406 0.036406 0.000000 0.000000 0.000000 -0.148230
#
#
# Mechanical properties :
#
#
# Convention : Reuss Voigt Hill
#
# Bulk Modulus (GPa) = 14.79164 67.80016 41.29590
# Shear Modulus (GPa) = -109.78904 812.10584 351.15840
#
# Velocity S-wave (km/s) = -6.72460 18.28915 12.02648
# Velocity P-wave (km/s) = 7.36215 21.76962 14.48646
#
# Compressibility (1/GPa) = 0.06760576
#
# Stress axis : x y z
#
# Youngs Moduli (GPa) = 28.76978 28.76978 259.31780
#
# Poissons Ratio (x) = -0.19800 1.26626
# Poissons Ratio (y) = -0.19800 1.26626
# Poissons Ratio (z) = 0.14048 0.14048
#
# Static dielectric constant tensor:
#      x y z
#    x 1.918090 0.000000 0.000000 
#    y 0.000000 1.918090 0.000000 
#    z 0.000000 0.000000 2.058390 
# 
# From -- ./inp_files/2790.got.cif
#   From: 2010.05.17/outbox.cif.g08.bks.cpg/sg83_2_cif.got.tgz:2790.got - 2010.06.03 18:55:12.
