data_PCOD9543349
_publ_section_title
;
Structure prediction by ZEFSAII (Michael W. Deem and Ramdas Pophale) SiO2 
 PCOD9543349
Probable space group: P 4/M
;
_chemical_formula_sum "Si O2"
_cell_formula_units_Z 56
_cell_length_a 13.760011
_cell_length_b 13.760011
_cell_length_c 12.706441
_cell_angle_alpha 90.000000
_cell_angle_beta 90.000000
_cell_angle_gamma 90.000000
_cell_volume 2405.810890
_symmetry_space_group_name_H-M "P 4/M"
_symmetry_group_IT_number 83
_symmetry_cell_setting 'tetragonal'
loop_
_space_group_symop_operation_xyz
x,y,z
-y,x,z
-x,-y,z
y,-x,z
-x,-y,-z
y,-x,-z
x,y,-z
-y,x,-z
loop_
_atom_site_type_symbol
_atom_site_label
_atom_site_fract_x
_atom_site_fract_y
_atom_site_fract_z
Si Si1 0.742963 0.139034 0.620213
Si Si2 0.496894 0.251016 0.885109
Si Si3 0.938973 0.598000 0.796849
Si Si4 0.888541 0.886278 0.797664
Si Si5 0.313806 0.124677 0.155565
Si Si6 0.516027 0.655371 0.665319
Si Si7 0.652549 0.815822 0.386847
O O1 0.738723 0.104854 0.500000
O O2 0.661996 0.094325 0.696827
O O3 0.846358 0.118962 0.678013
O O4 0.740902 0.256570 0.618193
O O5 0.565853 0.160216 0.854040
O O6 0.390095 0.201484 0.886752
O O7 0.494495 0.327186 0.790483
O O8 0.521862 0.289741 0.000000
O O9 0.000000 0.500000 0.770042
O O10 0.014125 0.657742 0.871196
O O11 0.796826 0.840623 0.858321
O O12 0.000575 0.869642 0.820095
O O13 0.331854 0.122449 0.282494
O O14 0.418347 0.601692 0.633770
O O15 0.550751 0.759032 0.622202
O O16 0.658698 0.866046 0.500000
#
# Coordination Sequence:
#
# PCOD9543349 Si02
#       7
#     8   8   8   8   8   8   8
#     4  10  20  34  54  84 125 165 203 243 284 336
#     4  10  22  40  64  89 111 143 193 249 309 371
#     4  10  20  36  57  82 116 150 194 243 300 354
#     4  10  19  34  58  85 120 170 209 244 295 351
#     4   9  19  36  57  86 120 153 192 247 299 350
#     4  10  21  38  59  84 117 150 184 236 296 357
#     4   9  19  35  55  81 116 158 198 234 274 333
#
# _framework density 23.276976000000001
#
# number of rings (size 3 to 8) (size 9 to 14) (size 15 to 20)
#    0.000    2.286    1.429    0.857    0.000    5.143 
#    0.000   10.714    0.000    0.857    0.000    1.000 
#    0.000    0.000    0.000    0.000    0.000    0.000 
#
# Total GULP energy -312213.009900 kJ/mol
# GULP energy per Si atom -5575.232320 kJ/mol
# Density = 2.322400 g / cm^3
# Si number density = 23.276976 Si / 1000 Ang^3
#
#
#
# Elastic Constant Matrix: (Units=GPa)
#
#
# Indices 1 2 3 4 5 6 
#
# 1 70.0702 5.8478 2.0150 0.0000 0.0000 -1.2503
# 2 5.8478 70.0702 2.0150 0.0000 0.0000 1.2503
# 3 2.0150 2.0150 71.2292 0.0000 0.0000 0.0000
# 4 0.0000 0.0000 0.0000 -5.6265 0.0000 0.0000
# 5 0.0000 0.0000 0.0000 0.0000 -5.6265 0.0000
# 6 -1.2503 1.2503 0.0000 0.0000 0.0000 25.6876
#
#
#
# Elastic Compliance Matrix: (Units=1/GPa)
#
#
# Indices 1 2 3 4 5 6 
#
# 1 0.014396 -0.001204 -0.000373 0.000000 0.000000 0.000759
# 2 -0.001204 0.014396 -0.000373 0.000000 0.000000 -0.000759
# 3 -0.000373 -0.000373 0.014060 0.000000 0.000000 0.000000
# 4 0.000000 0.000000 0.000000 -0.177730 0.000000 0.000000
# 5 0.000000 0.000000 0.000000 0.000000 -0.177730 0.000000
# 6 0.000759 -0.000759 0.000000 0.000000 0.000000 0.039003
#
#
# Mechanical properties :
#
#
# Convention : Reuss Voigt Hill
#
# Bulk Modulus (GPa) = 25.67305 25.68061 25.67683
# Shear Modulus (GPa) = -19.47653 16.31970 -1.57841
#
# Velocity S-wave (km/s) = -2.89577 2.65072 -0.82436
# Velocity P-wave (km/s) = 0.35678 4.51940 3.18573
#
# Compressibility (1/GPa) = 0.03895135
#
# Stress axis : x y z
#
# Youngs Moduli (GPa) = 69.46286 69.46286 71.12225
#
# Poissons Ratio (x) = 0.08365 0.02654
# Poissons Ratio (y) = 0.08365 0.02654
# Poissons Ratio (z) = 0.02592 0.02592
#
# Static dielectric constant tensor:
#      x y z
#    x 1.898630 0.000000 0.000000 
#    y 0.000000 1.898630 0.000000 
#    z 0.000000 0.000000 1.882230 
# 
# From -- ./inp_files/1933.got.cif
#   From: 2010.05.17/outbox.cif.g08.bks.cpg/sg83_1_cif.got.tgz:1933.got - 2010.06.03 18:55:12.
