data_PCOD9543456
_publ_section_title
;
Structure prediction by ZEFSAII (Michael W. Deem and Ramdas Pophale) SiO2 
 PCOD9543456
Probable space group: P 4/M
;
_chemical_formula_sum "Si O2"
_cell_formula_units_Z 52
_cell_length_a 18.610520
_cell_length_b 18.610520
_cell_length_c 7.649767
_cell_angle_alpha 90.000000
_cell_angle_beta 90.000000
_cell_angle_gamma 90.000000
_cell_volume 2649.507928
_symmetry_space_group_name_H-M "P 4/M"
_symmetry_group_IT_number 83
_symmetry_cell_setting 'tetragonal'
loop_
_space_group_symop_operation_xyz
x,y,z
-y,x,z
-x,-y,z
y,-x,z
-x,-y,-z
y,-x,-z
x,y,-z
-y,x,-z
loop_
_atom_site_type_symbol
_atom_site_label
_atom_site_fract_x
_atom_site_fract_y
_atom_site_fract_z
Si Si1 0.611627 0.241844 0.786757
Si Si2 0.384785 0.017362 0.790065
Si Si3 0.176820 0.125839 0.500000
Si Si4 0.812247 0.721974 0.500000
Si Si5 0.911252 0.081212 0.194473
Si Si6 0.601644 0.555315 0.787439
Si Si7 0.491134 0.884174 0.209578
Si Si8 0.728204 0.013478 0.500000
O O1 0.677326 0.212185 0.671250
O O2 0.592871 0.323896 0.739095
O O3 0.543666 0.190864 0.737809
O O4 0.622623 0.236428 0.000000
O O5 0.431693 0.086514 0.731428
O O6 0.315093 0.007801 0.675001
O O7 0.434321 0.947613 0.752205
O O8 0.372260 0.019847 0.000000
O O9 0.222933 0.198336 0.500000
O O10 0.126298 0.130935 0.332298
O O11 0.208513 0.045504 0.500000
O O12 0.899497 0.731232 0.500000
O O13 0.996027 0.096320 0.215023
O O14 0.889269 0.100783 0.000000
O O15 0.528094 0.594662 0.731207
O O16 0.601001 0.554606 0.000000
O O17 0.497088 0.881969 0.000000
#
# Coordination Sequence:
#
# PCOD9543456 Si02
#       8
#     8   8   4   4   8   8   8   4
#     4  10  20  38  62  88 121 160 196 243 302 351
#     4   9  18  34  56  85 114 143 192 245 286 349
#     4  12  26  41  53  81 122 157 193 242 299 359
#     4  12  26  41  58  84 116 155 205 241 292 374
#     4   9  18  36  64  90 107 135 187 245 297 350
#     4   8  15  32  61  93 121 156 204 248 291 349
#     4   8  15  31  57  85 113 145 187 239 287 339
#     4  12  24  38  60  79 109 165 196 233 303 354
#
# _framework density 19.626284999999999
#
# number of rings (size 3 to 8) (size 9 to 14) (size 15 to 20)
#    0.000    2.462    1.538    3.231    0.000    3.692 
#    2.769    0.769    0.000    0.923    0.000    0.000 
#    0.000    0.000    0.000    0.000    0.000    0.000 
#
# Total GULP energy -289803.009996 kJ/mol
# GULP energy per Si atom -5573.134808 kJ/mol
# Density = 1.958161 g / cm^3
# Si number density = 19.626285 Si / 1000 Ang^3
#
#
#
# Elastic Constant Matrix: (Units=GPa)
#
#
# Indices 1 2 3 4 5 6 
#
# 1 82.4635 34.2437 52.6864 0.0000 0.0000 5.4732
# 2 34.2437 82.4635 52.6864 0.0000 0.0000 -5.4732
# 3 52.6864 52.6864 69.6946 0.0000 0.0000 0.0000
# 4 0.0000 0.0000 0.0000 33.1888 0.0000 0.0000
# 5 0.0000 0.0000 0.0000 0.0000 33.1888 0.0000
# 6 5.4732 -5.4732 0.0000 0.0000 0.0000 14.4160
#
#
#
# Elastic Compliance Matrix: (Units=1/GPa)
#
#
# Indices 1 2 3 4 5 6 
#
# 1 0.024843 0.002148 -0.020404 0.000000 0.000000 -0.008616
# 2 0.002148 0.024843 -0.020404 0.000000 0.000000 0.008616
# 3 -0.020404 -0.020404 0.045198 0.000000 0.000000 0.000000
# 4 0.000000 0.000000 0.000000 0.030131 0.000000 0.000000
# 5 0.000000 0.000000 0.000000 0.000000 0.030131 0.000000
# 6 -0.008616 0.008616 0.000000 0.000000 0.000000 0.075910
#
#
# Mechanical properties :
#
#
# Convention : Reuss Voigt Hill
#
# Bulk Modulus (GPa) = 56.93722 57.09496 57.01609
# Shear Modulus (GPa) = 15.91201 22.49238 19.20220
#
# Velocity S-wave (km/s) = 2.85046 3.38898 3.13132
# Velocity P-wave (km/s) = 6.31721 6.66842 6.49519
#
# Compressibility (1/GPa) = 0.01756320
#
# Stress axis : x y z
#
# Youngs Moduli (GPa) = 40.25344 40.25344 22.12507
#
# Poissons Ratio (x) = -0.08648 0.45144
# Poissons Ratio (y) = -0.08648 0.45144
# Poissons Ratio (z) = 0.82133 0.82133
#
# Static dielectric constant tensor:
#      x y z
#    x 1.703610 0.000000 0.000000 
#    y 0.000000 1.703610 0.000000 
#    z 0.000000 0.000000 1.699670 
# 
# From -- ./inp_files/1083.got.cif
#   From: 2010.05.17/outbox.cif.g08.bks.cpg/sg83_1_cif.got.tgz:1083.got - 2010.06.03 18:55:12.
