data_PCOD9543323
_publ_section_title
;
Structure prediction by ZEFSAII (Michael W. Deem and Ramdas Pophale) SiO2 
 PCOD9543323
Probable space group: P 4/M
;
_chemical_formula_sum "Si O2"
_cell_formula_units_Z 56
_cell_length_a 13.501597
_cell_length_b 13.501597
_cell_length_c 18.170081
_cell_angle_alpha 90.000000
_cell_angle_beta 90.000000
_cell_angle_gamma 90.000000
_cell_volume 3312.280784
_symmetry_space_group_name_H-M "P 4/M"
_symmetry_group_IT_number 83
_symmetry_cell_setting 'tetragonal'
loop_
_space_group_symop_operation_xyz
x,y,z
-y,x,z
-x,-y,z
y,-x,z
-x,-y,-z
y,-x,-z
x,y,-z
-y,x,-z
loop_
_atom_site_type_symbol
_atom_site_label
_atom_site_fract_x
_atom_site_fract_y
_atom_site_fract_z
Si Si1 0.408747 0.639671 0.084095
Si Si2 0.606000 0.040093 0.719411
Si Si3 0.259116 0.350461 0.230363
Si Si4 0.546053 0.343941 0.364459
Si Si5 0.141409 0.485371 0.415969
Si Si6 0.312345 0.157621 0.320588
Si Si7 0.099822 0.870780 0.412456
O O1 0.368386 0.527641 0.092994
O O2 0.364388 0.708606 0.146872
O O3 0.388365 0.670950 0.000000
O O4 0.640909 0.141082 0.757327
O O5 0.582173 0.069892 0.633979
O O6 0.500000 0.000000 0.748849
O O7 0.679375 0.947635 0.721056
O O8 0.308366 0.437176 0.280517
O O9 0.302144 0.249768 0.265840
O O10 0.617245 0.435984 0.378199
O O11 0.567026 0.248393 0.412978
O O12 0.111462 0.500586 0.500000
O O13 0.157844 0.588425 0.371244
O O14 0.214744 0.156771 0.370426
O O15 0.109808 0.858035 0.500000
O O16 0.982308 0.865631 0.394856
#
# Coordination Sequence:
#
# PCOD9543323 Si02
#       7
#     8   8   8   8   8   8   8
#     4   9  19  34  57  90 118 140 169 210 259 318
#     4   9  22  36  50  74 108 139 184 227 275 322
#     4  11  20  34  58  79 102 145 179 215 265 325
#     4  10  19  33  49  71  98 129 172 217 265 312
#     4  10  21  35  48  67  98 139 179 221 275 321
#     4  11  20  34  50  74  98 135 186 223 262 323
#     4   9  18  32  50  70  93 123 167 233 295 324
#
# _framework density 16.906780000000001
#
# number of rings (size 3 to 8) (size 9 to 14) (size 15 to 20)
#    0.000    2.143    1.429    3.000    4.000    4.857 
#    0.000    2.857    0.000    1.286    0.000    0.000 
#    0.000    0.000    0.000    4.429    0.000    0.000 
#
# Total GULP energy -312456.353629 kJ/mol
# GULP energy per Si atom -5579.577743 kJ/mol
# Density = 1.686830 g / cm^3
# Si number density = 16.906780 Si / 1000 Ang^3
#
#
#
# Elastic Constant Matrix: (Units=GPa)
#
#
# Indices 1 2 3 4 5 6 
#
# 1 78.6178 27.6641 42.1377 0.0000 0.0000 0.0347
# 2 27.6641 78.6178 42.1377 0.0000 0.0000 -0.0347
# 3 42.1377 42.1377 110.1557 0.0000 0.0000 0.0000
# 4 0.0000 0.0000 0.0000 15.1965 0.0000 0.0000
# 5 0.0000 0.0000 0.0000 0.0000 15.1965 0.0000
# 6 0.0347 -0.0347 0.0000 0.0000 0.0000 19.2278
#
#
#
# Elastic Compliance Matrix: (Units=1/GPa)
#
#
# Indices 1 2 3 4 5 6 
#
# 1 0.016566 -0.003060 -0.005166 0.000000 0.000000 -0.000035
# 2 -0.003060 0.016566 -0.005166 0.000000 0.000000 0.000035
# 3 -0.005166 -0.005166 0.013031 0.000000 0.000000 0.000000
# 4 0.000000 0.000000 0.000000 0.065804 0.000000 0.000000
# 5 0.000000 0.000000 0.000000 0.000000 0.065804 0.000000
# 6 -0.000035 0.000035 0.000000 0.000000 0.000000 0.052008
#
#
# Mechanical properties :
#
#
# Convention : Reuss Voigt Hill
#
# Bulk Modulus (GPa) = 51.60879 54.58557 53.09718
# Shear Modulus (GPa) = 19.00976 20.28763 19.64869
#
# Velocity S-wave (km/s) = 3.35683 3.46782 3.41277
# Velocity P-wave (km/s) = 6.75397 6.95634 6.85590
#
# Compressibility (1/GPa) = 0.01937654
#
# Stress axis : x y z
#
# Youngs Moduli (GPa) = 60.36614 60.36614 76.74298
#
# Poissons Ratio (x) = 0.18473 0.39647
# Poissons Ratio (y) = 0.18473 0.39647
# Poissons Ratio (z) = 0.31186 0.31186
#
# Static dielectric constant tensor:
#      x y z
#    x 1.606040 0.000000 0.000000 
#    y 0.000000 1.606040 0.000000 
#    z 0.000000 0.000000 1.545890 
# 
# From -- ./inp_files/2705.got.cif
#   From: 2010.05.17/outbox.cif.g08.bks.cpg/sg83_2_cif.got.tgz:2705.got - 2010.06.03 18:55:12.
