data_PCOD9543035
_publ_section_title
;
Structure prediction by ZEFSAII (Michael W. Deem and Ramdas Pophale) SiO2 
 PCOD9543035
Probable space group: I -4 
;
_chemical_formula_sum "Si O2"
_cell_formula_units_Z 40
_cell_length_a 16.457076
_cell_length_b 16.457076
_cell_length_c 6.439463
_cell_angle_alpha 90.000000
_cell_angle_beta 90.000000
_cell_angle_gamma 90.000000
_cell_volume 1744.034218
_symmetry_space_group_name_H-M "I -4 "
_symmetry_group_IT_number 82
_symmetry_cell_setting 'tetragonal'
loop_
_space_group_symop_operation_xyz
x,y,z
y,-x,-z
-x,-y,z
-y,x,-z
1/2+x,1/2+y,1/2+z
1/2+y,1/2-x,1/2-z
1/2-x,1/2-y,1/2+z
1/2-y,1/2+x,1/2-z
loop_
_atom_site_type_symbol
_atom_site_label
_atom_site_fract_x
_atom_site_fract_y
_atom_site_fract_z
Si Si1 0.210641 0.063148 0.496425
Si Si2 0.331722 0.189200 0.005338
Si Si3 0.045729 0.625724 0.242503
Si Si4 0.159773 0.190613 0.152727
Si Si5 0.823845 0.094172 0.253385
O O1 0.301433 0.049668 0.587311
O O2 0.198949 0.122218 0.299214
O O3 0.159598 0.109616 0.672987
O O4 0.169483 0.981780 0.407623
O O5 0.343400 0.094905 0.960347
O O6 0.364352 0.236845 0.802897
O O7 0.237579 0.213774 0.015269
O O8 0.375614 0.231708 0.197514
O O9 0.094377 0.544288 0.309282
O O10 0.088173 0.167559 0.994526
#
# Coordination Sequence:
#
# PCOD9543035 Si02
#       5
#     8   8   8   8   8
#     4  11  25  44  69 106 139 188 241 296 364 436
#     4  11  20  40  66  97 135 181 234 284 346 424
#     4  11  23  42  71 108 150 185 228 302 372 439
#     4  11  22  39  70  99 134 187 241 291 348 419
#     4  11  24  43  69 102 139 185 237 304 355 429
#
# _framework density 22.935327999999998
#
# number of rings (size 3 to 8) (size 9 to 14) (size 15 to 20)
#    0.000    1.000    6.000    1.200    0.000    5.200 
#    0.000    0.000    0.000    2.400    0.000    0.000 
#    0.000    0.000    0.000    0.000    0.000    0.000 
#
# Total GULP energy -111597.732409 kJ/mol
# GULP energy per Si atom -5579.886620 kJ/mol
# Density = 2.288313 g / cm^3
# Si number density = 22.935328 Si / 1000 Ang^3
#
#
#
# Elastic Constant Matrix: (Units=GPa)
#
#
# Indices 1 2 3 4 5 6 
#
# 1 104.0141 33.8526 22.2797 0.0000 0.0000 -2.6818
# 2 33.8526 104.0141 22.2797 0.0000 0.0000 2.6818
# 3 22.2797 22.2797 82.1071 0.0000 0.0000 0.0000
# 4 0.0000 0.0000 0.0000 25.3932 0.0000 0.0000
# 5 0.0000 0.0000 0.0000 0.0000 25.3932 0.0000
# 6 -2.6818 2.6818 0.0000 0.0000 0.0000 31.1856
#
#
#
# Elastic Compliance Matrix: (Units=1/GPa)
#
#
# Indices 1 2 3 4 5 6 
#
# 1 0.011149 -0.003198 -0.002157 0.000000 0.000000 0.001234
# 2 -0.003198 0.011149 -0.002157 0.000000 0.000000 -0.001234
# 3 -0.002157 -0.002157 0.013350 0.000000 0.000000 0.000000
# 4 0.000000 0.000000 0.000000 0.039381 0.000000 0.000000
# 5 0.000000 0.000000 0.000000 0.000000 0.039381 0.000000
# 6 0.001234 -0.001234 0.000000 0.000000 0.000000 0.032278
#
#
# Mechanical properties :
#
#
# Convention : Reuss Voigt Hill
#
# Bulk Modulus (GPa) = 48.49251 49.66216 49.07733
# Shear Modulus (GPa) = 29.65821 30.50929 30.08375
#
# Velocity S-wave (km/s) = 3.59990 3.65119 3.62564
# Velocity P-wave (km/s) = 6.20227 6.28292 6.24272
#
# Compressibility (1/GPa) = 0.02062174
#
# Stress axis : x y z
#
# Youngs Moduli (GPa) = 89.69485 89.69485 74.90615
#
# Poissons Ratio (x) = 0.28687 0.16160
# Poissons Ratio (y) = 0.28687 0.16160
# Poissons Ratio (z) = 0.19351 0.19351
#
# Static dielectric constant tensor:
#      x y z
#    x 1.921880 0.000000 0.000000 
#    y 0.000000 1.921880 0.000000 
#    z 0.000000 0.000000 1.902670 
# 
# From -- ./inp_files/229.got.cif
#   From: 2010.05.17/outbox.cif.g08.bks.cpg/sg82_1_cif.got.tgz:229.got - 2010.06.03 18:52:26.
