data_PCOD9543380
_publ_section_title
;
Structure prediction by ZEFSAII (Michael W. Deem and Ramdas Pophale) SiO2 
 PCOD9543380
Probable space group: P 4/M
;
_chemical_formula_sum "Si O2"
_cell_formula_units_Z 64
_cell_length_a 19.818999
_cell_length_b 19.818999
_cell_length_c 7.365962
_cell_angle_alpha 90.000000
_cell_angle_beta 90.000000
_cell_angle_gamma 90.000000
_cell_volume 2893.296259
_symmetry_space_group_name_H-M "P 4/M"
_symmetry_group_IT_number 83
_symmetry_cell_setting 'tetragonal'
loop_
_space_group_symop_operation_xyz
x,y,z
-y,x,z
-x,-y,z
y,-x,z
-x,-y,-z
y,-x,-z
x,y,-z
-y,x,-z
loop_
_atom_site_type_symbol
_atom_site_label
_atom_site_fract_x
_atom_site_fract_y
_atom_site_fract_z
Si Si1 0.228892 0.573071 0.784575
Si Si2 0.778795 0.088099 0.722014
Si Si3 0.154448 0.777854 0.293801
Si Si4 0.913718 0.355046 0.718831
Si Si5 0.292648 0.294692 0.221647
Si Si6 0.004466 0.106788 0.720079
Si Si7 0.627744 0.065011 0.281538
Si Si8 0.574283 0.209660 0.214636
O O1 0.152079 0.600015 0.759004
O O2 0.282653 0.629452 0.722133
O O3 0.233210 0.497621 0.709403
O O4 0.238854 0.568698 0.000000
O O5 0.777315 0.092177 0.500000
O O6 0.823944 0.150605 0.787503
O O7 0.817540 0.019877 0.773608
O O8 0.702223 0.087525 0.782445
O O9 0.130095 0.791780 0.500000
O O10 0.105354 0.720625 0.214807
O O11 0.227680 0.742637 0.296204
O O12 0.917106 0.350069 0.500000
O O13 0.987181 0.381925 0.780424
O O14 0.251427 0.360681 0.283367
O O15 0.289418 0.291630 0.000000
O O16 0.003228 0.105525 0.500000
O O17 0.939113 0.067277 0.779626
O O18 0.627696 0.062118 0.500000
O O19 0.580916 0.128498 0.235220
O O20 0.574066 0.222580 0.000000
#
# Coordination Sequence:
#
# PCOD9543380 Si02
#       8
#     8   8   8   8   8   8   8   8
#     4   9  19  35  54  74  97 129 163 195 239 290
#     4   9  16  24  38  58  84 119 153 190 237 282
#     4   9  16  28  46  67  91 122 159 199 238 280
#     4   9  19  32  47  70 100 130 163 201 241 285
#     4   9  17  32  52  72  95 122 155 196 235 280
#     4   8  14  22  32  51  81 116 152 189 233 286
#     4  10  20  32  46  70 101 131 163 203 248 287
#     4  10  20  34  53  75  98 127 162 199 239 289
#
# _framework density 22.120099
#
# number of rings (size 3 to 8) (size 9 to 14) (size 15 to 20)
#    0.000    2.875    1.250    0.375    1.750    1.500 
#    0.000    2.500    0.000    0.375    0.000    2.625 
#    0.000    0.000    0.000   10.375    0.000   11.250 
#
# Total GULP energy -356823.176303 kJ/mol
# GULP energy per Si atom -5575.362130 kJ/mol
# Density = 2.206975 g / cm^3
# Si number density = 22.120099 Si / 1000 Ang^3
#
#
#
# Elastic Constant Matrix: (Units=GPa)
#
#
# Indices 1 2 3 4 5 6 
#
# 1 149.1038 -8.9108 -3.0635 0.0000 0.0000 16.5678
# 2 -8.9108 149.1038 -3.0635 0.0000 0.0000 -16.5678
# 3 -3.0635 -3.0635 82.3953 0.0000 0.0000 0.0000
# 4 0.0000 0.0000 0.0000 6.5633 0.0000 0.0000
# 5 0.0000 0.0000 0.0000 0.0000 6.5633 0.0000
# 6 16.5678 -16.5678 0.0000 0.0000 0.0000 32.8360
#
#
#
# Elastic Compliance Matrix: (Units=1/GPa)
#
#
# Indices 1 2 3 4 5 6 
#
# 1 0.007111 0.000034 0.000266 0.000000 0.000000 -0.003571
# 2 0.000034 0.007111 0.000266 0.000000 0.000000 0.003571
# 3 0.000266 0.000266 0.012156 0.000000 0.000000 0.000000
# 4 0.000000 0.000000 0.000000 0.152363 0.000000 0.000000
# 5 0.000000 0.000000 0.000000 0.000000 0.152363 0.000000
# 6 -0.003571 0.003571 0.000000 0.000000 0.000000 0.034058
#
#
# Mechanical properties :
#
#
# Convention : Reuss Voigt Hill
#
# Bulk Modulus (GPa) = 36.35281 38.94749 37.65015
# Shear Modulus (GPa) = 13.39761 35.56855 24.48308
#
# Velocity S-wave (km/s) = 2.46372 4.01431 3.33051
# Velocity P-wave (km/s) = 4.95613 6.25553 5.64335
#
# Compressibility (1/GPa) = 0.02750819
#
# Stress axis : x y z
#
# Youngs Moduli (GPa) = 140.62724 140.62724 82.26141
#
# Poissons Ratio (x) = -0.00473 -0.02185
# Poissons Ratio (y) = -0.00473 -0.02185
# Poissons Ratio (z) = -0.03736 -0.03736
#
# Static dielectric constant tensor:
#      x y z
#    x 1.825800 0.000000 0.000000 
#    y 0.000000 1.825800 0.000000 
#    z 0.000000 0.000000 1.877470 
# 
# From -- ./inp_files/1307.got.cif
#   From: 2010.05.17/outbox.cif.g08.bks.cpg/sg83_1_cif.got.tgz:1307.got - 2010.06.03 18:55:12.
