data_PCOD9543592
_publ_section_title
;
Structure prediction by ZEFSAII (Michael W. Deem and Ramdas Pophale) SiO2 
 PCOD9543592
Probable space group: P 4/M
;
_chemical_formula_sum "Si O2"
_cell_formula_units_Z 40
_cell_length_a 14.468858
_cell_length_b 14.468858
_cell_length_c 7.990654
_cell_angle_alpha 90.000000
_cell_angle_beta 90.000000
_cell_angle_gamma 90.000000
_cell_volume 1672.826250
_symmetry_space_group_name_H-M "P 4/M"
_symmetry_group_IT_number 83
_symmetry_cell_setting 'tetragonal'
loop_
_space_group_symop_operation_xyz
x,y,z
-y,x,z
-x,-y,z
y,-x,z
-x,-y,-z
y,-x,-z
x,y,-z
-y,x,-z
loop_
_atom_site_type_symbol
_atom_site_label
_atom_site_fract_x
_atom_site_fract_y
_atom_site_fract_z
Si Si1 0.123158 0.908559 0.691619
Si Si2 0.523689 0.647634 0.704659
Si Si3 0.188342 0.634045 0.694206
Si Si4 0.710483 0.189475 0.187670
Si Si5 0.395907 0.987226 0.800028
O O1 0.151693 0.886150 0.500000
O O2 0.191616 0.863010 0.818769
O O3 0.018439 0.876433 0.709823
O O4 0.426836 0.602123 0.755686
O O5 0.523734 0.650173 0.500000
O O6 0.548312 0.750798 0.764454
O O7 0.170846 0.618058 0.500000
O O8 0.259757 0.719087 0.714016
O O9 0.087053 0.651392 0.769576
O O10 0.647123 0.108581 0.266586
O O11 0.679584 0.214304 0.000000
O O12 0.500000 0.000000 0.737038
O O13 0.602805 0.025496 0.000000
#
# Coordination Sequence:
#
# PCOD9543592 Si02
#       5
#     8   8   8   8   8
#     4   9  18  33  54  80 110 142 182 239 299 351
#     4   8  16  33  57  87 123 157 193 245 311 378
#     4  11  23  37  63  96 124 161 207 262 319 375
#     4  11  23  38  57  81 114 159 204 248 299 365
#     4  10  24  45  64  86 124 172 215 258 313 377
#
# _framework density 23.911629000000001
#
# number of rings (size 3 to 8) (size 9 to 14) (size 15 to 20)
#    0.000    2.200    0.000    3.600    2.800    6.000 
#    0.000    1.000    0.000    0.000    0.000    5.600 
#    0.000    0.000    0.000    0.000    0.000    0.000 
#
# Total GULP energy -223278.614968 kJ/mol
# GULP energy per Si atom -5581.965374 kJ/mol
# Density = 2.385721 g / cm^3
# Si number density = 23.911629 Si / 1000 Ang^3
#
#
#
# Elastic Constant Matrix: (Units=GPa)
#
#
# Indices 1 2 3 4 5 6 
#
# 1 44.4819 63.8495 -2.0898 0.0000 0.0000 -25.5471
# 2 63.8495 44.4819 -2.0898 0.0000 0.0000 25.5471
# 3 -2.0898 -2.0898 25.0998 0.0000 0.0000 0.0000
# 4 0.0000 0.0000 0.0000 9.6292 0.0000 0.0000
# 5 0.0000 0.0000 0.0000 0.0000 9.6292 0.0000
# 6 -25.5471 25.5471 0.0000 0.0000 0.0000 37.5744
#
#
#
# Elastic Compliance Matrix: (Units=1/GPa)
#
#
# Indices 1 2 3 4 5 6 
#
# 1 -0.004611 0.013871 0.000771 0.000000 0.000000 -0.012566
# 2 0.013871 -0.004611 0.000771 0.000000 0.000000 0.012566
# 3 0.000771 0.000771 0.039969 0.000000 0.000000 0.000000
# 4 0.000000 0.000000 0.000000 0.103851 0.000000 0.000000
# 5 0.000000 0.000000 0.000000 0.000000 0.103851 0.000000
# 6 -0.012566 0.012566 0.000000 0.000000 0.000000 0.009526
#
#
# Mechanical properties :
#
#
# Convention : Reuss Voigt Hill
#
# Bulk Modulus (GPa) = 16.24041 25.93373 21.08707
# Shear Modulus (GPa) = 21.03712 14.99278 18.01495
#
# Velocity S-wave (km/s) = 2.96934 2.50673 2.74779
# Velocity P-wave (km/s) = 4.30843 4.38719 4.34799
#
# Compressibility (1/GPa) = 0.06157480
#
# Stress axis : x y z
#
# Youngs Moduli (GPa) = -216.89109 -216.89109 25.01919
#
# Poissons Ratio (x) = 3.00856 -0.01929
# Poissons Ratio (y) = 3.00856 -0.01929
# Poissons Ratio (z) = 0.16723 0.16723
#
# Static dielectric constant tensor:
#      x y z
#    x 1.963120 0.000000 0.000000 
#    y 0.000000 1.963120 0.000000 
#    z 0.000000 0.000000 1.903180 
# 
# From -- ./inp_files/678.got.cif
#   From: 2010.05.17/outbox.cif.g08.bks.cpg/sg83_1_cif.got.tgz:678.got - 2010.06.03 18:55:12.
