data_PCOD9543895
_publ_section_title
;
Structure prediction by ZEFSAII (Michael W. Deem and Ramdas Pophale) SiO2 
 PCOD9543895
Probable space group: P 4/M
;
_chemical_formula_sum "Si O2"
_cell_formula_units_Z 40
_cell_length_a 10.684287
_cell_length_b 10.684287
_cell_length_c 16.725058
_cell_angle_alpha 90.000000
_cell_angle_beta 90.000000
_cell_angle_gamma 90.000000
_cell_volume 1909.232082
_symmetry_space_group_name_H-M "P 4/M"
_symmetry_group_IT_number 83
_symmetry_cell_setting 'tetragonal'
loop_
_space_group_symop_operation_xyz
x,y,z
-y,x,z
-x,-y,z
y,-x,z
-x,-y,-z
y,-x,-z
x,y,-z
-y,x,-z
loop_
_atom_site_type_symbol
_atom_site_label
_atom_site_fract_x
_atom_site_fract_y
_atom_site_fract_z
Si Si1 0.955190 0.641402 0.238061
Si Si2 0.695886 0.423580 0.414161
Si Si3 0.313864 0.601557 0.089832
Si Si4 0.783003 0.295398 0.258530
Si Si5 0.972278 0.793566 0.907235
O O1 0.823725 0.692602 0.269542
O O2 0.000000 0.500000 0.253436
O O3 0.069315 0.731212 0.264558
O O4 0.948981 0.670668 0.143655
O O5 0.655019 0.567450 0.414216
O O6 0.761335 0.398086 0.500000
O O7 0.759595 0.389700 0.331405
O O8 0.336622 0.452195 0.093073
O O9 0.244470 0.643181 0.171181
O O10 0.261294 0.631140 0.000000
O O11 0.865194 0.897198 0.890495
O O12 0.968162 0.765470 0.000000
#
# Coordination Sequence:
#
# PCOD9543895 Si02
#       5
#     8   8   8   8   8
#     4  12  25  38  61  90 115 161 209 243 311 374
#     4   9  18  36  65  95 121 156 200 251 316 373
#     4   9  18  34  57  83 114 155 197 246 314 369
#     4  12  24  40  58  85 128 158 202 259 295 357
#     4   9  18  37  61  82 113 161 213 262 307 347
#
# _framework density 20.950831999999998
#
# number of rings (size 3 to 8) (size 9 to 14) (size 15 to 20)
#    0.000    1.800    2.000    5.400    0.000    4.000 
#    0.000    1.000    0.000    3.600    0.000    1.400 
#    0.000    0.000    0.000    0.000    0.000    0.000 
#
# Total GULP energy -223198.970146 kJ/mol
# GULP energy per Si atom -5579.974254 kJ/mol
# Density = 2.090315 g / cm^3
# Si number density = 20.950832 Si / 1000 Ang^3
#
#
#
# Elastic Constant Matrix: (Units=GPa)
#
#
# Indices 1 2 3 4 5 6 
#
# 1 54.7962 1.2303 23.3454 0.0000 0.0000 5.0019
# 2 1.2303 54.7962 23.3454 0.0000 0.0000 -5.0019
# 3 23.3454 23.3454 125.2183 0.0000 0.0000 0.0000
# 4 0.0000 0.0000 0.0000 13.8573 0.0000 0.0000
# 5 0.0000 0.0000 0.0000 0.0000 13.8573 0.0000
# 6 5.0019 -5.0019 0.0000 0.0000 0.0000 26.9298
#
#
#
# Elastic Compliance Matrix: (Units=1/GPa)
#
#
# Indices 1 2 3 4 5 6 
#
# 1 0.020236 0.000896 -0.003940 0.000000 0.000000 -0.003592
# 2 0.000896 0.020236 -0.003940 0.000000 0.000000 0.003592
# 3 -0.003940 -0.003940 0.009455 0.000000 0.000000 0.000000
# 4 0.000000 0.000000 0.000000 0.072164 0.000000 0.000000
# 5 0.000000 0.000000 0.000000 0.000000 0.072164 0.000000
# 6 -0.003592 0.003592 0.000000 0.000000 0.000000 0.038468
#
#
# Mechanical properties :
#
#
# Convention : Reuss Voigt Hill
#
# Bulk Modulus (GPa) = 27.80877 36.73924 32.27401
# Shear Modulus (GPa) = 19.32920 23.38819 21.35870
#
# Velocity S-wave (km/s) = 3.04073 3.34479 3.19637
# Velocity P-wave (km/s) = 5.06263 5.70007 5.39078
#
# Compressibility (1/GPa) = 0.03595988
#
# Stress axis : x y z
#
# Youngs Moduli (GPa) = 49.41755 49.41755 105.76292
#
# Poissons Ratio (x) = -0.04429 0.41669
# Poissons Ratio (y) = -0.04429 0.41669
# Poissons Ratio (z) = 0.19470 0.19470
#
# Static dielectric constant tensor:
#      x y z
#    x 1.791430 0.000000 0.000000 
#    y 0.000000 1.791430 0.000000 
#    z 0.000000 0.000000 1.793200 
# 
# From -- ./inp_files/2274.got.cif
#   From: 2010.05.17/outbox.cif.g08.bks.cpg/sg83_2_cif.got.tgz:2274.got - 2010.06.03 18:55:12.
