data_PCOD9543419
_publ_section_title
;
Structure prediction by ZEFSAII (Michael W. Deem and Ramdas Pophale) SiO2 
 PCOD9543419
Probable space group: P 4/M
;
_chemical_formula_sum "Si O2"
_cell_formula_units_Z 52
_cell_length_a 17.903655
_cell_length_b 17.903655
_cell_length_c 7.959598
_cell_angle_alpha 90.000000
_cell_angle_beta 90.000000
_cell_angle_gamma 90.000000
_cell_volume 2551.376407
_symmetry_space_group_name_H-M "P 4/M"
_symmetry_group_IT_number 83
_symmetry_cell_setting 'tetragonal'
loop_
_space_group_symop_operation_xyz
x,y,z
-y,x,z
-x,-y,z
y,-x,z
-x,-y,-z
y,-x,-z
x,y,-z
-y,x,-z
loop_
_atom_site_type_symbol
_atom_site_label
_atom_site_fract_x
_atom_site_fract_y
_atom_site_fract_z
Si Si1 0.929404 0.448841 0.296415
Si Si2 0.020543 0.713797 0.801553
Si Si3 0.212339 0.455774 0.703074
Si Si4 0.860554 0.165725 0.314452
Si Si5 0.900107 0.072697 0.000000
Si Si6 0.512552 0.379915 0.294940
Si Si7 0.846597 0.706824 0.201352
O O1 0.928899 0.444376 0.500000
O O2 0.942722 0.366762 0.226693
O O3 0.852773 0.487772 0.240049
O O4 0.000000 0.500000 0.247357
O O5 0.074039 0.774423 0.714774
O O6 0.934157 0.708905 0.742895
O O7 0.019100 0.730449 0.000000
O O8 0.213073 0.458546 0.500000
O O9 0.295235 0.476744 0.763425
O O10 0.188552 0.372502 0.753730
O O11 0.868052 0.133677 0.500000
O O12 0.776333 0.195627 0.288076
O O13 0.865364 0.104516 0.168666
O O14 0.984889 0.099493 0.000000
O O15 0.579774 0.435438 0.243683
O O16 0.512550 0.378794 0.500000
O O17 0.844248 0.715568 0.000000
#
# Coordination Sequence:
#
# PCOD9543419 Si02
#       7
#     8   8   8   8   4   8   8
#     4  10  20  35  55  86 126 161 208 265 316 384
#     4  11  23  40  63  87 122 167 214 265 323 392
#     4  10  20  34  57  89 122 161 212 266 321 387
#     4  12  25  42  66  94 126 167 215 267 327 386
#     4  11  24  44  66  92 127 161 207 266 320 386
#     4   8  15  30  53  82 117 156 202 258 317 375
#     4  11  23  40  61  86 123 164 209 265 324 384
#
# _framework density 20.381155
#
# number of rings (size 3 to 8) (size 9 to 14) (size 15 to 20)
#    0.000    1.615    3.077    2.308    0.000    5.846 
#    0.000    3.846    0.000    0.923    0.000    1.077 
#    0.000    0.000    0.000    0.000    0.000    0.000 
#
# Total GULP energy -290575.013242 kJ/mol
# GULP energy per Si atom -5587.981024 kJ/mol
# Density = 2.033477 g / cm^3
# Si number density = 20.381155 Si / 1000 Ang^3
#
#
#
# Elastic Constant Matrix: (Units=GPa)
#
#
# Indices 1 2 3 4 5 6 
#
# 1 138.6857 48.3179 15.6612 0.0000 0.0000 7.3730
# 2 48.3179 138.6857 15.6612 0.0000 0.0000 -7.3730
# 3 15.6612 15.6612 61.8800 0.0000 0.0000 0.0000
# 4 0.0000 0.0000 0.0000 -44.7125 0.0000 0.0000
# 5 0.0000 0.0000 0.0000 0.0000 -44.7125 0.0000
# 6 7.3730 -7.3730 0.0000 0.0000 0.0000 21.6995
#
#
#
# Elastic Compliance Matrix: (Units=1/GPa)
#
#
# Indices 1 2 3 4 5 6 
#
# 1 0.008650 -0.003066 -0.001413 0.000000 0.000000 -0.003981
# 2 -0.003066 0.008650 -0.001413 0.000000 0.000000 0.003981
# 3 -0.001413 -0.001413 0.016876 0.000000 0.000000 0.000000
# 4 0.000000 0.000000 0.000000 -0.022365 0.000000 0.000000
# 5 0.000000 0.000000 0.000000 0.000000 -0.022365 0.000000
# 6 -0.003981 0.003981 0.000000 0.000000 0.000000 0.048789
#
#
# Mechanical properties :
#
#
# Convention : Reuss Voigt Hill
#
# Bulk Modulus (GPa) = 44.66101 55.39242 50.02671
# Shear Modulus (GPa) = 86.98342 3.76232 45.37287
#
# Velocity S-wave (km/s) = 6.53995 1.36014 4.72340
# Velocity P-wave (km/s) = 8.88755 5.45013 7.37199
#
# Compressibility (1/GPa) = 0.02239090
#
# Stress axis : x y z
#
# Youngs Moduli (GPa) = 115.60926 115.60926 59.25685
#
# Poissons Ratio (x) = 0.35441 0.08375
# Poissons Ratio (y) = 0.35441 0.08375
# Poissons Ratio (z) = 0.16339 0.16339
#
# Static dielectric constant tensor:
#      x y z
#    x 1.716200 0.000000 0.000000 
#    y 0.000000 1.716200 0.000000 
#    z 0.000000 0.000000 1.731380 
# 
# From -- ./inp_files/975.got.cif
#   From: 2010.05.17/outbox.cif.g08.bks.cpg/sg83_1_cif.got.tgz:975.got - 2010.06.03 18:55:12.
