data_PCOD9543632
_publ_section_title
;
Structure prediction by ZEFSAII (Michael W. Deem and Ramdas Pophale) SiO2 
 PCOD9543632
Probable space group: P 4/M
;
_chemical_formula_sum "Si O2"
_cell_formula_units_Z 48
_cell_length_a 10.956086
_cell_length_b 10.956086
_cell_length_c 22.800372
_cell_angle_alpha 90.000000
_cell_angle_beta 90.000000
_cell_angle_gamma 90.000000
_cell_volume 2736.861359
_symmetry_space_group_name_H-M "P 4/M"
_symmetry_group_IT_number 83
_symmetry_cell_setting 'tetragonal'
loop_
_space_group_symop_operation_xyz
x,y,z
-y,x,z
-x,-y,z
y,-x,z
-x,-y,-z
y,-x,-z
x,y,-z
-y,x,-z
loop_
_atom_site_type_symbol
_atom_site_label
_atom_site_fract_x
_atom_site_fract_y
_atom_site_fract_z
Si Si1 0.192840 0.075355 0.937047
Si Si2 0.807042 0.924821 0.807464
Si Si3 0.305373 0.552797 0.629516
Si Si4 0.804101 0.035574 0.627126
Si Si5 0.068145 0.617582 0.293855
Si Si6 0.698374 0.042646 0.500000
Si Si7 0.539153 0.796544 0.500000
O O1 0.150919 0.933898 0.937274
O O2 0.247430 0.096775 0.872761
O O3 0.255727 0.099878 0.000000
O O4 0.711150 0.896893 0.757115
O O5 0.933033 0.848670 0.801972
O O6 0.354769 0.416579 0.642047
O O7 0.184755 0.583707 0.666412
O O8 0.275561 0.560609 0.560059
O O9 0.680957 0.032380 0.663572
O O10 0.864504 0.904762 0.641625
O O11 0.776672 0.048587 0.558674
O O12 0.000000 0.500000 0.268578
O O13 0.597942 0.149379 0.500000
O O14 0.627306 0.914196 0.500000
#
# Coordination Sequence:
#
# PCOD9543632 Si02
#       7
#     8   8   8   8   8   4   4
#     4   7  10  20  43  76 111 144 177 211 251 303
#     4   9  18  33  54  82 114 147 180 216 261 315
#     4  11  26  43  60  79  98 131 179 228 274 316
#     4  11  24  39  57  80 105 134 166 209 267 328
#     4  12  25  36  57  77 106 142 177 216 263 319
#     4  11  22  35  56  85 105 126 160 203 265 329
#     4  11  22  39  62  81  99 126 168 221 271 321
#
# _framework density 17.538336999999999
#
# number of rings (size 3 to 8) (size 9 to 14) (size 15 to 20)
#    0.000    1.833    1.667    4.500    7.000    4.000 
#    0.000    0.000    0.000    0.500    0.000    0.000 
#    0.000    0.000    0.000    1.833    0.000    0.000 
#
# Total GULP energy -267928.913611 kJ/mol
# GULP energy per Si atom -5581.852367 kJ/mol
# Density = 1.749842 g / cm^3
# Si number density = 17.538337 Si / 1000 Ang^3
#
#
#
# Elastic Constant Matrix: (Units=GPa)
#
#
# Indices 1 2 3 4 5 6 
#
# 1 52.2777 18.6868 26.7026 0.0000 0.0000 4.0075
# 2 18.6868 52.2777 26.7026 0.0000 0.0000 -4.0075
# 3 26.7026 26.7026 122.6028 0.0000 0.0000 0.0000
# 4 0.0000 0.0000 0.0000 -3.5774 0.0000 0.0000
# 5 0.0000 0.0000 0.0000 0.0000 -3.5774 0.0000
# 6 4.0075 -4.0075 0.0000 0.0000 0.0000 7.9966
#
#
#
# Elastic Compliance Matrix: (Units=1/GPa)
#
#
# Indices 1 2 3 4 5 6 
#
# 1 0.025334 -0.008480 -0.003671 0.000000 0.000000 -0.016945
# 2 -0.008480 0.025334 -0.003671 0.000000 0.000000 0.016945
# 3 -0.003671 -0.003671 0.009755 0.000000 0.000000 0.000000
# 4 0.000000 0.000000 0.000000 -0.279532 0.000000 0.000000
# 5 0.000000 0.000000 0.000000 0.000000 -0.279532 0.000000
# 6 -0.016945 0.016945 0.000000 0.000000 0.000000 0.142037
#
#
# Mechanical properties :
#
#
# Convention : Reuss Voigt Hill
#
# Bulk Modulus (GPa) = 34.74587 41.26025 38.00306
# Shear Modulus (GPa) = -15.85451 10.50609 -2.67421
#
# Velocity S-wave (km/s) = -3.00991 2.45018 -1.23616
# Velocity P-wave (km/s) = 2.78837 5.61972 4.43601
#
# Compressibility (1/GPa) = 0.02878040
#
# Stress axis : x y z
#
# Youngs Moduli (GPa) = 39.47325 39.47325 102.50734
#
# Poissons Ratio (x) = 0.33472 0.37628
# Poissons Ratio (y) = 0.33472 0.37628
# Poissons Ratio (z) = 0.14490 0.14490
#
# Static dielectric constant tensor:
#      x y z
#    x 1.606300 0.000000 0.000000 
#    y 0.000000 1.606300 0.000000 
#    z 0.000000 0.000000 1.626460 
# 
# From -- ./inp_files/2958.got.cif
#   From: 2010.05.17/outbox.cif.g08.bks.cpg/sg83_2_cif.got.tgz:2958.got - 2010.06.03 18:55:12.
