data_PCOD9543176
_publ_section_title
;
Structure prediction by ZEFSAII (Michael W. Deem and Ramdas Pophale) SiO2 
 PCOD9543176
Probable space group: I -4 
;
_chemical_formula_sum "Si O2"
_cell_formula_units_Z 40
_cell_length_a 10.741904
_cell_length_b 10.741904
_cell_length_c 13.917433
_cell_angle_alpha 90.000000
_cell_angle_beta 90.000000
_cell_angle_gamma 90.000000
_cell_volume 1605.911739
_symmetry_space_group_name_H-M "I -4 "
_symmetry_group_IT_number 82
_symmetry_cell_setting 'tetragonal'
loop_
_space_group_symop_operation_xyz
x,y,z
y,-x,-z
-x,-y,z
-y,x,-z
1/2+x,1/2+y,1/2+z
1/2+y,1/2-x,1/2-z
1/2-x,1/2-y,1/2+z
1/2-y,1/2+x,1/2-z
loop_
_atom_site_type_symbol
_atom_site_label
_atom_site_fract_x
_atom_site_fract_y
_atom_site_fract_z
Si Si1 0.117879 0.156986 0.859265
Si Si2 0.714265 0.346147 0.055741
Si Si3 0.789869 0.645097 0.643796
Si Si4 0.738361 0.457927 0.249056
Si Si5 0.500000 0.500000 0.000000
Si Si6 0.500000 0.000000 0.750000
Si Si7 0.000000 0.500000 0.750000
Si Si8 0.000000 0.000000 0.000000
O O1 0.218504 0.256637 0.889688
O O2 0.987575 0.223503 0.871345
O O3 0.143987 0.073888 0.764928
O O4 0.113399 0.043787 0.935178
O O5 0.761697 0.446956 0.134586
O O6 0.569553 0.384324 0.049601
O O7 0.778966 0.325639 0.952404
O O8 0.677333 0.707032 0.706228
O O9 0.919437 0.605763 0.694594
O O10 0.866326 0.497589 0.300740
#
# Coordination Sequence:
#
# PCOD9543176 Si02
#       8
#     8   8   8   8   2   2   2   2
#     4  12  23  49  85 120 160 220 285 351 422 511
#     4  12  30  51  84 119 169 219 282 350 441 515
#     4  12  29  52  84 117 166 219 285 348 432 517
#     4  12  27  50  83 120 167 216 285 359 423 514
#     4  12  36  50  76 120 176 222 272 358 448 508
#     4  12  28  46  76 124 160 214 276 338 436 504
#     4  12  32  50  76 116 162 228 276 342 420 536
#     4  12  20  46  76 124 152 214 288 346 408 504
#
# _framework density 24.907971
#
# number of rings (size 3 to 8) (size 9 to 14) (size 15 to 20)
#    0.000    0.000    6.000    1.200   11.200    0.800 
#    0.000    0.000    0.000    0.000    0.000    0.000 
#    0.000    0.000    0.000    0.000    0.000    0.000 
#
# Total GULP energy -111506.868204 kJ/mol
# GULP energy per Si atom -5575.343410 kJ/mol
# Density = 2.485128 g / cm^3
# Si number density = 24.907971 Si / 1000 Ang^3
#
#
#
# Elastic Constant Matrix: (Units=GPa)
#
#
# Indices 1 2 3 4 5 6 
#
# 1 115.3331 37.3272 41.9667 0.0000 0.0000 -1.7923
# 2 37.3272 115.3331 41.9667 0.0000 0.0000 1.7923
# 3 41.9667 41.9667 110.2361 0.0000 0.0000 0.0000
# 4 0.0000 0.0000 0.0000 27.3100 0.0000 0.0000
# 5 0.0000 0.0000 0.0000 0.0000 27.3100 0.0000
# 6 -1.7923 1.7923 0.0000 0.0000 0.0000 78.9569
#
#
#
# Elastic Compliance Matrix: (Units=1/GPa)
#
#
# Indices 1 2 3 4 5 6 
#
# 1 0.010559 -0.002274 -0.003154 0.000000 0.000000 0.000291
# 2 -0.002274 0.010559 -0.003154 0.000000 0.000000 -0.000291
# 3 -0.003154 -0.003154 0.011473 0.000000 0.000000 0.000000
# 4 0.000000 0.000000 0.000000 0.036617 0.000000 0.000000
# 5 0.000000 0.000000 0.000000 0.000000 0.036617 0.000000
# 6 0.000291 -0.000291 0.000000 0.000000 0.000000 0.012678
#
#
# Mechanical properties :
#
#
# Convention : Reuss Voigt Hill
#
# Bulk Modulus (GPa) = 64.82460 64.82482 64.82471
# Shear Modulus (GPa) = 35.50935 41.35816 38.43375
#
# Velocity S-wave (km/s) = 3.77984 4.07927 3.93240
# Velocity P-wave (km/s) = 6.71801 6.94762 6.83378
#
# Compressibility (1/GPa) = 0.01542624
#
# Stress axis : x y z
#
# Youngs Moduli (GPa) = 94.70843 94.70843 87.16259
#
# Poissons Ratio (x) = 0.21539 0.27490
# Poissons Ratio (y) = 0.21539 0.27490
# Poissons Ratio (z) = 0.29870 0.29870
#
# Static dielectric constant tensor:
#      x y z
#    x 2.041660 0.000000 0.000000 
#    y 0.000000 2.041660 0.000000 
#    z 0.000000 0.000000 2.123300 
# 
# From -- ./inp_files/2251.got.cif
#   From: 2010.05.17/outbox.cif.g08.bks.cpg/sg82_2_cif.got.tgz:2251.got - 2010.06.03 18:52:26.
