data_PCOD9543509
_publ_section_title
;
Structure prediction by ZEFSAII (Michael W. Deem and Ramdas Pophale) SiO2 
 PCOD9543509
Probable space group: P 4/M
;
_chemical_formula_sum "Si O2"
_cell_formula_units_Z 58
_cell_length_a 17.998842
_cell_length_b 17.998842
_cell_length_c 7.691123
_cell_angle_alpha 90.000000
_cell_angle_beta 90.000000
_cell_angle_gamma 90.000000
_cell_volume 2491.603235
_symmetry_space_group_name_H-M "P 4/M"
_symmetry_group_IT_number 83
_symmetry_cell_setting 'tetragonal'
loop_
_space_group_symop_operation_xyz
x,y,z
-y,x,z
-x,-y,z
y,-x,z
-x,-y,-z
y,-x,-z
x,y,-z
-y,x,-z
loop_
_atom_site_type_symbol
_atom_site_label
_atom_site_fract_x
_atom_site_fract_y
_atom_site_fract_z
Si Si1 0.615300 0.123271 0.706023
Si Si2 0.881221 0.000354 0.211811
Si Si3 0.332921 0.628408 0.201047
Si Si4 0.248313 0.087589 0.791052
Si Si5 0.408952 0.043347 0.804359
Si Si6 0.773277 0.748809 0.296336
Si Si7 0.273438 0.470153 0.788142
Si Si8 0.500000 0.000000 0.500000
O O1 0.614050 0.101002 0.500000
O O2 0.606973 0.045546 0.804817
O O3 0.693963 0.160806 0.758646
O O4 0.558485 0.191851 0.733072
O O5 0.798636 0.983147 0.272786
O O6 0.929156 0.928345 0.266859
O O7 0.881111 0.003872 0.000000
O O8 0.274295 0.695882 0.208335
O O9 0.408451 0.666008 0.273002
O O10 0.298515 0.552047 0.272858
O O11 0.349764 0.611462 0.000000
O O12 0.213171 0.165000 0.734434
O O13 0.333719 0.082422 0.744150
O O14 0.246557 0.085949 0.000000
O O15 0.467800 0.054291 0.654278
O O16 0.429993 0.066660 0.000000
O O17 0.763247 0.734414 0.500000
O O18 0.271809 0.469251 0.000000
#
# Coordination Sequence:
#
# PCOD9543509 Si02
#       8
#     8   8   8   8   8   8   8   2
#     4  10  21  40  61  88 119 164 212 255 308 374
#     4   8  15  30  54  88 127 162 197 244 308 374
#     4   9  18  34  55  82 115 150 191 247 303 369
#     4  10  22  37  60  94 123 158 208 260 312 373
#     4  11  25  44  68  96 125 166 218 265 323 391
#     4  10  22  37  58  84 120 161 204 252 311 370
#     4   9  18  33  56  85 117 153 198 246 306 372
#     4  12  26  48  68  86 128 162 206 274 336 374
#
# _framework density 23.278186000000002
#
# number of rings (size 3 to 8) (size 9 to 14) (size 15 to 20)
#    0.000    2.345    0.690    1.448    2.897    3.586 
#    0.000    2.759    0.000    0.000    0.000    4.828 
#    0.000    0.000    0.000    0.000    0.000    0.000 
#
# Total GULP energy -323418.614646 kJ/mol
# GULP energy per Si atom -5576.183011 kJ/mol
# Density = 2.322520 g / cm^3
# Si number density = 23.278186 Si / 1000 Ang^3
#
#
#
# Elastic Constant Matrix: (Units=GPa)
#
#
# Indices 1 2 3 4 5 6 
#
# 1 50.6136 23.8989 -6.7891 0.0000 0.0000 -9.1661
# 2 23.8989 50.6136 -6.7891 0.0000 0.0000 9.1661
# 3 -6.7891 -6.7891 37.8743 0.0000 0.0000 0.0000
# 4 0.0000 0.0000 0.0000 -28.5426 0.0000 0.0000
# 5 0.0000 0.0000 0.0000 0.0000 -28.5426 0.0000
# 6 -9.1661 9.1661 0.0000 0.0000 0.0000 23.3004
#
#
#
# Elastic Compliance Matrix: (Units=1/GPa)
#
#
# Indices 1 2 3 4 5 6 
#
# 1 0.032574 -0.018700 0.002487 0.000000 0.000000 0.020171
# 2 -0.018700 0.032574 0.002487 0.000000 0.000000 -0.020171
# 3 0.002487 0.002487 0.027295 0.000000 0.000000 0.000000
# 4 0.000000 0.000000 0.000000 -0.035035 0.000000 0.000000
# 5 0.000000 0.000000 0.000000 0.000000 -0.035035 0.000000
# 6 0.020171 -0.020171 0.000000 0.000000 0.000000 0.058788
#
#
# Mechanical properties :
#
#
# Convention : Reuss Voigt Hill
#
# Bulk Modulus (GPa) = 15.38702 17.74923 16.56812
# Shear Modulus (GPa) = 38.38026 1.82842 20.10434
#
# Velocity S-wave (km/s) = 4.06490 0.88723 2.94199
# Velocity P-wave (km/s) = 5.35310 2.94804 4.32126
#
# Compressibility (1/GPa) = 0.06498983
#
# Stress axis : x y z
#
# Youngs Moduli (GPa) = 30.69942 30.69942 36.63715
#
# Poissons Ratio (x) = 0.57408 -0.09111
# Poissons Ratio (y) = 0.57408 -0.09111
# Poissons Ratio (z) = -0.07635 -0.07635
#
# Static dielectric constant tensor:
#      x y z
#    x 2.433340 0.000000 0.000000 
#    y 0.000000 2.433340 0.000000 
#    z 0.000000 0.000000 1.893630 
# 
# From -- ./inp_files/1131.got.cif
#   From: 2010.05.17/outbox.cif.g08.bks.cpg/sg83_1_cif.got.tgz:1131.got - 2010.06.03 18:55:12.
