data_PCOD9543643
_publ_section_title
;
Structure prediction by ZEFSAII (Michael W. Deem and Ramdas Pophale) SiO2 
 PCOD9543643
Probable space group: P 4/M
;
_chemical_formula_sum "Si O2"
_cell_formula_units_Z 40
_cell_length_a 14.105979
_cell_length_b 14.105979
_cell_length_c 9.924957
_cell_angle_alpha 90.000000
_cell_angle_beta 90.000000
_cell_angle_gamma 90.000000
_cell_volume 1974.854481
_symmetry_space_group_name_H-M "P 4/M"
_symmetry_group_IT_number 83
_symmetry_cell_setting 'tetragonal'
loop_
_space_group_symop_operation_xyz
x,y,z
-y,x,z
-x,-y,z
y,-x,z
-x,-y,-z
y,-x,-z
x,y,-z
-y,x,-z
loop_
_atom_site_type_symbol
_atom_site_label
_atom_site_fract_x
_atom_site_fract_y
_atom_site_fract_z
Si Si1 0.000774 0.613051 0.342751
Si Si2 0.351462 0.465479 0.163639
Si Si3 0.048479 0.849000 0.000000
Si Si4 0.653728 0.177497 0.159577
Si Si5 0.853877 0.245068 0.754419
Si Si6 0.880662 0.894489 0.500000
O O1 0.984587 0.637248 0.500000
O O2 0.916560 0.652884 0.249283
O O3 0.000000 0.500000 0.328785
O O4 0.101486 0.657361 0.298345
O O5 0.431798 0.389487 0.206973
O O6 0.247147 0.432023 0.202591
O O7 0.352001 0.465406 0.000000
O O8 0.074085 0.791015 0.868308
O O9 0.941596 0.884778 0.000000
O O10 0.749520 0.238322 0.183097
O O11 0.646514 0.155078 0.000000
O O12 0.856415 0.171403 0.631444
O O13 0.991491 0.871651 0.500000
#
# Coordination Sequence:
#
# PCOD9543643 Si02
#       6
#     8   8   4   8   8   4
#     4  11  27  48  67  93 132 179 226 273 329 395
#     4   8  16  34  61  92 127 160 203 260 324 395
#     4  11  22  38  61  90 130 161 201 268 328 372
#     4  11  24  40  68  99 131 170 215 271 333 394
#     4  12  24  40  63  90 129 168 218 266 320 393
#     4  11  22  38  63  90 118 165 221 262 310 378
#
# _framework density 20.254656000000001
#
# number of rings (size 3 to 8) (size 9 to 14) (size 15 to 20)
#    0.000    1.400    2.000    4.200    5.600    2.000 
#    0.000    0.000    0.000    0.000    0.000    1.400 
#    0.000    0.000    0.000    0.000    0.000    0.000 
#
# Total GULP energy -223535.436537 kJ/mol
# GULP energy per Si atom -5588.385913 kJ/mol
# Density = 2.020856 g / cm^3
# Si number density = 20.254656 Si / 1000 Ang^3
#
#
#
# Elastic Constant Matrix: (Units=GPa)
#
#
# Indices 1 2 3 4 5 6 
#
# 1 64.6690 14.1173 19.0898 0.0000 0.0000 7.2244
# 2 14.1173 64.6690 19.0898 0.0000 0.0000 -7.2244
# 3 19.0898 19.0898 100.5028 0.0000 0.0000 0.0000
# 4 0.0000 0.0000 0.0000 9.4058 0.0000 0.0000
# 5 0.0000 0.0000 0.0000 0.0000 9.4058 0.0000
# 6 7.2244 -7.2244 0.0000 0.0000 0.0000 24.7867
#
#
#
# Elastic Compliance Matrix: (Units=1/GPa)
#
#
# Indices 1 2 3 4 5 6 
#
# 1 0.017779 -0.003800 -0.002655 0.000000 0.000000 -0.006290
# 2 -0.003800 0.017779 -0.002655 0.000000 0.000000 0.006290
# 3 -0.002655 -0.002655 0.010959 0.000000 0.000000 0.000000
# 4 0.000000 0.000000 0.000000 0.106317 0.000000 0.000000
# 5 0.000000 0.000000 0.000000 0.000000 0.106317 0.000000
# 6 -0.006290 0.006290 0.000000 0.000000 0.000000 0.044011
#
#
# Mechanical properties :
#
#
# Convention : Reuss Voigt Hill
#
# Bulk Modulus (GPa) = 35.34047 37.15942 36.24994
# Shear Modulus (GPa) = 15.11416 20.55593 17.83504
#
# Velocity S-wave (km/s) = 2.73464 3.18916 2.97061
# Velocity P-wave (km/s) = 5.23994 5.65217 5.44995
#
# Compressibility (1/GPa) = 0.02829617
#
# Stress axis : x y z
#
# Youngs Moduli (GPa) = 56.24495 56.24495 91.25190
#
# Poissons Ratio (x) = 0.21374 0.24230
# Poissons Ratio (y) = 0.21374 0.24230
# Poissons Ratio (z) = 0.14935 0.14935
#
# Static dielectric constant tensor:
#      x y z
#    x 1.726770 0.000000 0.000000 
#    y 0.000000 1.726770 0.000000 
#    z 0.000000 0.000000 1.674370 
# 
# From -- ./inp_files/723.got.cif
#   From: 2010.05.17/outbox.cif.g08.bks.cpg/sg83_1_cif.got.tgz:723.got - 2010.06.03 18:55:12.
