data_PCOD9543089
_publ_section_title
;
Structure prediction by ZEFSAII (Michael W. Deem and Ramdas Pophale) SiO2 
 PCOD9543089
Probable space group: I -4 
;
_chemical_formula_sum "Si O2"
_cell_formula_units_Z 56
_cell_length_a 15.683280
_cell_length_b 15.683280
_cell_length_c 11.480487
_cell_angle_alpha 90.000000
_cell_angle_beta 90.000000
_cell_angle_gamma 90.000000
_cell_volume 2823.801103
_symmetry_space_group_name_H-M "I -4 "
_symmetry_group_IT_number 82
_symmetry_cell_setting 'tetragonal'
loop_
_space_group_symop_operation_xyz
x,y,z
y,-x,-z
-x,-y,z
-y,x,-z
1/2+x,1/2+y,1/2+z
1/2+y,1/2-x,1/2-z
1/2-x,1/2-y,1/2+z
1/2-y,1/2+x,1/2-z
loop_
_atom_site_type_symbol
_atom_site_label
_atom_site_fract_x
_atom_site_fract_y
_atom_site_fract_z
Si Si1 0.130759 0.550750 0.280707
Si Si2 0.436213 0.378149 0.035839
Si Si3 0.210296 0.136874 0.984463
Si Si4 0.165160 0.238837 0.359681
Si Si5 0.455609 0.267592 0.526195
Si Si6 0.952069 0.753754 0.748009
Si Si7 0.630136 0.206318 0.279136
O O1 0.105746 0.456082 0.235453
O O2 0.202440 0.595230 0.201872
O O3 0.175202 0.549686 0.409413
O O4 0.446972 0.336411 0.164210
O O5 0.391624 0.471016 0.024952
O O6 0.378684 0.311027 0.965313
O O7 0.280889 0.120619 0.083221
O O8 0.192148 0.044538 0.929915
O O9 0.255754 0.201958 0.898462
O O10 0.129226 0.178270 0.046765
O O11 0.208932 0.170882 0.275466
O O12 0.457702 0.273315 0.385346
O O13 0.871609 0.693009 0.735912
O O14 0.037797 0.700587 0.720359
#
# Coordination Sequence:
#
# PCOD9543089 Si02
#       7
#     8   8   8   8   8   8   8
#     4  11  25  44  68 102 138 179 238 304 358 423
#     4  11  25  44  68 102 138 179 238 304 358 423
#     4  11  23  41  65  97 131 178 228 286 348 423
#     4  12  22  40  72  96 128 180 238 284 358 426
#     4  11  24  42  66  96 136 175 226 282 356 427
#     4  11  24  42  66  96 136 175 226 282 356 427
#     4  11  23  41  65  97 131 178 228 286 348 423
#
# _framework density 19.831424999999999
#
# number of rings (size 3 to 8) (size 9 to 14) (size 15 to 20)
#    0.000    0.857    7.143    0.000    0.000    5.143 
#    0.000    0.000    0.000    0.000    0.000    0.000 
#    0.000    0.000    0.000    0.000    0.000    0.000 
#
# Total GULP energy -156051.665919 kJ/mol
# GULP energy per Si atom -5573.273783 kJ/mol
# Density = 1.978629 g / cm^3
# Si number density = 19.831425 Si / 1000 Ang^3
#
#
#
# Elastic Constant Matrix: (Units=GPa)
#
#
# Indices 1 2 3 4 5 6 
#
# 1 99.9527 34.6810 30.0380 0.0000 0.0000 1.4907
# 2 34.6810 99.9527 30.0380 0.0000 0.0000 -1.4907
# 3 30.0380 30.0380 79.8026 0.0000 0.0000 0.0000
# 4 0.0000 0.0000 0.0000 25.0080 0.0000 0.0000
# 5 0.0000 0.0000 0.0000 0.0000 25.0080 0.0000
# 6 1.4907 -1.4907 0.0000 0.0000 0.0000 21.9065
#
#
#
# Elastic Compliance Matrix: (Units=1/GPa)
#
#
# Indices 1 2 3 4 5 6 
#
# 1 0.012148 -0.003221 -0.003360 0.000000 0.000000 -0.001046
# 2 -0.003221 0.012148 -0.003360 0.000000 0.000000 0.001046
# 3 -0.003360 -0.003360 0.015060 0.000000 0.000000 0.000000
# 4 0.000000 0.000000 0.000000 0.039987 0.000000 0.000000
# 5 0.000000 0.000000 0.000000 0.000000 0.039987 0.000000
# 6 -0.001046 0.001046 0.000000 0.000000 0.000000 0.045791
#
#
# Mechanical properties :
#
#
# Convention : Reuss Voigt Hill
#
# Bulk Modulus (GPa) = 51.35110 52.13577 51.74344
# Shear Modulus (GPa) = 26.11048 26.71459 26.41253
#
# Velocity S-wave (km/s) = 3.63246 3.67425 3.65341
# Velocity P-wave (km/s) = 6.59872 6.65933 6.62909
#
# Compressibility (1/GPa) = 0.01947378
#
# Stress axis : x y z
#
# Youngs Moduli (GPa) = 82.32065 82.32065 66.39913
#
# Poissons Ratio (x) = 0.26513 0.22311
# Poissons Ratio (y) = 0.26513 0.22311
# Poissons Ratio (z) = 0.27661 0.27661
#
# Static dielectric constant tensor:
#      x y z
#    x 1.725410 0.000000 0.000000 
#    y 0.000000 1.725410 0.000000 
#    z 0.000000 0.000000 1.725880 
# 
# From -- ./inp_files/1843.got.cif
#   From: 2010.05.17/outbox.cif.g08.bks.cpg/sg82_1_cif.got.tgz:1843.got - 2010.06.03 18:52:26.
