data_PCOD9543335
_publ_section_title
;
Structure prediction by ZEFSAII (Michael W. Deem and Ramdas Pophale) SiO2 
 PCOD9543335
Probable space group: P 4/M
;
_chemical_formula_sum "Si O2"
_cell_formula_units_Z 32
_cell_length_a 12.862051
_cell_length_b 12.862051
_cell_length_c 7.861053
_cell_angle_alpha 90.000000
_cell_angle_beta 90.000000
_cell_angle_gamma 90.000000
_cell_volume 1300.472518
_symmetry_space_group_name_H-M "P 4/M"
_symmetry_group_IT_number 83
_symmetry_cell_setting 'tetragonal'
loop_
_space_group_symop_operation_xyz
x,y,z
-y,x,z
-x,-y,z
y,-x,z
-x,-y,-z
y,-x,-z
x,y,-z
-y,x,-z
loop_
_atom_site_type_symbol
_atom_site_label
_atom_site_fract_x
_atom_site_fract_y
_atom_site_fract_z
Si Si1 0.921246 0.147274 0.707994
Si Si2 0.352545 0.420254 0.704942
Si Si3 0.403215 0.872988 0.809864
Si Si4 0.630783 0.905895 0.306400
O O1 0.920069 0.149511 0.500000
O O2 0.875254 0.256927 0.763803
O O3 0.865040 0.041703 0.761189
O O4 0.458830 0.364186 0.759963
O O5 0.351927 0.419618 0.500000
O O6 0.243902 0.373450 0.763707
O O7 0.367642 0.967624 0.691429
O O8 0.528994 0.875792 0.795885
O O9 0.370809 0.899191 0.000000
O O10 0.617622 0.866920 0.500000
#
# Coordination Sequence:
#
# PCOD9543335 Si02
#       4
#     8   8   8   8
#     4   8  15  29  50  77 104 127 159 208 259 300
#     4   9  19  37  59  80 102 131 171 217 260 308
#     4  11  22  35  51  74 107 141 171 211 262 312
#     4  10  19  33  54  77 102 137 179 218 254 300
#
# _framework density 24.606438000000001
#
# number of rings (size 3 to 8) (size 9 to 14) (size 15 to 20)
#    0.000    2.500    0.000    6.000    0.000    3.000 
#    0.000    6.250    0.000    4.500    0.000    7.000 
#    0.000    0.000    0.000    0.000    0.000    0.000 
#
# Total GULP energy -178923.736856 kJ/mol
# GULP energy per Si atom -5591.366777 kJ/mol
# Density = 2.455043 g / cm^3
# Si number density = 24.606438 Si / 1000 Ang^3
#
#
#
# Elastic Constant Matrix: (Units=GPa)
#
#
# Indices 1 2 3 4 5 6 
#
# 1 125.3101 -5.0946 -3.5355 0.0000 0.0000 3.6941
# 2 -5.0946 125.3101 -3.5355 0.0000 0.0000 -3.6941
# 3 -3.5355 -3.5355 56.6174 0.0000 0.0000 0.0000
# 4 0.0000 0.0000 0.0000 108.9193 0.0000 0.0000
# 5 0.0000 0.0000 0.0000 0.0000 108.9193 0.0000
# 6 3.6941 -3.6941 0.0000 0.0000 0.0000 -15.8356
#
#
#
# Elastic Compliance Matrix: (Units=1/GPa)
#
#
# Indices 1 2 3 4 5 6 
#
# 1 0.007959 0.000390 0.000521 0.000000 0.000000 0.001766
# 2 0.000390 0.007959 0.000521 0.000000 0.000000 -0.001766
# 3 0.000521 0.000521 0.017728 0.000000 0.000000 0.000000
# 4 0.000000 0.000000 0.000000 0.009181 0.000000 0.000000
# 5 0.000000 0.000000 0.000000 0.000000 0.009181 0.000000
# 6 0.001766 -0.001766 0.000000 0.000000 0.000000 -0.062325
#
#
# Mechanical properties :
#
#
# Convention : Reuss Voigt Hill
#
# Bulk Modulus (GPa) = 27.38891 31.43403 29.41147
# Shear Modulus (GPa) = -4932.33984 61.69415 -2435.32284
#
# Velocity S-wave (km/s) = -44.82012 5.01266 -31.49378
# Velocity P-wave (km/s) = 51.64593 6.80477 36.20081
#
# Compressibility (1/GPa) = 0.03651113
#
# Stress axis : x y z
#
# Youngs Moduli (GPa) = 125.64815 125.64815 56.40940
#
# Poissons Ratio (x) = -0.04904 -0.02941
# Poissons Ratio (y) = -0.04904 -0.02941
# Poissons Ratio (z) = -0.06551 -0.06551
#
# Static dielectric constant tensor:
#      x y z
#    x 1.963250 0.000000 0.000000 
#    y 0.000000 1.963250 0.000000 
#    z 0.000000 0.000000 1.869640 
# 
# From -- ./inp_files/439.got.cif
#   From: 2010.05.17/outbox.cif.g08.bks.cpg/sg83_1_cif.got.tgz:439.got - 2010.06.03 18:55:12.
