data_PCOD9543416
_publ_section_title
;
Structure prediction by ZEFSAII (Michael W. Deem and Ramdas Pophale) SiO2 
 PCOD9543416
Probable space group: P 4/M
;
_chemical_formula_sum "Si O2"
_cell_formula_units_Z 56
_cell_length_a 13.732703
_cell_length_b 13.732703
_cell_length_c 12.370151
_cell_angle_alpha 90.000000
_cell_angle_beta 90.000000
_cell_angle_gamma 90.000000
_cell_volume 2332.851296
_symmetry_space_group_name_H-M "P 4/M"
_symmetry_group_IT_number 83
_symmetry_cell_setting 'tetragonal'
loop_
_space_group_symop_operation_xyz
x,y,z
-y,x,z
-x,-y,z
y,-x,z
-x,-y,-z
y,-x,-z
x,y,-z
-y,x,-z
loop_
_atom_site_type_symbol
_atom_site_label
_atom_site_fract_x
_atom_site_fract_y
_atom_site_fract_z
Si Si1 0.588125 0.070857 0.834664
Si Si2 0.168726 0.376332 0.620739
Si Si3 0.199750 0.733741 0.745911
Si Si4 0.957959 0.147404 0.328794
Si Si5 0.931747 0.805473 0.119285
Si Si6 0.489858 0.654118 0.665018
Si Si7 0.745493 0.462013 0.875592
O O1 0.606537 0.083772 0.706549
O O2 0.690841 0.039688 0.882664
O O3 0.548579 0.174878 0.875090
O O4 0.500000 0.000000 0.858452
O O5 0.137359 0.353566 0.500000
O O6 0.236280 0.291305 0.671616
O O7 0.238051 0.471212 0.622961
O O8 0.103136 0.752689 0.672541
O O9 0.197774 0.822383 0.832656
O O10 0.212989 0.632869 0.810054
O O11 0.064368 0.116307 0.372768
O O12 0.994854 0.145155 0.203115
O O13 0.933601 0.845955 0.000000
O O14 0.401079 0.586168 0.629934
O O15 0.497356 0.662903 0.795425
O O16 0.720328 0.438621 0.000000
#
# Coordination Sequence:
#
# PCOD9543416 Si02
#       7
#     8   8   8   8   8   8   8
#     4  10  22  38  56  85 122 158 203 253 295 356
#     4  10  22  41  64  86 114 155 200 252 313 363
#     4  10  20  38  56  82 120 154 194 249 302 355
#     4   9  19  34  56  84 115 153 195 244 296 349
#     4  10  20  34  55  82 119 163 199 238 295 352
#     4  10  21  40  60  87 121 152 199 252 305 359
#     4  11  22  36  59  87 123 167 206 241 292 364
#
# _framework density 24.004958999999999
#
# number of rings (size 3 to 8) (size 9 to 14) (size 15 to 20)
#    0.000    2.000    1.429    1.714    0.000    6.571 
#    0.000    4.286    0.000   12.857    0.000    9.000 
#    0.000    0.000    0.000    0.000    0.000    0.000 
#
# Total GULP energy -312294.962360 kJ/mol
# GULP energy per Si atom -5576.695756 kJ/mol
# Density = 2.395032 g / cm^3
# Si number density = 24.004959 Si / 1000 Ang^3
#
#
#
# Elastic Constant Matrix: (Units=GPa)
#
#
# Indices 1 2 3 4 5 6 
#
# 1 78.7499 15.5017 3.9800 0.0000 0.0000 1.2564
# 2 15.5017 78.7499 3.9800 0.0000 0.0000 -1.2564
# 3 3.9800 3.9800 136.4952 0.0000 0.0000 0.0000
# 4 0.0000 0.0000 0.0000 -7.7739 0.0000 0.0000
# 5 0.0000 0.0000 0.0000 0.0000 -7.7739 0.0000
# 6 1.2564 -1.2564 0.0000 0.0000 0.0000 49.1115
#
#
#
# Elastic Compliance Matrix: (Units=1/GPa)
#
#
# Indices 1 2 3 4 5 6 
#
# 1 0.013231 -0.002595 -0.000310 0.000000 0.000000 -0.000405
# 2 -0.002595 0.013231 -0.000310 0.000000 0.000000 0.000405
# 3 -0.000310 -0.000310 0.007344 0.000000 0.000000 0.000000
# 4 0.000000 0.000000 0.000000 -0.128635 0.000000 0.000000
# 5 0.000000 0.000000 0.000000 0.000000 -0.128635 0.000000
# 6 -0.000405 0.000405 0.000000 0.000000 0.000000 0.020383
#
#
# Mechanical properties :
#
#
# Convention : Reuss Voigt Hill
#
# Bulk Modulus (GPa) = 36.52836 37.87983 37.20409
# Shear Modulus (GPa) = -26.66326 24.74830 -0.95748
#
# Velocity S-wave (km/s) = -3.33639 3.21435 -0.63225
# Velocity P-wave (km/s) = 0.63877 5.43970 3.87288
#
# Compressibility (1/GPa) = 0.02737599
#
# Stress axis : x y z
#
# Youngs Moduli (GPa) = 75.57753 75.57753 136.15910
#
# Poissons Ratio (x) = 0.19615 0.04223
# Poissons Ratio (y) = 0.19615 0.04223
# Poissons Ratio (z) = 0.02344 0.02344
#
# Static dielectric constant tensor:
#      x y z
#    x 1.959910 0.000000 0.000000 
#    y 0.000000 1.959910 0.000000 
#    z 0.000000 0.000000 1.963650 
# 
# From -- ./inp_files/1937.got.cif
#   From: 2010.05.17/outbox.cif.g08.bks.cpg/sg83_1_cif.got.tgz:1937.got - 2010.06.03 18:55:12.
