data_PCOD9543152
_publ_section_title
;
Structure prediction by ZEFSAII (Michael W. Deem and Ramdas Pophale) SiO2 
 PCOD9543152
Probable space group: I -4 
;
_chemical_formula_sum "Si O2"
_cell_formula_units_Z 34
_cell_length_a 8.546430
_cell_length_b 8.546430
_cell_length_c 16.738109
_cell_angle_alpha 90.000000
_cell_angle_beta 90.000000
_cell_angle_gamma 90.000000
_cell_volume 1222.576015
_symmetry_space_group_name_H-M "I -4 "
_symmetry_group_IT_number 82
_symmetry_cell_setting 'tetragonal'
loop_
_space_group_symop_operation_xyz
x,y,z
y,-x,-z
-x,-y,z
-y,x,-z
1/2+x,1/2+y,1/2+z
1/2+y,1/2-x,1/2-z
1/2-x,1/2-y,1/2+z
1/2-y,1/2+x,1/2-z
loop_
_atom_site_type_symbol
_atom_site_label
_atom_site_fract_x
_atom_site_fract_y
_atom_site_fract_z
Si Si1 0.537009 0.688691 0.361387
Si Si2 0.122171 0.615479 0.501490
Si Si3 0.338984 0.586772 0.895906
Si Si4 0.000000 0.500000 0.750000
Si Si5 0.225628 0.385125 0.258950
O O1 0.500000 0.500000 0.349751
O O2 0.523276 0.742682 0.452444
O O3 0.722057 0.686855 0.341866
O O4 0.479365 0.838485 0.304774
O O5 0.172996 0.748847 0.441524
O O6 0.000000 0.500000 0.459447
O O7 0.021237 0.701414 0.571174
O O8 0.500000 0.500000 0.915592
O O9 0.356537 0.636168 0.803912
O O10 0.194179 0.567392 0.268320
#
# Coordination Sequence:
#
# PCOD9543152 Si02
#       5
#     8   8   8   2   8
#     4  12  26  48  81 122 163 222 282 354 434 515
#     4  12  27  48  81 113 160 218 277 346 420 513
#     4  12  25  53  80 111 156 223 274 337 431 516
#     4  12  24  52  80 124 180 220 282 356 460 508
#     4  11  26  43  79 119 158 204 275 355 419 511
#
# _framework density 27.810133
#
# number of rings (size 3 to 8) (size 9 to 14) (size 15 to 20)
#    0.000    0.235    3.529    4.941    6.588    0.000 
#    0.000    0.000    0.000    0.000    0.000    0.000 
#    0.000    0.000    0.000    0.000    0.000    0.000 
#
# Total GULP energy -95145.683074 kJ/mol
# GULP energy per Si atom -5596.804887 kJ/mol
# Density = 2.774684 g / cm^3
# Si number density = 27.810133 Si / 1000 Ang^3
#
#
#
# Elastic Constant Matrix: (Units=GPa)
#
#
# Indices 1 2 3 4 5 6 
#
# 1 149.3680 40.2224 25.5652 0.0000 0.0000 -12.3389
# 2 40.2224 149.3680 25.5652 0.0000 0.0000 12.3389
# 3 25.5652 25.5652 75.6350 0.0000 0.0000 0.0000
# 4 0.0000 0.0000 0.0000 42.0197 0.0000 0.0000
# 5 0.0000 0.0000 0.0000 0.0000 42.0197 0.0000
# 6 -12.3389 12.3389 0.0000 0.0000 0.0000 34.5698
#
#
#
# Elastic Compliance Matrix: (Units=1/GPa)
#
#
# Indices 1 2 3 4 5 6 
#
# 1 0.007885 -0.002081 -0.001962 0.000000 0.000000 0.003557
# 2 -0.002081 0.007885 -0.001962 0.000000 0.000000 -0.003557
# 3 -0.001962 -0.001962 0.014548 0.000000 0.000000 0.000000
# 4 0.000000 0.000000 0.000000 0.023798 0.000000 0.000000
# 5 0.000000 0.000000 0.000000 0.000000 0.023798 0.000000
# 6 0.003557 -0.003557 0.000000 0.000000 0.000000 0.031466
#
#
# Mechanical properties :
#
#
# Convention : Reuss Voigt Hill
#
# Bulk Modulus (GPa) = 54.62083 61.89739 58.25911
# Shear Modulus (GPa) = 39.21798 42.58974 40.90386
#
# Velocity S-wave (km/s) = 3.75934 3.91762 3.83930
# Velocity P-wave (km/s) = 6.20700 6.53981 6.37557
#
# Compressibility (1/GPa) = 0.01830803
#
# Stress axis : x y z
#
# Youngs Moduli (GPa) = 126.82364 126.82364 68.74032
#
# Poissons Ratio (x) = 0.26397 0.13484
# Poissons Ratio (y) = 0.26397 0.13484
# Poissons Ratio (z) = 0.24878 0.24878
#
# Static dielectric constant tensor:
#      x y z
#    x 2.152830 0.000000 0.000000 
#    y 0.000000 2.152830 0.000000 
#    z 0.000000 0.000000 2.124870 
# 
# From -- ./inp_files/2967.got.cif
#   From: 2010.05.17/outbox.cif.g08.bks.cpg/sg82_2_cif.got.tgz:2967.got - 2010.06.03 18:52:26.
