data_PCOD9543916
_publ_section_title
;
Structure prediction by ZEFSAII (Michael W. Deem and Ramdas Pophale) SiO2 
 PCOD9543916
Probable space group: P 4/M
;
_chemical_formula_sum "Si O2"
_cell_formula_units_Z 36
_cell_length_a 16.209623
_cell_length_b 16.209623
_cell_length_c 5.742611
_cell_angle_alpha 90.000000
_cell_angle_beta 90.000000
_cell_angle_gamma 90.000000
_cell_volume 1508.881824
_symmetry_space_group_name_H-M "P 4/M"
_symmetry_group_IT_number 83
_symmetry_cell_setting 'tetragonal'
loop_
_space_group_symop_operation_xyz
x,y,z
-y,x,z
-x,-y,z
y,-x,z
-x,-y,-z
y,-x,-z
x,y,-z
-y,x,-z
loop_
_atom_site_type_symbol
_atom_site_label
_atom_site_fract_x
_atom_site_fract_y
_atom_site_fract_z
Si Si1 0.705820 0.843142 0.251164
Si Si2 0.872173 0.053544 0.000000
Si Si3 0.653873 0.267929 0.250337
Si Si4 0.519386 0.902797 0.250062
Si Si5 0.710338 0.076698 0.751394
O O1 0.748012 0.862539 0.500000
O O2 0.691277 0.744876 0.251102
O O3 0.616606 0.885264 0.251805
O O4 0.746621 0.861618 0.000000
O O5 0.897793 0.957642 0.000000
O O6 0.809168 0.072933 0.213038
O O7 0.613817 0.288184 0.500000
O O8 0.679202 0.170739 0.250375
O O9 0.614294 0.288109 0.000000
O O10 0.487492 0.870268 0.500000
O O11 0.500000 0.000000 0.250356
O O12 0.488769 0.869564 0.000000
O O13 0.687771 0.040717 0.500000
O O14 0.679724 0.040355 0.000000
#
# Coordination Sequence:
#
# PCOD9543916 Si02
#       5
#     8   4   8   8   8
#     4   8  12  16  23  33  42  53  67  80  92 104
#     4   9  18  28  36  44  52  60  67  74  86 108
#     4   8  12  19  29  38  46  54  65  79  92 102
#     4   8  12  16  20  27  40  55  68  80  92 104
#     4   8  15  25  34  42  50  58  66  77  89 101
#
# _framework density 23.858726999999998
#
# number of rings (size 3 to 8) (size 9 to 14) (size 15 to 20)
#    0.667    3.222    0.000    0.000    0.000    0.889 
#    0.000    1.111    0.000    0.000    0.000    0.000 
#    0.000    0.000    0.000    0.000    0.000    0.000 
#
# Total GULP energy -200484.306495 kJ/mol
# GULP energy per Si atom -5569.008514 kJ/mol
# Density = 2.380442 g / cm^3
# Si number density = 23.858727 Si / 1000 Ang^3
#
#
#
# Elastic Constant Matrix: (Units=GPa)
#
#
# Indices 1 2 3 4 5 6 
#
# 1 54.6119 11.9256 22.0862 0.0000 0.0000 -1.0965
# 2 11.9256 54.6119 22.0862 0.0000 0.0000 1.0965
# 3 22.0862 22.0862 337.2235 0.0000 0.0000 0.0000
# 4 0.0000 0.0000 0.0000 -7.2359 0.0000 0.0000
# 5 0.0000 0.0000 0.0000 0.0000 -7.2359 0.0000
# 6 -1.0965 1.0965 0.0000 0.0000 0.0000 29.5207
#
#
#
# Elastic Compliance Matrix: (Units=1/GPa)
#
#
# Indices 1 2 3 4 5 6 
#
# 1 0.019592 -0.003880 -0.001029 0.000000 0.000000 0.000872
# 2 -0.003880 0.019592 -0.001029 0.000000 0.000000 -0.000872
# 3 -0.001029 -0.001029 0.003100 0.000000 0.000000 0.000000
# 4 0.000000 0.000000 0.000000 -0.138199 0.000000 0.000000
# 5 0.000000 0.000000 0.000000 0.000000 -0.138199 0.000000
# 6 0.000872 -0.000872 0.000000 0.000000 0.000000 0.033939
#
#
# Mechanical properties :
#
#
# Convention : Reuss Voigt Hill
#
# Bulk Modulus (GPa) = 32.88553 62.07148 47.47850
# Shear Modulus (GPa) = -28.06417 29.03306 0.48445
#
# Velocity S-wave (km/s) = -3.43339 3.49216 0.45110
# Velocity P-wave (km/s) = 1.37993 6.50638 4.49604
#
# Compressibility (1/GPa) = 0.03040851
#
# Stress axis : x y z
#
# Youngs Moduli (GPa) = 51.04151 51.04151 322.56101
#
# Poissons Ratio (x) = 0.19802 0.33194
# Poissons Ratio (y) = 0.19802 0.33194
# Poissons Ratio (z) = 0.05253 0.05253
#
# Static dielectric constant tensor:
#      x y z
#    x 1.871480 0.000000 0.000000 
#    y 0.000000 1.871480 0.000000 
#    z 0.000000 0.000000 2.060030 
# 
# From -- ./inp_files/148.got.cif
#   From: 2010.05.17/outbox.cif.g08.bks.cpg/sg83_1_cif.got.tgz:148.got - 2010.06.03 18:55:12.
