data_PCOD9543761
_publ_section_title
;
Structure prediction by ZEFSAII (Michael W. Deem and Ramdas Pophale) SiO2 
 PCOD9543761
Probable space group: P 4/M
;
_chemical_formula_sum "Si O2"
_cell_formula_units_Z 44
_cell_length_a 8.115813
_cell_length_b 8.115813
_cell_length_c 29.504040
_cell_angle_alpha 90.000000
_cell_angle_beta 90.000000
_cell_angle_gamma 90.000000
_cell_volume 1943.325510
_symmetry_space_group_name_H-M "P 4/M"
_symmetry_group_IT_number 83
_symmetry_cell_setting 'tetragonal'
loop_
_space_group_symop_operation_xyz
x,y,z
-y,x,z
-x,-y,z
y,-x,z
-x,-y,-z
y,-x,-z
x,y,-z
-y,x,-z
loop_
_atom_site_type_symbol
_atom_site_label
_atom_site_fract_x
_atom_site_fract_y
_atom_site_fract_z
Si Si1 0.083101 0.263896 0.638268
Si Si2 0.238473 0.401469 0.000000
Si Si3 0.762781 0.596329 0.901520
Si Si4 0.084784 0.263625 0.812927
Si Si5 0.237835 0.405734 0.449346
Si Si6 0.764889 0.581864 0.274546
O O1 0.120304 0.352674 0.590976
O O2 0.134129 0.375344 0.680540
O O3 0.897883 0.198870 0.640753
O O4 0.408377 0.297527 0.000000
O O5 0.157989 0.371391 0.951159
O O6 0.593112 0.702453 0.898726
O O7 0.875575 0.646352 0.859893
O O8 0.134209 0.373998 0.770287
O O9 0.898993 0.199599 0.810797
O O10 0.405689 0.298186 0.445528
O O11 0.169203 0.379737 0.500000
O O12 0.603120 0.698157 0.274498
#
# Coordination Sequence:
#
# PCOD9543761 Si02
#       6
#     8   4   8   8   8   8
#     4  11  24  39  56  83 118 151 183 222 270 325
#     4   7  12  26  50  79 108 136 172 223 272 313
#     4   9  17  32  56  83 108 138 180 226 271 320
#     4  11  24  39  54  77 111 147 181 219 267 323
#     4   9  19  37  60  85 113 147 190 236 276 318
#     4  11  24  41  62  86 108 135 178 228 274 324
#
# _framework density 22.641598999999999
#
# number of rings (size 3 to 8) (size 9 to 14) (size 15 to 20)
#    0.000    2.091    0.000    4.909    0.000   12.364 
#    0.000    3.636    0.000    4.364    0.000    0.000 
#    0.000    0.000    0.000    0.000    0.000    0.000 
#
# Total GULP energy -246499.574426 kJ/mol
# GULP energy per Si atom -5602.263055 kJ/mol
# Density = 2.259007 g / cm^3
# Si number density = 22.641599 Si / 1000 Ang^3
#
#
#
# Elastic Constant Matrix: (Units=GPa)
#
#
# Indices 1 2 3 4 5 6 
#
# 1 83.0526 57.8370 64.3069 0.0000 0.0000 -1.0106
# 2 57.8370 83.0526 64.3069 0.0000 0.0000 1.0106
# 3 64.3069 64.3069 218.8910 0.0000 0.0000 0.0000
# 4 0.0000 0.0000 0.0000 -756.0101 0.0000 0.0000
# 5 0.0000 0.0000 0.0000 0.0000 -756.0101 0.0000
# 6 -1.0106 1.0106 0.0000 0.0000 0.0000 43.3059
#
#
#
# Elastic Compliance Matrix: (Units=1/GPa)
#
#
# Indices 1 2 3 4 5 6 
#
# 1 0.024716 -0.015017 -0.002849 0.000000 0.000000 0.000927
# 2 -0.015017 0.024716 -0.002849 0.000000 0.000000 -0.000927
# 3 -0.002849 -0.002849 0.006243 0.000000 0.000000 0.000000
# 4 0.000000 0.000000 0.000000 -0.001323 0.000000 0.000000
# 5 0.000000 0.000000 0.000000 0.000000 -0.001323 0.000000
# 6 0.000927 -0.000927 0.000000 0.000000 0.000000 0.023135
#
#
# Mechanical properties :
#
#
# Convention : Reuss Voigt Hill
#
# Bulk Modulus (GPa) = 70.21042 84.21086 77.21064
# Shear Modulus (GPa) = 40.86905 -280.50650 -119.81873
#
# Velocity S-wave (km/s) = 4.25319 -11.14266 -7.28249
# Velocity P-wave (km/s) = 7.42942 11.32570 6.04463
#
# Compressibility (1/GPa) = 0.01424290
#
# Stress axis : x y z
#
# Youngs Moduli (GPa) = 40.46024 40.46024 160.18730
#
# Poissons Ratio (x) = 0.60758 0.45643
# Poissons Ratio (y) = 0.60758 0.45643
# Poissons Ratio (z) = 0.11529 0.11529
#
# Static dielectric constant tensor:
#      x y z
#    x 1.812400 0.000000 0.000000 
#    y 0.000000 1.812400 0.000000 
#    z 0.000000 0.000000 1.801950 
# 
# From -- ./inp_files/3370.got.cif
#   From: 2010.05.17/outbox.cif.g08.bks.cpg/sg83_2_cif.got.tgz:3370.got - 2010.06.03 18:55:12.
