data_PCOD9543611
_publ_section_title
;
Structure prediction by ZEFSAII (Michael W. Deem and Ramdas Pophale) SiO2 
 PCOD9543611
Probable space group: P 4/M
;
_chemical_formula_sum "Si O2"
_cell_formula_units_Z 40
_cell_length_a 16.909803
_cell_length_b 16.909803
_cell_length_c 8.926465
_cell_angle_alpha 90.000000
_cell_angle_beta 90.000000
_cell_angle_gamma 90.000000
_cell_volume 2552.446234
_symmetry_space_group_name_H-M "P 4/M"
_symmetry_group_IT_number 83
_symmetry_cell_setting 'tetragonal'
loop_
_space_group_symop_operation_xyz
x,y,z
-y,x,z
-x,-y,z
y,-x,z
-x,-y,-z
y,-x,-z
x,y,-z
-y,x,-z
loop_
_atom_site_type_symbol
_atom_site_label
_atom_site_fract_x
_atom_site_fract_y
_atom_site_fract_z
Si Si1 0.904582 0.503232 0.830270
Si Si2 0.071438 0.889123 0.664993
Si Si3 0.320885 0.925891 0.181902
Si Si4 0.203587 0.189742 0.173032
Si Si5 0.339755 0.100610 0.322644
O O1 0.889763 0.592849 0.779005
O O2 0.881467 0.429255 0.729660
O O3 0.000000 0.500000 0.837764
O O4 0.874359 0.492528 0.000000
O O5 0.093411 0.855438 0.500000
O O6 0.107426 0.842335 0.801534
O O7 0.977753 0.895613 0.670325
O O8 0.254904 0.860927 0.225201
O O9 0.315624 0.013932 0.253235
O O10 0.318196 0.935671 0.000000
O O11 0.283027 0.170707 0.263753
O O12 0.221566 0.205052 0.000000
O O13 0.335940 0.093473 0.500000
#
# Coordination Sequence:
#
# PCOD9543611 Si02
#       5
#     8   8   8   8   8
#     4   8  15  31  51  67  86 113 147 186 225 265
#     4   9  18  31  43  56  79 112 148 185 223 258
#     4   9  19  34  50  67  88 118 154 190 226 263
#     4  11  21  31  44  63  87 115 149 185 221 261
#     4  11  21  31  46  68  93 120 149 183 226 271
#
# _framework density 15.671241
#
# number of rings (size 3 to 8) (size 9 to 14) (size 15 to 20)
#    0.000    2.400    0.000    5.400    0.000    9.200 
#    0.000    1.000    0.000    0.000    0.000    0.000 
#    0.000    0.800    0.000    9.200    0.000    3.600 
#
# Total GULP energy -222719.291159 kJ/mol
# GULP energy per Si atom -5567.982279 kJ/mol
# Density = 1.563557 g / cm^3
# Si number density = 15.671241 Si / 1000 Ang^3
#
#
#
# Elastic Constant Matrix: (Units=GPa)
#
#
# Indices 1 2 3 4 5 6 
#
# 1 58.5257 40.9374 30.8309 0.0000 0.0000 -1.6924
# 2 40.9374 58.5257 30.8309 0.0000 0.0000 1.6924
# 3 30.8309 30.8309 56.2403 0.0000 0.0000 0.0000
# 4 0.0000 0.0000 0.0000 3.0804 0.0000 0.0000
# 5 0.0000 0.0000 0.0000 0.0000 3.0804 0.0000
# 6 -1.6924 1.6924 0.0000 0.0000 0.0000 15.7478
#
#
#
# Elastic Compliance Matrix: (Units=1/GPa)
#
#
# Indices 1 2 3 4 5 6 
#
# 1 0.036643 -0.021413 -0.008349 0.000000 0.000000 0.006239
# 2 -0.021413 0.036643 -0.008349 0.000000 0.000000 -0.006239
# 3 -0.008349 -0.008349 0.026935 0.000000 0.000000 0.000000
# 4 0.000000 0.000000 0.000000 0.324628 0.000000 0.000000
# 5 0.000000 0.000000 0.000000 0.000000 0.324628 0.000000
# 6 0.006239 -0.006239 0.000000 0.000000 0.000000 0.064842
#
#
# Mechanical properties :
#
#
# Convention : Reuss Voigt Hill
#
# Bulk Modulus (GPa) = 41.66937 42.05443 41.86190
# Shear Modulus (GPa) = 5.56456 9.09456 7.32956
#
# Velocity S-wave (km/s) = 1.88640 2.41163 2.16500
# Velocity P-wave (km/s) = 5.60287 5.88628 5.74632
#
# Compressibility (1/GPa) = 0.02399844
#
# Stress axis : x y z
#
# Youngs Moduli (GPa) = 27.29007 27.29007 37.12676
#
# Poissons Ratio (x) = 0.58437 0.30997
# Poissons Ratio (y) = 0.58437 0.30997
# Poissons Ratio (z) = 0.22785 0.22785
#
# Static dielectric constant tensor:
#      x y z
#    x 1.543970 0.000000 0.000000 
#    y 0.000000 1.543970 0.000000 
#    z 0.000000 0.000000 1.558010 
# 
# From -- ./inp_files/797.got.cif
#   From: 2010.05.17/outbox.cif.g08.bks.cpg/sg83_1_cif.got.tgz:797.got - 2010.06.03 18:55:12.
