data_PCOD9543306
_publ_section_title
;
Structure prediction by ZEFSAII (Michael W. Deem and Ramdas Pophale) SiO2 
 PCOD9543306
Probable space group: P 4/M
;
_chemical_formula_sum "Si O2"
_cell_formula_units_Z 48
_cell_length_a 15.214641
_cell_length_b 15.214641
_cell_length_c 13.838009
_cell_angle_alpha 90.000000
_cell_angle_beta 90.000000
_cell_angle_gamma 90.000000
_cell_volume 3203.295675
_symmetry_space_group_name_H-M "P 4/M"
_symmetry_group_IT_number 83
_symmetry_cell_setting 'tetragonal'
loop_
_space_group_symop_operation_xyz
x,y,z
-y,x,z
-x,-y,z
y,-x,z
-x,-y,-z
y,-x,-z
x,y,-z
-y,x,-z
loop_
_atom_site_type_symbol
_atom_site_label
_atom_site_fract_x
_atom_site_fract_y
_atom_site_fract_z
Si Si1 0.740228 0.423970 0.300386
Si Si2 0.064672 0.584226 0.384703
Si Si3 0.721096 0.610513 0.384162
Si Si4 0.542356 0.641593 0.112605
Si Si5 0.923540 0.882070 0.382612
Si Si6 0.692625 0.098643 0.617281
O O1 0.843025 0.417650 0.328999
O O2 0.701530 0.512381 0.349481
O O3 0.684403 0.342392 0.341128
O O4 0.717836 0.433977 0.187324
O O5 0.085206 0.590111 0.500000
O O6 0.000000 0.500000 0.373225
O O7 0.999030 0.662775 0.354670
O O8 0.716566 0.614644 0.500000
O O9 0.821732 0.630409 0.353074
O O10 0.443182 0.605355 0.128853
O O11 0.549647 0.666423 0.000000
O O12 0.921560 0.882866 0.500000
O O13 0.880893 0.791611 0.350860
O O14 0.025736 0.882658 0.352563
O O15 0.690186 0.097416 0.500000
#
# Coordination Sequence:
#
# PCOD9543306 Si02
#       6
#     8   8   8   8   8   8
#     4  12  21  33  50  73  96 128 163 204 247 284
#     4  10  19  32  46  62  94 137 170 191 222 281
#     4  11  22  32  44  68 103 135 167 197 234 287
#     4   9  18  35  55  73  94 122 159 203 252 301
#     4   8  14  24  38  56  78 107 152 208 250 267
#     4   9  18  30  42  59  87 130 173 200 224 274
#
# _framework density 14.984567999999999
#
# number of rings (size 3 to 8) (size 9 to 14) (size 15 to 20)
#    0.000    2.167    3.333    2.500    2.333    0.333 
#    0.000    0.833    0.000    0.500    0.000    0.000 
#    0.000    0.000    0.000    0.000    0.000    1.667 
#
# Total GULP energy -267292.024507 kJ/mol
# GULP energy per Si atom -5568.583844 kJ/mol
# Density = 1.495046 g / cm^3
# Si number density = 14.984568 Si / 1000 Ang^3
#
#
#
# Elastic Constant Matrix: (Units=GPa)
#
#
# Indices 1 2 3 4 5 6 
#
# 1 80.4506 16.7416 28.2475 0.0000 0.0000 -5.9915
# 2 16.7416 80.4506 28.2475 0.0000 0.0000 5.9915
# 3 28.2475 28.2475 63.1150 0.0000 0.0000 0.0000
# 4 0.0000 0.0000 0.0000 13.5624 0.0000 0.0000
# 5 0.0000 0.0000 0.0000 0.0000 13.5624 0.0000
# 6 -5.9915 5.9915 0.0000 0.0000 0.0000 18.8645
#
#
#
# Elastic Compliance Matrix: (Units=1/GPa)
#
#
# Indices 1 2 3 4 5 6 
#
# 1 0.015300 -0.001393 -0.006224 0.000000 0.000000 0.005302
# 2 -0.001393 0.015300 -0.006224 0.000000 0.000000 -0.005302
# 3 -0.006224 -0.006224 0.021415 0.000000 0.000000 0.000000
# 4 0.000000 0.000000 0.000000 0.073733 0.000000 0.000000
# 5 0.000000 0.000000 0.000000 0.000000 0.073733 0.000000
# 6 0.005302 -0.005302 0.000000 0.000000 0.000000 0.056378
#
#
# Mechanical properties :
#
#
# Convention : Reuss Voigt Hill
#
# Bulk Modulus (GPa) = 41.09709 41.16548 41.13129
# Shear Modulus (GPa) = 17.14364 19.24984 18.19674
#
# Velocity S-wave (km/s) = 3.38610 3.58808 3.48856
# Velocity P-wave (km/s) = 6.54014 6.68561 6.61327
#
# Compressibility (1/GPa) = 0.02433262
#
# Stress axis : x y z
#
# Youngs Moduli (GPa) = 65.35866 65.35866 46.69562
#
# Poissons Ratio (x) = 0.09107 0.29063
# Poissons Ratio (y) = 0.09107 0.29063
# Poissons Ratio (z) = 0.40679 0.40679
#
# Static dielectric constant tensor:
#      x y z
#    x 1.524940 0.000000 0.000000 
#    y 0.000000 1.524940 0.000000 
#    z 0.000000 0.000000 1.466550 
# 
# From -- ./inp_files/1821.got.cif
#   From: 2010.05.17/outbox.cif.g08.bks.cpg/sg83_1_cif.got.tgz:1821.got - 2010.06.03 18:55:12.
