data_PCOD9543556
_publ_section_title
;
Structure prediction by ZEFSAII (Michael W. Deem and Ramdas Pophale) SiO2 
 PCOD9543556
Probable space group: P 4/M
;
_chemical_formula_sum "Si O2"
_cell_formula_units_Z 48
_cell_length_a 7.995028
_cell_length_b 7.995028
_cell_length_c 34.057007
_cell_angle_alpha 90.000000
_cell_angle_beta 90.000000
_cell_angle_gamma 90.000000
_cell_volume 2176.939987
_symmetry_space_group_name_H-M "P 4/M"
_symmetry_group_IT_number 83
_symmetry_cell_setting 'tetragonal'
loop_
_space_group_symop_operation_xyz
x,y,z
-y,x,z
-x,-y,z
y,-x,z
-x,-y,-z
y,-x,-z
x,y,-z
-y,x,-z
loop_
_atom_site_type_symbol
_atom_site_label
_atom_site_fract_x
_atom_site_fract_y
_atom_site_fract_z
Si Si1 0.765049 0.588905 0.868051
Si Si2 0.099617 0.265485 0.789475
Si Si3 0.091293 0.267179 0.380032
Si Si4 0.767686 0.588408 0.457388
Si Si5 0.090686 0.732871 0.000000
Si Si6 0.899606 0.734117 0.704424
Si Si7 0.000000 0.500000 0.933191
O O1 0.602001 0.703960 0.870489
O O2 0.850938 0.624921 0.826476
O O3 0.889864 0.613714 0.904213
O O4 0.132824 0.347687 0.746682
O O5 0.906938 0.206294 0.791411
O O6 0.130524 0.369650 0.418740
O O7 0.129486 0.351408 0.337666
O O8 0.901019 0.203332 0.380998
O O9 0.601045 0.702350 0.456338
O O10 0.850096 0.620350 0.500000
O O11 0.897037 0.795572 0.000000
O O12 0.109772 0.616188 0.961863
O O13 0.092850 0.794508 0.704436
#
# Coordination Sequence:
#
# PCOD9543556 Si02
#       7
#     8   8   8   8   4   8   4
#     4  11  23  37  54  80 115 151 186 226 273 324
#     4   9  17  32  56  81 105 141 187 226 263 315
#     4   9  17  30  50  76 102 126 159 207 259 312
#     4   9  19  35  50  64  89 128 170 210 256 313
#     4  10  22  40  64  92 116 142 186 239 278 316
#     4   7  12  26  48  73 101 133 169 209 254 307
#     4  11  22  40  62  84 116 154 186 222 279 336
#
# _framework density 22.049298
#
# number of rings (size 3 to 8) (size 9 to 14) (size 15 to 20)
#    0.000    2.750    0.000    4.500    0.000    1.333 
#    0.000    5.833    0.000   12.000    0.000    0.000 
#    0.000    0.000    0.000    0.000    0.000    0.000 
#
# Total GULP energy -268149.584117 kJ/mol
# GULP energy per Si atom -5586.449669 kJ/mol
# Density = 2.199911 g / cm^3
# Si number density = 22.049298 Si / 1000 Ang^3
#
#
#
# Elastic Constant Matrix: (Units=GPa)
#
#
# Indices 1 2 3 4 5 6 
#
# 1 43.6913 9.5194 43.6974 0.0000 0.0000 -1.0906
# 2 9.5194 43.6913 43.6974 0.0000 0.0000 1.0906
# 3 43.6974 43.6974 241.7214 0.0000 0.0000 0.0000
# 4 0.0000 0.0000 0.0000 58.0415 0.0000 0.0000
# 5 0.0000 0.0000 0.0000 0.0000 58.0415 0.0000
# 6 -1.0906 1.0906 0.0000 0.0000 0.0000 28.2001
#
#
#
# Elastic Compliance Matrix: (Units=1/GPa)
#
#
# Indices 1 2 3 4 5 6 
#
# 1 0.028033 -0.001303 -0.004832 0.000000 0.000000 0.001135
# 2 -0.001303 0.028033 -0.004832 0.000000 0.000000 -0.001135
# 3 -0.004832 -0.004832 0.005884 0.000000 0.000000 0.000000
# 4 0.000000 0.000000 0.000000 0.017229 0.000000 0.000000
# 5 0.000000 0.000000 0.000000 0.000000 0.017229 0.000000
# 6 0.001135 -0.001135 0.000000 0.000000 0.000000 0.035549
#
#
# Mechanical properties :
#
#
# Convention : Reuss Voigt Hill
#
# Bulk Modulus (GPa) = 24.99076 58.10360 41.54718
# Shear Modulus (GPa) = 29.89901 44.33596 37.11749
#
# Velocity S-wave (km/s) = 3.68640 4.48902 4.10736
# Velocity P-wave (km/s) = 5.42936 7.29913 6.43255
#
# Compressibility (1/GPa) = 0.04001480
#
# Stress axis : x y z
#
# Youngs Moduli (GPa) = 35.67246 35.67246 169.95170
#
# Poissons Ratio (x) = 0.04649 0.82121
# Poissons Ratio (y) = 0.04649 0.82121
# Poissons Ratio (z) = 0.17237 0.17237
#
# Static dielectric constant tensor:
#      x y z
#    x 1.831770 0.000000 0.000000 
#    y 0.000000 1.831770 0.000000 
#    z 0.000000 0.000000 1.832060 
# 
# From -- ./inp_files/3482.got.cif
#   From: 2010.05.17/outbox.cif.g08.bks.cpg/sg83_2_cif.got.tgz:3482.got - 2010.06.03 18:55:12.
