data_PCOD9543894
_publ_section_title
;
Structure prediction by ZEFSAII (Michael W. Deem and Ramdas Pophale) SiO2 
 PCOD9543894
Probable space group: P 4/M
;
_chemical_formula_sum "Si O2"
_cell_formula_units_Z 37
_cell_length_a 8.437684
_cell_length_b 8.437684
_cell_length_c 24.843336
_cell_angle_alpha 90.000000
_cell_angle_beta 90.000000
_cell_angle_gamma 90.000000
_cell_volume 1768.709165
_symmetry_space_group_name_H-M "P 4/M"
_symmetry_group_IT_number 83
_symmetry_cell_setting 'tetragonal'
loop_
_space_group_symop_operation_xyz
x,y,z
-y,x,z
-x,-y,z
y,-x,z
-x,-y,-z
y,-x,-z
x,y,-z
-y,x,-z
loop_
_atom_site_type_symbol
_atom_site_label
_atom_site_fract_x
_atom_site_fract_y
_atom_site_fract_z
Si Si1 0.753067 0.409389 0.157594
Si Si2 0.000000 0.000000 0.500000
Si Si3 0.740415 0.381752 0.609548
Si Si4 0.921782 0.327893 0.500000
Si Si5 0.251812 0.604594 0.274508
Si Si6 0.745978 0.915403 0.059901
O O1 0.694326 0.591024 0.154670
O O2 0.827559 0.371537 0.216483
O O3 0.864362 0.365630 0.108288
O O4 0.048534 0.186259 0.500000
O O5 0.703158 0.569326 0.607895
O O6 0.832676 0.329485 0.557275
O O7 0.823229 0.353648 0.667800
O O8 0.000000 0.500000 0.500000
O O9 0.301998 0.419444 0.274589
O O10 0.904682 0.807612 0.063672
O O11 0.676747 0.891171 0.000000
#
# Coordination Sequence:
#
# PCOD9543894 Si02
#       6
#     8   1   8   4   8   8
#     4   9  17  30  51  78 106 134 168 217 273 323
#     4  12  28  44  60  88 132 156 188 260 302 352
#     4   9  16  30  57  87 110 143 199 243 275 344
#     4  12  24  39  60  83 118 166 196 236 308 354
#     4   7  12  25  48  76 105 137 173 223 274 320
#     4   9  19  35  52  68  95 137 179 218 263 319
#
# _framework density 20.919212000000002
#
# number of rings (size 3 to 8) (size 9 to 14) (size 15 to 20)
#    0.000    3.027    0.000    5.189    0.000    2.595 
#    0.000    3.243   19.027    0.000    0.000    0.000 
#    0.000    0.000    0.000    0.000    0.000    0.000 
#
# Total GULP energy -206064.541177 kJ/mol
# GULP energy per Si atom -5569.311924 kJ/mol
# Density = 2.087160 g / cm^3
# Si number density = 20.919212 Si / 1000 Ang^3
#
#
#
# Elastic Constant Matrix: (Units=GPa)
#
#
# Indices 1 2 3 4 5 6 
#
# 1 24.9872 21.0910 45.4318 0.0000 0.0000 -3.9051
# 2 21.0910 24.9872 45.4318 0.0000 0.0000 3.9051
# 3 45.4318 45.4318 240.9928 0.0000 0.0000 0.0000
# 4 0.0000 0.0000 0.0000 -24.3868 0.0000 0.0000
# 5 0.0000 0.0000 0.0000 0.0000 -24.3868 0.0000
# 6 -3.9051 3.9051 0.0000 0.0000 0.0000 19.5439
#
#
#
# Elastic Compliance Matrix: (Units=1/GPa)
#
#
# Indices 1 2 3 4 5 6 
#
# 1 0.231345 -0.196801 -0.006512 0.000000 0.000000 0.085549
# 2 -0.196801 0.231345 -0.006512 0.000000 0.000000 -0.085549
# 3 -0.006512 -0.006512 0.006605 0.000000 0.000000 0.000000
# 4 0.000000 0.000000 0.000000 -0.041006 0.000000 0.000000
# 5 0.000000 0.000000 0.000000 0.000000 -0.041006 0.000000
# 6 0.085549 -0.085549 0.000000 0.000000 0.000000 0.085354
#
#
# Mechanical properties :
#
#
# Convention : Reuss Voigt Hill
#
# Bulk Modulus (GPa) = 20.14348 57.20851 38.67600
# Shear Modulus (GPa) = 5.50153 6.08823 5.79488
#
# Velocity S-wave (km/s) = 1.62345 1.70783 1.66617
# Velocity P-wave (km/s) = 3.62825 5.59425 4.71486
#
# Compressibility (1/GPa) = 0.04964384
#
# Stress axis : x y z
#
# Youngs Moduli (GPa) = 4.32255 4.32255 151.40390
#
# Poissons Ratio (x) = 0.85068 0.98597
# Poissons Ratio (y) = 0.85068 0.98597
# Poissons Ratio (z) = 0.02815 0.02815
#
# Static dielectric constant tensor:
#      x y z
#    x 1.802200 0.000000 0.000000 
#    y 0.000000 1.802200 0.000000 
#    z 0.000000 0.000000 1.797180 
# 
# From -- ./inp_files/3112.got.cif
#   From: 2010.05.17/outbox.cif.g08.bks.cpg/sg83_2_cif.got.tgz:3112.got - 2010.06.03 18:55:12.
