data_PCOD9543009
_publ_section_title
;
Structure prediction by ZEFSAII (Michael W. Deem and Ramdas Pophale) SiO2 
 PCOD9543009
Probable space group: I -4 
;
_chemical_formula_sum "Si O2"
_cell_formula_units_Z 32
_cell_length_a 6.873486
_cell_length_b 6.873486
_cell_length_c 24.121622
_cell_angle_alpha 90.000000
_cell_angle_beta 90.000000
_cell_angle_gamma 90.000000
_cell_volume 1139.621443
_symmetry_space_group_name_H-M "I -4 "
_symmetry_group_IT_number 82
_symmetry_cell_setting 'tetragonal'
loop_
_space_group_symop_operation_xyz
x,y,z
y,-x,-z
-x,-y,z
-y,x,-z
1/2+x,1/2+y,1/2+z
1/2+y,1/2-x,1/2-z
1/2-x,1/2-y,1/2+z
1/2-y,1/2+x,1/2-z
loop_
_atom_site_type_symbol
_atom_site_label
_atom_site_fract_x
_atom_site_fract_y
_atom_site_fract_z
Si Si1 0.604977 0.723882 0.962416
Si Si2 0.146831 0.208458 0.873345
Si Si3 0.783362 0.163920 0.367827
Si Si4 0.215164 0.836846 0.247394
O O1 0.740341 0.544560 0.985867
O O2 0.446867 0.698754 0.913194
O O3 0.753610 0.862735 0.930379
O O4 0.211466 0.438317 0.868576
O O5 0.207671 0.128460 0.812849
O O6 0.913865 0.214678 0.877594
O O7 0.873755 0.207125 0.307170
O O8 0.430829 0.747758 0.252537
#
# Coordination Sequence:
#
# PCOD9543009 Si02
#       4
#     8   8   8   8
#     4  11  18  28  42  80 112 132 186 228 272 344
#     4   9  15  26  44  69 104 139 180 230 276 329
#     4   9  15  26  44  69 104 139 180 230 276 329
#     4   7  12  22  40  66  88 123 176 216 261 318
#
# _framework density 28.079495999999999
#
# number of rings (size 3 to 8) (size 9 to 14) (size 15 to 20)
#    0.000    3.000    5.000    3.000    0.000    0.000 
#    0.000    0.000    0.000    0.000   13.000    0.000 
#    0.000    9.000    0.000    0.000    0.000    0.000 
#
# Total GULP energy -89230.853526 kJ/mol
# GULP energy per Si atom -5576.928345 kJ/mol
# Density = 2.801559 g / cm^3
# Si number density = 28.079496 Si / 1000 Ang^3
#
#
#
# Elastic Constant Matrix: (Units=GPa)
#
#
# Indices 1 2 3 4 5 6 
#
# 1 121.9633 24.1299 51.7604 0.0000 0.0000 -2.4263
# 2 24.1299 121.9633 51.7604 0.0000 0.0000 2.4263
# 3 51.7604 51.7604 278.3659 0.0000 0.0000 0.0000
# 4 0.0000 0.0000 0.0000 29.3679 0.0000 0.0000
# 5 0.0000 0.0000 0.0000 0.0000 29.3679 0.0000
# 6 -2.4263 2.4263 0.0000 0.0000 0.0000 1.9730
#
#
#
# Elastic Compliance Matrix: (Units=1/GPa)
#
#
# Indices 1 2 3 4 5 6 
#
# 1 0.009385 -0.001501 -0.001466 0.000000 0.000000 0.013387
# 2 -0.001501 0.009385 -0.001466 0.000000 0.000000 -0.013387
# 3 -0.001466 -0.001466 0.004138 0.000000 0.000000 0.000000
# 4 0.000000 0.000000 0.000000 0.034051 0.000000 0.000000
# 5 0.000000 0.000000 0.000000 0.000000 0.034051 0.000000
# 6 0.013387 -0.013387 0.000000 0.000000 0.000000 0.539780
#
#
# Mechanical properties :
#
#
# Convention : Reuss Voigt Hill
#
# Bulk Modulus (GPa) = 71.21878 86.39933 78.80905
# Shear Modulus (GPa) = 7.75995 38.45120 23.10558
#
# Velocity S-wave (km/s) = 1.66420 3.70451 2.87167
# Velocity P-wave (km/s) = 5.39547 7.00958 6.25481
#
# Compressibility (1/GPa) = 0.01404124
#
# Stress axis : x y z
#
# Youngs Moduli (GPa) = 106.55787 106.55785 241.68881
#
# Poissons Ratio (x) = 0.15993 0.35430
# Poissons Ratio (y) = 0.15993 0.35430
# Poissons Ratio (z) = 0.15621 0.15621
#
# Static dielectric constant tensor:
#      x y z
#    x 2.271690 0.000000 0.000000 
#    y 0.000000 2.271690 0.000000 
#    z 0.000000 0.000000 2.200730 
# 
# From -- ./inp_files/2091.got.cif
#   From: 2010.05.17/outbox.cif.g08.bks.cpg/sg82_2_cif.got.tgz:2091.got - 2010.06.03 18:52:26.
