data_PCOD9543235
_publ_section_title
;
Structure prediction by ZEFSAII (Michael W. Deem and Ramdas Pophale) SiO2 
 PCOD9543235
Probable space group: P 4/M
;
_chemical_formula_sum "Si O2"
_cell_formula_units_Z 64
_cell_length_a 20.472666
_cell_length_b 20.472666
_cell_length_c 8.224064
_cell_angle_alpha 90.000000
_cell_angle_beta 90.000000
_cell_angle_gamma 90.000000
_cell_volume 3446.952381
_symmetry_space_group_name_H-M "P 4/M"
_symmetry_group_IT_number 83
_symmetry_cell_setting 'tetragonal'
loop_
_space_group_symop_operation_xyz
x,y,z
-y,x,z
-x,-y,z
y,-x,z
-x,-y,-z
y,-x,-z
x,y,-z
-y,x,-z
loop_
_atom_site_type_symbol
_atom_site_label
_atom_site_fract_x
_atom_site_fract_y
_atom_site_fract_z
Si Si1 0.492034 0.847008 0.197063
Si Si2 0.718926 0.157832 0.686394
Si Si3 0.628529 0.906844 0.804563
Si Si4 0.692609 0.362531 0.813142
Si Si5 0.728508 0.805863 0.691140
Si Si6 0.402032 0.536746 0.801109
Si Si7 0.945271 0.622457 0.193879
Si Si8 0.261326 0.400719 0.315808
O O1 0.564706 0.866228 0.251336
O O2 0.440156 0.903047 0.251470
O O3 0.463774 0.778514 0.259377
O O4 0.491024 0.844758 0.000000
O O5 0.734999 0.140875 0.500000
O O6 0.777271 0.202649 0.758361
O O7 0.688950 0.094515 0.771388
O O8 0.657469 0.207517 0.682919
O O9 0.695414 0.870319 0.761278
O O10 0.624575 0.981036 0.741653
O O11 0.624229 0.909028 0.000000
O O12 0.749145 0.325425 0.719262
O O13 0.665252 0.430764 0.747094
O O14 0.628681 0.315836 0.802744
O O15 0.714197 0.369664 0.000000
O O16 0.737953 0.814047 0.500000
O O17 0.419550 0.464002 0.749303
O O18 0.400682 0.537323 0.000000
O O19 0.949226 0.614719 0.000000
O O20 0.286426 0.407278 0.500000
#
# Coordination Sequence:
#
# PCOD9543235 Si02
#       8
#     8   8   8   8   8   8   8   8
#     4   9  17  30  47  67  95 130 164 197 234 278
#     4   8  16  31  48  64  86 119 158 194 225 266
#     4  10  20  32  47  71 101 128 157 195 238 283
#     4  10  18  29  48  69  87 113 150 192 240 289
#     4  10  21  35  48  66  95 127 156 189 230 274
#     4   8  15  28  44  61  79  99 131 181 236 285
#     4   9  17  30  50  73  95 123 160 199 237 278
#     4   9  17  29  44  64  90 120 157 196 231 274
#
# _framework density 18.567125999999998
#
# number of rings (size 3 to 8) (size 9 to 14) (size 15 to 20)
#    0.000    2.875    0.000    2.625    0.000    7.000 
#    0.000    2.500    0.000    6.000    0.000    3.500 
#    0.000    0.500    0.000    5.500    0.000    4.000 
#
# Total GULP energy -356683.667125 kJ/mol
# GULP energy per Si atom -5573.182299 kJ/mol
# Density = 1.852487 g / cm^3
# Si number density = 18.567126 Si / 1000 Ang^3
#
#
#
# Elastic Constant Matrix: (Units=GPa)
#
#
# Indices 1 2 3 4 5 6 
#
# 1 33.5173 47.3649 0.4420 0.0000 0.0000 3.2782
# 2 47.3649 33.5173 0.4420 0.0000 0.0000 -3.2782
# 3 0.4420 0.4420 13.1411 0.0000 0.0000 0.0000
# 4 0.0000 0.0000 0.0000 -26.1289 0.0000 0.0000
# 5 0.0000 0.0000 0.0000 0.0000 -26.1289 0.0000
# 6 3.2782 -3.2782 0.0000 0.0000 0.0000 21.3209
#
#
#
# Elastic Compliance Matrix: (Units=1/GPa)
#
#
# Indices 1 2 3 4 5 6 
#
# 1 -0.027473 0.039841 -0.000416 0.000000 0.000000 0.010350
# 2 0.039841 -0.027473 -0.000416 0.000000 0.000000 -0.010350
# 3 -0.000416 -0.000416 0.076125 0.000000 0.000000 0.000000
# 4 0.000000 0.000000 0.000000 -0.038272 0.000000 0.000000
# 5 0.000000 0.000000 0.000000 0.000000 -0.038272 0.000000
# 6 0.010350 -0.010350 0.000000 0.000000 0.000000 0.043720
#
#
# Mechanical properties :
#
#
# Convention : Reuss Voigt Hill
#
# Bulk Modulus (GPa) = 10.08088 19.63038 14.85563
# Shear Modulus (GPa) = -88.34450 -4.05894 -46.20172
#
# Velocity S-wave (km/s) = -6.90539 -1.48015 -4.99376
# Velocity P-wave (km/s) = 7.62483 2.77029 5.02312
#
# Compressibility (1/GPa) = 0.09919769
#
# Stress axis : x y z
#
# Youngs Moduli (GPa) = -36.39956 -36.39956 13.13624
#
# Poissons Ratio (x) = 1.45020 0.00546
# Poissons Ratio (y) = 1.45020 0.00546
# Poissons Ratio (z) = -0.01514 -0.01514
#
# Static dielectric constant tensor:
#      x y z
#    x 1.668010 0.000000 0.000000 
#    y 0.000000 1.668010 0.000000 
#    z 0.000000 0.000000 1.655500 
# 
# From -- ./inp_files/1311.got.cif
#   From: 2010.05.17/outbox.cif.g08.bks.cpg/sg83_1_cif.got.tgz:1311.got - 2010.06.03 18:55:12.
