data_PCOD9543622
_publ_section_title
;
Structure prediction by ZEFSAII (Michael W. Deem and Ramdas Pophale) SiO2 
 PCOD9543622
Probable space group: P 4/M
;
_chemical_formula_sum "Si O2"
_cell_formula_units_Z 56
_cell_length_a 14.881774
_cell_length_b 14.881774
_cell_length_c 11.838202
_cell_angle_alpha 90.000000
_cell_angle_beta 90.000000
_cell_angle_gamma 90.000000
_cell_volume 2621.773419
_symmetry_space_group_name_H-M "P 4/M"
_symmetry_group_IT_number 83
_symmetry_cell_setting 'tetragonal'
loop_
_space_group_symop_operation_xyz
x,y,z
-y,x,z
-x,-y,z
y,-x,z
-x,-y,-z
y,-x,-z
x,y,-z
-y,x,-z
loop_
_atom_site_type_symbol
_atom_site_label
_atom_site_fract_x
_atom_site_fract_y
_atom_site_fract_z
Si Si1 0.740077 0.779889 0.873329
Si Si2 0.645851 0.485149 0.364810
Si Si3 0.020652 0.604890 0.622643
Si Si4 0.357380 0.879568 0.204547
Si Si5 0.220735 0.008667 0.125465
Si Si6 0.146865 0.968849 0.625798
Si Si7 0.444252 0.180609 0.222345
O O1 0.793722 0.708404 0.797353
O O2 0.771434 0.883715 0.861770
O O3 0.632700 0.780442 0.858131
O O4 0.763207 0.751382 0.000000
O O5 0.595276 0.577510 0.333765
O O6 0.655374 0.484341 0.500000
O O7 0.740648 0.473435 0.306776
O O8 0.047239 0.638791 0.500000
O O9 0.102831 0.608173 0.708850
O O10 0.000000 0.500000 0.614081
O O11 0.929152 0.643897 0.673595
O O12 0.461028 0.856873 0.175843
O O13 0.316136 0.956678 0.124534
O O14 0.181955 0.968860 0.243355
O O15 0.178626 0.991453 0.000000
O O16 0.192512 0.957492 0.500000
O O17 0.103463 0.067647 0.622270
#
# Coordination Sequence:
#
# PCOD9543622 Si02
#       7
#     8   8   8   8   8   8   8
#     4  11  25  42  62  93 127 166 224 278 328 403
#     4   9  18  34  59  94 136 181 226 271 322 391
#     4   9  19  37  62  93 130 168 211 264 329 404
#     4  11  23  41  65  93 130 173 216 276 338 391
#     4  11  23  41  63  89 126 170 221 275 331 397
#     4   9  19  37  60  87 121 161 209 268 332 397
#     4  11  21  40  64  94 131 173 218 272 338 399
#
# _framework density 21.359589
#
# number of rings (size 3 to 8) (size 9 to 14) (size 15 to 20)
#    0.000    1.857    1.429    3.429    0.000    4.000 
#    0.000    4.286    0.000    0.000    0.000    3.000 
#    0.000    0.000    0.000    0.000    0.000    0.000 
#
# Total GULP energy -311872.199285 kJ/mol
# GULP energy per Si atom -5569.146416 kJ/mol
# Density = 2.131097 g / cm^3
# Si number density = 21.359589 Si / 1000 Ang^3
#
#
#
# Elastic Constant Matrix: (Units=GPa)
#
#
# Indices 1 2 3 4 5 6 
#
# 1 90.2624 26.7619 34.2757 0.0000 0.0000 -3.9994
# 2 26.7619 90.2624 34.2757 0.0000 0.0000 3.9994
# 3 34.2757 34.2757 124.4348 0.0000 0.0000 0.0000
# 4 0.0000 0.0000 0.0000 -0.0495 0.0000 0.0000
# 5 0.0000 0.0000 0.0000 0.0000 -0.0495 0.0000
# 6 -3.9994 3.9994 0.0000 0.0000 0.0000 34.0427
#
#
#
# Elastic Compliance Matrix: (Units=1/GPa)
#
#
# Indices 1 2 3 4 5 6 
#
# 1 0.013087 -0.002898 -0.002807 0.000000 0.000000 0.001878
# 2 -0.002898 0.013087 -0.002807 0.000000 0.000000 -0.001878
# 3 -0.002807 -0.002807 0.009583 0.000000 0.000000 0.000000
# 4 0.000000 0.000000 0.000000-20.182084 0.000000 0.000000
# 5 0.000000 0.000000 0.000000 0.000000-20.182084 0.000000
# 6 0.001878 -0.001878 0.000000 0.000000 0.000000 0.029816
#
#
# Mechanical properties :
#
#
# Convention : Reuss Voigt Hill
#
# Bulk Modulus (GPa) = 53.37729 55.06514 54.22122
# Shear Modulus (GPa) = -0.12415 20.76512 10.32049
#
# Velocity S-wave (km/s) = -0.24135 3.12134 2.20052
# Velocity P-wave (km/s) = 4.99664 6.23108 5.64769
#
# Compressibility (1/GPa) = 0.01873456
#
# Stress axis : x y z
#
# Youngs Moduli (GPa) = 76.41222 76.41222 104.35643
#
# Poissons Ratio (x) = 0.22141 0.29289
# Poissons Ratio (y) = 0.22141 0.29289
# Poissons Ratio (z) = 0.21446 0.21446
#
# Static dielectric constant tensor:
#      x y z
#    x 1.802800 0.000000 0.000000 
#    y 0.000000 1.802800 0.000000 
#    z 0.000000 0.000000 1.803250 
# 
# From -- ./inp_files/1931.got.cif
#   From: 2010.05.17/outbox.cif.g08.bks.cpg/sg83_1_cif.got.tgz:1931.got - 2010.06.03 18:55:12.
