data_PCOD9543973
_publ_section_title
;
Structure prediction by ZEFSAII (Michael W. Deem and Ramdas Pophale) SiO2 
 PCOD9543973
Probable space group: P 42/M
;
_chemical_formula_sum "Si O2"
_cell_formula_units_Z 48
_cell_length_a 17.500024
_cell_length_b 17.500024
_cell_length_c 7.658512
_cell_angle_alpha 90.000000
_cell_angle_beta 90.000000
_cell_angle_gamma 90.000000
_cell_volume 2345.425733
_symmetry_space_group_name_H-M "P 42/M"
_symmetry_group_IT_number 84
_symmetry_cell_setting 'tetragonal'
loop_
_space_group_symop_operation_xyz
x,y,z
-y,x,1/2+z
-x,-y,z
y,-x,1/2+z
-x,-y,-z
y,-x,1/2-z
x,y,-z
-y,x,1/2-z
loop_
_atom_site_type_symbol
_atom_site_label
_atom_site_fract_x
_atom_site_fract_y
_atom_site_fract_z
Si Si1 0.247593 0.785635 0.791074
Si Si2 0.721653 0.499703 0.796975
Si Si3 0.892448 0.326815 0.290403
Si Si4 0.936392 0.666920 0.713601
Si Si5 0.645534 0.347833 0.788845
Si Si6 0.115356 0.497513 0.698257
O O1 0.169004 0.738571 0.757987
O O2 0.274473 0.869652 0.727929
O O3 0.312819 0.728149 0.726048
O O4 0.252114 0.790082 0.000000
O O5 0.694361 0.418984 0.727502
O O6 0.654205 0.559841 0.776185
O O7 0.796169 0.527041 0.697016
O O8 0.742331 0.493264 0.000000
O O9 0.887728 0.331472 0.500000
O O10 0.882372 0.415644 0.225790
O O11 0.978885 0.305840 0.238648
O O12 0.932935 0.663027 0.500000
O O13 0.925967 0.577947 0.774408
O O14 0.645196 0.349521 0.000000
O O15 0.086853 0.506108 0.500000
#
# Coordination Sequence:
#
# PCOD9543973 Si02
#       6
#     8   8   8   8   8   8
#     4  10  19  35  56  75 106 144 172 206 265 320
#     4  11  22  34  52  76 103 136 181 226 260 302
#     4  10  20  33  55  84 108 133 177 221 254 306
#     4   9  18  34  55  79 106 141 177 211 254 315
#     4  10  21  37  53  72 102 142 182 217 260 312
#     4  10  18  32  54  79 108 140 170 210 266 316
#
# _framework density 20.465368999999999
#
# number of rings (size 3 to 8) (size 9 to 14) (size 15 to 20)
#    0.000    2.000    3.333    1.000    0.000    4.333 
#    0.000    3.333    0.000    2.500    0.000    3.500 
#    0.000    0.000    0.000    0.000    0.000    0.000 
#
# Total GULP energy -267509.469743 kJ/mol
# GULP energy per Si atom -5573.113953 kJ/mol
# Density = 2.041879 g / cm^3
# Si number density = 20.465369 Si / 1000 Ang^3
#
#
#
# Elastic Constant Matrix: (Units=GPa)
#
#
# Indices 1 2 3 4 5 6 
#
# 1 116.9969 62.0629 2.2765 0.0000 0.0000 -10.5455
# 2 62.0629 116.9969 2.2765 0.0000 0.0000 10.5455
# 3 2.2765 2.2765 39.6373 0.0000 0.0000 0.0000
# 4 0.0000 0.0000 0.0000 16.5016 0.0000 0.0000
# 5 0.0000 0.0000 0.0000 0.0000 16.5016 0.0000
# 6 -10.5455 10.5455 0.0000 0.0000 0.0000 16.2631
#
#
#
# Elastic Compliance Matrix: (Units=1/GPa)
#
#
# Indices 1 2 3 4 5 6 
#
# 1 0.014915 -0.009322 -0.000321 0.000000 0.000000 0.015717
# 2 -0.009322 0.014915 -0.000321 0.000000 0.000000 -0.015717
# 3 -0.000321 -0.000321 0.025266 0.000000 0.000000 0.000000
# 4 0.000000 0.000000 0.000000 0.060600 0.000000 0.000000
# 5 0.000000 0.000000 0.000000 0.000000 0.060600 0.000000
# 6 0.015717 -0.015717 0.000000 0.000000 0.000000 0.081871
#
#
# Mechanical properties :
#
#
# Convention : Reuss Voigt Hill
#
# Bulk Modulus (GPa) = 28.43609 45.20698 36.82154
# Shear Modulus (GPa) = 17.25211 23.65428 20.45319
#
# Velocity S-wave (km/s) = 2.90658 3.40342 3.16477
# Velocity P-wave (km/s) = 5.01888 6.13040 5.60228
#
# Compressibility (1/GPa) = 0.03516657
#
# Stress axis : x y z
#
# Youngs Moduli (GPa) = 67.04506 67.04506 39.57941
#
# Poissons Ratio (x) = 0.62502 0.01271
# Poissons Ratio (y) = 0.62502 0.01271
# Poissons Ratio (z) = 0.02154 0.02154
#
# Static dielectric constant tensor:
#      x y z
#    x 1.735490 0.000000 0.000000 
#    y 0.000000 1.735490 0.000000 
#    z 0.000000 0.000000 1.948940 
# 
# From -- ./inp_files/1021.got.cif
#   From: 2010.05.17/outbox.cif.g08.bks.cpg/sg84_1_cif.got.tgz:1021.got - 2010.06.03 18:57:40.
