data_PCOD9543211
_publ_section_title
;
Structure prediction by ZEFSAII (Michael W. Deem and Ramdas Pophale) SiO2 
 PCOD9543211
Probable space group: I -4 
;
_chemical_formula_sum "Si O2"
_cell_formula_units_Z 28
_cell_length_a 14.104402
_cell_length_b 14.104402
_cell_length_c 4.841456
_cell_angle_alpha 90.000000
_cell_angle_beta 90.000000
_cell_angle_gamma 90.000000
_cell_volume 963.130962
_symmetry_space_group_name_H-M "I -4 "
_symmetry_group_IT_number 82
_symmetry_cell_setting 'tetragonal'
loop_
_space_group_symop_operation_xyz
x,y,z
y,-x,-z
-x,-y,z
-y,x,-z
1/2+x,1/2+y,1/2+z
1/2+y,1/2-x,1/2-z
1/2-x,1/2-y,1/2+z
1/2-y,1/2+x,1/2-z
loop_
_atom_site_type_symbol
_atom_site_label
_atom_site_fract_x
_atom_site_fract_y
_atom_site_fract_z
Si Si1 0.500000 0.500000 0.000000
Si Si2 0.313902 0.475127 0.628155
Si Si3 0.847979 0.196355 0.391054
Si Si4 0.697365 0.096619 0.696675
Si Si5 0.000000 0.500000 0.250000
O O1 0.477062 0.587700 0.198527
O O2 0.410836 0.658416 0.639524
O O3 0.241269 0.542281 0.457824
O O4 0.261693 0.406921 0.850103
O O5 0.778839 0.108134 0.464580
O O6 0.805769 0.292436 0.269700
O O7 0.595947 0.049498 0.620006
#
# Coordination Sequence:
#
# PCOD9543211 Si02
#       5
#     2   8   8   8   2
#     4  12  36  58  98 152 198 260 338 416 502 628
#     4  12  33  58  95 142 191 259 332 413 506 610
#     4  12  31  56  96 135 197 259 322 418 519 592
#     4  12  30  59 101 143 195 265 336 426 512 611
#     4  12  28  64  98 152 194 264 354 412 510 616
#
# _framework density 29.071854999999999
#
# number of rings (size 3 to 8) (size 9 to 14) (size 15 to 20)
#    0.000    0.000    2.857    1.714   12.000    8.000 
#    0.000    0.000    0.000    0.000    0.000    0.000 
#    0.000    0.000    0.000    0.000    0.000    0.000 
#
# Total GULP energy -78274.960030 kJ/mol
# GULP energy per Si atom -5591.068574 kJ/mol
# Density = 2.900569 g / cm^3
# Si number density = 29.071855 Si / 1000 Ang^3
#
#
#
# Elastic Constant Matrix: (Units=GPa)
#
#
# Indices 1 2 3 4 5 6 
#
# 1 161.6298 24.9059 12.5435 0.0000 0.0000 24.8025
# 2 24.9059 161.6298 12.5435 0.0000 0.0000 -24.8025
# 3 12.5435 12.5435 170.0217 0.0000 0.0000 0.0000
# 4 0.0000 0.0000 0.0000 5.1684 0.0000 0.0000
# 5 0.0000 0.0000 0.0000 0.0000 5.1684 0.0000
# 6 24.8025 -24.8025 0.0000 0.0000 0.0000 52.1380
#
#
#
# Elastic Compliance Matrix: (Units=1/GPa)
#
#
# Indices 1 2 3 4 5 6 
#
# 1 0.007127 -0.001713 -0.000399 0.000000 0.000000 -0.004205
# 2 -0.001713 0.007127 -0.000399 0.000000 0.000000 0.004205
# 3 -0.000399 -0.000399 0.005941 0.000000 0.000000 0.000000
# 4 0.000000 0.000000 0.000000 0.193483 0.000000 0.000000
# 5 0.000000 0.000000 0.000000 0.000000 0.193483 0.000000
# 6 -0.004205 0.004205 0.000000 0.000000 0.000000 0.023181
#
#
# Mechanical properties :
#
#
# Convention : Reuss Voigt Hill
#
# Bulk Modulus (GPa) = 65.91122 65.91857 65.91489
# Shear Modulus (GPa) = 11.35278 42.04754 26.70016
#
# Velocity S-wave (km/s) = 1.97827 3.80719 3.03383
# Velocity P-wave (km/s) = 5.28575 6.48459 5.91561
#
# Compressibility (1/GPa) = 0.01517192
#
# Stress axis : x y z
#
# Youngs Moduli (GPa) = 140.30851 140.30851 168.33474
#
# Poissons Ratio (x) = 0.24028 0.06724
# Poissons Ratio (y) = 0.24028 0.06724
# Poissons Ratio (z) = 0.05605 0.05605
#
# Static dielectric constant tensor:
#      x y z
#    x 2.692070 0.000000 0.000000 
#    y 0.000000 2.692070 0.000000 
#    z 0.000000 0.000000 2.410560 
# 
# From -- ./inp_files/142.got.cif
#   From: 2010.05.17/outbox.cif.g08.bks.cpg/sg82_1_cif.got.tgz:142.got - 2010.06.03 18:52:26.
