data_PCOD9543166
_publ_section_title
;
Structure prediction by ZEFSAII (Michael W. Deem and Ramdas Pophale) SiO2 
 PCOD9543166
Probable space group: I -4 
;
_chemical_formula_sum "Si O2"
_cell_formula_units_Z 18
_cell_length_a 7.318675
_cell_length_b 7.318675
_cell_length_c 11.149230
_cell_angle_alpha 90.000000
_cell_angle_beta 90.000000
_cell_angle_gamma 90.000000
_cell_volume 597.186248
_symmetry_space_group_name_H-M "I -4 "
_symmetry_group_IT_number 82
_symmetry_cell_setting 'tetragonal'
loop_
_space_group_symop_operation_xyz
x,y,z
y,-x,-z
-x,-y,z
-y,x,-z
1/2+x,1/2+y,1/2+z
1/2+y,1/2-x,1/2-z
1/2-x,1/2-y,1/2+z
1/2-y,1/2+x,1/2-z
loop_
_atom_site_type_symbol
_atom_site_label
_atom_site_fract_x
_atom_site_fract_y
_atom_site_fract_z
Si Si1 0.469741 0.220468 0.942049
Si Si2 0.879498 0.230453 0.777202
Si Si3 0.500000 0.500000 0.500000
O O1 0.732159 0.412900 0.195925
O O2 0.500000 0.000000 0.954079
O O3 0.313710 0.348250 0.004431
O O4 0.779164 0.424275 0.779637
O O5 0.931775 0.148452 0.905297
#
# Coordination Sequence:
#
# PCOD9543166 Si02
#       3
#     8   8   2
#     4  11  28  60 113 158 216 281 362 446 541 652
#     4  11  30  62 100 155 207 279 362 437 543 644
#     4  12  28  64 102 148 208 280 344 462 532 624
#
# _framework density 30.141349999999999
#
# number of rings (size 3 to 8) (size 9 to 14) (size 15 to 20)
#    0.000    0.889    0.000    2.667   12.444    0.889 
#   24.000    0.000    9.778    0.000    0.000    0.000 
#    0.000    0.000    0.000    0.000    0.000    0.000 
#
# Total GULP energy -50459.507242 kJ/mol
# GULP energy per Si atom -5606.611916 kJ/mol
# Density = 3.007275 g / cm^3
# Si number density = 30.141350 Si / 1000 Ang^3
#
#
#
# Elastic Constant Matrix: (Units=GPa)
#
#
# Indices 1 2 3 4 5 6 
#
# 1 314.5038 146.4480 129.7149 0.0000 0.0000 21.8553
# 2 146.4480 314.5042 129.7152 0.0005 0.0001 -21.8552
# 3 129.7149 129.7152 246.6380 0.0004 0.0001 0.0000
# 4 0.0000 0.0005 0.0004 52.9953 0.0001 0.0001
# 5 0.0000 0.0001 0.0001 0.0001 52.9949 0.0000
# 6 21.8553 -21.8552 0.0000 0.0001 0.0000 66.2810
#
#
#
# Elastic Compliance Matrix: (Units=1/GPa)
#
#
# Indices 1 2 3 4 5 6 
#
# 1 0.004795 -0.001714 -0.001621 0.000000 0.000000 -0.002146
# 2 -0.001714 0.004795 -0.001621 0.000000 0.000000 0.002146
# 3 -0.001621 -0.001621 0.005759 0.000000 0.000000 0.000000
# 4 0.000000 0.000000 0.000000 0.018870 0.000000 0.000000
# 5 0.000000 0.000000 0.000000 0.000000 0.018870 0.000000
# 6 -0.002146 0.002146 0.000000 0.000000 0.000000 0.016503
#
#
# Mechanical properties :
#
#
# Convention : Reuss Voigt Hill
#
# Bulk Modulus (GPa) = 183.83602 187.48912 185.66257
# Shear Modulus (GPa) = 61.48970 65.77209 63.63089
#
# Velocity S-wave (km/s) = 4.52159 4.67639 4.59964
# Velocity P-wave (km/s) = 9.40124 9.56538 9.48366
#
# Compressibility (1/GPa) = 0.00543963
#
# Stress axis : x y z
#
# Youngs Moduli (GPa) = 208.54689 208.54701 173.63255
#
# Poissons Ratio (x) = 0.35735 0.28141
# Poissons Ratio (y) = 0.35735 0.28141
# Poissons Ratio (z) = 0.33799 0.33799
#
# Static dielectric constant tensor:
#      x y z
#    x 2.410250 0.000000 0.000000 
#    y 0.000000 2.410250 0.000000 
#    z 0.000000 0.000000 2.504740 
# 
# From -- ./inp_files/1295.got.cif
#   From: 2010.05.17/outbox.cif.g08.bks.cpg/sg82_1_cif.got.tgz:1295.got - 2010.06.03 18:52:26.
