data_PCOD9543797
_publ_section_title
;
Structure prediction by ZEFSAII (Michael W. Deem and Ramdas Pophale) SiO2 
 PCOD9543797
Probable space group: P 4/M
;
_chemical_formula_sum "Si O2"
_cell_formula_units_Z 40
_cell_length_a 7.972812
_cell_length_b 7.972812
_cell_length_c 28.182159
_cell_angle_alpha 90.000000
_cell_angle_beta 90.000000
_cell_angle_gamma 90.000000
_cell_volume 1791.419543
_symmetry_space_group_name_H-M "P 4/M"
_symmetry_group_IT_number 83
_symmetry_cell_setting 'tetragonal'
loop_
_space_group_symop_operation_xyz
x,y,z
-y,x,z
-x,-y,z
y,-x,z
-x,-y,-z
y,-x,-z
x,y,-z
-y,x,-z
loop_
_atom_site_type_symbol
_atom_site_label
_atom_site_fract_x
_atom_site_fract_y
_atom_site_fract_z
Si Si1 0.101292 0.734349 0.397346
Si Si2 0.500000 0.000000 0.870586
Si Si3 0.399607 0.764596 0.946915
Si Si4 0.104620 0.735058 0.500000
Si Si5 0.089791 0.733891 0.792635
Si Si6 0.408371 0.234457 0.301834
O O1 0.136576 0.652289 0.448984
O O2 0.149680 0.626067 0.352284
O O3 0.907871 0.792855 0.395062
O O4 0.377270 0.897072 0.905263
O O5 0.604772 0.881323 0.835350
O O6 0.293022 0.594562 0.943168
O O7 0.371904 0.834005 0.000000
O O8 0.909989 0.792554 0.500000
O O9 0.121937 0.647864 0.742184
O O10 0.898113 0.795474 0.796052
O O11 0.598673 0.294643 0.298692
#
# Coordination Sequence:
#
# PCOD9543797 Si02
#       6
#     8   4   8   4   8   8
#     4   9  17  32  57  85 111 142 183 232 286 344
#     4  12  21  36  60  88 116 149 190 240 286 326
#     4   9  19  36  58  86 120 157 194 229 271 328
#     4   7  12  26  50  81 112 140 176 225 280 340
#     4  11  24  40  58  82 112 147 189 237 290 345
#     4  11  24  40  56  77 108 148 192 238 290 346
#
# _framework density 22.328662000000001
#
# number of rings (size 3 to 8) (size 9 to 14) (size 15 to 20)
#    0.000    2.100    0.000    5.700    0.000    4.000 
#    0.000    3.000    0.000    4.800    0.000    8.400 
#    0.000    0.000    0.000    0.000    0.000    0.000 
#
# Total GULP energy -223749.113285 kJ/mol
# GULP energy per Si atom -5593.727832 kJ/mol
# Density = 2.227784 g / cm^3
# Si number density = 22.328662 Si / 1000 Ang^3
#
#
#
# Elastic Constant Matrix: (Units=GPa)
#
#
# Indices 1 2 3 4 5 6 
#
# 1 58.3686 16.0158 38.0005 0.0000 0.0000 -5.7859
# 2 16.0158 58.3686 38.0005 0.0000 0.0000 5.7859
# 3 38.0005 38.0005 205.9314 0.0000 0.0000 0.0000
# 4 0.0000 0.0000 0.0000 -2.9169 0.0000 0.0000
# 5 0.0000 0.0000 0.0000 0.0000 -2.9169 0.0000
# 6 -5.7859 5.7859 0.0000 0.0000 0.0000 28.3500
#
#
#
# Elastic Compliance Matrix: (Units=1/GPa)
#
#
# Indices 1 2 3 4 5 6 
#
# 1 0.020786 -0.004219 -0.003057 0.000000 0.000000 0.005103
# 2 -0.004219 0.020786 -0.003057 0.000000 0.000000 -0.005103
# 3 -0.003057 -0.003057 0.005984 0.000000 0.000000 0.000000
# 4 0.000000 0.000000 0.000000 -0.342830 0.000000 0.000000
# 5 0.000000 0.000000 0.000000 0.000000 -0.342830 0.000000
# 6 0.005103 -0.005103 0.000000 0.000000 0.000000 0.037356
#
#
# Mechanical properties :
#
#
# Convention : Reuss Voigt Hill
#
# Bulk Modulus (GPa) = 37.18829 56.30025 46.74427
# Shear Modulus (GPa) = -8.75478 19.88002 5.56262
#
# Velocity S-wave (km/s) = -1.98227 2.98709 1.58008
# Velocity P-wave (km/s) = 3.38407 6.09639 4.93041
#
# Compressibility (1/GPa) = 0.02689019
#
# Stress axis : x y z
#
# Youngs Moduli (GPa) = 48.10832 48.10832 167.10500
#
# Poissons Ratio (x) = 0.20298 0.51087
# Poissons Ratio (y) = 0.20298 0.51087
# Poissons Ratio (z) = 0.14707 0.14707
#
# Static dielectric constant tensor:
#      x y z
#    x 1.822220 0.000000 0.000000 
#    y 0.000000 1.822220 0.000000 
#    z 0.000000 0.000000 1.817040 
# 
# From -- ./inp_files/3268.got.cif
#   From: 2010.05.17/outbox.cif.g08.bks.cpg/sg83_2_cif.got.tgz:3268.got - 2010.06.03 18:55:12.
