data_PCOD9543557
_publ_section_title
;
Structure prediction by ZEFSAII (Michael W. Deem and Ramdas Pophale) SiO2 
 PCOD9543557
Probable space group: P 4/M
;
_chemical_formula_sum "Si O2"
_cell_formula_units_Z 48
_cell_length_a 8.177202
_cell_length_b 8.177202
_cell_length_c 33.154484
_cell_angle_alpha 90.000000
_cell_angle_beta 90.000000
_cell_angle_gamma 90.000000
_cell_volume 2216.928699
_symmetry_space_group_name_H-M "P 4/M"
_symmetry_group_IT_number 83
_symmetry_cell_setting 'tetragonal'
loop_
_space_group_symop_operation_xyz
x,y,z
-y,x,z
-x,-y,z
y,-x,z
-x,-y,-z
y,-x,-z
x,y,-z
-y,x,-z
loop_
_atom_site_type_symbol
_atom_site_label
_atom_site_fract_x
_atom_site_fract_y
_atom_site_fract_z
Si Si1 0.738101 0.081358 0.364460
Si Si2 0.760864 0.592048 0.287391
Si Si3 0.237599 0.413108 0.955034
Si Si4 0.761612 0.589046 0.802804
Si Si5 0.763482 0.418823 0.500000
Si Si6 0.500000 0.000000 0.431600
Si Si7 0.262934 0.922228 0.878988
O O1 0.646044 0.120980 0.322948
O O2 0.896012 0.197195 0.366146
O O3 0.617704 0.101961 0.402146
O O4 0.594940 0.700051 0.290780
O O5 0.829547 0.615766 0.242268
O O6 0.401470 0.302205 0.951892
O O7 0.120943 0.363424 0.918922
O O8 0.167875 0.387867 0.000000
O O9 0.596918 0.698623 0.806116
O O10 0.879362 0.638643 0.838712
O O11 0.697075 0.606142 0.500000
O O12 0.878221 0.401325 0.539099
O O13 0.104781 0.804211 0.879144
#
# Coordination Sequence:
#
# PCOD9543557 Si02
#       7
#     8   8   8   8   4   4   8
#     4  11  23  37  56  85 120 157 196 239 290 349
#     4   9  19  37  60  85 114 150 192 239 291 345
#     4   9  19  37  60  83 105 133 176 230 284 341
#     4   9  19  37  60  83 107 141 188 236 280 332
#     4  10  22  40  64  92 118 152 202 253 296 342
#     4  11  22  40  62  86 122 160 196 242 299 356
#     4  11  24  37  50  76 114 150 184 226 278 336
#
# _framework density 21.651574
#
# number of rings (size 3 to 8) (size 9 to 14) (size 15 to 20)
#    0.000    2.083    0.000    4.500    0.000    6.000 
#    0.000    9.167    0.000    4.000    0.000    0.000 
#    0.000    0.000    0.000    0.000    0.000    0.000 
#
# Total GULP energy -268679.868955 kJ/mol
# GULP energy per Si atom -5597.497270 kJ/mol
# Density = 2.160229 g / cm^3
# Si number density = 21.651574 Si / 1000 Ang^3
#
#
#
# Elastic Constant Matrix: (Units=GPa)
#
#
# Indices 1 2 3 4 5 6 
#
# 1 62.3684 30.4877 61.5732 0.0000 0.0000 1.8078
# 2 30.4877 62.3684 61.5732 0.0000 0.0000 -1.8078
# 3 61.5732 61.5732 201.2294 0.0000 0.0000 0.0000
# 4 0.0000 0.0000 0.0000 68.5814 0.0000 0.0000
# 5 0.0000 0.0000 0.0000 0.0000 68.5814 0.0000
# 6 1.8078 -1.8078 0.0000 0.0000 0.0000 39.0361
#
#
#
# Elastic Compliance Matrix: (Units=1/GPa)
#
#
# Indices 1 2 3 4 5 6 
#
# 1 0.024828 -0.006704 -0.005546 0.000000 0.000000 -0.001460
# 2 -0.006704 0.024828 -0.005546 0.000000 0.000000 0.001460
# 3 -0.005546 -0.005546 0.008363 0.000000 0.000000 0.000000
# 4 0.000000 0.000000 0.000000 0.014581 0.000000 0.000000
# 5 0.000000 0.000000 0.000000 0.000000 0.014581 0.000000
# 6 -0.001460 0.001460 0.000000 0.000000 0.000000 0.025753
#
#
# Mechanical properties :
#
#
# Convention : Reuss Voigt Hill
#
# Bulk Modulus (GPa) = 44.58588 70.35940 57.47264
# Shear Modulus (GPa) = 32.05079 46.72858 39.38969
#
# Velocity S-wave (km/s) = 3.85164 4.65069 4.26990
# Velocity P-wave (km/s) = 6.35746 7.83615 7.13522
#
# Compressibility (1/GPa) = 0.02242862
#
# Stress axis : x y z
#
# Youngs Moduli (GPa) = 40.27659 40.27659 119.57064
#
# Poissons Ratio (x) = 0.27002 0.66310
# Poissons Ratio (y) = 0.27002 0.66310
# Poissons Ratio (z) = 0.22336 0.22336
#
# Static dielectric constant tensor:
#      x y z
#    x 1.797270 0.000000 0.000000 
#    y 0.000000 1.797270 0.000000 
#    z 0.000000 0.000000 1.751430 
# 
# From -- ./inp_files/3435.got.cif
#   From: 2010.05.17/outbox.cif.g08.bks.cpg/sg83_2_cif.got.tgz:3435.got - 2010.06.03 18:55:12.
