data_PCOD9543256
_publ_section_title
;
Structure prediction by ZEFSAII (Michael W. Deem and Ramdas Pophale) SiO2 
 PCOD9543256
Probable space group: P 4/M
;
_chemical_formula_sum "Si O2"
_cell_formula_units_Z 48
_cell_length_a 10.551535
_cell_length_b 10.551535
_cell_length_c 19.471105
_cell_angle_alpha 90.000000
_cell_angle_beta 90.000000
_cell_angle_gamma 90.000000
_cell_volume 2167.813350
_symmetry_space_group_name_H-M "P 4/M"
_symmetry_group_IT_number 83
_symmetry_cell_setting 'tetragonal'
loop_
_space_group_symop_operation_xyz
x,y,z
-y,x,z
-x,-y,z
y,-x,z
-x,-y,-z
y,-x,-z
x,y,-z
-y,x,-z
loop_
_atom_site_type_symbol
_atom_site_label
_atom_site_fract_x
_atom_site_fract_y
_atom_site_fract_z
Si Si1 0.712305 0.499412 0.298193
Si Si2 0.615446 0.844274 0.424454
Si Si3 0.198527 0.001775 0.730745
Si Si4 0.240202 0.909581 0.577959
Si Si5 0.685836 0.397076 0.080480
Si Si6 0.892328 0.418724 0.816596
O O1 0.622760 0.620603 0.297304
O O2 0.795800 0.478195 0.365987
O O3 0.799707 0.498909 0.232069
O O4 0.571266 0.803469 0.500000
O O5 0.638332 0.995923 0.425734
O O6 0.756888 0.777614 0.413854
O O7 0.191146 0.972833 0.648945
O O8 0.333510 0.029975 0.762085
O O9 0.120409 0.123781 0.755609
O O10 0.186380 0.928873 0.500000
O O11 0.665442 0.548380 0.093029
O O12 0.798608 0.352391 0.129591
O O13 0.714833 0.380193 0.000000
O O14 0.000000 0.500000 0.853984
#
# Coordination Sequence:
#
# PCOD9543256 Si02
#       6
#     8   8   8   8   8   8
#     4  11  25  42  61  84 119 166 214 267 325 382
#     4  10  21  36  57  84 116 157 211 272 335 394
#     4  11  23  38  58  87 128 171 215 266 320 383
#     4  10  18  32  57  85 114 156 211 276 333 378
#     4   9  20  43  75 106 135 168 208 257 307 358
#     4  12  26  38  66  97 131 167 208 256 311 378
#
# _framework density 22.142128
#
# number of rings (size 3 to 8) (size 9 to 14) (size 15 to 20)
#    0.000    1.500    3.333    1.500    7.000    2.667 
#    0.000    3.333    0.000    4.000    0.000    1.167 
#    0.000    0.000    0.000    0.000    0.000    0.000 
#
# Total GULP energy -267451.852012 kJ/mol
# GULP energy per Si atom -5571.913584 kJ/mol
# Density = 2.209173 g / cm^3
# Si number density = 22.142128 Si / 1000 Ang^3
#
#
#
# Elastic Constant Matrix: (Units=GPa)
#
#
# Indices 1 2 3 4 5 6 
#
# 1 71.9155 12.1283 29.4288 0.0000 0.0000 -4.0113
# 2 12.1283 71.9155 29.4288 0.0000 0.0000 4.0113
# 3 29.4288 29.4288 105.3632 0.0000 0.0000 0.0000
# 4 0.0000 0.0000 0.0000 19.0785 0.0000 0.0000
# 5 0.0000 0.0000 0.0000 0.0000 19.0785 0.0000
# 6 -4.0113 4.0113 0.0000 0.0000 0.0000 24.7573
#
#
#
# Elastic Compliance Matrix: (Units=1/GPa)
#
#
# Indices 1 2 3 4 5 6 
#
# 1 0.015945 -0.001153 -0.004132 0.000000 0.000000 0.002770
# 2 -0.001153 0.015945 -0.004132 0.000000 0.000000 -0.002770
# 3 -0.004132 -0.004132 0.011799 0.000000 0.000000 0.000000
# 4 0.000000 0.000000 0.000000 0.052415 0.000000 0.000000
# 5 0.000000 0.000000 0.000000 0.000000 0.052415 0.000000
# 6 0.002770 -0.002770 0.000000 0.000000 0.000000 0.041290
#
#
# Mechanical properties :
#
#
# Convention : Reuss Voigt Hill
#
# Bulk Modulus (GPa) = 40.23051 43.46289 41.84670
# Shear Modulus (GPa) = 23.04935 24.46340 23.75637
#
# Velocity S-wave (km/s) = 3.22991 3.32751 3.27907
# Velocity P-wave (km/s) = 5.66731 5.86812 5.76859
#
# Compressibility (1/GPa) = 0.02485676
#
# Stress axis : x y z
#
# Youngs Moduli (GPa) = 62.71621 62.71621 84.75355
#
# Poissons Ratio (x) = 0.07230 0.35016
# Poissons Ratio (y) = 0.07230 0.35016
# Poissons Ratio (z) = 0.25911 0.25911
#
# Static dielectric constant tensor:
#      x y z
#    x 1.877070 0.000000 0.000000 
#    y 0.000000 1.877070 0.000000 
#    z 0.000000 0.000000 1.814460 
# 
# From -- ./inp_files/2638.got.cif
#   From: 2010.05.17/outbox.cif.g08.bks.cpg/sg83_2_cif.got.tgz:2638.got - 2010.06.03 18:55:12.
