data_PCOD9543842
_publ_section_title
;
Structure prediction by ZEFSAII (Michael W. Deem and Ramdas Pophale) SiO2 
 PCOD9543842
Probable space group: P 4/M
;
_chemical_formula_sum "Si O2"
_cell_formula_units_Z 38
_cell_length_a 8.525784
_cell_length_b 8.525784
_cell_length_c 23.935410
_cell_angle_alpha 90.000000
_cell_angle_beta 90.000000
_cell_angle_gamma 90.000000
_cell_volume 1739.840846
_symmetry_space_group_name_H-M "P 4/M"
_symmetry_group_IT_number 83
_symmetry_cell_setting 'tetragonal'
loop_
_space_group_symop_operation_xyz
x,y,z
-y,x,z
-x,-y,z
y,-x,z
-x,-y,-z
y,-x,-z
x,y,-z
-y,x,-z
loop_
_atom_site_type_symbol
_atom_site_label
_atom_site_fract_x
_atom_site_fract_y
_atom_site_fract_z
Si Si1 0.000000 0.000000 0.747341
Si Si2 0.743654 0.586932 0.655485
Si Si3 0.721078 0.648350 0.000000
Si Si4 0.925375 0.746092 0.438197
Si Si5 0.661290 0.091173 0.769399
Si Si6 0.279276 0.351139 0.121702
O O1 0.985963 0.193400 0.748847
O O2 0.590722 0.692713 0.645470
O O3 0.877902 0.637736 0.612735
O O4 0.794674 0.614350 0.718902
O O5 0.541013 0.708004 0.000000
O O6 0.788491 0.692938 0.060426
O O7 0.902590 0.674874 0.500000
O O8 0.100284 0.814113 0.434670
O O9 0.707349 0.178841 0.826595
O O10 0.500000 0.000000 0.781726
O O11 0.458900 0.291400 0.125010
#
# Coordination Sequence:
#
# PCOD9543842 Si02
#       6
#     2   8   4   8   8   8
#     4  12  28  44  68  97 129 176 224 280 322 408
#     4  11  25  41  61  93 129 166 212 266 327 390
#     4   7  12  24  51  89 122 166 221 267 324 391
#     4   9  21  41  66  94 125 164 210 259 317 387
#     4  12  26  43  64  93 129 174 221 271 338 396
#     4   9  16  32  59  91 130 171 219 277 329 392
#
# _framework density 21.841080999999999
#
# number of rings (size 3 to 8) (size 9 to 14) (size 15 to 20)
#    0.000    2.000    0.000    5.684    5.895    2.526 
#    0.000    3.684    0.000    1.895    0.000    0.000 
#    0.000    0.000    0.000    0.000    0.000    0.000 
#
# Total GULP energy -211894.269643 kJ/mol
# GULP energy per Si atom -5576.164991 kJ/mol
# Density = 2.179137 g / cm^3
# Si number density = 21.841081 Si / 1000 Ang^3
#
#
#
# Elastic Constant Matrix: (Units=GPa)
#
#
# Indices 1 2 3 4 5 6 
#
# 1 38.1419 22.6671 11.1881 0.0000 0.0000 11.7854
# 2 22.6671 38.1419 11.1881 0.0000 0.0000 -11.7854
# 3 11.1881 11.1881 113.2620 0.0000 0.0000 0.0000
# 4 0.0000 0.0000 0.0000 32.8326 0.0000 0.0000
# 5 0.0000 0.0000 0.0000 0.0000 32.8326 0.0000
# 6 11.7854 -11.7854 0.0000 0.0000 0.0000 46.9540
#
#
#
# Elastic Compliance Matrix: (Units=1/GPa)
#
#
# Indices 1 2 3 4 5 6 
#
# 1 0.060842 -0.043777 -0.001686 0.000000 0.000000 -0.026259
# 2 -0.043777 0.060842 -0.001686 0.000000 0.000000 0.026259
# 3 -0.001686 -0.001686 0.009162 0.000000 0.000000 0.000000
# 4 0.000000 0.000000 0.000000 0.030457 0.000000 0.000000
# 5 0.000000 0.000000 0.000000 0.000000 0.030457 0.000000
# 6 -0.026259 0.026259 0.000000 0.000000 0.000000 0.034480
#
#
# Mechanical properties :
#
#
# Convention : Reuss Voigt Hill
#
# Bulk Modulus (GPa) = 27.35999 31.07027 29.21513
# Shear Modulus (GPa) = 15.02766 32.15735 23.59251
#
# Velocity S-wave (km/s) = 2.62591 3.84126 3.29019
# Velocity P-wave (km/s) = 4.66346 5.82497 5.27627
#
# Compressibility (1/GPa) = 0.03654972
#
# Stress axis : x y z
#
# Youngs Moduli (GPa) = 16.43605 16.43605 109.14503
#
# Poissons Ratio (x) = 0.71952 0.18399
# Poissons Ratio (y) = 0.71952 0.18399
# Poissons Ratio (z) = 0.02771 0.02771
#
# Static dielectric constant tensor:
#      x y z
#    x 1.801110 0.000000 0.000000 
#    y 0.000000 1.801110 0.000000 
#    z 0.000000 0.000000 1.810200 
# 
# From -- ./inp_files/3129.got.cif
#   From: 2010.05.17/outbox.cif.g08.bks.cpg/sg83_2_cif.got.tgz:3129.got - 2010.06.03 18:55:12.
