data_PCOD9543678
_publ_section_title
;
Structure prediction by ZEFSAII (Michael W. Deem and Ramdas Pophale) SiO2 
 PCOD9543678
Probable space group: P 4/M
;
_chemical_formula_sum "Si O2"
_cell_formula_units_Z 40
_cell_length_a 14.947626
_cell_length_b 14.947626
_cell_length_c 8.644899
_cell_angle_alpha 90.000000
_cell_angle_beta 90.000000
_cell_angle_gamma 90.000000
_cell_volume 1931.542950
_symmetry_space_group_name_H-M "P 4/M"
_symmetry_group_IT_number 83
_symmetry_cell_setting 'tetragonal'
loop_
_space_group_symop_operation_xyz
x,y,z
-y,x,z
-x,-y,z
y,-x,z
-x,-y,-z
y,-x,-z
x,y,-z
-y,x,-z
loop_
_atom_site_type_symbol
_atom_site_label
_atom_site_fract_x
_atom_site_fract_y
_atom_site_fract_z
Si Si1 0.305841 0.108086 0.820685
Si Si2 0.605539 0.722941 0.681808
Si Si3 0.252222 0.415511 0.816332
Si Si4 0.948190 0.594086 0.683514
Si Si5 0.875682 0.918074 0.681484
O O1 0.361963 0.176482 0.717064
O O2 0.201440 0.122513 0.785906
O O3 0.332543 0.008417 0.769420
O O4 0.326852 0.122897 0.000000
O O5 0.590535 0.710938 0.500000
O O6 0.683106 0.658029 0.741836
O O7 0.513094 0.710023 0.772249
O O8 0.152106 0.409512 0.747578
O O9 0.248784 0.404040 0.000000
O O10 0.946053 0.611935 0.500000
O O11 0.000000 0.500000 0.708426
O O12 0.853680 0.903755 0.500000
O O13 0.975105 0.881386 0.707860
#
# Coordination Sequence:
#
# PCOD9543678 Si02
#       5
#     8   8   8   8   8
#     4  12  25  40  63  96 133 171 218 278 333 386
#     4  12  26  47  71  98 134 178 226 272 333 408
#     4  12  26  46  72 104 137 172 220 281 340 391
#     4  11  23  42  69  97 130 173 218 262 325 395
#     4   9  20  40  63  87 122 170 221 268 324 394
#
# _framework density 20.708834
#
# number of rings (size 3 to 8) (size 9 to 14) (size 15 to 20)
#    0.000    0.800    2.000    6.600    2.800    2.000 
#    0.000    3.000    0.000    0.000    0.000    0.000 
#    0.000    0.000    0.000    0.000    0.000    0.000 
#
# Total GULP energy -223941.193452 kJ/mol
# GULP energy per Si atom -5598.529836 kJ/mol
# Density = 2.066170 g / cm^3
# Si number density = 20.708834 Si / 1000 Ang^3
#
#
#
# Elastic Constant Matrix: (Units=GPa)
#
#
# Indices 1 2 3 4 5 6 
#
# 1 52.8468 23.9673 -6.0474 0.0000 0.0000 14.2417
# 2 23.9673 52.8468 -6.0474 0.0000 0.0000 -14.2417
# 3 -6.0474 -6.0474 54.4216 0.0000 0.0000 0.0000
# 4 0.0000 0.0000 0.0000 400.6129 0.0000 0.0000
# 5 0.0000 0.0000 0.0000 0.0000 400.6129 0.0000
# 6 14.2417 -14.2417 0.0000 0.0000 0.0000 27.0066
#
#
#
# Elastic Compliance Matrix: (Units=1/GPa)
#
#
# Indices 1 2 3 4 5 6 
#
# 1 0.042703 -0.029453 0.001472 0.000000 0.000000 -0.038051
# 2 -0.029453 0.042703 0.001472 0.000000 0.000000 0.038051
# 3 0.001472 0.001472 0.018702 0.000000 0.000000 0.000000
# 4 0.000000 0.000000 0.000000 0.002496 0.000000 0.000000
# 5 0.000000 0.000000 0.000000 0.000000 0.002496 0.000000
# 6 -0.038051 0.038051 0.000000 0.000000 0.000000 0.077160
#
#
# Mechanical properties :
#
#
# Convention : Reuss Voigt Hill
#
# Bulk Modulus (GPa) = 19.57237 20.42890 20.00063
# Shear Modulus (GPa) = 19.50783 175.52932 97.51857
#
# Velocity S-wave (km/s) = 3.07254 9.21654 6.86968
# Velocity P-wave (km/s) = 4.69671 11.09710 8.52070
#
# Compressibility (1/GPa) = 0.05109244
#
# Stress axis : x y z
#
# Youngs Moduli (GPa) = 23.41752 23.41752 53.46938
#
# Poissons Ratio (x) = 0.68971 -0.07873
# Poissons Ratio (y) = 0.68971 -0.07873
# Poissons Ratio (z) = -0.03448 -0.03448
#
# Static dielectric constant tensor:
#      x y z
#    x 1.737770 0.000000 0.000000 
#    y 0.000000 1.737770 0.000000 
#    z 0.000000 0.000000 1.691970 
# 
# From -- ./inp_files/657.got.cif
#   From: 2010.05.17/outbox.cif.g08.bks.cpg/sg83_1_cif.got.tgz:657.got - 2010.06.03 18:55:12.
