data_PCOD9543249
_publ_section_title
;
Structure prediction by ZEFSAII (Michael W. Deem and Ramdas Pophale) SiO2 
 PCOD9543249
Probable space group: P 4/M
;
_chemical_formula_sum "Si O2"
_cell_formula_units_Z 40
_cell_length_a 13.549619
_cell_length_b 13.549619
_cell_length_c 10.271469
_cell_angle_alpha 90.000000
_cell_angle_beta 90.000000
_cell_angle_gamma 90.000000
_cell_volume 1885.761335
_symmetry_space_group_name_H-M "P 4/M"
_symmetry_group_IT_number 83
_symmetry_cell_setting 'tetragonal'
loop_
_space_group_symop_operation_xyz
x,y,z
-y,x,z
-x,-y,z
y,-x,z
-x,-y,-z
y,-x,-z
x,y,-z
-y,x,-z
loop_
_atom_site_type_symbol
_atom_site_label
_atom_site_fract_x
_atom_site_fract_y
_atom_site_fract_z
Si Si1 0.879962 0.886942 0.500000
Si Si2 0.658648 0.621317 0.500000
Si Si3 0.006175 0.617564 0.651684
Si Si4 0.346734 0.835456 0.854423
Si Si5 0.654691 0.533049 0.225553
Si Si6 0.796505 0.270817 0.303076
O O1 0.823722 0.840936 0.377629
O O2 0.995535 0.867128 0.500000
O O3 0.653823 0.534959 0.384502
O O4 0.686973 0.704876 0.387181
O O5 0.991050 0.647047 0.500000
O O6 0.113714 0.652998 0.697239
O O7 0.000000 0.500000 0.654664
O O8 0.920906 0.655227 0.746693
O O9 0.437993 0.761651 0.825858
O O10 0.250534 0.767711 0.829816
O O11 0.351705 0.874338 0.000000
O O12 0.572187 0.612453 0.182207
#
# Coordination Sequence:
#
# PCOD9543249 Si02
#       6
#     4   4   8   8   8   8
#     4  10  18  31  60  95 119 148 197 259 327 388
#     4   9  18  32  60  92 124 163 211 267 340 384
#     4  11  25  42  70 105 135 176 228 289 351 412
#     4  11  27  43  65  95 133 186 228 277 341 411
#     4  10  22  38  61  93 131 175 226 283 333 400
#     4  10  21  39  62  91 130 169 214 274 334 401
#
# _framework density 21.211590999999999
#
# number of rings (size 3 to 8) (size 9 to 14) (size 15 to 20)
#    0.000    1.700    2.000    1.800   12.600    2.800 
#    0.000    1.000    0.000    0.000    0.000    4.200 
#    0.000    0.000    0.000    0.000    0.000    0.000 
#
# Total GULP energy -222676.029659 kJ/mol
# GULP energy per Si atom -5566.900741 kJ/mol
# Density = 2.116331 g / cm^3
# Si number density = 21.211591 Si / 1000 Ang^3
#
#
#
# Elastic Constant Matrix: (Units=GPa)
#
#
# Indices 1 2 3 4 5 6 
#
# 1 91.4541 18.3569 19.7441 0.0000 0.0000 -2.0166
# 2 18.3569 91.4541 19.7441 0.0000 0.0000 2.0166
# 3 19.7441 19.7441 65.1152 0.0000 0.0000 0.0000
# 4 0.0000 0.0000 0.0000 8.5741 0.0000 0.0000
# 5 0.0000 0.0000 0.0000 0.0000 8.5741 0.0000
# 6 -2.0166 2.0166 0.0000 0.0000 0.0000 40.2997
#
#
#
# Elastic Compliance Matrix: (Units=1/GPa)
#
#
# Indices 1 2 3 4 5 6 
#
# 1 0.011970 -0.001749 -0.003099 0.000000 0.000000 0.000686
# 2 -0.001749 0.011970 -0.003099 0.000000 0.000000 -0.000686
# 3 -0.003099 -0.003099 0.017237 0.000000 0.000000 0.000000
# 4 0.000000 0.000000 0.000000 0.116630 0.000000 0.000000
# 5 0.000000 0.000000 0.000000 0.000000 0.116630 0.000000
# 6 0.000686 -0.000686 0.000000 0.000000 0.000000 0.024883
#
#
# Mechanical properties :
#
#
# Convention : Reuss Voigt Hill
#
# Bulk Modulus (GPa) = 39.55363 40.41262 39.98312
# Shear Modulus (GPa) = 15.44921 24.16814 19.80868
#
# Velocity S-wave (km/s) = 2.70170 3.37914 3.05923
# Velocity P-wave (km/s) = 5.33103 5.85818 5.60081
#
# Compressibility (1/GPa) = 0.02528213
#
# Stress axis : x y z
#
# Youngs Moduli (GPa) = 83.54459 83.54459 58.01524
#
# Poissons Ratio (x) = 0.14609 0.17980
# Poissons Ratio (y) = 0.14609 0.17980
# Poissons Ratio (z) = 0.25892 0.25892
#
# Static dielectric constant tensor:
#      x y z
#    x 1.852450 0.000000 0.000000 
#    y 0.000000 1.852450 0.000000 
#    z 0.000000 0.000000 1.801060 
# 
# From -- ./inp_files/767.got.cif
#   From: 2010.05.17/outbox.cif.g08.bks.cpg/sg83_1_cif.got.tgz:767.got - 2010.06.03 18:55:12.
