data_PCOD9543365
_publ_section_title
;
Structure prediction by ZEFSAII (Michael W. Deem and Ramdas Pophale) SiO2 
 PCOD9543365
Probable space group: P 4/M
;
_chemical_formula_sum "Si O2"
_cell_formula_units_Z 52
_cell_length_a 18.033854
_cell_length_b 18.033854
_cell_length_c 7.808562
_cell_angle_alpha 90.000000
_cell_angle_beta 90.000000
_cell_angle_gamma 90.000000
_cell_volume 2539.499675
_symmetry_space_group_name_H-M "P 4/M"
_symmetry_group_IT_number 83
_symmetry_cell_setting 'tetragonal'
loop_
_space_group_symop_operation_xyz
x,y,z
-y,x,z
-x,-y,z
y,-x,z
-x,-y,-z
y,-x,-z
x,y,-z
-y,x,-z
loop_
_atom_site_type_symbol
_atom_site_label
_atom_site_fract_x
_atom_site_fract_y
_atom_site_fract_z
Si Si1 0.708162 0.977481 0.291396
Si Si2 0.548666 0.931724 0.703371
Si Si3 0.380664 0.485438 0.209266
Si Si4 0.149600 0.304765 0.703914
Si Si5 0.785983 0.538958 0.199222
Si Si6 0.897974 0.067615 0.000000
Si Si7 0.857940 0.167917 0.702596
O O1 0.711156 0.979646 0.500000
O O2 0.632074 0.939404 0.231204
O O3 0.774848 0.922131 0.244709
O O4 0.705066 0.063798 0.236334
O O5 0.554276 0.944083 0.500000
O O6 0.509938 0.852977 0.727498
O O7 0.500000 0.000000 0.774346
O O8 0.437205 0.419660 0.260838
O O9 0.296510 0.474947 0.271230
O O10 0.379498 0.484292 0.000000
O O11 0.145508 0.318713 0.500000
O O12 0.189503 0.375540 0.782323
O O13 0.192902 0.227274 0.728703
O O14 0.782552 0.520002 0.000000
O O15 0.863869 0.097493 0.174948
O O16 0.980792 0.098172 0.000000
O O17 0.865857 0.150295 0.500000
#
# Coordination Sequence:
#
# PCOD9543365 Si02
#       7
#     8   8   8   8   8   4   8
#     4   9  18  36  59  80 106 151 199 236 289 360
#     4  10  19  36  57  76 108 155 197 230 280 356
#     4   8  16  34  57  79 111 157 196 228 281 350
#     4  10  20  37  59  79 111 156 195 236 296 358
#     4  11  22  33  54  90 121 144 190 251 297 347
#     4  11  24  40  60  88 117 151 197 248 308 366
#     4  10  22  40  61  87 117 155 204 253 301 362
#
# _framework density 20.476476000000002
#
# number of rings (size 3 to 8) (size 9 to 14) (size 15 to 20)
#    0.000    2.231    1.538    1.846    1.077    3.385 
#    2.769    0.769    0.000    2.769    0.000    4.308 
#    0.000    0.000    0.000    0.000    0.000    0.000 
#
# Total GULP energy -290033.772427 kJ/mol
# GULP energy per Si atom -5577.572547 kJ/mol
# Density = 2.042987 g / cm^3
# Si number density = 20.476476 Si / 1000 Ang^3
#
#
#
# Elastic Constant Matrix: (Units=GPa)
#
#
# Indices 1 2 3 4 5 6 
#
# 1 197.1809 -17.6252 6.1927 0.0000 0.0000 -37.9045
# 2 -17.6252 197.1809 6.1927 0.0000 0.0000 37.9045
# 3 6.1927 6.1927 22.6949 0.0000 0.0000 0.0000
# 4 0.0000 0.0000 0.0000 16.5025 0.0000 0.0000
# 5 0.0000 0.0000 0.0000 0.0000 16.5025 0.0000
# 6 -37.9045 37.9045 0.0000 0.0000 0.0000 56.3508
#
#
#
# Elastic Compliance Matrix: (Units=1/GPa)
#
#
# Indices 1 2 3 4 5 6 
#
# 1 0.005890 -0.000214 -0.001549 0.000000 0.000000 0.004106
# 2 -0.000214 0.005890 -0.001549 0.000000 0.000000 -0.004106
# 3 -0.001549 -0.001549 0.044908 0.000000 0.000000 0.000000
# 4 0.000000 0.000000 0.000000 0.060597 0.000000 0.000000
# 5 0.000000 0.000000 0.000000 0.000000 0.060597 0.000000
# 6 0.004106 -0.004106 0.000000 0.000000 0.000000 0.023270
#
#
# Mechanical properties :
#
#
# Convention : Reuss Voigt Hill
#
# Bulk Modulus (GPa) = 19.97401 45.17521 32.57461
# Shear Modulus (GPa) = 22.27519 46.02425 34.14972
#
# Velocity S-wave (km/s) = 3.30182 4.74610 4.08824
# Velocity P-wave (km/s) = 4.93070 7.22107 6.18287
#
# Compressibility (1/GPa) = 0.05006506
#
# Stress axis : x y z
#
# Youngs Moduli (GPa) = 169.76985 169.76985 22.26770
#
# Poissons Ratio (x) = 0.03636 0.03449
# Poissons Ratio (y) = 0.03636 0.03449
# Poissons Ratio (z) = 0.26294 0.26294
#
# Static dielectric constant tensor:
#      x y z
#    x 1.725610 0.000000 0.000000 
#    y 0.000000 1.725610 0.000000 
#    z 0.000000 0.000000 1.794080 
# 
# From -- ./inp_files/988.got.cif
#   From: 2010.05.17/outbox.cif.g08.bks.cpg/sg83_1_cif.got.tgz:988.got - 2010.06.03 18:55:12.
