data_PCOD9543195
_publ_section_title
;
Structure prediction by ZEFSAII (Michael W. Deem and Ramdas Pophale) SiO2 
 PCOD9543195
Probable space group: I -4 
;
_chemical_formula_sum "Si O2"
_cell_formula_units_Z 28
_cell_length_a 12.517991
_cell_length_b 12.517991
_cell_length_c 6.829161
_cell_angle_alpha 90.000000
_cell_angle_beta 90.000000
_cell_angle_gamma 90.000000
_cell_volume 1070.130203
_symmetry_space_group_name_H-M "I -4 "
_symmetry_group_IT_number 82
_symmetry_cell_setting 'tetragonal'
loop_
_space_group_symop_operation_xyz
x,y,z
y,-x,-z
-x,-y,z
-y,x,-z
1/2+x,1/2+y,1/2+z
1/2+y,1/2-x,1/2-z
1/2-x,1/2-y,1/2+z
1/2-y,1/2+x,1/2-z
loop_
_atom_site_type_symbol
_atom_site_label
_atom_site_fract_x
_atom_site_fract_y
_atom_site_fract_z
Si Si1 0.500000 0.500000 0.000000
Si Si2 0.155493 0.273794 0.856371
Si Si3 0.391020 0.336046 0.733034
Si Si4 0.681667 0.009356 0.512333
Si Si5 0.000000 0.500000 0.250000
O O1 0.444814 0.586228 0.147662
O O2 0.280938 0.278118 0.801975
O O3 0.079510 0.279214 0.668588
O O4 0.145985 0.390705 0.956629
O O5 0.119792 0.178400 0.000663
O O6 0.489349 0.267611 0.815579
O O7 0.578480 0.063444 0.608865
#
# Coordination Sequence:
#
# PCOD9543195 Si02
#       5
#     2   8   8   8   2
#     4  12  28  56  82 124 176 234 284 346 428 508
#     4  12  26  48  78 116 160 216 279 350 417 501
#     4  12  26  49  80 112 168 216 276 346 418 505
#     4  12  25  45  76 114 154 204 274 346 416 494
#     4  12  24  46  80 112 154 196 268 346 428 476
#
# _framework density 26.165044000000002
#
# number of rings (size 3 to 8) (size 9 to 14) (size 15 to 20)
#    0.000    0.000    8.571    1.714    0.000    0.000 
#    5.143    1.429    0.000    0.000    0.000    0.000 
#    0.000    0.000    0.000    0.000    0.000    0.000 
#
# Total GULP energy -78269.348370 kJ/mol
# GULP energy per Si atom -5590.667741 kJ/mol
# Density = 2.610549 g / cm^3
# Si number density = 26.165044 Si / 1000 Ang^3
#
#
#
# Elastic Constant Matrix: (Units=GPa)
#
#
# Indices 1 2 3 4 5 6 
#
# 1 79.1111 40.0858 56.2716 0.0000 0.0000 -0.0988
# 2 40.0858 79.1111 56.2716 0.0000 0.0000 0.0988
# 3 56.2716 56.2716 183.1874 0.0000 0.0000 0.0000
# 4 0.0000 0.0000 0.0000 51.7018 0.0000 0.0000
# 5 0.0000 0.0000 0.0000 0.0000 51.7018 0.0000
# 6 -0.0988 0.0988 0.0000 0.0000 0.0000 44.0464
#
#
#
# Elastic Compliance Matrix: (Units=1/GPa)
#
#
# Indices 1 2 3 4 5 6 
#
# 1 0.018721 -0.006904 -0.003630 0.000000 0.000000 0.000058
# 2 -0.006904 0.018721 -0.003630 0.000000 0.000000 -0.000058
# 3 -0.003630 -0.003630 0.007689 0.000000 0.000000 0.000000
# 4 0.000000 0.000000 0.000000 0.019342 0.000000 0.000000
# 5 0.000000 0.000000 0.000000 0.000000 0.019342 0.000000
# 6 0.000058 -0.000058 0.000000 0.000000 0.000000 0.022704
#
#
# Mechanical properties :
#
#
# Convention : Reuss Voigt Hill
#
# Bulk Modulus (GPa) = 59.51345 71.85193 65.68269
# Shear Modulus (GPa) = 35.60095 42.07538 38.83816
#
# Velocity S-wave (km/s) = 3.69267 4.01443 3.85691
# Velocity P-wave (km/s) = 6.40124 7.00059 6.70761
#
# Compressibility (1/GPa) = 0.01680292
#
# Stress axis : x y z
#
# Youngs Moduli (GPa) = 53.41680 53.41680 130.05697
#
# Poissons Ratio (x) = 0.36879 0.47209
# Poissons Ratio (y) = 0.36879 0.47209
# Poissons Ratio (z) = 0.19390 0.19390
#
# Static dielectric constant tensor:
#      x y z
#    x 2.060320 0.000000 0.000000 
#    y 0.000000 2.060320 0.000000 
#    z 0.000000 0.000000 2.052030 
# 
# From -- ./inp_files/126.got.cif
#   From: 2010.05.17/outbox.cif.g08.bks.cpg/sg82_1_cif.got.tgz:126.got - 2010.06.03 18:52:26.
