data_PCOD9543561
_publ_section_title
;
Structure prediction by ZEFSAII (Michael W. Deem and Ramdas Pophale) SiO2 
 PCOD9543561
Probable space group: P 4/M
;
_chemical_formula_sum "Si O2"
_cell_formula_units_Z 64
_cell_length_a 18.022400
_cell_length_b 18.022400
_cell_length_c 8.698851
_cell_angle_alpha 90.000000
_cell_angle_beta 90.000000
_cell_angle_gamma 90.000000
_cell_volume 2825.446842
_symmetry_space_group_name_H-M "P 4/M"
_symmetry_group_IT_number 83
_symmetry_cell_setting 'tetragonal'
loop_
_space_group_symop_operation_xyz
x,y,z
-y,x,z
-x,-y,z
y,-x,z
-x,-y,-z
y,-x,-z
x,y,-z
-y,x,-z
loop_
_atom_site_type_symbol
_atom_site_label
_atom_site_fract_x
_atom_site_fract_y
_atom_site_fract_z
Si Si1 0.144932 0.780156 0.176508
Si Si2 0.831713 0.711085 0.316904
Si Si3 0.455958 0.809609 0.317851
Si Si4 0.903887 0.429960 0.816807
Si Si5 0.700996 0.005038 0.184892
Si Si6 0.572830 0.595521 0.684507
Si Si7 0.912852 0.911737 0.671416
Si Si8 0.403618 0.256085 0.820895
O O1 0.225374 0.777264 0.254248
O O2 0.067771 0.746411 0.239673
O O3 0.127782 0.867902 0.196177
O O4 0.150813 0.757550 0.000000
O O5 0.829974 0.712579 0.500000
O O6 0.808837 0.628454 0.266616
O O7 0.917473 0.719460 0.263540
O O8 0.461063 0.793878 0.500000
O O9 0.496477 0.888099 0.280140
O O10 0.509372 0.755361 0.223369
O O11 0.977127 0.383247 0.787144
O O12 0.829210 0.379384 0.782520
O O13 0.900968 0.446483 0.000000
O O14 0.711198 0.012353 0.000000
O O15 0.486123 0.599320 0.733780
O O16 0.574287 0.595996 0.500000
O O17 0.617679 0.667860 0.738358
O O18 0.887879 0.886416 0.500000
O O19 0.000321 0.900302 0.680775
O O20 0.392141 0.266445 0.000000
#
# Coordination Sequence:
#
# PCOD9543561 Si02
#       8
#     8   8   8   8   8   8   8   8
#     4  11  23  37  55  80 111 148 188 231 281 340
#     4  11  24  40  60  86 116 152 193 239 291 347
#     4   9  19  37  58  82 114 147 187 234 281 342
#     4   8  18  37  58  83 114 146 185 232 284 341
#     4  10  22  41  62  85 116 153 193 238 290 350
#     4   9  18  33  53  79 113 153 196 241 290 345
#     4   9  18  33  53  76 104 140 180 225 276 328
#     4   9  18  34  56  81 111 148 188 235 288 342
#
# _framework density 22.651285999999999
#
# number of rings (size 3 to 8) (size 9 to 14) (size 15 to 20)
#    0.750    1.750    0.000    2.625    0.000    7.000 
#    2.250    3.750    0.000    0.000    0.000    0.000 
#    0.000    0.000    0.000    0.000    0.000    0.000 
#
# Total GULP energy -356762.526780 kJ/mol
# GULP energy per Si atom -5574.414481 kJ/mol
# Density = 2.259973 g / cm^3
# Si number density = 22.651286 Si / 1000 Ang^3
#
#
#
# Elastic Constant Matrix: (Units=GPa)
#
#
# Indices 1 2 3 4 5 6 
#
# 1 59.1513 -2.2772 2.1367 0.0000 0.0000 -2.3309
# 2 -2.2772 59.1513 2.1367 0.0000 0.0000 2.3309
# 3 2.1367 2.1367 16.3897 0.0000 0.0000 0.0000
# 4 0.0000 0.0000 0.0000 23.1350 0.0000 0.0000
# 5 0.0000 0.0000 0.0000 0.0000 23.1350 0.0000
# 6 -2.3309 2.3309 0.0000 0.0000 0.0000 27.3782
#
#
#
# Elastic Compliance Matrix: (Units=1/GPa)
#
#
# Indices 1 2 3 4 5 6 
#
# 1 0.017071 0.000686 -0.002315 0.000000 0.000000 0.001395
# 2 0.000686 0.017071 -0.002315 0.000000 0.000000 -0.001395
# 3 -0.002315 -0.002315 0.061617 0.000000 0.000000 0.000000
# 4 0.000000 0.000000 0.000000 0.043225 0.000000 0.000000
# 5 0.000000 0.000000 0.000000 0.000000 0.043225 0.000000
# 6 0.001395 -0.001395 0.000000 0.000000 0.000000 0.036763
#
#
# Mechanical properties :
#
#
# Convention : Reuss Voigt Hill
#
# Bulk Modulus (GPa) = 11.38034 15.40944 13.39489
# Shear Modulus (GPa) = 19.51987 23.57605 21.54796
#
# Velocity S-wave (km/s) = 2.93875 3.22968 3.08765
# Velocity P-wave (km/s) = 4.06818 4.55252 4.31715
#
# Compressibility (1/GPa) = 0.08787085
#
# Stress axis : x y z
#
# Youngs Moduli (GPa) = 58.57961 58.57961 16.22920
#
# Poissons Ratio (x) = -0.04018 0.03757
# Poissons Ratio (y) = -0.04018 0.03757
# Poissons Ratio (z) = 0.13561 0.13561
#
# Static dielectric constant tensor:
#      x y z
#    x 1.908560 0.000000 0.000000 
#    y 0.000000 1.908560 0.000000 
#    z 0.000000 0.000000 1.794260 
# 
# From -- ./inp_files/1295.got.cif
#   From: 2010.05.17/outbox.cif.g08.bks.cpg/sg83_1_cif.got.tgz:1295.got - 2010.06.03 18:55:12.
