data_PCOD9543800
_publ_section_title
;
Structure prediction by ZEFSAII (Michael W. Deem and Ramdas Pophale) SiO2 
 PCOD9543800
Probable space group: P 4/M
;
_chemical_formula_sum "Si O2"
_cell_formula_units_Z 40
_cell_length_a 7.976501
_cell_length_b 7.976501
_cell_length_c 28.175322
_cell_angle_alpha 90.000000
_cell_angle_beta 90.000000
_cell_angle_gamma 90.000000
_cell_volume 1792.642696
_symmetry_space_group_name_H-M "P 4/M"
_symmetry_group_IT_number 83
_symmetry_cell_setting 'tetragonal'
loop_
_space_group_symop_operation_xyz
x,y,z
-y,x,z
-x,-y,z
y,-x,z
-x,-y,-z
y,-x,-z
x,y,-z
-y,x,-z
loop_
_atom_site_type_symbol
_atom_site_label
_atom_site_fract_x
_atom_site_fract_y
_atom_site_fract_z
Si Si1 0.098512 0.734267 0.447677
Si Si2 0.089143 0.733760 0.258666
Si Si3 0.410196 0.234044 0.647112
Si Si4 0.235885 0.394713 0.000000
Si Si5 0.000000 0.500000 0.819596
Si Si6 0.601519 0.234431 0.896750
O O1 0.128563 0.658832 0.500000
O O2 0.148892 0.623166 0.403351
O O3 0.906066 0.793882 0.444851
O O4 0.121478 0.646256 0.308904
O O5 0.897710 0.795832 0.255491
O O6 0.117555 0.606073 0.215599
O O7 0.599920 0.295452 0.650286
O O8 0.410658 0.292388 0.000000
O O9 0.154742 0.363711 0.051211
O O10 0.105412 0.378822 0.854104
O O11 0.707074 0.406022 0.893902
#
# Coordination Sequence:
#
# PCOD9543800 Si02
#       6
#     8   8   8   4   4   8
#     4   9  19  37  61  89 120 154 192 233 281 340
#     4  11  24  41  59  79 108 148 191 235 287 349
#     4  11  24  40  59  85 116 149 190 242 292 337
#     4   7  12  27  50  76 108 146 184 220 266 329
#     4  12  22  35  56  84 111 140 186 240 288 332
#     4   9  18  33  54  80 112 148 184 226 277 332
#
# _framework density 22.313427999999998
#
# number of rings (size 3 to 8) (size 9 to 14) (size 15 to 20)
#    0.000    2.100    0.000    5.400    0.000    5.200 
#    0.000    5.000    0.000    0.000    0.000    0.000 
#    0.000   12.800    0.000    0.000    0.000    0.000 
#
# Total GULP energy -223740.052585 kJ/mol
# GULP energy per Si atom -5593.501315 kJ/mol
# Density = 2.226264 g / cm^3
# Si number density = 22.313428 Si / 1000 Ang^3
#
#
#
# Elastic Constant Matrix: (Units=GPa)
#
#
# Indices 1 2 3 4 5 6 
#
# 1 56.6169 14.5201 40.4188 0.0000 0.0000 -5.9682
# 2 14.5201 56.6169 40.4188 0.0000 0.0000 5.9682
# 3 40.4188 40.4188 207.1910 0.0000 0.0000 0.0000
# 4 0.0000 0.0000 0.0000 0.0468 0.0000 0.0000
# 5 0.0000 0.0000 0.0000 0.0000 0.0468 0.0000
# 6 -5.9682 5.9682 0.0000 0.0000 0.0000 28.6310
#
#
#
# Elastic Compliance Matrix: (Units=1/GPa)
#
#
# Indices 1 2 3 4 5 6 
#
# 1 0.021654 -0.003593 -0.003523 0.000000 0.000000 0.005263
# 2 -0.003593 0.021654 -0.003523 0.000000 0.000000 -0.005263
# 3 -0.003523 -0.003523 0.006201 0.000000 0.000000 0.000000
# 4 0.000000 0.000000 0.000000 21.365080 0.000000 0.000000
# 5 0.000000 0.000000 0.000000 0.000000 21.365080 0.000000
# 6 0.005263 -0.005263 0.000000 0.000000 0.000000 0.037121
#
#
# Mechanical properties :
#
#
# Convention : Reuss Voigt Hill
#
# Bulk Modulus (GPa) = 35.42321 56.79337 46.10829
# Shear Modulus (GPa) = 0.11669 20.74938 10.43304
#
# Velocity S-wave (km/s) = 0.22893 3.05274 2.16468
# Velocity P-wave (km/s) = 3.99745 6.15901 5.19197
#
# Compressibility (1/GPa) = 0.02823008
#
# Stress axis : x y z
#
# Youngs Moduli (GPa) = 46.18054 46.18054 161.26048
#
# Poissons Ratio (x) = 0.16592 0.56818
# Poissons Ratio (y) = 0.16592 0.56818
# Poissons Ratio (z) = 0.16271 0.16271
#
# Static dielectric constant tensor:
#      x y z
#    x 1.820660 0.000000 0.000000 
#    y 0.000000 1.820660 0.000000 
#    z 0.000000 0.000000 1.818680 
# 
# From -- ./inp_files/3138.got.cif
#   From: 2010.05.17/outbox.cif.g08.bks.cpg/sg83_2_cif.got.tgz:3138.got - 2010.06.03 18:55:12.
