data_PCOD9543965
_publ_section_title
;
Structure prediction by ZEFSAII (Michael W. Deem and Ramdas Pophale) SiO2 
 PCOD9543965
Probable space group: P 42/M
;
_chemical_formula_sum "Si O2"
_cell_formula_units_Z 64
_cell_length_a 11.751174
_cell_length_b 11.751174
_cell_length_c 26.895872
_cell_angle_alpha 90.000000
_cell_angle_beta 90.000000
_cell_angle_gamma 90.000000
_cell_volume 3714.053395
_symmetry_space_group_name_H-M "P 42/M"
_symmetry_group_IT_number 84
_symmetry_cell_setting 'tetragonal'
loop_
_space_group_symop_operation_xyz
x,y,z
-y,x,1/2+z
-x,-y,z
y,-x,1/2+z
-x,-y,-z
y,-x,1/2-z
x,y,-z
-y,x,1/2-z
loop_
_atom_site_type_symbol
_atom_site_label
_atom_site_fract_x
_atom_site_fract_y
_atom_site_fract_z
Si Si1 0.785478 0.566231 0.349593
Si Si2 0.788940 0.868488 0.884628
Si Si3 0.626115 0.393151 0.228842
Si Si4 0.041152 0.825224 0.765248
Si Si5 0.157770 0.650292 0.709273
Si Si6 0.556457 0.875079 0.942041
Si Si7 0.861053 0.992037 0.556654
Si Si8 0.178364 0.870550 0.137214
O O1 0.665247 0.585328 0.321787
O O2 0.851445 0.475952 0.313810
O O3 0.791749 0.508592 0.403799
O O4 0.837698 0.691520 0.353972
O O5 0.729599 0.808776 0.837673
O O6 0.687598 0.882904 0.924769
O O7 0.899824 0.819280 0.911365
O O8 0.824735 0.992751 0.864501
O O9 0.529200 0.366332 0.270097
O O10 0.744391 0.346783 0.249239
O O11 0.049872 0.706183 0.736494
O O12 0.095567 0.824842 0.819725
O O13 0.916362 0.878562 0.763668
O O14 0.500000 0.000000 0.935208
O O15 0.547268 0.844405 0.000000
O O16 0.821693 0.995497 0.500000
O O17 0.831327 0.875902 0.585120
O O18 0.000000 0.000000 0.555646
#
# Coordination Sequence:
#
# PCOD9543965 Si02
#       8
#     8   8   8   8   8   8   8   8
#     4  10  20  32  49  71  99 131 167 206 255 305
#     4  10  18  31  46  67  96 134 170 206 247 306
#     4   9  18  34  53  73  97 128 164 210 262 307
#     4  11  21  31  46  68 100 140 171 203 247 302
#     4  10  19  31  48  72  96 131 168 204 251 306
#     4  10  19  29  45  69 101 134 165 204 258 306
#     4   9  19  31  46  66  94 133 173 209 245 293
#     4  11  19  30  45  67  97 128 167 208 247 297
#
# _framework density 17.231847999999999
#
# number of rings (size 3 to 8) (size 9 to 14) (size 15 to 20)
#    0.000    2.000    3.750    1.125    3.500    1.000 
#    0.000    0.000    0.000    0.000    0.000   16.625 
#    0.000    1.000    0.000    0.000    0.000    0.000 
#
# Total GULP energy -356551.472730 kJ/mol
# GULP energy per Si atom -5571.116761 kJ/mol
# Density = 1.719263 g / cm^3
# Si number density = 17.231848 Si / 1000 Ang^3
#
#
#
# Elastic Constant Matrix: (Units=GPa)
#
#
# Indices 1 2 3 4 5 6 
#
# 1 53.9902 6.0941 22.4455 0.0000 0.0000 -2.8529
# 2 6.0941 53.9902 22.4455 0.0000 0.0000 2.8529
# 3 22.4455 22.4455 97.0972 0.0000 0.0000 0.0000
# 4 0.0000 0.0000 0.0000 19.3740 0.0000 0.0000
# 5 0.0000 0.0000 0.0000 0.0000 19.3740 0.0000
# 6 -2.8529 2.8529 0.0000 0.0000 0.0000 14.7050
#
#
#
# Elastic Compliance Matrix: (Units=1/GPa)
#
#
# Indices 1 2 3 4 5 6 
#
# 1 0.020745 -0.000627 -0.004651 0.000000 0.000000 0.004147
# 2 -0.000627 0.020745 -0.004651 0.000000 0.000000 -0.004147
# 3 -0.004651 -0.004651 0.012449 0.000000 0.000000 0.000000
# 4 0.000000 0.000000 0.000000 0.051615 0.000000 0.000000
# 5 0.000000 0.000000 0.000000 0.000000 0.051615 0.000000
# 6 0.004147 -0.004147 0.000000 0.000000 0.000000 0.069613
#
#
# Mechanical properties :
#
#
# Convention : Reuss Voigt Hill
#
# Bulk Modulus (GPa) = 29.34050 34.11642 31.72846
# Shear Modulus (GPa) = 19.37975 20.96344 20.17159
#
# Velocity S-wave (km/s) = 3.35721 3.49169 3.42511
# Velocity P-wave (km/s) = 5.66496 6.00811 5.83905
#
# Compressibility (1/GPa) = 0.03408258
#
# Stress axis : x y z
#
# Youngs Moduli (GPa) = 48.20394 48.20394 80.32746
#
# Poissons Ratio (x) = 0.03024 0.37357
# Poissons Ratio (y) = 0.03024 0.37357
# Poissons Ratio (z) = 0.22417 0.22417
#
# Static dielectric constant tensor:
#      x y z
#    x 1.600260 0.000000 0.000000 
#    y 0.000000 1.600260 0.000000 
#    z 0.000000 0.000000 1.613330 
# 
# From -- ./inp_files/5457.got.cif
#   From: 2010.05.17/outbox.cif.g08.bks.cpg/sg84_3_cif.got.tgz:5457.got - 2010.06.03 18:57:40.
