data_PCOD9543452
_publ_section_title
;
Structure prediction by ZEFSAII (Michael W. Deem and Ramdas Pophale) SiO2 
 PCOD9543452
Probable space group: P 4/M
;
_chemical_formula_sum "Si O2"
_cell_formula_units_Z 32
_cell_length_a 14.535563
_cell_length_b 14.535563
_cell_length_c 8.352915
_cell_angle_alpha 90.000000
_cell_angle_beta 90.000000
_cell_angle_gamma 90.000000
_cell_volume 1764.825530
_symmetry_space_group_name_H-M "P 4/M"
_symmetry_group_IT_number 83
_symmetry_cell_setting 'tetragonal'
loop_
_space_group_symop_operation_xyz
x,y,z
-y,x,z
-x,-y,z
y,-x,z
-x,-y,-z
y,-x,-z
x,y,-z
-y,x,-z
loop_
_atom_site_type_symbol
_atom_site_label
_atom_site_fract_x
_atom_site_fract_y
_atom_site_fract_z
Si Si1 0.245699 0.393746 0.805849
Si Si2 0.242125 0.890312 0.687747
Si Si3 0.095423 0.749528 0.810336
Si Si4 0.753255 0.395901 0.195000
O O1 0.158839 0.336023 0.744098
O O2 0.247378 0.499007 0.750417
O O3 0.336064 0.335661 0.756776
O O4 0.242558 0.393232 0.000000
O O5 0.229829 0.874734 0.500000
O O6 0.159355 0.837960 0.777577
O O7 0.243877 0.997860 0.725628
O O8 0.157002 0.662314 0.755798
O O9 0.079744 0.740939 0.000000
O O10 0.753459 0.397023 0.000000
#
# Coordination Sequence:
#
# PCOD9543452 Si02
#       4
#     8   8   8   8
#     4   9  17  33  53  77 106 140 177 217 260 306
#     4  11  22  36  53  78 107 137 171 214 260 311
#     4  10  20  37  57  78 103 137 175 216 260 308
#     4   8  16  30  53  79 104 134 176 221 260 301
#
# _framework density 18.132104999999999
#
# number of rings (size 3 to 8) (size 9 to 14) (size 15 to 20)
#    0.000    2.500    0.000    4.500    0.000    2.000 
#    0.000   16.250    0.000    0.000    0.000    7.000 
#    0.000    0.000    0.000    0.000    0.000    0.000 
#
# Total GULP energy -178531.302239 kJ/mol
# GULP energy per Si atom -5579.103195 kJ/mol
# Density = 1.809084 g / cm^3
# Si number density = 18.132105 Si / 1000 Ang^3
#
#
#
# Elastic Constant Matrix: (Units=GPa)
#
#
# Indices 1 2 3 4 5 6 
#
# 1 127.8568 43.5941 -12.6362 0.0000 0.0000 -0.5420
# 2 43.5941 127.8568 -12.6362 0.0000 0.0000 0.5420
# 3 -12.6362 -12.6362 17.7137 0.0000 0.0000 0.0000
# 4 0.0000 0.0000 0.0000 -5.1476 0.0000 0.0000
# 5 0.0000 0.0000 0.0000 0.0000 -5.1476 0.0000
# 6 -0.5420 0.5420 0.0000 0.0000 0.0000 4.8367
#
#
#
# Elastic Compliance Matrix: (Units=1/GPa)
#
#
# Indices 1 2 3 4 5 6 
#
# 1 0.009201 -0.002683 0.004650 0.000000 0.000000 0.001332
# 2 -0.002683 0.009201 0.004650 0.000000 0.000000 -0.001332
# 3 0.004650 0.004650 0.063087 0.000000 0.000000 0.000000
# 4 0.000000 0.000000 0.000000 -0.194264 0.000000 0.000000
# 5 0.000000 0.000000 0.000000 0.000000 -0.194264 0.000000
# 6 0.001332 -0.001332 0.000000 0.000000 0.000000 0.207050
#
#
# Mechanical properties :
#
#
# Convention : Reuss Voigt Hill
#
# Bulk Modulus (GPa) = 10.55726 34.45230 22.50478
# Shear Modulus (GPa) = -61.23953 15.91534 -22.66210
#
# Velocity S-wave (km/s) = -5.81785 2.96589 -3.53913
# Velocity P-wave (km/s) = 6.26856 5.54713 2.06449
#
# Compressibility (1/GPa) = 0.09472159
#
# Stress axis : x y z
#
# Youngs Moduli (GPa) = 108.67959 108.67959 15.85107
#
# Poissons Ratio (x) = 0.29163 -0.07370
# Poissons Ratio (y) = 0.29163 -0.07370
# Poissons Ratio (z) = -0.50532 -0.50532
#
# Static dielectric constant tensor:
#      x y z
#    x 1.601770 0.000000 0.000000 
#    y 0.000000 1.601770 0.000000 
#    z 0.000000 0.000000 1.610300 
# 
# From -- ./inp_files/436.got.cif
#   From: 2010.05.17/outbox.cif.g08.bks.cpg/sg83_1_cif.got.tgz:436.got - 2010.06.03 18:55:12.
