data_PCOD9543835
_publ_section_title
;
Structure prediction by ZEFSAII (Michael W. Deem and Ramdas Pophale) SiO2 
 PCOD9543835
Probable space group: P 4/M
;
_chemical_formula_sum "Si O2"
_cell_formula_units_Z 52
_cell_length_a 16.663409
_cell_length_b 16.663409
_cell_length_c 8.208755
_cell_angle_alpha 90.000000
_cell_angle_beta 90.000000
_cell_angle_gamma 90.000000
_cell_volume 2279.318430
_symmetry_space_group_name_H-M "P 4/M"
_symmetry_group_IT_number 83
_symmetry_cell_setting 'tetragonal'
loop_
_space_group_symop_operation_xyz
x,y,z
-y,x,z
-x,-y,z
y,-x,z
-x,-y,-z
y,-x,-z
x,y,-z
-y,x,-z
loop_
_atom_site_type_symbol
_atom_site_label
_atom_site_fract_x
_atom_site_fract_y
_atom_site_fract_z
Si Si1 0.917036 0.297635 0.306103
Si Si2 0.344051 0.794666 0.318749
Si Si3 0.522435 0.625730 0.302142
Si Si4 0.125022 0.953428 0.000000
Si Si5 0.953184 0.579196 0.192113
Si Si6 0.746292 0.359071 0.700325
Si Si7 0.128867 0.166911 0.320171
O O1 0.925966 0.309156 0.500000
O O2 0.836221 0.342156 0.245631
O O3 0.893191 0.203877 0.287496
O O4 0.992634 0.342044 0.228847
O O5 0.374355 0.774265 0.500000
O O6 0.403048 0.862637 0.251452
O O7 0.315401 0.710475 0.240779
O O8 0.256499 0.836440 0.330243
O O9 0.438838 0.589330 0.249218
O O10 0.520675 0.625253 0.500000
O O11 0.554626 0.711884 0.251757
O O12 0.166425 0.930118 0.168284
O O13 0.044312 0.901162 0.000000
O O14 0.000000 0.500000 0.260338
O O15 0.948212 0.568966 0.000000
O O16 0.747328 0.352914 0.500000
O O17 0.094282 0.147487 0.500000
#
# Coordination Sequence:
#
# PCOD9543835 Si02
#       7
#     8   8   8   4   8   8   8
#     4   9  19  36  57  80 107 141 188 236 281 341
#     4   9  19  36  57  80 107 141 188 236 281 341
#     4   8  13  21  37  66 102 136 167 202 254 317
#     4  11  26  40  56  88 118 152 194 231 292 358
#     4  11  25  39  53  81 117 150 189 240 292 346
#     4   8  15  30  49  75 106 136 178 227 271 321
#     4   9  21  39  61  89 115 149 196 244 290 345
#
# _framework density 22.813835999999998
#
# number of rings (size 3 to 8) (size 9 to 14) (size 15 to 20)
#    0.000    2.846    0.000    2.769    4.308    3.077 
#    0.000    3.846    0.000    0.000    0.000    0.000 
#    0.000    0.000    0.000    6.769    0.000    5.538 
#
# Total GULP energy -289958.438956 kJ/mol
# GULP energy per Si atom -5576.123826 kJ/mol
# Density = 2.276191 g / cm^3
# Si number density = 22.813836 Si / 1000 Ang^3
#
#
#
# Elastic Constant Matrix: (Units=GPa)
#
#
# Indices 1 2 3 4 5 6 
#
# 1 12.1681 67.7773 8.5599 0.0000 0.0000 -7.8360
# 2 67.7773 12.1681 8.5599 0.0000 0.0000 7.8360
# 3 8.5599 8.5599 38.0764 0.0000 0.0000 0.0000
# 4 0.0000 0.0000 0.0000 35.2305 0.0000 0.0000
# 5 0.0000 0.0000 0.0000 0.0000 35.2305 0.0000
# 6 -7.8360 7.8360 0.0000 0.0000 0.0000 35.4745
#
#
#
# Elastic Compliance Matrix: (Units=1/GPa)
#
#
# Indices 1 2 3 4 5 6 
#
# 1 -0.001894 0.015035 -0.002954 0.000000 0.000000 -0.003739
# 2 0.015035 -0.001894 -0.002954 0.000000 0.000000 0.003739
# 3 -0.002954 -0.002954 0.027591 0.000000 0.000000 0.000000
# 4 0.000000 0.000000 0.000000 0.028385 0.000000 0.000000
# 5 0.000000 0.000000 0.000000 0.000000 0.028385 0.000000
# 6 -0.003739 0.003739 0.000000 0.000000 0.000000 0.026537
#
#
# Mechanical properties :
#
#
# Convention : Reuss Voigt Hill
#
# Bulk Modulus (GPa) = 23.77745 25.80074 24.78910
# Shear Modulus (GPa) = 48.60232 19.68814 34.14523
#
# Velocity S-wave (km/s) = 4.62062 2.94086 3.87290
# Velocity P-wave (km/s) = 6.23794 4.78177 5.55775
#
# Compressibility (1/GPa) = 0.04205665
#
# Stress axis : x y z
#
# Youngs Moduli (GPa) = -528.03210 -528.03210 36.24337
#
# Poissons Ratio (x) = 7.93896 0.10707
# Poissons Ratio (y) = 7.93896 0.10707
# Poissons Ratio (z) = -1.55993 -1.55993
#
# Static dielectric constant tensor:
#      x y z
#    x 1.868740 0.000000 0.000000 
#    y 0.000000 1.868740 0.000000 
#    z 0.000000 0.000000 1.866370 
# 
# From -- ./inp_files/987.got.cif
#   From: 2010.05.17/outbox.cif.g08.bks.cpg/sg83_1_cif.got.tgz:987.got - 2010.06.03 18:55:12.
