data_PCOD9543531
_publ_section_title
;
Structure prediction by ZEFSAII (Michael W. Deem and Ramdas Pophale) SiO2 
 PCOD9543531
Probable space group: P 4/M
;
_chemical_formula_sum "Si O2"
_cell_formula_units_Z 48
_cell_length_a 8.012307
_cell_length_b 8.012307
_cell_length_c 33.922662
_cell_angle_alpha 90.000000
_cell_angle_beta 90.000000
_cell_angle_gamma 90.000000
_cell_volume 2177.735285
_symmetry_space_group_name_H-M "P 4/M"
_symmetry_group_IT_number 83
_symmetry_cell_setting 'tetragonal'
loop_
_space_group_symop_operation_xyz
x,y,z
-y,x,z
-x,-y,z
y,-x,z
-x,-y,-z
y,-x,-z
x,y,-z
-y,x,-z
loop_
_atom_site_type_symbol
_atom_site_label
_atom_site_fract_x
_atom_site_fract_y
_atom_site_fract_z
Si Si1 0.500000 0.000000 0.566942
Si Si2 0.767095 0.419489 0.879835
Si Si3 0.734870 0.900168 0.282612
Si Si4 0.267009 0.092755 0.197433
Si Si5 0.910809 0.267410 0.956676
Si Si6 0.902667 0.265339 0.368263
Si Si7 0.409527 0.766814 0.500000
O O1 0.609552 0.884011 0.595692
O O2 0.390166 0.883995 0.538196
O O3 0.700412 0.606027 0.879823
O O4 0.864390 0.376223 0.840096
O O5 0.865224 0.377978 0.919555
O O6 0.651086 0.870910 0.240276
O O7 0.653800 0.869392 0.325144
O O8 0.907143 0.795049 0.282579
O O9 0.097644 0.203143 0.195706
O O10 0.100102 0.201902 0.954630
O O11 0.881353 0.344290 0.000000
O O12 0.096267 0.204885 0.370371
O O13 0.295945 0.602848 0.500000
#
# Coordination Sequence:
#
# PCOD9543531 Si02
#       7
#     4   8   8   8   8   8   4
#     4  11  20  32  54  80 100 132 182 220 257 314
#     4  11  24  37  48  70 107 144 174 208 253 303
#     4   7  12  26  48  73 100 127 156 199 256 307
#     4   9  17  32  55  78  98 127 171 215 252 300
#     4   9  19  37  60  83 103 125 162 214 265 313
#     4   9  17  31  51  76 106 133 162 211 267 312
#     4  10  22  38  52  70 104 144 178 218 264 310
#
# _framework density 22.041246999999998
#
# number of rings (size 3 to 8) (size 9 to 14) (size 15 to 20)
#    0.000    2.750    0.000    4.500    0.000    4.667 
#    0.000    7.500    0.000    4.000    0.000    2.333 
#    0.000    0.000    0.000    0.000    0.000    0.000 
#
# Total GULP energy -268185.243861 kJ/mol
# GULP energy per Si atom -5587.192580 kJ/mol
# Density = 2.199108 g / cm^3
# Si number density = 22.041247 Si / 1000 Ang^3
#
#
#
# Elastic Constant Matrix: (Units=GPa)
#
#
# Indices 1 2 3 4 5 6 
#
# 1 42.7504 16.9923 41.1435 0.0000 0.0000 -7.6612
# 2 16.9923 42.7504 41.1435 0.0000 0.0000 7.6612
# 3 41.1435 41.1435 226.2628 0.0000 0.0000 0.0000
# 4 0.0000 0.0000 0.0000 558.6953 0.0000 0.0000
# 5 0.0000 0.0000 0.0000 0.0000 558.6953 0.0000
# 6 -7.6612 7.6612 0.0000 0.0000 0.0000 27.1536
#
#
#
# Elastic Compliance Matrix: (Units=1/GPa)
#
#
# Indices 1 2 3 4 5 6 
#
# 1 0.034492 -0.012161 -0.004061 0.000000 0.000000 0.013163
# 2 -0.012161 0.034492 -0.004061 0.000000 0.000000 -0.013163
# 3 -0.004061 -0.004061 0.005896 0.000000 0.000000 0.000000
# 4 0.000000 0.000000 0.000000 0.001790 0.000000 0.000000
# 5 0.000000 0.000000 0.000000 0.000000 0.001790 0.000000
# 6 0.013163 -0.013163 0.000000 0.000000 0.000000 0.044255
#
#
# Mechanical properties :
#
#
# Convention : Reuss Voigt Hill
#
# Bulk Modulus (GPa) = 29.14048 56.70246 42.92147
# Shear Modulus (GPa) = 28.61745 243.07445 135.84595
#
# Velocity S-wave (km/s) = 3.60718 10.51290 7.85916
# Velocity P-wave (km/s) = 5.53160 13.15838 10.09310
#
# Compressibility (1/GPa) = 0.03431652
#
# Stress axis : x y z
#
# Youngs Moduli (GPa) = 28.99215 28.99215 169.59355
#
# Poissons Ratio (x) = 0.35256 0.68868
# Poissons Ratio (y) = 0.35256 0.68868
# Poissons Ratio (z) = 0.11773 0.11773
#
# Static dielectric constant tensor:
#      x y z
#    x 1.810520 0.000000 0.000000 
#    y 0.000000 1.810520 0.000000 
#    z 0.000000 0.000000 1.831580 
# 
# From -- ./inp_files/3464.got.cif
#   From: 2010.05.17/outbox.cif.g08.bks.cpg/sg83_2_cif.got.tgz:3464.got - 2010.06.03 18:55:12.
