data_PCOD9543778
_publ_section_title
;
Structure prediction by ZEFSAII (Michael W. Deem and Ramdas Pophale) SiO2 
 PCOD9543778
Probable space group: P 4/M
;
_chemical_formula_sum "Si O2"
_cell_formula_units_Z 36
_cell_length_a 8.116856
_cell_length_b 8.116856
_cell_length_c 23.844682
_cell_angle_alpha 90.000000
_cell_angle_beta 90.000000
_cell_angle_gamma 90.000000
_cell_volume 1570.967561
_symmetry_space_group_name_H-M "P 4/M"
_symmetry_group_IT_number 83
_symmetry_cell_setting 'tetragonal'
loop_
_space_group_symop_operation_xyz
x,y,z
-y,x,z
-x,-y,z
y,-x,z
-x,-y,-z
y,-x,-z
x,y,-z
-y,x,-z
loop_
_atom_site_type_symbol
_atom_site_label
_atom_site_fract_x
_atom_site_fract_y
_atom_site_fract_z
Si Si1 0.414463 0.764046 0.719953
Si Si2 0.914660 0.736820 0.171437
Si Si3 0.595579 0.238333 0.062641
Si Si4 0.736278 0.087774 0.389695
Si Si5 0.411188 0.763497 0.500000
O O1 0.300382 0.600527 0.718656
O O2 0.375089 0.861241 0.776633
O O3 0.364643 0.868975 0.665898
O O4 0.878532 0.649086 0.112658
O O5 0.100457 0.800254 0.174838
O O6 0.702286 0.406696 0.067310
O O7 0.621873 0.169513 0.000000
O O8 0.634397 0.135068 0.444716
O O9 0.900962 0.200542 0.389990
O O10 0.299046 0.598313 0.500000
#
# Coordination Sequence:
#
# PCOD9543778 Si02
#       5
#     8   8   8   8   4
#     4  11  24  41  62  88 116 149 193 241 288 343
#     4  11  24  39  56  83 118 153 191 236 286 342
#     4   9  19  37  60  85 113 147 190 238 286 340
#     4  11  24  41  62  90 122 155 194 239 288 343
#     4  11  24  41  62  90 122 157 200 243 284 338
#
# _framework density 22.915816
#
# number of rings (size 3 to 8) (size 9 to 14) (size 15 to 20)
#    0.000    1.444    0.000    5.333    0.000   16.889 
#    0.000    3.333    0.000    0.000    0.000    0.000 
#    0.000    0.000    0.000    0.000    0.000    0.000 
#
# Total GULP energy -202000.833394 kJ/mol
# GULP energy per Si atom -5611.134261 kJ/mol
# Density = 2.286366 g / cm^3
# Si number density = 22.915816 Si / 1000 Ang^3
#
#
#
# Elastic Constant Matrix: (Units=GPa)
#
#
# Indices 1 2 3 4 5 6 
#
# 1 98.7039 61.5675 60.2858 0.0000 0.0000 -0.0958
# 2 61.5675 98.7039 60.2858 0.0000 0.0000 0.0958
# 3 60.2858 60.2858 198.1987 0.0000 0.0000 0.0000
# 4 0.0000 0.0000 0.0000 652.8495 0.0000 0.0000
# 5 0.0000 0.0000 0.0000 0.0000 652.8495 0.0000
# 6 -0.0958 0.0958 0.0000 0.0000 0.0000 49.7473
#
#
#
# Elastic Compliance Matrix: (Units=1/GPa)
#
#
# Indices 1 2 3 4 5 6 
#
# 1 0.017509 -0.009419 -0.002461 0.000000 0.000000 0.000052
# 2 -0.009419 0.017509 -0.002461 0.000000 0.000000 -0.000052
# 3 -0.002461 -0.002461 0.006543 0.000000 0.000000 0.000000
# 4 0.000000 0.000000 0.000000 0.001532 0.000000 0.000000
# 5 0.000000 0.000000 0.000000 0.000000 0.001532 0.000000
# 6 0.000052 -0.000052 0.000000 0.000000 0.000000 0.020102
#
#
# Mechanical properties :
#
#
# Convention : Reuss Voigt Hill
#
# Bulk Modulus (GPa) = 77.63812 84.43159 81.03486
# Shear Modulus (GPa) = 51.17648 285.32041 168.24844
#
# Velocity S-wave (km/s) = 4.73084 11.17042 8.57786
# Velocity P-wave (km/s) = 7.98714 14.25817 11.55616
#
# Compressibility (1/GPa) = 0.01288027
#
# Stress axis : x y z
#
# Youngs Moduli (GPa) = 57.11216 57.11216 152.84595
#
# Poissons Ratio (x) = 0.53792 0.37615
# Poissons Ratio (y) = 0.53792 0.37615
# Poissons Ratio (z) = 0.14055 0.14055
#
# Static dielectric constant tensor:
#      x y z
#    x 1.825850 0.000000 0.000000 
#    y 0.000000 1.825850 0.000000 
#    z 0.000000 0.000000 1.776230 
# 
# From -- ./inp_files/2852.got.cif
#   From: 2010.05.17/outbox.cif.g08.bks.cpg/sg83_2_cif.got.tgz:2852.got - 2010.06.03 18:55:12.
