data_PCOD9543549
_publ_section_title
;
Structure prediction by ZEFSAII (Michael W. Deem and Ramdas Pophale) SiO2 
 PCOD9543549
Probable space group: P 4/M
;
_chemical_formula_sum "Si O2"
_cell_formula_units_Z 24
_cell_length_a 7.663894
_cell_length_b 7.663894
_cell_length_c 17.890857
_cell_angle_alpha 90.000000
_cell_angle_beta 90.000000
_cell_angle_gamma 90.000000
_cell_volume 1050.824339
_symmetry_space_group_name_H-M "P 4/M"
_symmetry_group_IT_number 83
_symmetry_cell_setting 'tetragonal'
loop_
_space_group_symop_operation_xyz
x,y,z
-y,x,z
-x,-y,z
y,-x,z
-x,-y,-z
y,-x,-z
x,y,-z
-y,x,-z
loop_
_atom_site_type_symbol
_atom_site_label
_atom_site_fract_x
_atom_site_fract_y
_atom_site_fract_z
Si Si1 0.770981 0.621594 0.079839
Si Si2 0.000000 0.500000 0.632180
Si Si3 0.386999 0.772705 0.241255
Si Si4 0.225556 0.597197 0.500000
O O1 0.583812 0.719700 0.079878
O O2 0.856868 0.655075 0.160254
O O3 0.859489 0.661477 0.000000
O O4 0.893535 0.627421 0.687175
O O5 0.882227 0.387065 0.575869
O O6 0.283157 0.591524 0.244285
O O7 0.286918 0.395866 0.500000
#
# Coordination Sequence:
#
# PCOD9543549 Si02
#       4
#     8   4   8   4
#     4   7  10  19  38  64  93 126 162 195 225 259
#     4  11  20  30  53  80  96 114 151 198 236 281
#     4   9  17  30  49  72  99 131 163 194 231 275
#     4  10  22  40  58  72  90 120 154 188 234 294
#
# _framework density 22.839213999999998
#
# number of rings (size 3 to 8) (size 9 to 14) (size 15 to 20)
#    0.000    3.167    0.000    5.000    0.000    2.667 
#    0.000    0.833    0.000   41.000    0.000    0.000 
#    0.000    0.000    0.000   66.667    0.000    5.333 
#
# Total GULP energy -133864.383796 kJ/mol
# GULP energy per Si atom -5577.682658 kJ/mol
# Density = 2.278723 g / cm^3
# Si number density = 22.839214 Si / 1000 Ang^3
#
#
#
# Elastic Constant Matrix: (Units=GPa)
#
#
# Indices 1 2 3 4 5 6 
#
# 1 48.8259 -5.7434 38.0577 0.0000 0.0000 -8.2984
# 2 -5.7434 48.8259 38.0577 0.0000 0.0000 8.2984
# 3 38.0577 38.0577 264.0975 0.0000 0.0000 0.0000
# 4 0.0000 0.0000 0.0000 -43.6528 0.0000 0.0000
# 5 0.0000 0.0000 0.0000 0.0000 -43.6528 0.0000
# 6 -8.2984 8.2984 0.0000 0.0000 0.0000 0.7485
#
#
#
# Elastic Compliance Matrix: (Units=1/GPa)
#
#
# Indices 1 2 3 4 5 6 
#
# 1 0.011706 0.019433 -0.004487 0.000000 0.000000 -0.085657
# 2 0.019433 0.011706 -0.004487 0.000000 0.000000 0.085657
# 3 -0.004487 -0.004487 0.005080 0.000000 0.000000 0.000000
# 4 0.000000 0.000000 0.000000 -0.022908 0.000000 0.000000
# 5 0.000000 0.000000 0.000000 0.000000 -0.022908 0.000000
# 6 -0.085657 0.085657 0.000000 0.000000 0.000000 -0.563274
#
#
# Mechanical properties :
#
#
# Convention : Reuss Voigt Hill
#
# Bulk Modulus (GPa) = 20.23925 55.83257 38.03591
# Shear Modulus (GPa) = -8.54635 2.11375 -3.21630
#
# Velocity S-wave (km/s) = -1.93651 0.96307 -1.18798
# Velocity P-wave (km/s) = 1.96996 5.07303 3.84814
#
# Compressibility (1/GPa) = 0.04940894
#
# Stress axis : x y z
#
# Youngs Moduli (GPa) = 85.42419 85.42419 196.85947
#
# Poissons Ratio (x) = -1.66004 0.88337
# Poissons Ratio (y) = -1.66004 0.88337
# Poissons Ratio (z) = 0.38332 0.38332
#
# Static dielectric constant tensor:
#      x y z
#    x 1.866930 0.000000 0.000000 
#    y 0.000000 1.866930 0.000000 
#    z 0.000000 0.000000 1.920140 
# 
# From -- ./inp_files/2484.got.cif
#   From: 2010.05.17/outbox.cif.g08.bks.cpg/sg83_2_cif.got.tgz:2484.got - 2010.06.03 18:55:12.
