data_PCOD9543182
_publ_section_title
;
Structure prediction by ZEFSAII (Michael W. Deem and Ramdas Pophale) SiO2 
 PCOD9543182
Probable space group: I -4 
;
_chemical_formula_sum "Si O2"
_cell_formula_units_Z 34
_cell_length_a 8.342547
_cell_length_b 8.342547
_cell_length_c 18.688098
_cell_angle_alpha 90.000000
_cell_angle_beta 90.000000
_cell_angle_gamma 90.000000
_cell_volume 1300.655935
_symmetry_space_group_name_H-M "I -4 "
_symmetry_group_IT_number 82
_symmetry_cell_setting 'tetragonal'
loop_
_space_group_symop_operation_xyz
x,y,z
y,-x,-z
-x,-y,z
-y,x,-z
1/2+x,1/2+y,1/2+z
1/2+y,1/2-x,1/2-z
1/2-x,1/2-y,1/2+z
1/2-y,1/2+x,1/2-z
loop_
_atom_site_type_symbol
_atom_site_label
_atom_site_fract_x
_atom_site_fract_y
_atom_site_fract_z
Si Si1 0.722586 0.738719 0.516610
Si Si2 0.721587 0.731374 0.300544
Si Si3 0.500000 0.000000 0.484124
Si Si4 0.000000 0.000000 0.107675
Si Si5 0.000000 0.500000 0.750000
Si Si6 0.446047 0.807957 0.847173
O O1 0.870996 0.634983 0.487859
O O2 0.628098 0.858016 0.462420
O O3 0.387947 0.608614 0.442038
O O4 0.621974 0.596916 0.342259
O O5 0.608301 0.882781 0.295150
O O6 0.774929 0.663049 0.222547
O O7 0.887171 0.779554 0.336239
O O8 0.757572 0.853214 0.584256
O O9 0.500000 0.000000 0.851663
#
# Coordination Sequence:
#
# PCOD9543182 Si02
#       6
#     8   8   4   4   2   8
#     4  12  26  50  79 113 145 208 261 333 399 462
#     4  12  23  43  69 111 157 198 247 305 375 488
#     4  12  28  53  80 110 152 198 278 343 394 454
#     4  12  24  45  78 110 156 201 246 308 400 480
#     4  12  28  38  56 108 160 212 240 302 352 440
#     4  12  21  44  80 106 142 201 252 298 386 468
#
# _framework density 26.140657999999998
#
# number of rings (size 3 to 8) (size 9 to 14) (size 15 to 20)
#    0.000    0.000    5.882    4.235    0.000    4.235 
#    0.000    7.059    0.000    0.000    0.000    0.000 
#    0.000    0.000    0.000    0.000    0.000    0.000 
#
# Total GULP energy -94952.864204 kJ/mol
# GULP energy per Si atom -5585.462600 kJ/mol
# Density = 2.608116 g / cm^3
# Si number density = 26.140658 Si / 1000 Ang^3
#
#
#
# Elastic Constant Matrix: (Units=GPa)
#
#
# Indices 1 2 3 4 5 6 
#
# 1 159.8685 68.7445 44.1665 0.0000 0.0000 -0.6506
# 2 68.7445 159.8685 44.1665 0.0000 0.0000 0.6506
# 3 44.1665 44.1665 131.6368 0.0000 0.0000 0.0000
# 4 0.0000 0.0000 0.0000 26.5911 0.0000 0.0000
# 5 0.0000 0.0000 0.0000 0.0000 26.5911 0.0000
# 6 -0.6506 0.6506 0.0000 0.0000 0.0000 88.3049
#
#
#
# Elastic Compliance Matrix: (Units=1/GPa)
#
#
# Indices 1 2 3 4 5 6 
#
# 1 0.008000 -0.002975 -0.001686 0.000000 0.000000 0.000081
# 2 -0.002975 0.008000 -0.001686 0.000000 0.000000 -0.000081
# 3 -0.001686 -0.001686 0.008728 0.000000 0.000000 0.000000
# 4 0.000000 0.000000 0.000000 0.037607 0.000000 0.000000
# 5 0.000000 0.000000 0.000000 0.000000 0.037607 0.000000
# 6 0.000081 -0.000081 0.000000 0.000000 0.000000 0.011326
#
#
# Mechanical properties :
#
#
# Convention : Reuss Voigt Hill
#
# Bulk Modulus (GPa) = 83.09268 85.05875 84.07572
# Shear Modulus (GPa) = 39.07049 47.91718 43.49383
#
# Velocity S-wave (km/s) = 3.87023 4.28606 4.08344
# Velocity P-wave (km/s) = 7.19912 7.55667 7.38006
#
# Compressibility (1/GPa) = 0.01203475
#
# Stress axis : x y z
#
# Youngs Moduli (GPa) = 124.99258 124.99257 114.57144
#
# Poissons Ratio (x) = 0.37182 0.19319
# Poissons Ratio (y) = 0.37182 0.19319
# Poissons Ratio (z) = 0.21077 0.21077
#
# Static dielectric constant tensor:
#      x y z
#    x 2.077440 0.000000 0.000000 
#    y 0.000000 2.077440 0.000000 
#    z 0.000000 0.000000 2.115950 
# 
# From -- ./inp_files/3291.got.cif
#   From: 2010.05.17/outbox.cif.g08.bks.cpg/sg82_2_cif.got.tgz:3291.got - 2010.06.03 18:52:26.
