data_PCOD9543728
_publ_section_title
;
Structure prediction by ZEFSAII (Michael W. Deem and Ramdas Pophale) SiO2 
 PCOD9543728
Probable space group: P 4/M
;
_chemical_formula_sum "Si O2"
_cell_formula_units_Z 48
_cell_length_a 8.200273
_cell_length_b 8.200273
_cell_length_c 33.446539
_cell_angle_alpha 90.000000
_cell_angle_beta 90.000000
_cell_angle_gamma 90.000000
_cell_volume 2249.095032
_symmetry_space_group_name_H-M "P 4/M"
_symmetry_group_IT_number 83
_symmetry_cell_setting 'tetragonal'
loop_
_space_group_symop_operation_xyz
x,y,z
-y,x,z
-x,-y,z
y,-x,z
-x,-y,-z
y,-x,-z
x,y,-z
-y,x,-z
loop_
_atom_site_type_symbol
_atom_site_label
_atom_site_fract_x
_atom_site_fract_y
_atom_site_fract_z
Si Si1 0.584273 0.761628 0.618635
Si Si2 0.500000 0.000000 0.228346
Si Si3 0.261018 0.911980 0.925018
Si Si4 0.577219 0.237696 0.000000
Si Si5 0.260198 0.910554 0.164767
Si Si6 0.411550 0.238956 0.707684
Si Si7 0.918239 0.262783 0.456128
O O1 0.400076 0.696622 0.616243
O O2 0.611752 0.831943 0.663061
O O3 0.629423 0.873574 0.581644
O O4 0.607716 0.112292 0.199116
O O5 0.388522 0.108292 0.257631
O O6 0.379725 0.861782 0.960286
O O7 0.327216 0.887112 0.880141
O O8 0.097201 0.802237 0.928518
O O9 0.695107 0.395284 0.000000
O O10 0.098263 0.801287 0.168247
O O11 0.599119 0.301734 0.710883
O O12 0.890770 0.339627 0.500000
O O13 0.101836 0.195646 0.454338
#
# Coordination Sequence:
#
# PCOD9543728 Si02
#       7
#     8   4   8   4   8   8   8
#     4   9  19  35  53  74 104 140 177 217 257 305
#     4  12  20  32  60  85 103 140 182 218 270 324
#     4   9  19  37  59  80 106 144 184 218 259 314
#     4  11  24  37  52  82 118 143 174 223 266 306
#     4   9  20  37  55  81 114 141 176 225 265 308
#     4   9  20  37  53  76 110 142 175 218 266 316
#     4   9  19  35  53  76 107 138 169 211 262 313
#
# _framework density 21.341916000000001
#
# number of rings (size 3 to 8) (size 9 to 14) (size 15 to 20)
#    0.000    2.583    0.000    4.000    0.000    8.667 
#    0.000    2.500    0.000    4.000    0.000    0.000 
#    0.000    0.000    0.000    0.000    0.000    0.000 
#
# Total GULP energy -268308.487346 kJ/mol
# GULP energy per Si atom -5589.760153 kJ/mol
# Density = 2.129334 g / cm^3
# Si number density = 21.341916 Si / 1000 Ang^3
#
#
#
# Elastic Constant Matrix: (Units=GPa)
#
#
# Indices 1 2 3 4 5 6 
#
# 1 43.7108 19.7688 54.4621 0.0000 0.0000 2.6609
# 2 19.7688 43.7108 54.4621 0.0000 0.0000 -2.6609
# 3 54.4621 54.4621 209.8345 0.0000 0.0000 0.0000
# 4 0.0000 0.0000 0.0000 138.7532 0.0000 0.0000
# 5 0.0000 0.0000 0.0000 0.0000 138.7532 0.0000
# 6 2.6609 -2.6609 0.0000 0.0000 0.0000 29.7731
#
#
#
# Elastic Compliance Matrix: (Units=1/GPa)
#
#
# Indices 1 2 3 4 5 6 
#
# 1 0.035508 -0.007106 -0.007372 0.000000 0.000000 -0.003809
# 2 -0.007106 0.035508 -0.007372 0.000000 0.000000 0.003809
# 3 -0.007372 -0.007372 0.008592 0.000000 0.000000 0.000000
# 4 0.000000 0.000000 0.000000 0.007207 0.000000 0.000000
# 5 0.000000 0.000000 0.000000 0.000000 0.007207 0.000000
# 6 -0.003809 0.003809 0.000000 0.000000 0.000000 0.034268
#
#
# Mechanical properties :
#
#
# Convention : Reuss Voigt Hill
#
# Bulk Modulus (GPa) = 27.84753 61.62690 44.73721
# Shear Modulus (GPa) = 27.17986 72.69346 49.93666
#
# Velocity S-wave (km/s) = 3.57255 5.84254 4.84244
# Velocity P-wave (km/s) = 5.48580 8.62858 7.23002
#
# Compressibility (1/GPa) = 0.03590983
#
# Stress axis : x y z
#
# Youngs Moduli (GPa) = 28.16250 28.16250 116.38319
#
# Poissons Ratio (x) = 0.20012 0.85795
# Poissons Ratio (y) = 0.20012 0.85795
# Poissons Ratio (z) = 0.20761 0.20761
#
# Static dielectric constant tensor:
#      x y z
#    x 1.775170 0.000000 0.000000 
#    y 0.000000 1.775170 0.000000 
#    z 0.000000 0.000000 1.766810 
# 
# From -- ./inp_files/3453.got.cif
#   From: 2010.05.17/outbox.cif.g08.bks.cpg/sg83_2_cif.got.tgz:3453.got - 2010.06.03 18:55:12.
