data_PCOD9543383
_publ_section_title
;
Structure prediction by ZEFSAII (Michael W. Deem and Ramdas Pophale) SiO2 
 PCOD9543383
Probable space group: P 4/M
;
_chemical_formula_sum "Si O2"
_cell_formula_units_Z 52
_cell_length_a 16.219404
_cell_length_b 16.219404
_cell_length_c 8.816936
_cell_angle_alpha 90.000000
_cell_angle_beta 90.000000
_cell_angle_gamma 90.000000
_cell_volume 2319.463120
_symmetry_space_group_name_H-M "P 4/M"
_symmetry_group_IT_number 83
_symmetry_cell_setting 'tetragonal'
loop_
_space_group_symop_operation_xyz
x,y,z
-y,x,z
-x,-y,z
y,-x,z
-x,-y,-z
y,-x,-z
x,y,-z
-y,x,-z
loop_
_atom_site_type_symbol
_atom_site_label
_atom_site_fract_x
_atom_site_fract_y
_atom_site_fract_z
Si Si1 0.417789 0.396197 0.315186
Si Si2 0.387724 0.222977 0.682550
Si Si3 0.825422 0.557450 0.830076
Si Si4 0.675078 0.944896 0.669886
Si Si5 0.917662 0.893735 0.318065
Si Si6 0.000000 0.500000 0.250301
Si Si7 0.271276 0.886406 0.819099
O O1 0.513605 0.388886 0.267243
O O2 0.416603 0.396507 0.500000
O O3 0.368267 0.315701 0.264632
O O4 0.382157 0.219153 0.500000
O O5 0.483531 0.209912 0.729051
O O6 0.331595 0.147130 0.738481
O O7 0.921848 0.532094 0.841301
O O8 0.831320 0.650557 0.765542
O O9 0.789518 0.556979 0.000000
O O10 0.712100 0.944032 0.500000
O O11 0.578523 0.968888 0.657801
O O12 0.712047 0.019215 0.766138
O O13 0.914157 0.887918 0.500000
O O14 0.867576 0.818495 0.247451
O O15 0.014583 0.889161 0.274272
O O16 0.271039 0.881890 0.000000
#
# Coordination Sequence:
#
# PCOD9543383 Si02
#       7
#     8   8   8   8   8   4   8
#     4   8  14  27  48  70  90 115 152 199 243 281
#     4   9  17  28  45  71  97 123 160 201 242 287
#     4   9  17  28  43  65  96 130 159 189 229 277
#     4   9  16  26  42  65  96 129 159 196 237 278
#     4   9  19  37  59  78  94 117 154 199 243 284
#     4   8  14  24  42  64  86 120 168 202 226 270
#     4  10  20  32  48  72 100 130 162 192 227 278
#
# _framework density 22.418980999999999
#
# number of rings (size 3 to 8) (size 9 to 14) (size 15 to 20)
#    0.000    3.077    0.000    1.846    0.000    8.615 
#    0.000    2.308    0.000    4.615    0.000    1.077 
#    0.000    0.000    0.000    0.000    0.000    0.000 
#
# Total GULP energy -289776.769718 kJ/mol
# GULP energy per Si atom -5572.630187 kJ/mol
# Density = 2.236795 g / cm^3
# Si number density = 22.418981 Si / 1000 Ang^3
#
#
#
# Elastic Constant Matrix: (Units=GPa)
#
#
# Indices 1 2 3 4 5 6 
#
# 1 107.1490 -5.6124 -0.7058 0.0000 0.0000 -12.5433
# 2 -5.6124 107.1490 -0.7058 0.0000 0.0000 12.5433
# 3 -0.7058 -0.7058 17.5986 0.0000 0.0000 0.0000
# 4 0.0000 0.0000 0.0000 23.0128 0.0000 0.0000
# 5 0.0000 0.0000 0.0000 0.0000 23.0128 0.0000
# 6 -12.5433 12.5433 0.0000 0.0000 0.0000 -0.7831
#
#
#
# Elastic Compliance Matrix: (Units=1/GPa)
#
#
# Indices 1 2 3 4 5 6 
#
# 1 0.005899 0.003955 0.000395 0.000000 0.000000 -0.031127
# 2 0.003955 0.005899 0.000395 0.000000 0.000000 0.031127
# 3 0.000395 0.000395 0.056854 0.000000 0.000000 0.000000
# 4 0.000000 0.000000 0.000000 0.043454 0.000000 0.000000
# 5 0.000000 0.000000 0.000000 0.000000 0.043454 0.000000
# 6 -0.031127 0.031127 0.000000 0.000000 0.000000 -0.279827
#
#
# Mechanical properties :
#
#
# Convention : Reuss Voigt Hill
#
# Bulk Modulus (GPa) = 12.79696 24.20539 18.50118
# Shear Modulus (GPa) = -46.42061 24.97656 -10.72202
#
# Velocity S-wave (km/s) = -4.55531 3.34141 -2.18928
# Velocity P-wave (km/s) = 4.68480 5.07020 1.37105
#
# Compressibility (1/GPa) = 0.07814356
#
# Stress axis : x y z
#
# Youngs Moduli (GPa) = 169.52797 169.52797 17.58879
#
# Poissons Ratio (x) = -0.67056 -0.00695
# Poissons Ratio (y) = -0.67056 -0.00695
# Poissons Ratio (z) = -0.06700 -0.06700
#
# Static dielectric constant tensor:
#      x y z
#    x 1.872500 0.000000 0.000000 
#    y 0.000000 1.872500 0.000000 
#    z 0.000000 0.000000 1.780300 
# 
# From -- ./inp_files/982.got.cif
#   From: 2010.05.17/outbox.cif.g08.bks.cpg/sg83_1_cif.got.tgz:982.got - 2010.06.03 18:55:12.
