data_PCOD9543882
_publ_section_title
;
Structure prediction by ZEFSAII (Michael W. Deem and Ramdas Pophale) SiO2 
 PCOD9543882
Probable space group: P 4/M
;
_chemical_formula_sum "Si O2"
_cell_formula_units_Z 44
_cell_length_a 7.006177
_cell_length_b 7.006177
_cell_length_c 31.919263
_cell_angle_alpha 90.000000
_cell_angle_beta 90.000000
_cell_angle_gamma 90.000000
_cell_volume 1566.805419
_symmetry_space_group_name_H-M "P 4/M"
_symmetry_group_IT_number 83
_symmetry_cell_setting 'tetragonal'
loop_
_space_group_symop_operation_xyz
x,y,z
-y,x,z
-x,-y,z
y,-x,z
-x,-y,-z
y,-x,-z
x,y,-z
-y,x,-z
loop_
_atom_site_type_symbol
_atom_site_label
_atom_site_fract_x
_atom_site_fract_y
_atom_site_fract_z
Si Si1 0.164694 0.279948 0.044932
Si Si2 0.781398 0.338660 0.455107
Si Si3 0.000000 0.500000 0.705097
Si Si4 0.283788 0.846863 0.774784
Si Si5 0.652854 0.783914 0.364639
Si Si6 0.719134 0.162281 0.865247
O O1 0.212850 0.371109 0.089861
O O2 0.935197 0.248727 0.044926
O O3 0.214028 0.370353 0.000000
O O4 0.747743 0.567573 0.455113
O O5 0.872449 0.289341 0.500000
O O6 0.871343 0.294973 0.410001
O O7 0.169278 0.416246 0.734410
O O8 0.083771 0.669158 0.675755
O O9 0.370971 0.794300 0.820144
O O10 0.075149 0.756324 0.773707
O O11 0.424618 0.743601 0.363560
O O12 0.933244 0.248062 0.865261
#
# Coordination Sequence:
#
# PCOD9543882 Si02
#       6
#     8   8   4   8   8   8
#     4   7   8  10  20  41  66  88 112 146 187 228
#     4   7  10  20  40  61  79 103 132 158 190 235
#     4  12  20  28  43  64  83 108 140 172 204 238
#     4   9  18  31  44  58  79 108 140 171 201 237
#     4   9  18  31  45  63  87 110 133 166 205 241
#     4   7  10  18  31  46  67  95 124 155 191 229
#
# _framework density 28.082623000000002
#
# number of rings (size 3 to 8) (size 9 to 14) (size 15 to 20)
#    0.000    3.818    0.000    5.455    0.000    0.000 
#    0.000    0.455    0.000    0.000    0.000    0.636 
#    0.000    0.000    0.000   22.182    0.000    1.818 
#
# Total GULP energy -245869.967074 kJ/mol
# GULP energy per Si atom -5587.953797 kJ/mol
# Density = 2.801871 g / cm^3
# Si number density = 28.082623 Si / 1000 Ang^3
#
#
#
# Elastic Constant Matrix: (Units=GPa)
#
#
# Indices 1 2 3 4 5 6 
#
# 1 95.9772 9.7588 17.9086 0.0000 0.0000 8.2197
# 2 9.7588 95.9772 17.9086 0.0000 0.0000 -8.2197
# 3 17.9086 17.9086 290.4352 0.0000 0.0000 0.0000
# 4 0.0000 0.0000 0.0000 4.9440 0.0000 0.0000
# 5 0.0000 0.0000 0.0000 0.0000 4.9440 0.0000
# 6 8.2197 -8.2197 0.0000 0.0000 0.0000 10.4452
#
#
#
# Elastic Compliance Matrix: (Units=1/GPa)
#
#
# Indices 1 2 3 4 5 6 
#
# 1 0.011653 -0.001993 -0.000596 0.000000 0.000000 -0.010738
# 2 -0.001993 0.011653 -0.000596 0.000000 0.000000 0.010738
# 3 -0.000596 -0.000596 0.003517 0.000000 0.000000 0.000000
# 4 0.000000 0.000000 0.000000 0.202267 0.000000 0.000000
# 5 0.000000 0.000000 0.000000 0.000000 0.202267 0.000000
# 6 -0.010738 0.010738 0.000000 0.000000 0.000000 0.112638
#
#
# Mechanical properties :
#
#
# Convention : Reuss Voigt Hill
#
# Bulk Modulus (GPa) = 48.89329 63.72681 56.31005
# Shear Modulus (GPa) = 8.97374 33.18755 21.08064
#
# Velocity S-wave (km/s) = 1.78953 3.44144 2.74280
# Velocity P-wave (km/s) = 4.66028 6.20751 5.48869
#
# Compressibility (1/GPa) = 0.02045271
#
# Stress axis : x y z
#
# Youngs Moduli (GPa) = 85.81760 85.81760 284.36884
#
# Poissons Ratio (x) = 0.17106 0.16937
# Poissons Ratio (y) = 0.17106 0.16937
# Poissons Ratio (z) = 0.05111 0.05111
#
# Static dielectric constant tensor:
#      x y z
#    x 2.143610 0.000000 0.000000 
#    y 0.000000 2.143610 0.000000 
#    z 0.000000 0.000000 2.311670 
# 
# From -- ./inp_files/3377.got.cif
#   From: 2010.05.17/outbox.cif.g08.bks.cpg/sg83_2_cif.got.tgz:3377.got - 2010.06.03 18:55:12.
