data_PCOD9543999
_publ_section_title
;
Structure prediction by ZEFSAII (Michael W. Deem and Ramdas Pophale) SiO2 
 PCOD9543999
Probable space group: P 42/M
;
_chemical_formula_sum "Si O2"
_cell_formula_units_Z 26
_cell_length_a 12.422265
_cell_length_b 12.422265
_cell_length_c 9.719080
_cell_angle_alpha 90.000000
_cell_angle_beta 90.000000
_cell_angle_gamma 90.000000
_cell_volume 1499.777163
_symmetry_space_group_name_H-M "P 42/M"
_symmetry_group_IT_number 84
_symmetry_cell_setting 'tetragonal'
loop_
_space_group_symop_operation_xyz
x,y,z
-y,x,1/2+z
-x,-y,z
y,-x,1/2+z
-x,-y,-z
y,-x,1/2-z
x,y,-z
-y,x,1/2-z
loop_
_atom_site_type_symbol
_atom_site_label
_atom_site_fract_x
_atom_site_fract_y
_atom_site_fract_z
Si Si1 0.706577 0.839006 0.500000
Si Si2 0.064218 0.613476 0.725577
Si Si3 0.788112 0.479891 0.500000
Si Si4 0.500000 0.500000 0.750000
Si Si5 0.420566 0.384372 0.500000
Si Si6 0.916390 0.705662 0.500000
O O1 0.669993 0.903440 0.365759
O O2 0.639033 0.728058 0.500000
O O3 0.831283 0.802133 0.500000
O O4 0.168837 0.583590 0.633205
O O5 0.000000 0.500000 0.746232
O O6 0.991332 0.693096 0.633582
O O7 0.665441 0.516696 0.500000
O O8 0.850714 0.593402 0.500000
O O9 0.483486 0.401546 0.643469
#
# Coordination Sequence:
#
# PCOD9543999 Si02
#       6
#     4   8   4   2   4   4
#     4  11  19  30  53  73  91 120 165 203 230 283
#     4   9  17  32  52  73  96 122 155 198 238 275
#     4   8  15  31  51  68  95 127 157 188 227 278
#     4  10  20  30  40  62 112 138 152 186 220 274
#     4  10  19  30  44  70  98 135 164 184 227 273
#     4   8  18  33  48  70  97 122 150 194 247 281
#
# _framework density 17.335909999999998
#
# number of rings (size 3 to 8) (size 9 to 14) (size 15 to 20)
#    0.000    2.769    0.000    4.154    0.000    0.000 
#    0.000    3.077    0.000    6.462    0.000    0.000 
#    0.000    0.000    0.000    0.000    0.000    0.000 
#
# Total GULP energy -144789.857187 kJ/mol
# GULP energy per Si atom -5568.840661 kJ/mol
# Density = 1.729645 g / cm^3
# Si number density = 17.335910 Si / 1000 Ang^3
#
#
#
# Elastic Constant Matrix: (Units=GPa)
#
#
# Indices 1 2 3 4 5 6 
#
# 1 66.1668 28.1519 59.6608 0.0000 0.0000 -4.1157
# 2 28.1519 66.1668 59.6608 0.0000 0.0000 4.1157
# 3 59.6608 59.6608 178.6193 0.0000 0.0000 0.0000
# 4 0.0000 0.0000 0.0000 -2.1888 0.0000 0.0000
# 5 0.0000 0.0000 0.0000 0.0000 -2.1888 0.0000
# 6 -4.1157 4.1157 0.0000 0.0000 0.0000 27.2598
#
#
#
# Elastic Compliance Matrix: (Units=1/GPa)
#
#
# Indices 1 2 3 4 5 6 
#
# 1 0.022778 -0.004417 -0.006133 0.000000 0.000000 0.004106
# 2 -0.004417 0.022778 -0.006133 0.000000 0.000000 -0.004106
# 3 -0.006133 -0.006133 0.009695 0.000000 0.000000 0.000000
# 4 0.000000 0.000000 0.000000 -0.456875 0.000000 0.000000
# 5 0.000000 0.000000 0.000000 0.000000 -0.456875 0.000000
# 6 0.004106 -0.004106 0.000000 0.000000 0.000000 0.037924
#
#
# Mechanical properties :
#
#
# Convention : Reuss Voigt Hill
#
# Bulk Modulus (GPa) = 45.69126 67.32222 56.50674
# Shear Modulus (GPa) = -6.41095 15.47507 4.53206
#
# Velocity S-wave (km/s) = -1.92512 2.99098 1.61862
# Velocity P-wave (km/s) = 4.63381 7.13065 6.01325
#
# Compressibility (1/GPa) = 0.02188602
#
# Stress axis : x y z
#
# Youngs Moduli (GPa) = 43.90273 43.90273 103.14294
#
# Poissons Ratio (x) = 0.19391 0.63255
# Poissons Ratio (y) = 0.19391 0.63255
# Poissons Ratio (z) = 0.26924 0.26924
#
# Static dielectric constant tensor:
#      x y z
#    x 1.595710 0.000000 0.000000 
#    y 0.000000 1.595710 0.000000 
#    z 0.000000 0.000000 1.590530 
# 
# From -- ./inp_files/465.got.cif
#   From: 2010.05.17/outbox.cif.g08.bks.cpg/sg84_1_cif.got.tgz:465.got - 2010.06.03 18:57:40.
