data_PCOD9543348
_publ_section_title
;
Structure prediction by ZEFSAII (Michael W. Deem and Ramdas Pophale) SiO2 
 PCOD9543348
Probable space group: P 4/M
;
_chemical_formula_sum "Si O2"
_cell_formula_units_Z 64
_cell_length_a 19.765396
_cell_length_b 19.765396
_cell_length_c 8.014077
_cell_angle_alpha 90.000000
_cell_angle_beta 90.000000
_cell_angle_gamma 90.000000
_cell_volume 3130.866506
_symmetry_space_group_name_H-M "P 4/M"
_symmetry_group_IT_number 83
_symmetry_cell_setting 'tetragonal'
loop_
_space_group_symop_operation_xyz
x,y,z
-y,x,z
-x,-y,z
y,-x,z
-x,-y,-z
y,-x,-z
x,y,-z
-y,x,-z
loop_
_atom_site_type_symbol
_atom_site_label
_atom_site_fract_x
_atom_site_fract_y
_atom_site_fract_z
Si Si1 0.773607 0.086515 0.815668
Si Si2 0.783093 0.427053 0.201249
Si Si3 0.296262 0.292994 0.203501
Si Si4 0.068356 0.369227 0.310492
Si Si5 0.651995 0.918275 0.298844
Si Si6 0.211244 0.422446 0.801914
Si Si7 0.009077 0.110147 0.699135
Si Si8 0.840186 0.218784 0.306380
O O1 0.710716 0.085779 0.692449
O O2 0.820282 0.021519 0.790594
O O3 0.823107 0.149711 0.786325
O O4 0.744108 0.090680 0.000000
O O5 0.722943 0.374565 0.243739
O O6 0.855491 0.396689 0.257334
O O7 0.773951 0.502905 0.266825
O O8 0.785794 0.429263 0.000000
O O9 0.260411 0.362280 0.259052
O O10 0.257818 0.230943 0.289596
O O11 0.288322 0.287097 0.000000
O O12 0.065322 0.394611 0.500000
O O13 0.132294 0.404935 0.226440
O O14 0.992003 0.372192 0.237037
O O15 0.656680 0.923571 0.500000
O O16 0.727069 0.895000 0.241042
O O17 0.222522 0.424763 0.000000
O O18 0.010761 0.122130 0.500000
O O19 0.941758 0.069500 0.738948
O O20 0.855736 0.203119 0.500000
#
# Coordination Sequence:
#
# PCOD9543348 Si02
#       8
#     8   8   8   8   8   8   8   8
#     4  12  24  35  50  77 106 136 175 224 282 336
#     4   9  19  35  57  83 111 149 187 223 277 332
#     4   9  17  33  55  79 109 143 181 225 268 319
#     4  11  23  38  55  78 108 146 188 230 281 331
#     4   9  21  38  55  78 108 142 184 229 269 321
#     4  10  20  35  56  83 114 146 184 231 279 329
#     4   9  20  39  58  73  95 133 179 226 278 336
#     4  10  19  34  55  76 100 136 181 227 272 320
#
# _framework density 20.441624999999998
#
# number of rings (size 3 to 8) (size 9 to 14) (size 15 to 20)
#    0.000    2.125    1.250    2.250    1.750    3.000 
#    0.000    3.125    0.000    0.375    0.000    2.625 
#    0.000    0.000    0.000    7.375    0.000    7.750 
#
# Total GULP energy -357130.657616 kJ/mol
# GULP energy per Si atom -5580.166525 kJ/mol
# Density = 2.039510 g / cm^3
# Si number density = 20.441625 Si / 1000 Ang^3
#
#
#
# Elastic Constant Matrix: (Units=GPa)
#
#
# Indices 1 2 3 4 5 6 
#
# 1 162.2947 13.1758 2.0274 0.0000 0.0000 26.4688
# 2 13.1758 162.2947 2.0274 0.0000 0.0000 -26.4688
# 3 2.0274 2.0274 13.9213 0.0000 0.0000 0.0000
# 4 0.0000 0.0000 0.0000 28.9630 0.0000 0.0000
# 5 0.0000 0.0000 0.0000 0.0000 28.9630 0.0000
# 6 26.4688 -26.4688 0.0000 0.0000 0.0000 41.3834
#
#
#
# Elastic Compliance Matrix: (Units=1/GPa)
#
#
# Indices 1 2 3 4 5 6 
#
# 1 0.007197 -0.001479 -0.000833 0.000000 0.000000 -0.005549
# 2 -0.001479 0.007197 -0.000833 0.000000 0.000000 0.005549
# 3 -0.000833 -0.000833 0.072075 0.000000 0.000000 0.000000
# 4 0.000000 0.000000 0.000000 0.034527 0.000000 0.000000
# 5 0.000000 0.000000 0.000000 0.000000 0.034527 0.000000
# 6 -0.005549 0.005549 0.000000 0.000000 0.000000 0.031263
#
#
# Mechanical properties :
#
#
# Convention : Reuss Voigt Hill
#
# Bulk Modulus (GPa) = 12.47188 41.44129 26.95659
# Shear Modulus (GPa) = 22.74784 41.28057 32.01421
#
# Velocity S-wave (km/s) = 3.33951 4.49869 3.96173
# Velocity P-wave (km/s) = 4.58086 6.87759 5.84318
#
# Compressibility (1/GPa) = 0.08018037
#
# Stress axis : x y z
#
# Youngs Moduli (GPa) = 138.94452 138.94452 13.87445
#
# Poissons Ratio (x) = 0.20549 0.01155
# Poissons Ratio (y) = 0.20549 0.01155
# Poissons Ratio (z) = 0.11571 0.11571
#
# Static dielectric constant tensor:
#      x y z
#    x 1.748600 0.000000 0.000000 
#    y 0.000000 1.748600 0.000000 
#    z 0.000000 0.000000 1.740230 
# 
# From -- ./inp_files/1276.got.cif
#   From: 2010.05.17/outbox.cif.g08.bks.cpg/sg83_1_cif.got.tgz:1276.got - 2010.06.03 18:55:12.
