data_PCOD9543508
_publ_section_title
;
Structure prediction by ZEFSAII (Michael W. Deem and Ramdas Pophale) SiO2 
 PCOD9543508
Probable space group: P 4/M
;
_chemical_formula_sum "Si O2"
_cell_formula_units_Z 40
_cell_length_a 15.444932
_cell_length_b 15.444932
_cell_length_c 8.707133
_cell_angle_alpha 90.000000
_cell_angle_beta 90.000000
_cell_angle_gamma 90.000000
_cell_volume 2077.051091
_symmetry_space_group_name_H-M "P 4/M"
_symmetry_group_IT_number 83
_symmetry_cell_setting 'tetragonal'
loop_
_space_group_symop_operation_xyz
x,y,z
-y,x,z
-x,-y,z
y,-x,z
-x,-y,-z
y,-x,-z
x,y,-z
-y,x,-z
loop_
_atom_site_type_symbol
_atom_site_label
_atom_site_fract_x
_atom_site_fract_y
_atom_site_fract_z
Si Si1 0.937781 0.418151 0.177228
Si Si2 0.524867 0.739533 0.182149
Si Si3 0.805980 0.168939 0.816537
Si Si4 0.759048 0.983008 0.680264
Si Si5 0.336914 0.697904 0.316448
O O1 0.839631 0.447868 0.201553
O O2 0.964677 0.342089 0.289918
O O3 0.000000 0.500000 0.193496
O O4 0.945138 0.386136 0.000000
O O5 0.431635 0.723930 0.256541
O O6 0.601234 0.684295 0.258616
O O7 0.520562 0.721465 0.000000
O O8 0.900494 0.192777 0.752475
O O9 0.735443 0.236830 0.751146
O O10 0.782625 0.072584 0.762308
O O11 0.805275 0.175076 0.000000
O O12 0.777758 0.989312 0.500000
O O13 0.333463 0.701788 0.500000
#
# Coordination Sequence:
#
# PCOD9543508 Si02
#       5
#     8   8   8   8   8
#     4  10  21  39  65  97 131 171 222 272 328 398
#     4  11  23  41  67  96 133 179 225 271 334 408
#     4  12  25  45  69  96 134 180 227 272 333 406
#     4  12  25  42  67  99 134 172 221 279 338 392
#     4  12  25  43  67  99 137 174 223 283 338 391
#
# _framework density 19.258071999999999
#
# number of rings (size 3 to 8) (size 9 to 14) (size 15 to 20)
#    0.000    0.600    2.000    7.200    0.000    3.600 
#    0.000    4.000    0.000    0.000    0.000    0.000 
#    0.000    0.000    0.000    0.000    0.000    0.000 
#
# Total GULP energy -223922.046519 kJ/mol
# GULP energy per Si atom -5598.051163 kJ/mol
# Density = 1.921424 g / cm^3
# Si number density = 19.258072 Si / 1000 Ang^3
#
#
#
# Elastic Constant Matrix: (Units=GPa)
#
#
# Indices 1 2 3 4 5 6 
#
# 1 111.0557 27.7853 42.5169 0.0000 0.0000 5.0677
# 2 27.7853 111.0557 42.5169 0.0000 0.0000 -5.0677
# 3 42.5169 42.5169 136.1683 0.0000 0.0000 0.0000
# 4 0.0000 0.0000 0.0000 79.7454 0.0000 0.0000
# 5 0.0000 0.0000 0.0000 0.0000 79.7454 0.0000
# 6 5.0677 -5.0677 0.0000 0.0000 0.0000 30.1681
#
#
#
# Elastic Compliance Matrix: (Units=1/GPa)
#
#
# Indices 1 2 3 4 5 6 
#
# 1 0.010583 -0.001677 -0.002781 0.000000 0.000000 -0.002059
# 2 -0.001677 0.010583 -0.002781 0.000000 0.000000 0.002059
# 3 -0.002781 -0.002781 0.009080 0.000000 0.000000 0.000000
# 4 0.000000 0.000000 0.000000 0.012540 0.000000 0.000000
# 5 0.000000 0.000000 0.000000 0.000000 0.012540 0.000000
# 6 -0.002059 0.002059 0.000000 0.000000 0.000000 0.033840
#
#
# Mechanical properties :
#
#
# Convention : Reuss Voigt Hill
#
# Bulk Modulus (GPa) = 63.41656 64.87976 64.14816
# Shear Modulus (GPa) = 45.91458 54.29581 50.10520
#
# Velocity S-wave (km/s) = 4.88810 5.31554 5.10629
# Velocity P-wave (km/s) = 8.05353 8.45199 8.25516
#
# Compressibility (1/GPa) = 0.01576875
#
# Stress axis : x y z
#
# Youngs Moduli (GPa) = 94.49459 94.49459 110.12872
#
# Poissons Ratio (x) = 0.15848 0.30623
# Poissons Ratio (y) = 0.15848 0.30623
# Poissons Ratio (z) = 0.26275 0.26275
#
# Static dielectric constant tensor:
#      x y z
#    x 1.643200 0.000000 0.000000 
#    y 0.000000 1.643200 0.000000 
#    z 0.000000 0.000000 1.655200 
# 
# From -- ./inp_files/681.got.cif
#   From: 2010.05.17/outbox.cif.g08.bks.cpg/sg83_1_cif.got.tgz:681.got - 2010.06.03 18:55:12.
