data_PCOD9543427
_publ_section_title
;
Structure prediction by ZEFSAII (Michael W. Deem and Ramdas Pophale) SiO2 
 PCOD9543427
Probable space group: P 4/M
;
_chemical_formula_sum "Si O2"
_cell_formula_units_Z 36
_cell_length_a 15.744089
_cell_length_b 15.744089
_cell_length_c 7.522771
_cell_angle_alpha 90.000000
_cell_angle_beta 90.000000
_cell_angle_gamma 90.000000
_cell_volume 1864.716930
_symmetry_space_group_name_H-M "P 4/M"
_symmetry_group_IT_number 83
_symmetry_cell_setting 'tetragonal'
loop_
_space_group_symop_operation_xyz
x,y,z
-y,x,z
-x,-y,z
y,-x,z
-x,-y,-z
y,-x,-z
x,y,-z
-y,x,-z
loop_
_atom_site_type_symbol
_atom_site_label
_atom_site_fract_x
_atom_site_fract_y
_atom_site_fract_z
Si Si1 0.753730 0.633367 0.295905
Si Si2 0.628742 0.563157 0.000000
Si Si3 0.993355 0.247896 0.715815
Si Si4 0.826917 0.815334 0.716356
Si Si5 0.569247 0.064346 0.793741
O O1 0.724712 0.638227 0.500000
O O2 0.684581 0.591144 0.169579
O O3 0.778721 0.728691 0.231175
O O4 0.843177 0.582419 0.290606
O O5 0.537475 0.609808 0.000000
O O6 0.992077 0.250000 0.500000
O O7 0.902398 0.215096 0.777603
O O8 0.074502 0.191484 0.769466
O O9 0.015919 0.341495 0.780595
O O10 0.825440 0.814961 0.500000
O O11 0.500000 0.000000 0.716492
O O12 0.547623 0.080120 0.000000
#
# Coordination Sequence:
#
# PCOD9543427 Si02
#       5
#     8   4   8   8   8
#     4  10  21  41  65  89 120 159 199 243 299 356
#     4  11  26  46  65  90 122 153 193 246 302 360
#     4   9  17  31  50  77 114 155 199 242 290 348
#     4   8  16  31  53  82 115 155 199 239 286 343
#     4  10  20  35  55  85 119 151 196 247 301 355
#
# _framework density 19.305880999999999
#
# number of rings (size 3 to 8) (size 9 to 14) (size 15 to 20)
#    0.000    2.556    1.111    2.000    0.000    4.889 
#    2.000    5.556    0.000    0.000    0.000    3.111 
#    0.000    0.000    0.000    0.000    0.000    0.000 
#
# Total GULP energy -200876.884079 kJ/mol
# GULP energy per Si atom -5579.913447 kJ/mol
# Density = 1.926194 g / cm^3
# Si number density = 19.305881 Si / 1000 Ang^3
#
#
#
# Elastic Constant Matrix: (Units=GPa)
#
#
# Indices 1 2 3 4 5 6 
#
# 1 127.2939 90.9857 32.1869 0.0000 0.0000 17.8874
# 2 90.9857 127.2939 32.1869 0.0000 0.0000 -17.8874
# 3 32.1869 32.1869 83.6108 0.0000 0.0000 0.0000
# 4 0.0000 0.0000 0.0000 21.0192 0.0000 0.0000
# 5 0.0000 0.0000 0.0000 0.0000 21.0192 0.0000
# 6 17.8874 -17.8874 0.0000 0.0000 0.0000 32.7522
#
#
#
# Elastic Compliance Matrix: (Units=1/GPa)
#
#
# Indices 1 2 3 4 5 6 
#
# 1 0.032399 -0.027231 -0.001989 0.000000 0.000000 -0.032567
# 2 -0.027231 0.032399 -0.001989 0.000000 0.000000 0.032567
# 3 -0.001989 -0.001989 0.013492 0.000000 0.000000 0.000000
# 4 0.000000 0.000000 0.000000 0.047576 0.000000 0.000000
# 5 0.000000 0.000000 0.000000 0.000000 0.047576 0.000000
# 6 -0.032567 0.032567 0.000000 0.000000 0.000000 0.066105
#
#
# Mechanical properties :
#
#
# Convention : Reuss Voigt Hill
#
# Bulk Modulus (GPa) = 63.01189 72.10192 67.55691
# Shear Modulus (GPa) = 16.27307 27.14741 21.71024
#
# Velocity S-wave (km/s) = 2.90644 3.75397 3.35705
# Velocity P-wave (km/s) = 6.63119 7.49786 7.07780
#
# Compressibility (1/GPa) = 0.01587002
#
# Stress axis : x y z
#
# Youngs Moduli (GPa) = 30.86498 30.86498 74.11842
#
# Poissons Ratio (x) = 0.84049 0.14746
# Poissons Ratio (y) = 0.84049 0.14746
# Poissons Ratio (z) = 0.06141 0.06141
#
# Static dielectric constant tensor:
#      x y z
#    x 1.651930 0.000000 0.000000 
#    y 0.000000 1.651930 0.000000 
#    z 0.000000 0.000000 1.710580 
# 
# From -- ./inp_files/502.got.cif
#   From: 2010.05.17/outbox.cif.g08.bks.cpg/sg83_1_cif.got.tgz:502.got - 2010.06.03 18:55:12.
