data_PCOD9543011
_publ_section_title
;
Structure prediction by ZEFSAII (Michael W. Deem and Ramdas Pophale) SiO2 
 PCOD9543011
Probable space group: I -4 
;
_chemical_formula_sum "Si O2"
_cell_formula_units_Z 32
_cell_length_a 7.098184
_cell_length_b 7.098184
_cell_length_c 21.346573
_cell_angle_alpha 90.000000
_cell_angle_beta 90.000000
_cell_angle_gamma 90.000000
_cell_volume 1075.530347
_symmetry_space_group_name_H-M "I -4 "
_symmetry_group_IT_number 82
_symmetry_cell_setting 'tetragonal'
loop_
_space_group_symop_operation_xyz
x,y,z
y,-x,-z
-x,-y,z
-y,x,-z
1/2+x,1/2+y,1/2+z
1/2+y,1/2-x,1/2-z
1/2-x,1/2-y,1/2+z
1/2-y,1/2+x,1/2-z
loop_
_atom_site_type_symbol
_atom_site_label
_atom_site_fract_x
_atom_site_fract_y
_atom_site_fract_z
Si Si1 0.091666 0.786153 0.361089
Si Si2 0.237194 0.828003 0.235552
Si Si3 0.394985 0.774537 0.988594
Si Si4 0.022257 0.280444 0.891208
O O1 0.093354 0.745436 0.286945
O O2 0.006611 0.686280 0.421914
O O3 0.310077 0.717846 0.377559
O O4 0.000000 0.000000 0.364388
O O5 0.448787 0.752133 0.246587
O O6 0.198486 0.835486 0.161192
O O7 0.581624 0.714720 0.026087
O O8 0.279787 0.905625 0.036615
O O9 0.000000 0.500000 0.873903
#
# Coordination Sequence:
#
# PCOD9543011 Si02
#       4
#     8   8   8   8
#     4  11  20  34  58  93 123 164 222 257 305 385
#     4   9  15  29  54  84 113 154 204 247 296 363
#     4  11  19  32  56  92 123 163 215 255 299 372
#     4  11  18  33  59  88 124 169 210 253 313 372
#
# _framework density 29.752763999999999
#
# number of rings (size 3 to 8) (size 9 to 14) (size 15 to 20)
#    0.000    1.500   10.000    0.000    0.000    0.000 
#    0.000    0.000   11.000    0.000    0.000    0.000 
#    0.000    0.000    0.000    0.000    0.000    0.000 
#
# Total GULP energy -89073.203467 kJ/mol
# GULP energy per Si atom -5567.075217 kJ/mol
# Density = 2.968505 g / cm^3
# Si number density = 29.752764 Si / 1000 Ang^3
#
#
#
# Elastic Constant Matrix: (Units=GPa)
#
#
# Indices 1 2 3 4 5 6 
#
# 1 95.6142 -1.3551 63.7571 0.0000 0.0000 0.7569
# 2 -1.3551 95.6141 63.7571 0.0000 0.0000 -0.7569
# 3 63.7571 63.7571 284.4003 0.0000 0.0000 0.0000
# 4 0.0000 0.0000 0.0000 24.0375 0.0000 0.0000
# 5 0.0000 0.0000 0.0000 0.0000 24.0375 0.0000
# 6 0.7569 -0.7569 0.0000 0.0000 0.0000 6.5424
#
#
#
# Elastic Compliance Matrix: (Units=1/GPa)
#
#
# Indices 1 2 3 4 5 6 
#
# 1 0.012779 0.002448 -0.003414 0.000000 0.000000 -0.001195
# 2 0.002448 0.012779 -0.003414 0.000000 0.000000 0.001195
# 3 -0.003414 -0.003414 0.005047 0.000000 0.000000 0.000000
# 4 0.000000 0.000000 0.000000 0.041602 0.000000 0.000000
# 5 0.000000 0.000000 0.000000 0.000000 0.041602 0.000000
# 6 -0.001195 0.001195 0.000000 0.000000 0.000000 0.153126
#
#
# Mechanical properties :
#
#
# Convention : Reuss Voigt Hill
#
# Bulk Modulus (GPa) = 45.77435 80.88295 63.32865
# Shear Modulus (GPa) = 17.66942 34.22146 25.94544
#
# Velocity S-wave (km/s) = 2.43960 3.39513 2.95623
# Velocity P-wave (km/s) = 4.83258 6.52788 5.74313
#
# Compressibility (1/GPa) = 0.02184630
#
# Stress axis : x y z
#
# Youngs Moduli (GPa) = 78.25277 78.25274 198.14938
#
# Poissons Ratio (x) = -0.19155 0.67640
# Poissons Ratio (y) = -0.19155 0.67640
# Poissons Ratio (z) = 0.26712 0.26712
#
# Static dielectric constant tensor:
#      x y z
#    x 2.490740 0.000000 0.000000 
#    y 0.000000 2.490740 0.000000 
#    z 0.000000 0.000000 2.503270 
# 
# From -- ./inp_files/3257.got.cif
#   From: 2010.05.17/outbox.cif.g08.bks.cpg/sg82_2_cif.got.tgz:3257.got - 2010.06.03 18:52:26.
