data_PCOD9543871
_publ_section_title
;
Structure prediction by ZEFSAII (Michael W. Deem and Ramdas Pophale) SiO2 
 PCOD9543871
Probable space group: P 4/M
;
_chemical_formula_sum "Si O2"
_cell_formula_units_Z 28
_cell_length_a 7.114024
_cell_length_b 7.114024
_cell_length_c 20.451515
_cell_angle_alpha 90.000000
_cell_angle_beta 90.000000
_cell_angle_gamma 90.000000
_cell_volume 1035.037624
_symmetry_space_group_name_H-M "P 4/M"
_symmetry_group_IT_number 83
_symmetry_cell_setting 'tetragonal'
loop_
_space_group_symop_operation_xyz
x,y,z
-y,x,z
-x,-y,z
y,-x,z
-x,-y,-z
y,-x,-z
x,y,-z
-y,x,-z
loop_
_atom_site_type_symbol
_atom_site_label
_atom_site_fract_x
_atom_site_fract_y
_atom_site_fract_z
Si Si1 0.843497 0.721217 0.069977
Si Si2 0.500000 0.000000 0.680390
Si Si3 0.356240 0.217309 0.571321
Si Si4 0.718385 0.147438 0.211187
O O1 0.801296 0.631993 0.140343
O O2 0.756428 0.931176 0.069973
O O3 0.795022 0.630539 0.000000
O O4 0.662897 0.914390 0.633881
O O5 0.585669 0.164122 0.726420
O O6 0.579969 0.261336 0.573466
O O7 0.312097 0.132328 0.500000
O O8 0.760403 0.922831 0.213189
#
# Coordination Sequence:
#
# PCOD9543871 Si02
#       4
#     8   4   8   8
#     4   7  10  20  39  58  78 111 150 179 205 243
#     4  12  19  28  47  72  92 114 140 176 223 268
#     4   9  19  35  51  66  86 114 148 181 211 252
#     4   9  18  30  43  64  93 119 144 178 219 259
#
# _framework density 27.052157999999999
#
# number of rings (size 3 to 8) (size 9 to 14) (size 15 to 20)
#    0.000    3.143    0.000    5.571    0.000    0.000 
#    0.000    0.714    0.000    0.000    0.000   12.000 
#    0.000    0.000    0.000   34.857    0.000    2.286 
#
# Total GULP energy -156453.480319 kJ/mol
# GULP energy per Si atom -5587.624297 kJ/mol
# Density = 2.699059 g / cm^3
# Si number density = 27.052158 Si / 1000 Ang^3
#
#
#
# Elastic Constant Matrix: (Units=GPa)
#
#
# Indices 1 2 3 4 5 6 
#
# 1 70.7783 -1.8079 9.9189 0.0000 0.0000 10.3386
# 2 -1.8079 70.7783 9.9189 0.0000 0.0000 -10.3386
# 3 9.9189 9.9189 228.5240 0.0000 0.0000 0.0000
# 4 0.0000 0.0000 0.0000 14.7525 0.0000 0.0000
# 5 0.0000 0.0000 0.0000 0.0000 14.7525 0.0000
# 6 10.3386 -10.3386 0.0000 0.0000 0.0000 20.2858
#
#
#
# Elastic Compliance Matrix: (Units=1/GPa)
#
#
# Indices 1 2 3 4 5 6 
#
# 1 0.015399 -0.000717 -0.000637 0.000000 0.000000 -0.008214
# 2 -0.000717 0.015399 -0.000637 0.000000 0.000000 0.008214
# 3 -0.000637 -0.000637 0.004431 0.000000 0.000000 0.000000
# 4 0.000000 0.000000 0.000000 0.067785 0.000000 0.000000
# 5 0.000000 0.000000 0.000000 0.000000 0.067785 0.000000
# 6 -0.008214 0.008214 0.000000 0.000000 0.000000 0.057668
#
#
# Mechanical properties :
#
#
# Convention : Reuss Voigt Hill
#
# Bulk Modulus (GPa) = 32.00337 45.12670 38.56504
# Shear Modulus (GPa) = 20.58737 33.42819 27.00778
#
# Velocity S-wave (km/s) = 2.76166 3.51906 3.16311
# Velocity P-wave (km/s) = 4.69308 5.76448 5.25615
#
# Compressibility (1/GPa) = 0.03124671
#
# Stress axis : x y z
#
# Youngs Moduli (GPa) = 64.93759 64.93759 225.67104
#
# Poissons Ratio (x) = 0.04657 0.14381
# Poissons Ratio (y) = 0.04657 0.14381
# Poissons Ratio (z) = 0.04138 0.04138
#
# Static dielectric constant tensor:
#      x y z
#    x 2.095630 0.000000 0.000000 
#    y 0.000000 2.095630 0.000000 
#    z 0.000000 0.000000 2.258680 
# 
# From -- ./inp_files/2529.got.cif
#   From: 2010.05.17/outbox.cif.g08.bks.cpg/sg83_2_cif.got.tgz:2529.got - 2010.06.03 18:55:12.
