data_PCOD9543339
_publ_section_title
;
Structure prediction by ZEFSAII (Michael W. Deem and Ramdas Pophale) SiO2 
 PCOD9543339
Probable space group: P 4/M
;
_chemical_formula_sum "Si O2"
_cell_formula_units_Z 52
_cell_length_a 18.382169
_cell_length_b 18.382169
_cell_length_c 7.847995
_cell_angle_alpha 90.000000
_cell_angle_beta 90.000000
_cell_angle_gamma 90.000000
_cell_volume 2651.869979
_symmetry_space_group_name_H-M "P 4/M"
_symmetry_group_IT_number 83
_symmetry_cell_setting 'tetragonal'
loop_
_space_group_symop_operation_xyz
x,y,z
-y,x,z
-x,-y,z
y,-x,z
-x,-y,-z
y,-x,-z
x,y,-z
-y,x,-z
loop_
_atom_site_type_symbol
_atom_site_label
_atom_site_fract_x
_atom_site_fract_y
_atom_site_fract_z
Si Si1 0.547859 0.067713 0.294433
Si Si2 0.424923 0.772683 0.795341
Si Si3 0.932850 0.100620 0.500000
Si Si4 0.479668 0.616289 0.791936
Si Si5 0.289155 0.968928 0.297601
Si Si6 0.108158 0.795993 0.194968
Si Si7 0.809588 0.736319 0.203307
O O1 0.545323 0.067253 0.500000
O O2 0.534057 0.151246 0.242138
O O3 0.629473 0.048776 0.239271
O O4 0.500000 0.000000 0.232422
O O5 0.461652 0.697974 0.732718
O O6 0.341443 0.781801 0.727937
O O7 0.421235 0.766375 0.000000
O O8 0.909049 0.142554 0.331780
O O9 0.019792 0.097334 0.500000
O O10 0.417959 0.557435 0.740420
O O11 0.480177 0.617220 0.000000
O O12 0.288365 0.982319 0.500000
O O13 0.249497 0.892517 0.262221
O O14 0.258743 0.040746 0.210376
O O15 0.189095 0.766413 0.239617
O O16 0.111480 0.822688 0.000000
O O17 0.810906 0.727759 0.000000
#
# Coordination Sequence:
#
# PCOD9543339 Si02
#       7
#     8   8   4   8   8   8   8
#     4   9  19  36  55  76 108 145 180 221 275 332
#     4   9  17  32  53  80 109 140 183 229 272 327
#     4  11  24  38  54  78 105 138 184 229 273 340
#     4   8  14  27  50  80 113 148 183 222 273 328
#     4  10  19  33  55  76  99 139 182 223 272 334
#     4  11  22  36  54  78 107 140 180 233 285 332
#     4   9  19  33  50  73 105 139 174 224 281 329
#
# _framework density 19.608803999999999
#
# number of rings (size 3 to 8) (size 9 to 14) (size 15 to 20)
#    0.000    2.538    0.769    1.846    1.077    2.769 
#    2.769    0.769    0.000    0.923    0.000    1.077 
#    0.000    0.000    0.000    0.000    0.000    0.000 
#
# Total GULP energy -289768.587078 kJ/mol
# GULP energy per Si atom -5572.472828 kJ/mol
# Density = 1.956417 g / cm^3
# Si number density = 19.608804 Si / 1000 Ang^3
#
#
#
# Elastic Constant Matrix: (Units=GPa)
#
#
# Indices 1 2 3 4 5 6 
#
# 1 127.9946 64.5427 10.4648 0.0000 0.0000 7.1913
# 2 64.5427 127.9946 10.4648 0.0000 0.0000 -7.1913
# 3 10.4648 10.4648 37.5094 0.0000 0.0000 0.0000
# 4 0.0000 0.0000 0.0000 77.6369 0.0000 0.0000
# 5 0.0000 0.0000 0.0000 0.0000 77.6369 0.0000
# 6 7.1913 -7.1913 0.0000 0.0000 0.0000 33.0618
#
#
#
# Elastic Compliance Matrix: (Units=1/GPa)
#
#
# Indices 1 2 3 4 5 6 
#
# 1 0.010967 -0.005611 -0.001494 0.000000 0.000000 -0.003606
# 2 -0.005611 0.010967 -0.001494 0.000000 0.000000 0.003606
# 3 -0.001494 -0.001494 0.027494 0.000000 0.000000 0.000000
# 4 0.000000 0.000000 0.000000 0.012880 0.000000 0.000000
# 5 0.000000 0.000000 0.000000 0.000000 0.012880 0.000000
# 6 -0.003606 0.003606 0.000000 0.000000 0.000000 0.031815
#
#
# Mechanical properties :
#
#
# Convention : Reuss Voigt Hill
#
# Bulk Modulus (GPa) = 31.02802 51.60479 41.31640
# Shear Modulus (GPa) = 37.05224 51.53555 44.29390
#
# Velocity S-wave (km/s) = 4.35164 5.13214 4.75792
# Velocity P-wave (km/s) = 6.41146 7.84174 7.16239
#
# Compressibility (1/GPa) = 0.03222894
#
# Stress axis : x y z
#
# Youngs Moduli (GPa) = 91.18465 91.18465 36.37182
#
# Poissons Ratio (x) = 0.51159 0.05435
# Poissons Ratio (y) = 0.51159 0.05435
# Poissons Ratio (z) = 0.13626 0.13626
#
# Static dielectric constant tensor:
#      x y z
#    x 1.721490 0.000000 0.000000 
#    y 0.000000 1.721490 0.000000 
#    z 0.000000 0.000000 1.698100 
# 
# From -- ./inp_files/1024.got.cif
#   From: 2010.05.17/outbox.cif.g08.bks.cpg/sg83_1_cif.got.tgz:1024.got - 2010.06.03 18:55:12.
