data_PCOD9543421
_publ_section_title
;
Structure prediction by ZEFSAII (Michael W. Deem and Ramdas Pophale) SiO2 
 PCOD9543421
Probable space group: P 4/M
;
_chemical_formula_sum "Si O2"
_cell_formula_units_Z 48
_cell_length_a 18.341198
_cell_length_b 18.341198
_cell_length_c 8.788094
_cell_angle_alpha 90.000000
_cell_angle_beta 90.000000
_cell_angle_gamma 90.000000
_cell_volume 2956.310815
_symmetry_space_group_name_H-M "P 4/M"
_symmetry_group_IT_number 83
_symmetry_cell_setting 'tetragonal'
loop_
_space_group_symop_operation_xyz
x,y,z
-y,x,z
-x,-y,z
y,-x,z
-x,-y,-z
y,-x,-z
x,y,-z
-y,x,-z
loop_
_atom_site_type_symbol
_atom_site_label
_atom_site_fract_x
_atom_site_fract_y
_atom_site_fract_z
Si Si1 0.192495 0.686836 0.175227
Si Si2 0.416840 0.305616 0.681805
Si Si3 0.798413 0.081457 0.682476
Si Si4 0.313526 0.815999 0.825689
Si Si5 0.422081 0.696666 0.184170
Si Si6 0.085153 0.797066 0.684442
O O1 0.230189 0.621590 0.266639
O O2 0.253291 0.751220 0.175681
O O3 0.122417 0.724219 0.250385
O O4 0.179594 0.666115 0.000000
O O5 0.419238 0.310555 0.500000
O O6 0.496899 0.310388 0.753079
O O7 0.366501 0.370455 0.748530
O O8 0.800760 0.080549 0.500000
O O9 0.723001 0.118986 0.733157
O O10 0.864587 0.134272 0.733314
O O11 0.805187 0.998293 0.735198
O O12 0.385917 0.774562 0.770647
O O13 0.323983 0.839260 0.000000
O O14 0.420232 0.692681 0.000000
O O15 0.087193 0.794083 0.500000
#
# Coordination Sequence:
#
# PCOD9543421 Si02
#       6
#     8   8   8   8   8   8
#     4   9  17  31  49  68  91 125 163 199 237 283
#     4  11  21  33  51  76 101 126 158 198 239 283
#     4   9  17  28  45  68  97 128 160 197 240 285
#     4   8  16  30  48  67  89 120 161 198 231 276
#     4  10  20  35  52  72  99 131 162 195 236 285
#     4   9  17  29  45  69  97 128 162 199 240 286
#
# _framework density 16.236452
#
# number of rings (size 3 to 8) (size 9 to 14) (size 15 to 20)
#    0.000    2.667    0.000    3.500    0.000    6.000 
#    0.000    3.333    0.000    1.000    0.000   11.667 
#    0.000    0.000    0.000    0.000    0.000    0.000 
#
# Total GULP energy -267396.668116 kJ/mol
# GULP energy per Si atom -5570.763919 kJ/mol
# Density = 1.619950 g / cm^3
# Si number density = 16.236452 Si / 1000 Ang^3
#
#
#
# Elastic Constant Matrix: (Units=GPa)
#
#
# Indices 1 2 3 4 5 6 
#
# 1 87.0979 93.0596 38.7122 0.0000 0.0000 -0.5298
# 2 93.0596 87.0979 38.7122 0.0000 0.0000 0.5298
# 3 38.7122 38.7122 62.1045 0.0000 0.0000 0.0000
# 4 0.0000 0.0000 0.0000 21.7248 0.0000 0.0000
# 5 0.0000 0.0000 0.0000 0.0000 21.7248 0.0000
# 6 -0.5298 0.5298 0.0000 0.0000 0.0000 16.2332
#
#
#
# Elastic Compliance Matrix: (Units=1/GPa)
#
#
# Indices 1 2 3 4 5 6 
#
# 1 -0.079593 0.087175 -0.004726 0.000000 0.000000 -0.005443
# 2 0.087175 -0.079593 -0.004726 0.000000 0.000000 0.005443
# 3 -0.004726 -0.004726 0.021994 0.000000 0.000000 0.000000
# 4 0.000000 0.000000 0.000000 0.046030 0.000000 0.000000
# 5 0.000000 0.000000 0.000000 0.000000 0.046030 0.000000
# 6 -0.005443 0.005443 0.000000 0.000000 0.000000 0.061247
#
#
# Mechanical properties :
#
#
# Convention : Reuss Voigt Hill
#
# Bulk Modulus (GPa) = 54.78495 64.14091 59.46293
# Shear Modulus (GPa) = -37.52460 16.32429 -10.60016
#
# Velocity S-wave (km/s) = -4.81264 3.17426 -2.55789
# Velocity P-wave (km/s) = 1.71266 7.28180 5.28951
#
# Compressibility (1/GPa) = 0.01825319
#
# Stress axis : x y z
#
# Youngs Moduli (GPa) = -12.56391 -12.56391 45.46755
#
# Poissons Ratio (x) = 1.09526 0.21488
# Poissons Ratio (y) = 1.09526 0.21488
# Poissons Ratio (z) = -0.05938 -0.05938
#
# Static dielectric constant tensor:
#      x y z
#    x 1.539270 0.000000 0.000000 
#    y 0.000000 1.539270 0.000000 
#    z 0.000000 0.000000 1.550560 
# 
# From -- ./inp_files/918.got.cif
#   From: 2010.05.17/outbox.cif.g08.bks.cpg/sg83_1_cif.got.tgz:918.got - 2010.06.03 18:55:12.
