data_PCOD9543085
_publ_section_title
;
Structure prediction by ZEFSAII (Michael W. Deem and Ramdas Pophale) SiO2 
 PCOD9543085
Probable space group: I -4 
;
_chemical_formula_sum "Si O2"
_cell_formula_units_Z 36
_cell_length_a 13.958583
_cell_length_b 13.958583
_cell_length_c 8.252428
_cell_angle_alpha 90.000000
_cell_angle_beta 90.000000
_cell_angle_gamma 90.000000
_cell_volume 1607.919901
_symmetry_space_group_name_H-M "I -4 "
_symmetry_group_IT_number 82
_symmetry_cell_setting 'tetragonal'
loop_
_space_group_symop_operation_xyz
x,y,z
y,-x,-z
-x,-y,z
-y,x,-z
1/2+x,1/2+y,1/2+z
1/2+y,1/2-x,1/2-z
1/2-x,1/2-y,1/2+z
1/2-y,1/2+x,1/2-z
loop_
_atom_site_type_symbol
_atom_site_label
_atom_site_fract_x
_atom_site_fract_y
_atom_site_fract_z
Si Si1 0.093161 0.111386 0.969306
Si Si2 0.500000 0.000000 0.250000
Si Si3 0.619155 0.159114 0.073653
Si Si4 0.500000 0.500000 0.000000
Si Si5 0.549740 0.700441 0.136667
Si Si6 0.246091 0.235318 0.131115
O O1 0.065008 0.185041 0.828628
O O2 0.190241 0.148638 0.046899
O O3 0.999123 0.108433 0.084064
O O4 0.418844 0.943702 0.142543
O O5 0.521993 0.219942 0.074642
O O6 0.688064 0.215063 0.202424
O O7 0.676448 0.171506 0.902974
O O8 0.598433 0.492919 0.906270
O O9 0.653776 0.723208 0.063701
#
# Coordination Sequence:
#
# PCOD9543085 Si02
#       6
#     8   2   8   2   8   8
#     4  11  23  40  64  94 131 175 218 273 343 408
#     4  12  24  48  76  98 144 196 232 274 360 436
#     4  12  25  45  72 101 138 183 233 285 347 413
#     4  12  24  40  62  96 132 168 232 286 344 384
#     4  12  24  41  66  99 132 177 223 287 338 409
#     4  12  24  42  68 101 134 178 230 285 338 415
#
# _framework density 22.389175999999999
#
# number of rings (size 3 to 8) (size 9 to 14) (size 15 to 20)
#    0.000    0.222    8.889    1.333    0.000    0.000 
#    0.000    0.000    0.000    1.333    0.000    0.000 
#    0.000    0.000    0.000    0.000    0.000    0.000 
#
# Total GULP energy -100217.018717 kJ/mol
# GULP energy per Si atom -5567.612151 kJ/mol
# Density = 2.233822 g / cm^3
# Si number density = 22.389176 Si / 1000 Ang^3
#
#
#
# Elastic Constant Matrix: (Units=GPa)
#
#
# Indices 1 2 3 4 5 6 
#
# 1 94.6715 15.3826 16.3729 0.0000 0.0000 1.1182
# 2 15.3826 94.6715 16.3729 0.0000 0.0000 -1.1182
# 3 16.3729 16.3729 21.6174 0.0000 0.0000 0.0000
# 4 0.0000 0.0000 0.0000 16.8166 0.0000 0.0000
# 5 0.0000 0.0000 0.0000 0.0000 16.8166 0.0000
# 6 1.1182 -1.1182 0.0000 0.0000 0.0000 40.7682
#
#
#
# Elastic Compliance Matrix: (Units=1/GPa)
#
#
# Indices 1 2 3 4 5 6 
#
# 1 0.012176 -0.000446 -0.008884 0.000000 0.000000 -0.000346
# 2 -0.000446 0.012176 -0.008884 0.000000 0.000000 0.000346
# 3 -0.008884 -0.008884 0.059717 0.000000 0.000000 0.000000
# 4 0.000000 0.000000 0.000000 0.059465 0.000000 0.000000
# 5 0.000000 0.000000 0.000000 0.000000 0.059465 0.000000
# 6 -0.000346 0.000346 0.000000 0.000000 0.000000 0.024548
#
#
# Mechanical properties :
#
#
# Convention : Reuss Voigt Hill
#
# Bulk Modulus (GPa) = 20.99087 34.13525 27.56306
# Shear Modulus (GPa) = 17.86643 25.73575 21.80109
#
# Velocity S-wave (km/s) = 2.82794 3.39407 3.12386
# Velocity P-wave (km/s) = 4.47871 5.53525 5.03477
#
# Compressibility (1/GPa) = 0.04763976
#
# Stress axis : x y z
#
# Youngs Moduli (GPa) = 82.12976 82.12976 16.74579
#
# Poissons Ratio (x) = 0.03663 0.14877
# Poissons Ratio (y) = 0.03663 0.14877
# Poissons Ratio (z) = 0.72965 0.72965
#
# Static dielectric constant tensor:
#      x y z
#    x 1.878090 0.000000 0.000000 
#    y 0.000000 1.878090 0.000000 
#    z 0.000000 0.000000 1.943610 
# 
# From -- ./inp_files/876.got.cif
#   From: 2010.05.17/outbox.cif.g08.bks.cpg/sg82_1_cif.got.tgz:876.got - 2010.06.03 18:52:26.
