data_PCOD9543238
_publ_section_title
;
Structure prediction by ZEFSAII (Michael W. Deem and Ramdas Pophale) SiO2 
 PCOD9543238
Probable space group: P 4/M
;
_chemical_formula_sum "Si O2"
_cell_formula_units_Z 48
_cell_length_a 14.973377
_cell_length_b 14.973377
_cell_length_c 14.001369
_cell_angle_alpha 90.000000
_cell_angle_beta 90.000000
_cell_angle_gamma 90.000000
_cell_volume 3139.135196
_symmetry_space_group_name_H-M "P 4/M"
_symmetry_group_IT_number 83
_symmetry_cell_setting 'tetragonal'
loop_
_space_group_symop_operation_xyz
x,y,z
-y,x,z
-x,-y,z
y,-x,z
-x,-y,-z
y,-x,-z
x,y,-z
-y,x,-z
loop_
_atom_site_type_symbol
_atom_site_label
_atom_site_fract_x
_atom_site_fract_y
_atom_site_fract_z
Si Si1 0.850739 0.032355 0.000000
Si Si2 0.099565 0.395819 0.669667
Si Si3 0.789616 0.898111 0.705667
Si Si4 0.596110 0.752546 0.500000
Si Si5 0.871531 0.918064 0.500000
Si Si6 0.611657 0.242301 0.500000
Si Si7 0.923078 0.772256 0.798724
Si Si8 0.403087 0.100603 0.662444
O O1 0.790008 0.048195 0.093250
O O2 0.934400 0.102425 0.000000
O O3 0.176992 0.375974 0.592369
O O4 0.094672 0.326157 0.756393
O O5 0.108754 0.497944 0.704438
O O6 0.000588 0.393818 0.621183
O O7 0.818779 0.886947 0.595141
O O8 0.837039 0.828836 0.773194
O O9 0.684421 0.891416 0.725599
O O10 0.815224 0.998231 0.734519
O O11 0.673290 0.678118 0.500000
O O12 0.491591 0.723646 0.500000
O O13 0.605628 0.819582 0.588349
O O14 0.973296 0.880374 0.500000
#
# Coordination Sequence:
#
# PCOD9543238 Si02
#       8
#     4   8   8   4   4   4   8   8
#     4  11  22  36  54  71 101 135 165 199 237 298
#     4   9  19  33  51  69  95 127 168 206 242 285
#     4  11  20  31  48  71 102 133 166 200 245 288
#     4  10  18  30  45  67  97 134 169 199 242 287
#     4  11  21  29  40  65 106 137 161 200 237 279
#     4  10  19  31  49  71 100 132 165 202 246 292
#     4  11  21  33  51  72  95 130 167 200 244 298
#     4   9  18  32  47  67  94 129 166 208 238 282
#
# _framework density 15.290835
#
# number of rings (size 3 to 8) (size 9 to 14) (size 15 to 20)
#    0.000    1.833    3.333    2.000    0.000    5.167 
#    0.000    0.000    0.000    9.000    0.000    0.000 
#    0.000    0.000    0.000    0.000    0.000   27.083 
#
# Total GULP energy -267224.041428 kJ/mol
# GULP energy per Si atom -5567.167530 kJ/mol
# Density = 1.525603 g / cm^3
# Si number density = 15.290835 Si / 1000 Ang^3
#
#
#
# Elastic Constant Matrix: (Units=GPa)
#
#
# Indices 1 2 3 4 5 6 
#
# 1 84.5142 52.9408 17.8060 0.0000 0.0000 -4.5252
# 2 52.9408 84.5142 17.8060 0.0000 0.0000 4.5252
# 3 17.8060 17.8060 68.3875 0.0000 0.0000 0.0000
# 4 0.0000 0.0000 0.0000 21.2301 0.0000 0.0000
# 5 0.0000 0.0000 0.0000 0.0000 21.2301 0.0000
# 6 -4.5252 4.5252 0.0000 0.0000 0.0000 27.4609
#
#
#
# Elastic Compliance Matrix: (Units=1/GPa)
#
#
# Indices 1 2 3 4 5 6 
#
# 1 0.020522 -0.012721 -0.002031 0.000000 0.000000 0.005478
# 2 -0.012721 0.020522 -0.002031 0.000000 0.000000 -0.005478
# 3 -0.002031 -0.002031 0.015680 0.000000 0.000000 0.000000
# 4 0.000000 0.000000 0.000000 0.047103 0.000000 0.000000
# 5 0.000000 0.000000 0.000000 0.000000 0.047103 0.000000
# 6 0.005478 -0.005478 0.000000 0.000000 0.000000 0.038221
#
#
# Mechanical properties :
#
#
# Convention : Reuss Voigt Hill
#
# Bulk Modulus (GPa) = 43.18150 46.05797 44.61973
# Shear Modulus (GPa) = 21.69796 23.90840 22.80318
#
# Velocity S-wave (km/s) = 3.77107 3.95850 3.86592
# Velocity P-wave (km/s) = 6.87479 7.14700 7.01222
#
# Compressibility (1/GPa) = 0.02315807
#
# Stress axis : x y z
#
# Youngs Moduli (GPa) = 48.72842 48.72842 63.77432
#
# Poissons Ratio (x) = 0.61985 0.12954
# Poissons Ratio (y) = 0.61985 0.12954
# Poissons Ratio (z) = 0.09898 0.09898
#
# Static dielectric constant tensor:
#      x y z
#    x 1.540690 0.000000 0.000000 
#    y 0.000000 1.540690 0.000000 
#    z 0.000000 0.000000 1.518330 
# 
# From -- ./inp_files/1905.got.cif
#   From: 2010.05.17/outbox.cif.g08.bks.cpg/sg83_1_cif.got.tgz:1905.got - 2010.06.03 18:55:12.
