data_PCOD9543739
_publ_section_title
;
Structure prediction by ZEFSAII (Michael W. Deem and Ramdas Pophale) SiO2 
 PCOD9543739
Probable space group: P 4/M
;
_chemical_formula_sum "Si O2"
_cell_formula_units_Z 44
_cell_length_a 8.104364
_cell_length_b 8.104364
_cell_length_c 30.823762
_cell_angle_alpha 90.000000
_cell_angle_beta 90.000000
_cell_angle_gamma 90.000000
_cell_volume 2024.526753
_symmetry_space_group_name_H-M "P 4/M"
_symmetry_group_IT_number 83
_symmetry_cell_setting 'tetragonal'
loop_
_space_group_symop_operation_xyz
x,y,z
-y,x,z
-x,-y,z
y,-x,z
-x,-y,-z
y,-x,-z
x,y,-z
-y,x,-z
loop_
_atom_site_type_symbol
_atom_site_label
_atom_site_fract_x
_atom_site_fract_y
_atom_site_fract_z
Si Si1 0.000000 0.500000 0.118083
Si Si2 0.584475 0.765154 0.452673
Si Si3 0.736090 0.912439 0.369523
Si Si4 0.413236 0.237229 0.811124
Si Si5 0.905738 0.738138 0.951307
Si Si6 0.095347 0.737142 0.273783
O O1 0.108710 0.612857 0.149989
O O2 0.116341 0.393751 0.086385
O O3 0.398277 0.698604 0.451151
O O4 0.614084 0.844883 0.500000
O O5 0.627696 0.869802 0.410788
O O6 0.661947 0.880439 0.321797
O O7 0.900631 0.800218 0.371476
O O8 0.601609 0.299080 0.814103
O O9 0.377370 0.150690 0.765355
O O10 0.096486 0.797799 0.947675
O O11 0.880190 0.670699 0.000000
O O12 0.905974 0.797420 0.270686
#
# Coordination Sequence:
#
# PCOD9543739 Si02
#       6
#     4   8   8   8   8   8
#     4  12  21  36  58  82 112 152 187 224 278 336
#     4   9  19  35  52  73 105 143 181 221 267 322
#     4   9  19  35  55  80 107 135 172 220 271 324
#     4  11  24  38  53  79 113 146 184 232 280 328
#     4   9  19  36  58  85 114 145 187 234 274 319
#     4   9  19  38  60  79 104 142 185 226 275 337
#
# _framework density 21.733471999999999
#
# number of rings (size 3 to 8) (size 9 to 14) (size 15 to 20)
#    0.000    2.364    0.000    4.636    0.000    2.909 
#    0.000   10.000    0.000    0.000    0.000    7.636 
#    0.000    0.000    0.000    0.000    0.000    0.000 
#
# Total GULP energy -246021.499321 kJ/mol
# GULP energy per Si atom -5591.397712 kJ/mol
# Density = 2.168401 g / cm^3
# Si number density = 21.733472 Si / 1000 Ang^3
#
#
#
# Elastic Constant Matrix: (Units=GPa)
#
#
# Indices 1 2 3 4 5 6 
#
# 1 47.3622 11.0206 46.4893 0.0000 0.0000 3.9546
# 2 11.0206 47.3622 46.4893 0.0000 0.0000 -3.9546
# 3 46.4893 46.4893 208.5371 0.0000 0.0000 0.0000
# 4 0.0000 0.0000 0.0000 47.1604 0.0000 0.0000
# 5 0.0000 0.0000 0.0000 0.0000 47.1604 0.0000
# 6 3.9546 -3.9546 0.0000 0.0000 0.0000 31.4957
#
#
#
# Elastic Compliance Matrix: (Units=1/GPa)
#
#
# Indices 1 2 3 4 5 6 
#
# 1 0.027423 -0.000866 -0.005920 0.000000 0.000000 -0.003552
# 2 -0.000866 0.027423 -0.005920 0.000000 0.000000 0.003552
# 3 -0.005920 -0.005920 0.007435 0.000000 0.000000 0.000000
# 4 0.000000 0.000000 0.000000 0.021204 0.000000 0.000000
# 5 0.000000 0.000000 0.000000 0.000000 0.021204 0.000000
# 6 -0.003552 0.003552 0.000000 0.000000 0.000000 0.032642
#
#
# Mechanical properties :
#
#
# Convention : Reuss Voigt Hill
#
# Bulk Modulus (GPa) = 27.12430 56.80667 41.96548
# Shear Modulus (GPa) = 28.56561 38.44747 33.50654
#
# Velocity S-wave (km/s) = 3.62934 4.21056 3.93071
# Velocity P-wave (km/s) = 5.48365 7.05925 6.32074
#
# Compressibility (1/GPa) = 0.03686731
#
# Stress axis : x y z
#
# Youngs Moduli (GPa) = 36.46535 36.46535 134.49970
#
# Poissons Ratio (x) = 0.03160 0.79628
# Poissons Ratio (y) = 0.03160 0.79628
# Poissons Ratio (z) = 0.21589 0.21589
#
# Static dielectric constant tensor:
#      x y z
#    x 1.800690 0.000000 0.000000 
#    y 0.000000 1.800690 0.000000 
#    z 0.000000 0.000000 1.783870 
# 
# From -- ./inp_files/3368.got.cif
#   From: 2010.05.17/outbox.cif.g08.bks.cpg/sg83_2_cif.got.tgz:3368.got - 2010.06.03 18:55:12.
