data_PCOD9543198
_publ_section_title
;
Structure prediction by ZEFSAII (Michael W. Deem and Ramdas Pophale) SiO2 
 PCOD9543198
Probable space group: I -4 
;
_chemical_formula_sum "Si O2"
_cell_formula_units_Z 40
_cell_length_a 18.756796
_cell_length_b 18.756796
_cell_length_c 4.861099
_cell_angle_alpha 90.000000
_cell_angle_beta 90.000000
_cell_angle_gamma 90.000000
_cell_volume 1710.219193
_symmetry_space_group_name_H-M "I -4 "
_symmetry_group_IT_number 82
_symmetry_cell_setting 'tetragonal'
loop_
_space_group_symop_operation_xyz
x,y,z
y,-x,-z
-x,-y,z
-y,x,-z
1/2+x,1/2+y,1/2+z
1/2+y,1/2-x,1/2-z
1/2-x,1/2-y,1/2+z
1/2-y,1/2+x,1/2-z
loop_
_atom_site_type_symbol
_atom_site_label
_atom_site_fract_x
_atom_site_fract_y
_atom_site_fract_z
Si Si1 0.601516 0.631223 0.179009
Si Si2 0.505908 0.170429 0.891217
Si Si3 0.635871 0.904256 0.087130
Si Si4 0.483729 0.331882 0.682327
Si Si5 0.256866 0.297060 0.391484
O O1 0.538935 0.665285 0.365005
O O2 0.616992 0.550381 0.263129
O O3 0.673104 0.672680 0.249952
O O4 0.581390 0.638173 0.862384
O O5 0.433725 0.143427 0.034851
O O6 0.527092 0.129473 0.612044
O O7 0.499377 0.252719 0.796939
O O8 0.568786 0.153568 0.108025
O O9 0.703172 0.858187 0.985663
O O10 0.278370 0.252004 0.658610
#
# Coordination Sequence:
#
# PCOD9543198 Si02
#       5
#     8   8   8   8   8
#     4  12  26  46  73 103 146 188 236 302 364 434
#     4  12  26  47  71 108 146 192 243 300 364 432
#     4  12  26  45  74 102 150 190 239 303 361 435
#     4  12  27  47  73 105 146 188 241 300 363 434
#     4  12  25  45  73 106 140 188 253 297 362 423
#
# _framework density 23.388815000000001
#
# number of rings (size 3 to 8) (size 9 to 14) (size 15 to 20)
#    0.000    0.000    2.000    8.400    2.800    4.800 
#    0.000    0.000    0.000    0.000    0.000    0.000 
#    0.000    0.000    0.000    0.000    0.000    0.000 
#
# Total GULP energy -112117.221946 kJ/mol
# GULP energy per Si atom -5605.861097 kJ/mol
# Density = 2.333558 g / cm^3
# Si number density = 23.388815 Si / 1000 Ang^3
#
#
#
# Elastic Constant Matrix: (Units=GPa)
#
#
# Indices 1 2 3 4 5 6 
#
# 1 79.6271 2.8680 -0.1973 0.0000 0.0000 12.9515
# 2 2.8680 79.6271 -0.1973 0.0000 0.0000 -12.9515
# 3 -0.1973 -0.1973 85.1725 0.0000 0.0000 0.0000
# 4 0.0000 0.0000 0.0000 41.2572 0.0000 0.0000
# 5 0.0000 0.0000 0.0000 0.0000 41.2572 0.0000
# 6 12.9515 -12.9515 0.0000 0.0000 0.0000 38.3873
#
#
#
# Elastic Compliance Matrix: (Units=1/GPa)
#
#
# Indices 1 2 3 4 5 6 
#
# 1 0.013412 -0.001290 0.000028 0.000000 0.000000 -0.004960
# 2 -0.001290 0.013412 0.000028 0.000000 0.000000 0.004960
# 3 0.000028 0.000028 0.011741 0.000000 0.000000 0.000000
# 4 0.000000 0.000000 0.000000 0.024238 0.000000 0.000000
# 5 0.000000 0.000000 0.000000 0.000000 0.024238 0.000000
# 6 -0.004960 0.004960 0.000000 0.000000 0.000000 0.029397
#
#
# Mechanical properties :
#
#
# Convention : Reuss Voigt Hill
#
# Bulk Modulus (GPa) = 27.70279 27.70818 27.70549
# Shear Modulus (GPa) = 38.18595 40.31054 39.24825
#
# Velocity S-wave (km/s) = 4.04500 4.15601 4.10088
# Velocity P-wave (km/s) = 5.80398 5.90782 5.85613
#
# Compressibility (1/GPa) = 0.03609744
#
# Stress axis : x y z
#
# Youngs Moduli (GPa) = 74.56094 74.56094 85.17159
#
# Poissons Ratio (x) = 0.09617 -0.00239
# Poissons Ratio (y) = 0.09617 -0.00239
# Poissons Ratio (z) = -0.00209 -0.00209
#
# Static dielectric constant tensor:
#      x y z
#    x 1.877440 0.000000 0.000000 
#    y 0.000000 1.877440 0.000000 
#    z 0.000000 0.000000 1.822870 
# 
# From -- ./inp_files/209.got.cif
#   From: 2010.05.17/outbox.cif.g08.bks.cpg/sg82_1_cif.got.tgz:209.got - 2010.06.03 18:52:26.
