data_PCOD9543482
_publ_section_title
;
Structure prediction by ZEFSAII (Michael W. Deem and Ramdas Pophale) SiO2 
 PCOD9543482
Probable space group: P 4/M
;
_chemical_formula_sum "Si O2"
_cell_formula_units_Z 32
_cell_length_a 15.695867
_cell_length_b 15.695867
_cell_length_c 7.388658
_cell_angle_alpha 90.000000
_cell_angle_beta 90.000000
_cell_angle_gamma 90.000000
_cell_volume 1820.271565
_symmetry_space_group_name_H-M "P 4/M"
_symmetry_group_IT_number 83
_symmetry_cell_setting 'tetragonal'
loop_
_space_group_symop_operation_xyz
x,y,z
-y,x,z
-x,-y,z
y,-x,z
-x,-y,-z
y,-x,-z
x,y,-z
-y,x,-z
loop_
_atom_site_type_symbol
_atom_site_label
_atom_site_fract_x
_atom_site_fract_y
_atom_site_fract_z
Si Si1 0.974861 0.404058 0.785746
Si Si2 0.787585 0.335119 0.785467
Si Si3 0.022080 0.265464 0.500000
Si Si4 0.832233 0.197292 0.500000
Si Si5 0.379555 0.564601 0.220244
O O1 0.874031 0.388865 0.756354
O O2 0.000000 0.500000 0.732159
O O3 0.020096 0.330182 0.670759
O O4 0.992481 0.394764 0.000000
O O5 0.797631 0.248900 0.673555
O O6 0.705562 0.387988 0.723165
O O7 0.780298 0.318579 0.000000
O O8 0.102397 0.203385 0.500000
O O9 0.934271 0.211340 0.500000
O O10 0.388214 0.466311 0.277082
O O11 0.379025 0.563889 0.000000
#
# Coordination Sequence:
#
# PCOD9543482 Si02
#       5
#     8   8   4   4   8
#     4   9  18  33  54  79 106 136 168 207 256 302
#     4   9  18  33  51  73 102 132 166 207 248 297
#     4  10  21  37  54  76 104 132 168 213 255 305
#     4  10  22  37  54  75  98 128 166 210 261 307
#     4   8  14  26  45  69  99 135 169 199 234 280
#
# _framework density 17.579795000000001
#
# number of rings (size 3 to 8) (size 9 to 14) (size 15 to 20)
#    0.000    3.000    0.000    1.125    0.000    3.250 
#    0.000    6.250    0.000    1.500    0.000    7.000 
#    0.000    0.000    0.000    0.000    0.000    0.000 
#
# Total GULP energy -178442.086133 kJ/mol
# GULP energy per Si atom -5576.315192 kJ/mol
# Density = 1.753978 g / cm^3
# Si number density = 17.579795 Si / 1000 Ang^3
#
#
#
# Elastic Constant Matrix: (Units=GPa)
#
#
# Indices 1 2 3 4 5 6 
#
# 1 133.2353 94.0731 48.6961 0.0000 0.0000 -19.9995
# 2 94.0731 133.2353 48.6961 0.0000 0.0000 19.9995
# 3 48.6961 48.6961 73.1059 0.0000 0.0000 0.0000
# 4 0.0000 0.0000 0.0000 -7.0679 0.0000 0.0000
# 5 0.0000 0.0000 0.0000 0.0000 -7.0679 0.0000
# 6 -19.9995 19.9995 0.0000 0.0000 0.0000 32.6431
#
#
#
# Elastic Compliance Matrix: (Units=1/GPa)
#
#
# Indices 1 2 3 4 5 6 
#
# 1 0.037194 -0.031037 -0.004101 0.000000 0.000000 0.041803
# 2 -0.031037 0.037194 -0.004101 0.000000 0.000000 -0.041803
# 3 -0.004101 -0.004101 0.019142 0.000000 0.000000 0.000000
# 4 0.000000 0.000000 0.000000 -0.141484 0.000000 0.000000
# 5 0.000000 0.000000 0.000000 0.000000 -0.141484 0.000000
# 6 0.041803 -0.041803 0.000000 0.000000 0.000000 0.081858
#
#
# Mechanical properties :
#
#
# Convention : Reuss Voigt Hill
#
# Bulk Modulus (GPa) = 66.43864 80.27858 73.35861
# Shear Modulus (GPa) = -207.58177 13.57553 -97.00312
#
# Velocity S-wave (km/s) = -10.87824 2.78191 -7.43630
# Velocity P-wave (km/s) = 10.95020 7.48886 5.64906
#
# Compressibility (1/GPa) = 0.01505148
#
# Stress axis : x y z
#
# Youngs Moduli (GPa) = 26.88624 26.88624 52.24160
#
# Poissons Ratio (x) = 0.83448 0.21423
# Poissons Ratio (y) = 0.83448 0.21423
# Poissons Ratio (z) = 0.11025 0.11025
#
# Static dielectric constant tensor:
#      x y z
#    x 1.568880 0.000000 0.000000 
#    y 0.000000 1.568880 0.000000 
#    z 0.000000 0.000000 1.646790 
# 
# From -- ./inp_files/461.got.cif
#   From: 2010.05.17/outbox.cif.g08.bks.cpg/sg83_1_cif.got.tgz:461.got - 2010.06.03 18:55:12.
