data_PCOD9543555
_publ_section_title
;
Structure prediction by ZEFSAII (Michael W. Deem and Ramdas Pophale) SiO2 
 PCOD9543555
Probable space group: P 4/M
;
_chemical_formula_sum "Si O2"
_cell_formula_units_Z 40
_cell_length_a 7.531486
_cell_length_b 7.531486
_cell_length_c 29.061687
_cell_angle_alpha 90.000000
_cell_angle_beta 90.000000
_cell_angle_gamma 90.000000
_cell_volume 1648.474249
_symmetry_space_group_name_H-M "P 4/M"
_symmetry_group_IT_number 83
_symmetry_cell_setting 'tetragonal'
loop_
_space_group_symop_operation_xyz
x,y,z
-y,x,z
-x,-y,z
y,-x,z
-x,-y,-z
y,-x,-z
x,y,-z
-y,x,-z
loop_
_atom_site_type_symbol
_atom_site_label
_atom_site_fract_x
_atom_site_fract_y
_atom_site_fract_z
Si Si1 0.000000 0.500000 0.079163
Si Si2 0.887435 0.722696 0.000000
Si Si3 0.772661 0.393571 0.845466
Si Si4 0.728445 0.866433 0.352382
Si Si5 0.273331 0.121988 0.746205
Si Si6 0.269797 0.137454 0.549221
O O1 0.090715 0.640225 0.113698
O O2 0.134379 0.398178 0.045123
O O3 0.096387 0.778514 0.000000
O O4 0.720362 0.597750 0.851028
O O5 0.836700 0.370142 0.793359
O O6 0.638855 0.830185 0.303090
O O7 0.641025 0.821521 0.401569
O O8 0.922615 0.773538 0.352402
O O9 0.085510 0.224151 0.746773
O O10 0.357744 0.180722 0.500000
O O11 0.074276 0.227808 0.549214
#
# Coordination Sequence:
#
# PCOD9543555 Si02
#       6
#     4   4   8   8   8   8
#     4  11  22  40  62  84 114 146 173 206 252 298
#     4  10  22  40  64  92 116 140 174 211 244 286
#     4  11  23  37  54  78 108 141 177 216 257 302
#     4   7  10  17  30  51  81 118 160 203 248 300
#     4   9  17  30  49  72 100 137 178 218 261 309
#     4   7   8  10  19  39  71 111 151 192 242 298
#
# _framework density 24.264861
#
# number of rings (size 3 to 8) (size 9 to 14) (size 15 to 20)
#    0.000    3.100    0.000    5.400    0.000    0.000 
#    0.000    2.000    0.000    4.800    0.000    0.000 
#    0.000    1.600    0.000   19.700    0.000   21.600 
#
# Total GULP energy -223343.905326 kJ/mol
# GULP energy per Si atom -5583.597633 kJ/mol
# Density = 2.420963 g / cm^3
# Si number density = 24.264861 Si / 1000 Ang^3
#
#
#
# Elastic Constant Matrix: (Units=GPa)
#
#
# Indices 1 2 3 4 5 6 
#
# 1 47.9996 -2.1055 27.5503 0.0000 0.0000 2.3479
# 2 -2.1055 47.9996 27.5503 0.0000 0.0000 -2.3479
# 3 27.5503 27.5503 273.6447 0.0000 0.0000 0.0000
# 4 0.0000 0.0000 0.0000 -11.8558 0.0000 0.0000
# 5 0.0000 0.0000 0.0000 0.0000 -11.8558 0.0000
# 6 2.3479 -2.3479 0.0000 0.0000 0.0000 1.6727
#
#
#
# Elastic Compliance Matrix: (Units=1/GPa)
#
#
# Indices 1 2 3 4 5 6 
#
# 1 0.023883 0.000902 -0.002495 0.000000 0.000000 -0.032257
# 2 0.000902 0.023883 -0.002495 0.000000 0.000000 0.032257
# 3 -0.002495 -0.002495 0.004157 0.000000 0.000000 0.000000
# 4 0.000000 0.000000 0.000000 -0.084347 0.000000 0.000000
# 5 0.000000 0.000000 0.000000 0.000000 -0.084347 0.000000
# 6 -0.032257 0.032257 0.000000 0.000000 0.000000 0.688375
#
#
# Mechanical properties :
#
#
# Convention : Reuss Voigt Hill
#
# Bulk Modulus (GPa) = 22.85930 52.84825 37.85377
# Shear Modulus (GPa) = 8.41235 16.70215 12.55725
#
# Velocity S-wave (km/s) = 1.86398 2.62644 2.27735
# Velocity P-wave (km/s) = 3.75150 5.56998 4.74860
#
# Compressibility (1/GPa) = 0.04374588
#
# Stress axis : x y z
#
# Youngs Moduli (GPa) = 41.87046 41.87046 240.56760
#
# Poissons Ratio (x) = -0.03777 0.60030
# Poissons Ratio (y) = -0.03777 0.60030
# Poissons Ratio (z) = 0.10448 0.10448
#
# Static dielectric constant tensor:
#      x y z
#    x 1.970950 0.000000 0.000000 
#    y 0.000000 1.970950 0.000000 
#    z 0.000000 0.000000 2.000380 
# 
# From -- ./inp_files/3263.got.cif
#   From: 2010.05.17/outbox.cif.g08.bks.cpg/sg83_2_cif.got.tgz:3263.got - 2010.06.03 18:55:12.
