data_PCOD9543751
_publ_section_title
;
Structure prediction by ZEFSAII (Michael W. Deem and Ramdas Pophale) SiO2 
 PCOD9543751
Probable space group: P 4/M
;
_chemical_formula_sum "Si O2"
_cell_formula_units_Z 44
_cell_length_a 8.058221
_cell_length_b 8.058221
_cell_length_c 30.093122
_cell_angle_alpha 90.000000
_cell_angle_beta 90.000000
_cell_angle_gamma 90.000000
_cell_volume 1954.094641
_symmetry_space_group_name_H-M "P 4/M"
_symmetry_group_IT_number 83
_symmetry_cell_setting 'tetragonal'
loop_
_space_group_symop_operation_xyz
x,y,z
-y,x,z
-x,-y,z
y,-x,z
-x,-y,-z
y,-x,-z
x,y,-z
-y,x,-z
loop_
_atom_site_type_symbol
_atom_site_label
_atom_site_fract_x
_atom_site_fract_y
_atom_site_fract_z
Si Si1 0.917843 0.734162 0.778638
Si Si2 0.235353 0.404008 0.308531
Si Si3 0.397550 0.762991 0.595039
Si Si4 0.908357 0.734874 0.049293
Si Si5 0.766182 0.580678 0.864407
Si Si6 0.604376 0.236989 0.500000
O O1 0.876727 0.642582 0.732859
O O2 0.872426 0.627165 0.821494
O O3 0.103931 0.800257 0.780085
O O4 0.405576 0.296554 0.306077
O O5 0.155561 0.368665 0.357053
O O6 0.295011 0.590056 0.595038
O O7 0.362280 0.848537 0.547563
O O8 0.858719 0.619932 0.089845
O O9 0.097409 0.798072 0.052397
O O10 0.880861 0.662395 0.000000
O O11 0.604955 0.699114 0.862970
O O12 0.705634 0.411206 0.500000
#
# Coordination Sequence:
#
# PCOD9543751 Si02
#       6
#     8   8   8   8   8   4
#     4  11  24  39  54  73  97 128 169 213 254 301
#     4   9  17  30  49  74 102 129 160 201 249 300
#     4   7  10  17  32  58  92 125 154 188 233 286
#     4   9  19  37  60  85 113 145 180 214 246 285
#     4  11  24  39  56  81 110 137 168 209 255 302
#     4   7   8  12  26  52  88 125 154 182 226 283
#
# _framework density 22.516822000000001
#
# number of rings (size 3 to 8) (size 9 to 14) (size 15 to 20)
#    0.000    2.818    0.000    4.909    0.000    8.727 
#    0.000    2.727    0.000    0.000    0.000    1.273 
#    0.000    8.727    0.000    0.000    0.000    0.000 
#
# Total GULP energy -246019.397608 kJ/mol
# GULP energy per Si atom -5591.349946 kJ/mol
# Density = 2.246557 g / cm^3
# Si number density = 22.516822 Si / 1000 Ang^3
#
#
#
# Elastic Constant Matrix: (Units=GPa)
#
#
# Indices 1 2 3 4 5 6 
#
# 1 60.7174 45.7194 62.4326 0.0000 0.0000 -1.7121
# 2 45.7194 60.7174 62.4326 0.0000 0.0000 1.7121
# 3 62.4326 62.4326 259.7386 0.0000 0.0000 0.0000
# 4 0.0000 0.0000 0.0000 104.1510 0.0000 0.0000
# 5 0.0000 0.0000 0.0000 0.0000 104.1510 0.0000
# 6 -1.7121 1.7121 0.0000 0.0000 0.0000 33.4259
#
#
#
# Elastic Compliance Matrix: (Units=1/GPa)
#
#
# Indices 1 2 3 4 5 6 
#
# 1 0.040275 -0.027190 -0.003145 0.000000 0.000000 0.003456
# 2 -0.027190 0.040275 -0.003145 0.000000 0.000000 -0.003456
# 3 -0.003145 -0.003145 0.005362 0.000000 0.000000 0.000000
# 4 0.000000 0.000000 0.000000 0.009601 0.000000 0.000000
# 5 0.000000 0.000000 0.000000 0.000000 0.009601 0.000000
# 6 0.003456 -0.003456 0.000000 0.000000 0.000000 0.030271
#
#
# Mechanical properties :
#
#
# Convention : Reuss Voigt Hill
#
# Bulk Modulus (GPa) = 52.76700 80.26031 66.51365
# Shear Modulus (GPa) = 23.96204 62.38483 43.17344
#
# Velocity S-wave (km/s) = 3.26572 5.26935 4.38355
# Velocity P-wave (km/s) = 6.14046 8.52897 7.43131
#
# Compressibility (1/GPa) = 0.01895124
#
# Stress axis : x y z
#
# Youngs Moduli (GPa) = 24.82935 24.82935 186.49635
#
# Poissons Ratio (x) = 0.67511 0.58657
# Poissons Ratio (y) = 0.67511 0.58657
# Poissons Ratio (z) = 0.07809 0.07809
#
# Static dielectric constant tensor:
#      x y z
#    x 1.818840 0.000000 0.000000 
#    y 0.000000 1.818840 0.000000 
#    z 0.000000 0.000000 1.849810 
# 
# From -- ./inp_files/3362.got.cif
#   From: 2010.05.17/outbox.cif.g08.bks.cpg/sg83_2_cif.got.tgz:3362.got - 2010.06.03 18:55:12.
