data_PCOD9543355
_publ_section_title
;
Structure prediction by ZEFSAII (Michael W. Deem and Ramdas Pophale) SiO2 
 PCOD9543355
Probable space group: P 4/M
;
_chemical_formula_sum "Si O2"
_cell_formula_units_Z 64
_cell_length_a 20.487325
_cell_length_b 20.487325
_cell_length_c 8.515802
_cell_angle_alpha 90.000000
_cell_angle_beta 90.000000
_cell_angle_gamma 90.000000
_cell_volume 3574.341709
_symmetry_space_group_name_H-M "P 4/M"
_symmetry_group_IT_number 83
_symmetry_cell_setting 'tetragonal'
loop_
_space_group_symop_operation_xyz
x,y,z
-y,x,z
-x,-y,z
y,-x,z
-x,-y,-z
y,-x,-z
x,y,-z
-y,x,-z
loop_
_atom_site_type_symbol
_atom_site_label
_atom_site_fract_x
_atom_site_fract_y
_atom_site_fract_z
Si Si1 0.365350 0.063803 0.690510
Si Si2 0.787485 0.709857 0.315804
Si Si3 0.569257 0.416543 0.682723
Si Si4 0.711695 0.593580 0.822363
Si Si5 0.493576 0.906080 0.680343
Si Si6 0.653249 0.079353 0.691733
Si Si7 0.204701 0.672396 0.185648
Si Si8 0.755407 0.462542 0.677928
O O1 0.367291 0.070138 0.500000
O O2 0.441569 0.058955 0.745525
O O3 0.333921 0.129572 0.757700
O O4 0.330608 0.995606 0.730568
O O5 0.788481 0.725801 0.500000
O O6 0.753924 0.639022 0.291075
O O7 0.861705 0.699931 0.256170
O O8 0.740403 0.761485 0.231751
O O9 0.587186 0.491428 0.708419
O O10 0.581370 0.400317 0.500000
O O11 0.604820 0.364591 0.790324
O O12 0.723316 0.517540 0.785317
O O13 0.729419 0.609486 0.000000
O O14 0.486183 0.928568 0.500000
O O15 0.421289 0.909551 0.750385
O O16 0.515711 0.831032 0.676004
O O17 0.652053 0.084310 0.500000
O O18 0.243161 0.611895 0.265560
O O19 0.207131 0.663272 0.000000
O O20 0.729379 0.466810 0.500000
#
# Coordination Sequence:
#
# PCOD9543355 Si02
#       8
#     8   8   8   8   8   8   8   8
#     4   9  17  31  55  81 106 138 176 215 261 318
#     4  11  22  38  57  77 105 143 185 222 262 314
#     4   9  20  39  58  71  85 115 167 222 271 327
#     4  12  24  35  50  75 105 132 164 216 276 326
#     4   8  13  25  48  77 102 127 165 210 250 297
#     4   9  16  29  53  83 106 132 177 224 259 308
#     4  11  23  38  53  76 109 142 178 222 271 315
#     4  10  19  35  56  73  96 135 180 217 257 312
#
# _framework density 17.905394999999999
#
# number of rings (size 3 to 8) (size 9 to 14) (size 15 to 20)
#    0.000    2.125    1.250    4.500    1.750    2.000 
#    0.000    1.875    0.000    1.500    0.000    0.000 
#    0.000    0.500    0.000    5.750    0.000    2.250 
#
# Total GULP energy -357105.670657 kJ/mol
# GULP energy per Si atom -5579.776104 kJ/mol
# Density = 1.786464 g / cm^3
# Si number density = 17.905395 Si / 1000 Ang^3
#
#
#
# Elastic Constant Matrix: (Units=GPa)
#
#
# Indices 1 2 3 4 5 6 
#
# 1 148.2016 -33.3553 6.8162 0.0000 0.0000 -0.9539
# 2 -33.3553 148.2016 6.8162 0.0000 0.0000 0.9539
# 3 6.8162 6.8162 28.6352 0.0000 0.0000 0.0000
# 4 0.0000 0.0000 0.0000 3.2326 0.0000 0.0000
# 5 0.0000 0.0000 0.0000 0.0000 3.2326 0.0000
# 6 -0.9539 0.9539 0.0000 0.0000 0.0000 20.9812
#
#
#
# Elastic Compliance Matrix: (Units=1/GPa)
#
#
# Indices 1 2 3 4 5 6 
#
# 1 0.007236 0.001725 -0.002133 0.000000 0.000000 0.000251
# 2 0.001725 0.007236 -0.002133 0.000000 0.000000 -0.000251
# 3 -0.002133 -0.002133 0.035937 0.000000 0.000000 0.000000
# 4 0.000000 0.000000 0.000000 0.309352 0.000000 0.000000
# 5 0.000000 0.000000 0.000000 0.000000 0.309352 0.000000
# 6 0.000251 -0.000251 0.000000 0.000000 0.000000 0.047685
#
#
# Mechanical properties :
#
#
# Convention : Reuss Voigt Hill
#
# Bulk Modulus (GPa) = 22.06205 31.73252 26.89729
# Shear Modulus (GPa) = 6.78437 28.47335 17.62886
#
# Velocity S-wave (km/s) = 1.94865 3.99207 3.14117
# Velocity P-wave (km/s) = 4.17267 6.24577 5.31135
#
# Compressibility (1/GPa) = 0.04532671
#
# Stress axis : x y z
#
# Youngs Moduli (GPa) = 138.20729 138.20729 27.82615
#
# Poissons Ratio (x) = -0.23840 0.05935
# Poissons Ratio (y) = -0.23840 0.05935
# Poissons Ratio (z) = 0.29478 0.29478
#
# Static dielectric constant tensor:
#      x y z
#    x 1.640930 0.000000 0.000000 
#    y 0.000000 1.640930 0.000000 
#    z 0.000000 0.000000 1.609760 
# 
# From -- ./inp_files/1269.got.cif
#   From: 2010.05.17/outbox.cif.g08.bks.cpg/sg83_1_cif.got.tgz:1269.got - 2010.06.03 18:55:12.
