data_PCOD9543516
_publ_section_title
;
Structure prediction by ZEFSAII (Michael W. Deem and Ramdas Pophale) SiO2 
 PCOD9543516
Probable space group: P 4/M
;
_chemical_formula_sum "Si O2"
_cell_formula_units_Z 64
_cell_length_a 11.665459
_cell_length_b 11.665459
_cell_length_c 25.721975
_cell_angle_alpha 90.000000
_cell_angle_beta 90.000000
_cell_angle_gamma 90.000000
_cell_volume 3500.321818
_symmetry_space_group_name_H-M "P 4/M"
_symmetry_group_IT_number 83
_symmetry_cell_setting 'tetragonal'
loop_
_space_group_symop_operation_xyz
x,y,z
-y,x,z
-x,-y,z
y,-x,z
-x,-y,-z
y,-x,-z
x,y,-z
-y,x,-z
loop_
_atom_site_type_symbol
_atom_site_label
_atom_site_fract_x
_atom_site_fract_y
_atom_site_fract_z
Si Si1 0.187449 0.044963 0.558923
Si Si2 0.910701 0.829499 0.209738
Si Si3 0.002538 0.372294 0.640523
Si Si4 0.606157 0.820976 0.854713
Si Si5 0.203897 0.326961 0.294002
Si Si6 0.361797 0.001670 0.943375
Si Si7 0.590821 0.825998 0.267388
Si Si8 0.336018 0.802190 0.123782
O O1 0.232994 0.055725 0.500000
O O2 0.281806 0.056838 0.603117
O O3 0.081531 0.131857 0.564187
O O4 0.869995 0.764952 0.261395
O O5 0.866470 0.746109 0.164643
O O6 0.045662 0.852728 0.207292
O O7 0.934259 0.382566 0.695497
O O8 0.000000 0.500000 0.617782
O O9 0.133966 0.338357 0.652492
O O10 0.658403 0.916199 0.893829
O O11 0.621862 0.843829 0.793235
O O12 0.671825 0.705726 0.871890
O O13 0.469776 0.813890 0.862710
O O14 0.199384 0.455154 0.270418
O O15 0.331687 0.276897 0.290346
O O16 0.500000 0.000000 0.946605
O O17 0.321096 0.873589 0.929285
O O18 0.317982 0.039560 0.000000
#
# Coordination Sequence:
#
# PCOD9543516 Si02
#       8
#     8   8   8   8   8   8   8   8
#     4   9  18  35  57  79 107 145 184 228 284 335
#     4  11  22  35  53  78 106 141 180 221 267 316
#     4  10  22  33  53  80 112 147 186 231 272 321
#     4  11  21  36  60  81 109 148 178 224 278 326
#     4  11  22  35  52  78 116 146 186 224 272 325
#     4   9  21  38  57  78 102 136 179 219 265 325
#     4  11  21  35  54  81 111 150 183 225 274 326
#     4  11  22  36  57  82 110 141 183 225 270 330
#
# _framework density 18.284033999999998
#
# number of rings (size 3 to 8) (size 9 to 14) (size 15 to 20)
#    0.000    1.625    2.500    2.625    1.750    2.750 
#    0.000    2.500    0.000    0.000    0.000    6.125 
#    0.000    0.000    0.000   23.250    0.000    0.125 
#
# Total GULP energy -356878.585353 kJ/mol
# GULP energy per Si atom -5576.227896 kJ/mol
# Density = 1.824242 g / cm^3
# Si number density = 18.284034 Si / 1000 Ang^3
#
#
#
# Elastic Constant Matrix: (Units=GPa)
#
#
# Indices 1 2 3 4 5 6 
#
# 1 101.0421 31.0074 21.8210 0.0000 0.0000 -5.8391
# 2 31.0074 101.0421 21.8210 0.0000 0.0000 5.8391
# 3 21.8210 21.8210 64.7811 0.0000 0.0000 0.0000
# 4 0.0000 0.0000 0.0000 14.9224 0.0000 0.0000
# 5 0.0000 0.0000 0.0000 0.0000 14.9224 0.0000
# 6 -5.8391 5.8391 0.0000 0.0000 0.0000 31.9346
#
#
#
# Elastic Compliance Matrix: (Units=1/GPa)
#
#
# Indices 1 2 3 4 5 6 
#
# 1 0.011625 -0.003103 -0.002870 0.000000 0.000000 0.002693
# 2 -0.003103 0.011625 -0.002870 0.000000 0.000000 -0.002693
# 3 -0.002870 -0.002870 0.017370 0.000000 0.000000 0.000000
# 4 0.000000 0.000000 0.000000 0.067013 0.000000 0.000000
# 5 0.000000 0.000000 0.000000 0.000000 0.067013 0.000000
# 6 0.002693 -0.002693 0.000000 0.000000 0.000000 0.032299
#
#
# Mechanical properties :
#
#
# Convention : Reuss Voigt Hill
#
# Bulk Modulus (GPa) = 43.60756 46.24049 44.92403
# Shear Modulus (GPa) = 21.52606 25.17028 23.34817
#
# Velocity S-wave (km/s) = 3.43492 3.71432 3.57735
# Velocity P-wave (km/s) = 6.29551 6.61361 6.45652
#
# Compressibility (1/GPa) = 0.02293180
#
# Stress axis : x y z
#
# Youngs Moduli (GPa) = 86.02425 86.02425 57.56933
#
# Poissons Ratio (x) = 0.26694 0.16525
# Poissons Ratio (y) = 0.26694 0.16525
# Poissons Ratio (z) = 0.24693 0.24693
#
# Static dielectric constant tensor:
#      x y z
#    x 1.649790 0.000000 0.000000 
#    y 0.000000 1.649790 0.000000 
#    z 0.000000 0.000000 1.648870 
# 
# From -- ./inp_files/3212.got.cif
#   From: 2010.05.17/outbox.cif.g08.bks.cpg/sg83_2_cif.got.tgz:3212.got - 2010.06.03 18:55:12.
