data_PCOD9543464
_publ_section_title
;
Structure prediction by ZEFSAII (Michael W. Deem and Ramdas Pophale) SiO2 
 PCOD9543464
Probable space group: P 4/M
;
_chemical_formula_sum "Si O2"
_cell_formula_units_Z 52
_cell_length_a 17.795537
_cell_length_b 17.795537
_cell_length_c 8.213830
_cell_angle_alpha 90.000000
_cell_angle_beta 90.000000
_cell_angle_gamma 90.000000
_cell_volume 2601.165024
_symmetry_space_group_name_H-M "P 4/M"
_symmetry_group_IT_number 83
_symmetry_cell_setting 'tetragonal'
loop_
_space_group_symop_operation_xyz
x,y,z
-y,x,z
-x,-y,z
y,-x,z
-x,-y,-z
y,-x,-z
x,y,-z
-y,x,-z
loop_
_atom_site_type_symbol
_atom_site_label
_atom_site_fract_x
_atom_site_fract_y
_atom_site_fract_z
Si Si1 0.925755 0.454579 0.196424
Si Si2 0.023999 0.712092 0.803143
Si Si3 0.212538 0.447769 0.690710
Si Si4 0.862730 0.162794 0.317395
Si Si5 0.074387 0.099731 0.000000
Si Si6 0.513858 0.378946 0.196801
Si Si7 0.846673 0.710540 0.192363
O O1 0.938856 0.367849 0.237546
O O2 0.850622 0.490915 0.265520
O O3 0.000000 0.500000 0.250300
O O4 0.922180 0.460807 0.000000
O O5 0.072586 0.776452 0.717396
O O6 0.935483 0.708359 0.761218
O O7 0.028548 0.722312 0.000000
O O8 0.210212 0.433192 0.500000
O O9 0.295429 0.474611 0.739448
O O10 0.189583 0.370267 0.777973
O O11 0.871179 0.132424 0.500000
O O12 0.777725 0.192471 0.292173
O O13 0.867351 0.103561 0.169485
O O14 0.985715 0.101148 0.000000
O O15 0.580795 0.435923 0.246833
O O16 0.514047 0.376361 0.000000
O O17 0.841695 0.726875 0.000000
#
# Coordination Sequence:
#
# PCOD9543464 Si02
#       7
#     8   8   8   8   4   8   8
#     4  10  20  40  65  91 121 164 216 262 318 390
#     4  10  21  40  67  91 122 168 214 269 332 394
#     4  12  25  38  60  98 138 172 212 265 330 397
#     4  12  25  41  64  96 129 167 218 273 331 395
#     4  11  24  44  66  90 123 165 213 266 328 394
#     4   9  20  42  70  95 122 167 224 274 324 385
#     4  11  22  42  67  89 124 170 221 272 328 389
#
# _framework density 19.991043000000001
#
# number of rings (size 3 to 8) (size 9 to 14) (size 15 to 20)
#    0.000    1.308    3.077    3.231    0.000    5.846 
#    0.000    3.077    0.000    0.000    0.000    0.000 
#    0.000    0.000    0.000    0.000    0.000    0.000 
#
# Total GULP energy -290605.845158 kJ/mol
# GULP energy per Si atom -5588.573945 kJ/mol
# Density = 1.994554 g / cm^3
# Si number density = 19.991043 Si / 1000 Ang^3
#
#
#
# Elastic Constant Matrix: (Units=GPa)
#
#
# Indices 1 2 3 4 5 6 
#
# 1 120.0325 38.2864 26.1700 0.0000 0.0000 10.9739
# 2 38.2864 120.0325 26.1700 0.0000 0.0000 -10.9739
# 3 26.1700 26.1700 83.9419 0.0000 0.0000 0.0000
# 4 0.0000 0.0000 0.0000 -9.5196 0.0000 0.0000
# 5 0.0000 0.0000 0.0000 0.0000 -9.5196 0.0000
# 6 10.9739 -10.9739 0.0000 0.0000 0.0000 47.5455
#
#
#
# Elastic Compliance Matrix: (Units=1/GPa)
#
#
# Indices 1 2 3 4 5 6 
#
# 1 0.010042 -0.002999 -0.002195 0.000000 0.000000 -0.003010
# 2 -0.002999 0.010042 -0.002195 0.000000 0.000000 0.003010
# 3 -0.002195 -0.002195 0.013282 0.000000 0.000000 0.000000
# 4 0.000000 0.000000 0.000000 -0.105046 0.000000 0.000000
# 5 0.000000 0.000000 0.000000 0.000000 -0.105046 0.000000
# 6 -0.003010 0.003010 0.000000 0.000000 0.000000 0.022422
#
#
# Mechanical properties :
#
#
# Convention : Reuss Voigt Hill
#
# Bulk Modulus (GPa) = 53.80871 56.13996 54.97434
# Shear Modulus (GPa) = -37.50116 21.25995 -8.12060
#
# Velocity S-wave (km/s) = -4.33586 3.26463 -2.01766
# Velocity P-wave (km/s) = 1.38151 6.50799 4.70439
#
# Compressibility (1/GPa) = 0.01858435
#
# Stress axis : x y z
#
# Youngs Moduli (GPa) = 99.58508 99.58508 75.29013
#
# Poissons Ratio (x) = 0.29870 0.16530
# Poissons Ratio (y) = 0.29870 0.16530
# Poissons Ratio (z) = 0.21864 0.21864
#
# Static dielectric constant tensor:
#      x y z
#    x 1.701170 0.000000 0.000000 
#    y 0.000000 1.701170 0.000000 
#    z 0.000000 0.000000 1.701830 
# 
# From -- ./inp_files/974.got.cif
#   From: 2010.05.17/outbox.cif.g08.bks.cpg/sg83_1_cif.got.tgz:974.got - 2010.06.03 18:55:12.
