data_PCOD9543034
_publ_section_title
;
Structure prediction by ZEFSAII (Michael W. Deem and Ramdas Pophale) SiO2 
 PCOD9543034
Probable space group: I -4 
;
_chemical_formula_sum "Si O2"
_cell_formula_units_Z 40
_cell_length_a 10.783536
_cell_length_b 10.783536
_cell_length_c 15.335192
_cell_angle_alpha 90.000000
_cell_angle_beta 90.000000
_cell_angle_gamma 90.000000
_cell_volume 1783.247414
_symmetry_space_group_name_H-M "I -4 "
_symmetry_group_IT_number 82
_symmetry_cell_setting 'tetragonal'
loop_
_space_group_symop_operation_xyz
x,y,z
y,-x,-z
-x,-y,z
-y,x,-z
1/2+x,1/2+y,1/2+z
1/2+y,1/2-x,1/2-z
1/2-x,1/2-y,1/2+z
1/2-y,1/2+x,1/2-z
loop_
_atom_site_type_symbol
_atom_site_label
_atom_site_fract_x
_atom_site_fract_y
_atom_site_fract_z
Si Si1 0.203768 0.582627 0.462462
Si Si2 0.956857 0.146767 0.882004
Si Si3 0.128446 0.925385 0.280252
Si Si4 0.412018 0.660750 0.966843
Si Si5 0.833528 0.564159 0.297680
O O1 0.313402 0.641992 0.404411
O O2 0.271153 0.525287 0.545923
O O3 0.115007 0.696454 0.485470
O O4 0.149935 0.478569 0.397334
O O5 0.983960 0.199937 0.785696
O O6 0.000000 0.000000 0.889055
O O7 0.155431 0.880798 0.377365
O O8 0.116387 0.801196 0.222033
O O9 0.000000 0.000000 0.290116
O O10 0.560347 0.637649 0.963217
O O11 0.943143 0.651862 0.264509
#
# Coordination Sequence:
#
# PCOD9543034 Si02
#       5
#     8   8   8   8   8
#     4  12  21  42  65  95 130 167 220 280 333 392
#     4  11  21  39  65  95 122 170 222 270 327 396
#     4  11  20  40  65  86 127 169 216 265 319 410
#     4  11  25  44  63  94 131 178 218 268 349 410
#     4  11  23  38  63 101 129 163 221 281 337 384
#
# _framework density 22.430986000000001
#
# number of rings (size 3 to 8) (size 9 to 14) (size 15 to 20)
#    0.000    0.800   10.000    0.000    0.000    3.200 
#    3.600    0.000    0.000    0.000    0.000    0.000 
#    0.000    0.000    0.000    0.000    0.000    0.000 
#
# Total GULP energy -111626.837199 kJ/mol
# GULP energy per Si atom -5581.341860 kJ/mol
# Density = 2.237993 g / cm^3
# Si number density = 22.430986 Si / 1000 Ang^3
#
#
#
# Elastic Constant Matrix: (Units=GPa)
#
#
# Indices 1 2 3 4 5 6 
#
# 1 34.0262 -16.5240 -2.7047 0.0000 0.0000 8.9548
# 2 -16.5240 34.0262 -2.7047 0.0000 0.0000 -8.9548
# 3 -2.7047 -2.7047 134.3948 0.0000 0.0000 0.0000
# 4 0.0000 0.0000 0.0000 21.4563 0.0000 0.0000
# 5 0.0000 0.0000 0.0000 0.0000 21.4563 0.0000
# 6 8.9548 -8.9548 0.0000 0.0000 0.0000 33.8356
#
#
#
# Elastic Compliance Matrix: (Units=1/GPa)
#
#
# Indices 1 2 3 4 5 6 
#
# 1 0.039661 0.017832 0.001157 0.000000 0.000000 -0.005777
# 2 0.017832 0.039661 0.001157 0.000000 0.000000 0.005777
# 3 0.001157 0.001157 0.007487 0.000000 0.000000 0.000000
# 4 0.000000 0.000000 0.000000 0.046606 0.000000 0.000000
# 5 0.000000 0.000000 0.000000 0.000000 0.046606 0.000000
# 6 -0.005777 0.005777 0.000000 0.000000 0.000000 0.032613
#
#
# Mechanical properties :
#
#
# Convention : Reuss Voigt Hill
#
# Bulk Modulus (GPa) = 7.86765 17.62002 12.74384
# Shear Modulus (GPa) = 23.28720 30.30834 26.79777
#
# Velocity S-wave (km/s) = 3.22556 3.67983 3.46016
# Velocity P-wave (km/s) = 4.16982 5.09187 4.65374
#
# Compressibility (1/GPa) = 0.12710268
#
# Stress axis : x y z
#
# Youngs Moduli (GPa) = 25.21347 25.21347 133.55881
#
# Poissons Ratio (x) = -0.44961 -0.15454
# Poissons Ratio (y) = -0.44961 -0.15454
# Poissons Ratio (z) = -0.02917 -0.02917
#
# Static dielectric constant tensor:
#      x y z
#    x 1.866230 0.000000 0.000000 
#    y 0.000000 1.866230 0.000000 
#    z 0.000000 0.000000 1.911230 
# 
# From -- ./inp_files/2171.got.cif
#   From: 2010.05.17/outbox.cif.g08.bks.cpg/sg82_2_cif.got.tgz:2171.got - 2010.06.03 18:52:26.
