data_PCOD9543941
_publ_section_title
;
Structure prediction by ZEFSAII (Michael W. Deem and Ramdas Pophale) SiO2 
 PCOD9543941
Probable space group: P 42/M
;
_chemical_formula_sum "Si O2"
_cell_formula_units_Z 48
_cell_length_a 16.902228
_cell_length_b 16.902228
_cell_length_c 7.980217
_cell_angle_alpha 90.000000
_cell_angle_beta 90.000000
_cell_angle_gamma 90.000000
_cell_volume 2279.830778
_symmetry_space_group_name_H-M "P 42/M"
_symmetry_group_IT_number 84
_symmetry_cell_setting 'tetragonal'
loop_
_space_group_symop_operation_xyz
x,y,z
-y,x,1/2+z
-x,-y,z
y,-x,1/2+z
-x,-y,-z
y,-x,1/2-z
x,y,-z
-y,x,1/2-z
loop_
_atom_site_type_symbol
_atom_site_label
_atom_site_fract_x
_atom_site_fract_y
_atom_site_fract_z
Si Si1 0.385519 0.756695 0.294591
Si Si2 0.885105 0.743341 0.797395
Si Si3 0.085851 0.912262 0.306567
Si Si4 0.127842 0.513723 0.191930
Si Si5 0.385034 0.994357 0.807474
Si Si6 0.585693 0.587802 0.193316
O O1 0.388270 0.757274 0.500000
O O2 0.314886 0.814695 0.242556
O O3 0.469148 0.795057 0.237145
O O4 0.373734 0.666502 0.242899
O O5 0.874033 0.833316 0.742269
O O6 0.966580 0.702991 0.735594
O O7 0.887247 0.744082 0.000000
O O8 0.071286 0.889838 0.500000
O O9 0.006729 0.898433 0.202824
O O10 0.062410 0.442765 0.199995
O O11 0.084186 0.587393 0.277761
O O12 0.142429 0.535128 0.000000
O O13 0.401477 0.974926 0.000000
O O14 0.601628 0.493332 0.202644
O O15 0.571094 0.609829 0.000000
#
# Coordination Sequence:
#
# PCOD9543941 Si02
#       6
#     8   8   8   8   8   8
#     4   8  16  31  52  73  96 128 168 206 245 294
#     4   9  18  34  53  73  98 135 171 203 249 306
#     4  10  20  35  57  78 101 131 169 208 248 297
#     4   9  15  27  45  64  92 133 171 200 239 302
#     4  10  17  25  41  69 100 129 163 206 247 289
#     4  10  19  34  54  75  98 128 166 207 246 294
#
# _framework density 21.054193000000001
#
# number of rings (size 3 to 8) (size 9 to 14) (size 15 to 20)
#    0.000    2.667    0.000    6.000    0.000    1.333 
#    0.000   10.000    0.000    4.000    0.000    0.000 
#    0.000    0.000    0.000    0.000    0.000    0.000 
#
# Total GULP energy -267561.103564 kJ/mol
# GULP energy per Si atom -5574.189658 kJ/mol
# Density = 2.100627 g / cm^3
# Si number density = 21.054193 Si / 1000 Ang^3
#
#
#
# Elastic Constant Matrix: (Units=GPa)
#
#
# Indices 1 2 3 4 5 6 
#
# 1 48.0379 -3.5567 -4.9378 0.0000 0.0000 -0.0177
# 2 -3.5567 48.0379 -4.9378 0.0000 0.0000 0.0177
# 3 -4.9378 -4.9378 38.1302 0.0000 0.0000 0.0000
# 4 0.0000 0.0000 0.0000 -25.4147 0.0000 0.0000
# 5 0.0000 0.0000 0.0000 0.0000 -25.4147 0.0000
# 6 -0.0177 0.0177 0.0000 0.0000 0.0000 8.8392
#
#
#
# Elastic Compliance Matrix: (Units=1/GPa)
#
#
# Indices 1 2 3 4 5 6 
#
# 1 0.021264 0.001883 0.002997 0.000000 0.000000 0.000039
# 2 0.001883 0.021264 0.002997 0.000000 0.000000 -0.000039
# 3 0.002997 0.002997 0.027002 0.000000 0.000000 0.000000
# 4 0.000000 0.000000 0.000000 -0.039347 0.000000 0.000000
# 5 0.000000 0.000000 0.000000 0.000000 -0.039347 0.000000
# 6 0.000039 -0.000039 0.000000 0.000000 0.000000 0.113132
#
#
# Mechanical properties :
#
#
# Convention : Reuss Voigt Hill
#
# Bulk Modulus (GPa) = 11.72524 11.92681 11.82603
# Shear Modulus (GPa) = 42.86606 1.44450 22.15528
#
# Velocity S-wave (km/s) = 4.51709 0.82920 3.24743
# Velocity P-wave (km/s) = 5.72596 2.56786 4.43737
#
# Compressibility (1/GPa) = 0.08528611
#
# Stress axis : x y z
#
# Youngs Moduli (GPa) = 47.02694 47.02694 37.03388
#
# Poissons Ratio (x) = -0.08853 -0.11101
# Poissons Ratio (y) = -0.08853 -0.11101
# Poissons Ratio (z) = -0.14096 -0.14096
#
# Static dielectric constant tensor:
#      x y z
#    x 1.795410 0.000000 0.000000 
#    y 0.000000 1.795410 0.000000 
#    z 0.000000 0.000000 1.712710 
# 
# From -- ./inp_files/976.got.cif
#   From: 2010.05.17/outbox.cif.g08.bks.cpg/sg84_1_cif.got.tgz:976.got - 2010.06.03 18:57:40.
