data_PCOD9543899
_publ_section_title
;
Structure prediction by ZEFSAII (Michael W. Deem and Ramdas Pophale) SiO2 
 PCOD9543899
Probable space group: P 4/M
;
_chemical_formula_sum "Si O2"
_cell_formula_units_Z 33
_cell_length_a 8.584675
_cell_length_b 8.584675
_cell_length_c 21.854593
_cell_angle_alpha 90.000000
_cell_angle_beta 90.000000
_cell_angle_gamma 90.000000
_cell_volume 1610.610179
_symmetry_space_group_name_H-M "P 4/M"
_symmetry_group_IT_number 83
_symmetry_cell_setting 'tetragonal'
loop_
_space_group_symop_operation_xyz
x,y,z
-y,x,z
-x,-y,z
y,-x,z
-x,-y,-z
y,-x,-z
x,y,-z
-y,x,-z
loop_
_atom_site_type_symbol
_atom_site_label
_atom_site_fract_x
_atom_site_fract_y
_atom_site_fract_z
Si Si1 0.750791 0.911974 0.000000
Si Si2 0.000000 0.000000 0.500000
Si Si3 0.736246 0.385429 0.378570
Si Si4 0.248991 0.088155 0.866911
Si Si5 0.329367 0.074778 0.500000
Si Si6 0.255348 0.598406 0.757186
O O1 0.674431 0.884376 0.933983
O O2 0.909445 0.810294 0.000000
O O3 0.043755 0.185362 0.500000
O O4 0.699253 0.569280 0.382118
O O5 0.834530 0.330538 0.435591
O O6 0.807406 0.363474 0.310862
O O7 0.354663 0.139909 0.810917
O O8 0.090164 0.190919 0.863577
O O9 0.500000 0.000000 0.500000
O O10 0.305552 0.417822 0.761937
#
# Coordination Sequence:
#
# PCOD9543899 Si02
#       6
#     4   1   8   8   4   8
#     4   7  12  26  50  71 102 138 180 227 274 339
#     4  12  28  44  60 104 132 148 204 270 300 360
#     4   9  18  37  63  84 108 156 207 238 286 367
#     4   9  17  32  52  80 105 139 183 231 286 340
#     4  12  24  43  64  89 128 162 192 252 318 354
#     4   9  19  36  54  76 110 147 188 231 275 338
#
# _framework density 20.489129999999999
#
# number of rings (size 3 to 8) (size 9 to 14) (size 15 to 20)
#    0.000    2.788    0.000    5.091    0.000    1.939 
#   13.091    1.212    0.000    5.818    0.000    0.000 
#    0.000    0.000    0.000    0.000    0.000    0.000 
#
# Total GULP energy -183861.432766 kJ/mol
# GULP energy per Si atom -5571.558569 kJ/mol
# Density = 2.044250 g / cm^3
# Si number density = 20.489130 Si / 1000 Ang^3
#
#
#
# Elastic Constant Matrix: (Units=GPa)
#
#
# Indices 1 2 3 4 5 6 
#
# 1 30.2878 21.8666 44.9035 0.0000 0.0000 -1.9106
# 2 21.8666 30.2878 44.9035 0.0000 0.0000 1.9106
# 3 44.9035 44.9035 209.4534 0.0000 0.0000 0.0000
# 4 0.0000 0.0000 0.0000 -61.3125 0.0000 0.0000
# 5 0.0000 0.0000 0.0000 0.0000 -61.3125 0.0000
# 6 -1.9106 1.9106 0.0000 0.0000 0.0000 23.5828
#
#
#
# Elastic Compliance Matrix: (Units=1/GPa)
#
#
# Indices 1 2 3 4 5 6 
#
# 1 0.076837 -0.046443 -0.006516 0.000000 0.000000 0.009988
# 2 -0.046443 0.076837 -0.006516 0.000000 0.000000 -0.009988
# 3 -0.006516 -0.006516 0.007568 0.000000 0.000000 0.000000
# 4 0.000000 0.000000 0.000000 -0.016310 0.000000 0.000000
# 5 0.000000 0.000000 0.000000 0.000000 -0.016310 0.000000
# 6 0.009988 -0.009988 0.000000 0.000000 0.000000 0.044022
#
#
# Mechanical properties :
#
#
# Convention : Reuss Voigt Hill
#
# Bulk Modulus (GPa) = 23.64500 54.81959 39.23230
# Shear Modulus (GPa) = 16.35641 -9.25141 3.55250
#
# Velocity S-wave (km/s) = 2.82848 -2.12722 1.31819
# Velocity P-wave (km/s) = 4.71512 4.55852 4.63748
#
# Compressibility (1/GPa) = 0.04229224
#
# Stress axis : x y z
#
# Youngs Moduli (GPa) = 13.01463 13.01463 132.13203
#
# Poissons Ratio (x) = 0.60443 0.86097
# Poissons Ratio (y) = 0.60443 0.86097
# Poissons Ratio (z) = 0.08480 0.08480
#
# Static dielectric constant tensor:
#      x y z
#    x 1.760930 0.000000 0.000000 
#    y 0.000000 1.760930 0.000000 
#    z 0.000000 0.000000 1.749110 
# 
# From -- ./inp_files/2879.got.cif
#   From: 2010.05.17/outbox.cif.g08.bks.cpg/sg83_2_cif.got.tgz:2879.got - 2010.06.03 18:55:12.
