data_PCOD9543546
_publ_section_title
;
Structure prediction by ZEFSAII (Michael W. Deem and Ramdas Pophale) SiO2 
 PCOD9543546
Probable space group: P 4/M
;
_chemical_formula_sum "Si O2"
_cell_formula_units_Z 58
_cell_length_a 17.806757
_cell_length_b 17.806757
_cell_length_c 7.870036
_cell_angle_alpha 90.000000
_cell_angle_beta 90.000000
_cell_angle_gamma 90.000000
_cell_volume 2495.435696
_symmetry_space_group_name_H-M "P 4/M"
_symmetry_group_IT_number 83
_symmetry_cell_setting 'tetragonal'
loop_
_space_group_symop_operation_xyz
x,y,z
-y,x,z
-x,-y,z
y,-x,z
-x,-y,-z
y,-x,-z
x,y,-z
-y,x,-z
loop_
_atom_site_type_symbol
_atom_site_label
_atom_site_fract_x
_atom_site_fract_y
_atom_site_fract_z
Si Si1 0.372525 0.799564 0.704875
Si Si2 0.941397 0.721493 0.698542
Si Si3 0.893942 0.330041 0.192590
Si Si4 0.489544 0.895481 0.811964
Si Si5 0.661935 0.730811 0.201901
Si Si6 0.000000 0.500000 0.500000
Si Si7 0.044731 0.110610 0.795776
Si Si8 0.387495 0.547014 0.792510
O O1 0.374667 0.795213 0.500000
O O2 0.455128 0.813443 0.779827
O O3 0.327758 0.728834 0.773021
O O4 0.329322 0.874708 0.771352
O O5 0.932139 0.715124 0.500000
O O6 0.027284 0.698475 0.735708
O O7 0.929082 0.807657 0.747175
O O8 0.895641 0.420492 0.193528
O O9 0.812415 0.314579 0.274769
O O10 0.893212 0.300412 0.000000
O O11 0.466114 0.945503 0.651149
O O12 0.466826 0.922339 0.000000
O O13 0.588189 0.687791 0.269123
O O14 0.649886 0.743982 0.000000
O O15 0.959437 0.094762 0.735491
O O16 0.043902 0.107152 0.000000
O O17 0.404437 0.461330 0.741289
O O18 0.385810 0.547592 0.000000
#
# Coordination Sequence:
#
# PCOD9543546 Si02
#       8
#     8   8   8   8   8   2   8   8
#     4  11  25  44  62  93 130 174 221 270 328 392
#     4  11  25  40  62  87 123 164 207 258 315 379
#     4  10  24  42  63  96 127 167 218 268 327 391
#     4  11  24  42  69  97 131 174 221 276 333 396
#     4  10  22  39  64  95 131 167 215 273 327 394
#     4  12  22  40  68  98 132 164 228 274 328 402
#     4   9  20  40  65  90 116 150 195 252 314 375
#     4   8  15  30  58  94 127 162 205 259 322 383
#
# _framework density 23.242436000000001
#
# number of rings (size 3 to 8) (size 9 to 14) (size 15 to 20)
#    0.000    1.931    0.690    2.690    6.759    4.414 
#    0.000    0.690    0.000    0.000    0.000    0.966 
#    0.000    0.000    0.000    0.000    0.000    0.000 
#
# Total GULP energy -323482.044333 kJ/mol
# GULP energy per Si atom -5577.276626 kJ/mol
# Density = 2.318954 g / cm^3
# Si number density = 23.242436 Si / 1000 Ang^3
#
#
#
# Elastic Constant Matrix: (Units=GPa)
#
#
# Indices 1 2 3 4 5 6 
#
# 1 51.5025 8.5681 2.5740 0.0000 0.0000 -0.5802
# 2 8.5681 51.5025 2.5740 0.0000 0.0000 0.5802
# 3 2.5740 2.5740 73.9123 0.0000 0.0000 0.0000
# 4 0.0000 0.0000 0.0000 13.5524 0.0000 0.0000
# 5 0.0000 0.0000 0.0000 0.0000 13.5524 0.0000
# 6 -0.5802 0.5802 0.0000 0.0000 0.0000 24.8261
#
#
#
# Elastic Compliance Matrix: (Units=1/GPa)
#
#
# Indices 1 2 3 4 5 6 
#
# 1 0.020002 -0.003305 -0.000581 0.000000 0.000000 0.000545
# 2 -0.003305 0.020002 -0.000581 0.000000 0.000000 -0.000545
# 3 -0.000581 -0.000581 0.013570 0.000000 0.000000 0.000000
# 4 0.000000 0.000000 0.000000 0.073788 0.000000 0.000000
# 5 0.000000 0.000000 0.000000 0.000000 0.073788 0.000000
# 6 0.000545 -0.000545 0.000000 0.000000 0.000000 0.040306
#
#
# Mechanical properties :
#
#
# Convention : Reuss Voigt Hill
#
# Bulk Modulus (GPa) = 22.40244 22.70550 22.55397
# Shear Modulus (GPa) = 18.84886 21.26627 20.05757
#
# Velocity S-wave (km/s) = 2.85084 3.02814 2.94083
# Velocity P-wave (km/s) = 4.52724 4.69216 4.61044
#
# Compressibility (1/GPa) = 0.04463800
#
# Stress axis : x y z
#
# Youngs Moduli (GPa) = 49.99624 49.99624 73.69175
#
# Poissons Ratio (x) = 0.16522 0.04285
# Poissons Ratio (y) = 0.16522 0.04285
# Poissons Ratio (z) = 0.02907 0.02907
#
# Static dielectric constant tensor:
#      x y z
#    x 1.920000 0.000000 0.000000 
#    y 0.000000 1.920000 0.000000 
#    z 0.000000 0.000000 1.826130 
# 
# From -- ./inp_files/1103.got.cif
#   From: 2010.05.17/outbox.cif.g08.bks.cpg/sg83_1_cif.got.tgz:1103.got - 2010.06.03 18:55:12.
