data_PCOD9543262
_publ_section_title
;
Structure prediction by ZEFSAII (Michael W. Deem and Ramdas Pophale) SiO2 
 PCOD9543262
Probable space group: P 4/M
;
_chemical_formula_sum "Si O2"
_cell_formula_units_Z 36
_cell_length_a 15.274737
_cell_length_b 15.274737
_cell_length_c 8.809562
_cell_angle_alpha 90.000000
_cell_angle_beta 90.000000
_cell_angle_gamma 90.000000
_cell_volume 2055.425778
_symmetry_space_group_name_H-M "P 4/M"
_symmetry_group_IT_number 83
_symmetry_cell_setting 'tetragonal'
loop_
_space_group_symop_operation_xyz
x,y,z
-y,x,z
-x,-y,z
y,-x,z
-x,-y,-z
y,-x,-z
x,y,-z
-y,x,-z
loop_
_atom_site_type_symbol
_atom_site_label
_atom_site_fract_x
_atom_site_fract_y
_atom_site_fract_z
Si Si1 0.930296 0.747191 0.185290
Si Si2 0.129330 0.772447 0.183295
Si Si3 0.453437 0.907909 0.182819
Si Si4 0.205919 0.598803 0.328234
Si Si5 0.371344 0.569699 0.500000
O O1 0.855903 0.814729 0.236010
O O2 0.909717 0.647553 0.232496
O O3 0.028221 0.772833 0.233716
O O4 0.930214 0.747400 0.000000
O O5 0.174284 0.683078 0.237503
O O6 0.129145 0.772850 0.000000
O O7 0.511319 0.830963 0.252543
O O8 0.500000 0.000000 0.222547
O O9 0.455256 0.900974 0.000000
O O10 0.169105 0.604021 0.500000
O O11 0.310162 0.595319 0.357077
O O12 0.385661 0.465377 0.500000
#
# Coordination Sequence:
#
# PCOD9543262 Si02
#       5
#     8   8   8   8   4
#     4   9  19  32  55  80 108 147 180 223 271 322
#     4  10  19  36  54  79 112 144 185 224 271 325
#     4  10  18  33  54  79 112 143 172 221 281 320
#     4  10  22  33  56  82 104 137 184 224 271 322
#     4   9  22  42  57  74 110 147 178 219 279 338
#
# _framework density 17.514620000000001
#
# number of rings (size 3 to 8) (size 9 to 14) (size 15 to 20)
#    0.667    1.667    2.222    0.667    3.111    0.889 
#    0.000    3.333    0.000    0.000    0.000    7.778 
#    0.000    0.000    0.000    0.000    0.000    0.000 
#
# Total GULP energy -200580.628303 kJ/mol
# GULP energy per Si atom -5571.684120 kJ/mol
# Density = 1.747476 g / cm^3
# Si number density = 17.514620 Si / 1000 Ang^3
#
#
#
# Elastic Constant Matrix: (Units=GPa)
#
#
# Indices 1 2 3 4 5 6 
#
# 1 131.3253 86.1786 13.7499 0.0000 0.0000 -6.9209
# 2 86.1786 131.3253 13.7499 0.0000 0.0000 6.9209
# 3 13.7499 13.7499 9.3627 0.0000 0.0000 0.0000
# 4 0.0000 0.0000 0.0000 17.4817 0.0000 0.0000
# 5 0.0000 0.0000 0.0000 0.0000 17.4817 0.0000
# 6 -6.9209 6.9209 0.0000 0.0000 0.0000 31.2185
#
#
#
# Elastic Compliance Matrix: (Units=1/GPa)
#
#
# Indices 1 2 3 4 5 6 
#
# 1 0.014706 -0.009060 -0.008291 0.000000 0.000000 0.005269
# 2 -0.009060 0.014706 -0.008291 0.000000 0.000000 -0.005269
# 3 -0.008291 -0.008291 0.131160 0.000000 0.000000 0.000000
# 4 0.000000 0.000000 0.000000 0.057203 0.000000 0.000000
# 5 0.000000 0.000000 0.000000 0.000000 0.057203 0.000000
# 6 0.005269 -0.005269 0.000000 0.000000 0.000000 0.034368
#
#
# Mechanical properties :
#
#
# Convention : Reuss Voigt Hill
#
# Bulk Modulus (GPa) = 9.15031 55.48555 32.31793
# Shear Modulus (GPa) = 12.59259 23.79204 18.19231
#
# Velocity S-wave (km/s) = 2.68428 3.68966 3.22637
# Velocity P-wave (km/s) = 3.85265 7.06398 5.68958
#
# Compressibility (1/GPa) = 0.10928587
#
# Stress axis : x y z
#
# Youngs Moduli (GPa) = 68.00117 68.00117 7.62428
#
# Poissons Ratio (x) = 0.61607 0.06322
# Poissons Ratio (y) = 0.61607 0.06322
# Poissons Ratio (z) = 0.56383 0.56383
#
# Static dielectric constant tensor:
#      x y z
#    x 1.585280 0.000000 0.000000 
#    y 0.000000 1.585280 0.000000 
#    z 0.000000 0.000000 1.594490 
# 
# From -- ./inp_files/512.got.cif
#   From: 2010.05.17/outbox.cif.g08.bks.cpg/sg83_1_cif.got.tgz:512.got - 2010.06.03 18:55:12.
