data_PCOD9543215
_publ_section_title
;
Structure prediction by ZEFSAII (Michael W. Deem and Ramdas Pophale) SiO2 
 PCOD9543215
Probable space group: I -4 
;
_chemical_formula_sum "Si O2"
_cell_formula_units_Z 28
_cell_length_a 15.000000
_cell_length_b 15.000000
_cell_length_c 12.000000
_cell_angle_alpha 90.000000
_cell_angle_beta 90.000000
_cell_angle_gamma 90.000000
_cell_volume 2700.000000
_symmetry_space_group_name_H-M "I -4 "
_symmetry_group_IT_number 82
_symmetry_cell_setting 'tetragonal'
loop_
_space_group_symop_operation_xyz
x,y,z
y,-x,-z
-x,-y,z
-y,x,-z
1/2+x,1/2+y,1/2+z
1/2+y,1/2-x,1/2-z
1/2-x,1/2-y,1/2+z
1/2-y,1/2+x,1/2-z
loop_
_atom_site_type_symbol
_atom_site_label
_atom_site_fract_x
_atom_site_fract_y
_atom_site_fract_z
Si Si1 0.501834 0.299579 0.624300
Si Si2 0.533145 0.831755 0.067041
Si Si3 0.365818 0.434294 0.716218
Si Si4 0.874849 0.021594 0.450273
Si Si5 0.494849 0.138693 0.798254
Si Si6 0.173881 0.363024 0.764574
Si Si7 0.807188 0.112234 0.090649
O O1 0.451236 0.388510 0.663316
O O2 0.501419 0.232564 0.730744
O O3 0.603595 0.324004 0.583503
O O4 0.432850 0.270196 0.524606
O O5 0.552894 0.726488 0.049891
O O6 0.443693 0.841477 0.144759
O O7 0.610394 0.868383 0.152964
O O8 0.519807 0.862532 0.935394
O O9 0.387257 0.464526 0.839894
O O10 0.276604 0.372891 0.724192
O O11 0.339858 0.524002 0.653506
O O12 0.947188 0.100000 0.457351
O O13 0.583576 0.084899 0.761462
O O14 0.155234 0.271557 0.833611
#
# Coordination Sequence:
#
# PCOD9543215 Si02
#       7
#     8   8   8   8   8   8   8
#     4  12  27  46  77 103 153 195 239 311 370 442
#     4  11  25  46  72 106 140 191 244 303 367 431
#     4  11  25  45  67 111 139 187 247 292 372 428
#     4  10  22  40  69 100 137 179 231 301 361 431
#     4  11  28  48  69 103 145 195 246 298 372 444
#     4  11  25  48  75 109 143 188 254 304 360 444
#     4  12  25  47  72 109 144 193 246 300 369 439
#
# _framework density 10.370369999999999
#
# number of rings (size 3 to 8) (size 9 to 14) (size 15 to 20)
#    0.000    0.857    4.286    2.143   10.000    2.571 
#    5.143    0.000    0.000    0.000    0.000    0.000 
#    0.000    0.000    0.000    0.000    0.000    0.000 
#
# Total GULP energy -156210.433753 kJ/mol
# GULP energy per Si atom -5578.944063 kJ/mol
# Density = 1.034677 g / cm^3
# Si number density = 10.370370 Si / 1000 Ang^3
#
#
#
# Elastic Constant Matrix: (Units=GPa)
#
#
# Indices 1 2 3 4 5 6 
#
# 1 37.9168 -25.4532 35.2960 0.0000 0.0000 6.3066
# 2 -25.4532 37.9168 35.2960 0.0000 0.0000 -6.3066
# 3 35.2960 35.2960 132.5895 0.0000 0.0000 0.0000
# 4 0.0000 0.0000 0.0000 39.8808 0.0000 0.0000
# 5 0.0000 0.0000 0.0000 0.0000 39.8808 0.0000
# 6 6.3066 -6.3066 0.0000 0.0000 0.0000 31.9758
#
#
#
# Elastic Compliance Matrix: (Units=1/GPa)
#
#
# Indices 1 2 3 4 5 6 
#
# 1 -0.070796 -0.087221 0.042065 0.000000 0.000000 -0.003240
# 2 -0.087221 -0.070796 0.042065 0.000000 0.000000 0.003240
# 3 0.042065 0.042065 -0.014854 0.000000 0.000000 0.000000
# 4 0.000000 0.000000 0.000000 0.025075 0.000000 0.000000
# 5 0.000000 0.000000 0.000000 0.000000 0.025075 0.000000
# 6 -0.003240 0.003240 0.000000 0.000000 0.000000 0.032551
#
#
# Mechanical properties :
#
#
# Convention : Reuss Voigt Hill
#
# Bulk Modulus (GPa) = -6.14904 33.18897 13.51996
# Shear Modulus (GPa) = -41.06084 33.23312 -3.91386
#
# Velocity S-wave (km/s) = -4.45423 4.00723 -1.37519
# Velocity P-wave (km/s) = 5.42445 6.11940 2.00280
#
# Compressibility (1/GPa) = -0.16262697
#
# Stress axis : x y z
#
# Youngs Moduli (GPa) = -14.12519 -14.12519 -67.32350
#
# Poissons Ratio (x) = -1.23201 2.83195
# Poissons Ratio (y) = -1.23201 2.83195
# Poissons Ratio (z) = 0.59417 0.59417
#
# Static dielectric constant tensor:
#      x y z
#    x 1.752110 0.000000 0.000000 
#    y 0.000000 1.752110 0.000000 
#    z 0.000000 0.000000 1.849930 
# 
# From -- ./inp_files/1846.got.cif
#   From: 2010.05.17/outbox.ucp.g08.bks.cvg/sg82_1_cif.got.tgz:1846.got - 2010.06.11 10:34:38.
