data_PCOD9543577
_publ_section_title
;
Structure prediction by ZEFSAII (Michael W. Deem and Ramdas Pophale) SiO2 
 PCOD9543577
Probable space group: P 4/M
;
_chemical_formula_sum "Si O2"
_cell_formula_units_Z 48
_cell_length_a 12.092847
_cell_length_b 12.092847
_cell_length_c 19.411016
_cell_angle_alpha 90.000000
_cell_angle_beta 90.000000
_cell_angle_gamma 90.000000
_cell_volume 2838.607748
_symmetry_space_group_name_H-M "P 4/M"
_symmetry_group_IT_number 83
_symmetry_cell_setting 'tetragonal'
loop_
_space_group_symop_operation_xyz
x,y,z
-y,x,z
-x,-y,z
y,-x,z
-x,-y,-z
y,-x,-z
x,y,-z
-y,x,-z
loop_
_atom_site_type_symbol
_atom_site_label
_atom_site_fract_x
_atom_site_fract_y
_atom_site_fract_z
Si Si1 0.883122 0.146018 0.424834
Si Si2 0.461476 0.681982 0.580667
Si Si3 0.816279 0.033871 0.078995
Si Si4 0.876023 0.510953 0.685777
Si Si5 0.859013 0.260271 0.715927
Si Si6 0.911906 0.710636 0.216139
O O1 0.848341 0.189598 0.500000
O O2 0.839112 0.211192 0.359848
O O3 0.016907 0.148950 0.421615
O O4 0.373735 0.582677 0.592048
O O5 0.454909 0.714035 0.500000
O O6 0.447195 0.785720 0.631234
O O7 0.724661 0.054466 0.136910
O O8 0.915182 0.123528 0.088103
O O9 0.777343 0.040965 0.000000
O O10 0.841730 0.390490 0.712021
O O11 0.890190 0.591551 0.750902
O O12 0.000000 0.500000 0.654196
O O13 0.781740 0.196317 0.768420
O O14 0.985456 0.240252 0.739661
#
# Coordination Sequence:
#
# PCOD9543577 Si02
#       6
#     8   8   8   8   8   8
#     4   9  17  29  46  70  97 126 170 220 261 303
#     4   9  18  36  60  76  89 123 182 242 277 298
#     4   9  17  30  53  86 112 131 164 211 255 297
#     4  10  23  35  46  73 108 141 173 204 259 321
#     4  11  20  32  52  73 103 139 176 214 261 307
#     4  11  20  33  53  76 104 139 168 210 257 311
#
# _framework density 16.909697000000001
#
# number of rings (size 3 to 8) (size 9 to 14) (size 15 to 20)
#    0.000    2.167    3.333    2.500    0.000    1.333 
#    0.000    3.333    0.000    5.500    0.000    0.000 
#    0.000    0.000    0.000    5.167    0.000    0.000 
#
# Total GULP energy -267757.936011 kJ/mol
# GULP energy per Si atom -5578.290334 kJ/mol
# Density = 1.687121 g / cm^3
# Si number density = 16.909697 Si / 1000 Ang^3
#
#
#
# Elastic Constant Matrix: (Units=GPa)
#
#
# Indices 1 2 3 4 5 6 
#
# 1 44.1042 19.0945 30.0477 0.0000 0.0000 -5.6305
# 2 19.0945 44.1042 30.0477 0.0000 0.0000 5.6305
# 3 30.0477 30.0477 126.0975 0.0000 0.0000 0.0000
# 4 0.0000 0.0000 0.0000 16.9333 0.0000 0.0000
# 5 0.0000 0.0000 0.0000 0.0000 16.9333 0.0000
# 6 -5.6305 5.6305 0.0000 0.0000 0.0000 12.3834
#
#
#
# Elastic Compliance Matrix: (Units=1/GPa)
#
#
# Indices 1 2 3 4 5 6 
#
# 1 0.035368 -0.014909 -0.004875 0.000000 0.000000 0.022860
# 2 -0.014909 0.035368 -0.004875 0.000000 0.000000 -0.022860
# 3 -0.004875 -0.004875 0.010254 0.000000 0.000000 0.000000
# 4 0.000000 0.000000 0.000000 0.059055 0.000000 0.000000
# 5 0.000000 0.000000 0.000000 0.000000 0.059055 0.000000
# 6 0.022860 -0.022860 0.000000 0.000000 0.000000 0.101541
#
#
# Mechanical properties :
#
#
# Convention : Reuss Voigt Hill
#
# Bulk Modulus (GPa) = 31.57465 41.40951 36.49208
# Shear Modulus (GPa) = 13.86892 18.25774 16.06333
#
# Velocity S-wave (km/s) = 2.86698 3.28947 3.08547
# Velocity P-wave (km/s) = 5.44724 6.24254 5.85840
#
# Compressibility (1/GPa) = 0.03167098
#
# Stress axis : x y z
#
# Youngs Moduli (GPa) = 28.27392 28.27392 97.52515
#
# Poissons Ratio (x) = 0.42155 0.47545
# Poissons Ratio (y) = 0.42155 0.47545
# Poissons Ratio (z) = 0.13784 0.13784
#
# Static dielectric constant tensor:
#      x y z
#    x 1.587800 0.000000 0.000000 
#    y 0.000000 1.587800 0.000000 
#    z 0.000000 0.000000 1.563540 
# 
# From -- ./inp_files/2641.got.cif
#   From: 2010.05.17/outbox.cif.g08.bks.cpg/sg83_2_cif.got.tgz:2641.got - 2010.06.03 18:55:12.
