data_PCOD9543637
_publ_section_title
;
Structure prediction by ZEFSAII (Michael W. Deem and Ramdas Pophale) SiO2 
 PCOD9543637
Probable space group: P 4/M
;
_chemical_formula_sum "Si O2"
_cell_formula_units_Z 60
_cell_length_a 11.270228
_cell_length_b 11.270228
_cell_length_c 21.466137
_cell_angle_alpha 90.000000
_cell_angle_beta 90.000000
_cell_angle_gamma 90.000000
_cell_volume 2726.586630
_symmetry_space_group_name_H-M "P 4/M"
_symmetry_group_IT_number 83
_symmetry_cell_setting 'tetragonal'
loop_
_space_group_symop_operation_xyz
x,y,z
-y,x,z
-x,-y,z
y,-x,z
-x,-y,-z
y,-x,-z
x,y,-z
-y,x,-z
loop_
_atom_site_type_symbol
_atom_site_label
_atom_site_fract_x
_atom_site_fract_y
_atom_site_fract_z
Si Si1 0.846084 0.123144 0.500000
Si Si2 0.804435 0.999280 0.074560
Si Si3 0.069895 0.190953 0.735956
Si Si4 0.515753 0.699416 0.825914
Si Si5 0.902892 0.677801 0.395606
Si Si6 0.571253 0.686630 0.690931
Si Si7 0.588575 0.834528 0.573278
Si Si8 0.606381 0.073972 0.162783
O O1 0.981097 0.155309 0.500000
O O2 0.774931 0.158065 0.439431
O O3 0.679528 0.007023 0.109008
O O4 0.885357 0.114530 0.091434
O O5 0.791300 0.998832 0.000000
O O6 0.102042 0.288178 0.788465
O O7 0.931254 0.147094 0.739625
O O8 0.090234 0.263232 0.671999
O O9 0.397581 0.618359 0.833977
O O10 0.562970 0.748993 0.758274
O O11 0.468989 0.813915 0.862214
O O12 0.037281 0.647348 0.417149
O O13 0.843287 0.552422 0.410759
O O14 0.434851 0.644461 0.689130
O O15 0.622733 0.755709 0.632577
O O16 0.600536 0.799612 0.500000
O O17 0.500000 0.000000 0.193400
#
# Coordination Sequence:
#
# PCOD9543637 Si02
#       8
#     4   8   8   8   8   8   8   8
#     4  11  22  37  56  76 100 139 192 237 296 384
#     4   9  20  43  73 102 139 186 227 271 325 373
#     4  11  26  44  63  92 129 163 206 272 335 389
#     4   9  21  41  63  88 128 176 221 267 322 389
#     4  11  22  40  58  78 110 149 191 247 309 384
#     4   9  20  38  57  77 105 146 195 250 304 366
#     4  11  22  38  56  81 111 142 190 250 315 387
#     4  12  26  37  66 103 136 173 219 267 323 386
#
# _framework density 22.005534999999998
#
# number of rings (size 3 to 8) (size 9 to 14) (size 15 to 20)
#    0.000    1.667    1.333    4.000    7.467    6.133 
#    0.000    0.667    0.000    0.000    0.000    0.933 
#    0.000    0.000    0.000    0.000    0.000    0.000 
#
# Total GULP energy -334312.435700 kJ/mol
# GULP energy per Si atom -5571.873928 kJ/mol
# Density = 2.195545 g / cm^3
# Si number density = 22.005535 Si / 1000 Ang^3
#
#
#
# Elastic Constant Matrix: (Units=GPa)
#
#
# Indices 1 2 3 4 5 6 
#
# 1 78.0639 2.3703 8.5864 0.0000 0.0000 10.3474
# 2 2.3703 78.0639 8.5864 0.0000 0.0000 -10.3474
# 3 8.5864 8.5864 49.4330 0.0000 0.0000 0.0000
# 4 0.0000 0.0000 0.0000 32.0958 0.0000 0.0000
# 5 0.0000 0.0000 0.0000 0.0000 32.0958 0.0000
# 6 10.3474 -10.3474 0.0000 0.0000 0.0000 32.0521
#
#
#
# Elastic Compliance Matrix: (Units=1/GPa)
#
#
# Indices 1 2 3 4 5 6 
#
# 1 0.013701 -0.000789 -0.002243 0.000000 0.000000 -0.004678
# 2 -0.000789 0.013701 -0.002243 0.000000 0.000000 0.004678
# 3 -0.002243 -0.002243 0.021009 0.000000 0.000000 0.000000
# 4 0.000000 0.000000 0.000000 0.031157 0.000000 0.000000
# 5 0.000000 0.000000 0.000000 0.000000 0.031157 0.000000
# 6 -0.004678 0.004678 0.000000 0.000000 0.000000 0.034220
#
#
# Mechanical properties :
#
#
# Convention : Reuss Voigt Hill
#
# Bulk Modulus (GPa) = 26.41277 27.18301 26.79789
# Shear Modulus (GPa) = 29.74198 31.64990 30.69594
#
# Velocity S-wave (km/s) = 3.68036 3.79657 3.73891
# Velocity P-wave (km/s) = 5.48533 5.62123 5.55370
#
# Compressibility (1/GPa) = 0.03786047
#
# Stress axis : x y z
#
# Youngs Moduli (GPa) = 72.98891 72.98891 47.59974
#
# Poissons Ratio (x) = 0.05761 0.10675
# Poissons Ratio (y) = 0.05761 0.10675
# Poissons Ratio (z) = 0.16369 0.16369
#
# Static dielectric constant tensor:
#      x y z
#    x 1.879460 0.000000 0.000000 
#    y 0.000000 1.879460 0.000000 
#    z 0.000000 0.000000 1.847470 
# 
# From -- ./inp_files/3049.got.cif
#   From: 2010.05.17/outbox.cif.g08.bks.cpg/sg83_2_cif.got.tgz:3049.got - 2010.06.03 18:55:12.
