data_PCOD9543585
_publ_section_title
;
Structure prediction by ZEFSAII (Michael W. Deem and Ramdas Pophale) SiO2 
 PCOD9543585
Probable space group: P 4/M
;
_chemical_formula_sum "Si O2"
_cell_formula_units_Z 34
_cell_length_a 12.431391
_cell_length_b 12.431391
_cell_length_c 11.660236
_cell_angle_alpha 90.000000
_cell_angle_beta 90.000000
_cell_angle_gamma 90.000000
_cell_volume 1801.966834
_symmetry_space_group_name_H-M "P 4/M"
_symmetry_group_IT_number 83
_symmetry_cell_setting 'tetragonal'
loop_
_space_group_symop_operation_xyz
x,y,z
-y,x,z
-x,-y,z
y,-x,z
-x,-y,-z
y,-x,-z
x,y,-z
-y,x,-z
loop_
_atom_site_type_symbol
_atom_site_label
_atom_site_fract_x
_atom_site_fract_y
_atom_site_fract_z
Si Si1 0.898241 0.759104 0.000000
Si Si2 0.500000 0.500000 0.000000
Si Si3 0.786617 0.607513 0.364251
Si Si4 0.300290 0.642819 0.000000
Si Si5 0.229626 0.620767 0.252088
Si Si6 0.009429 0.374351 0.787330
Si Si7 0.000000 0.000000 0.000000
O O1 0.770592 0.729712 0.000000
O O2 0.949427 0.701218 0.111179
O O3 0.926287 0.886197 0.000000
O O4 0.389197 0.425903 0.000000
O O5 0.779581 0.619627 0.500000
O O6 0.756801 0.487220 0.325055
O O7 0.708157 0.688631 0.299194
O O8 0.905622 0.626870 0.315701
O O9 0.251770 0.598790 0.118352
O O10 0.107141 0.659513 0.257273
O O11 0.000000 0.500000 0.825657
#
# Coordination Sequence:
#
# PCOD9543585 Si02
#       7
#     4   1   8   4   8   8   1
#     4  12  23  44  66 103 136 180 231 292 356 431
#     4  12  28  36  68 104 150 180 212 292 344 454
#     4  11  24  41  64  93 129 179 226 281 342 410
#     4  12  24  43  67 102 140 179 223 280 372 426
#     4  11  23  42  64  95 132 170 224 283 344 427
#     4  10  23  40  67  93 129 174 227 288 349 418
#     4  12  28  40  68 100 150 188 232 296 360 430
#
# _framework density 18.868274
#
# number of rings (size 3 to 8) (size 9 to 14) (size 15 to 20)
#    0.000    0.941    2.353    4.588    3.294    5.647 
#    0.000    1.176    0.000    0.000    0.000    2.471 
#    0.000    0.000    0.000    0.000    0.000    0.000 
#
# Total GULP energy -189512.958161 kJ/mol
# GULP energy per Si atom -5573.910534 kJ/mol
# Density = 1.882533 g / cm^3
# Si number density = 18.868274 Si / 1000 Ang^3
#
#
#
# Elastic Constant Matrix: (Units=GPa)
#
#
# Indices 1 2 3 4 5 6 
#
# 1 52.0691 32.2766 11.9752 0.0000 0.0000 12.1862
# 2 32.2766 52.0691 11.9752 0.0000 0.0000 -12.1862
# 3 11.9752 11.9752 102.2526 0.0000 0.0000 0.0000
# 4 0.0000 0.0000 0.0000 -11.0276 0.0000 0.0000
# 5 0.0000 0.0000 0.0000 0.0000 -11.0276 0.0000
# 6 12.1862 -12.1862 0.0000 0.0000 0.0000 9.4880
#
#
#
# Elastic Compliance Matrix: (Units=1/GPa)
#
#
# Indices 1 2 3 4 5 6 
#
# 1 -0.037304 0.049568 -0.001436 0.000000 0.000000 0.111577
# 2 0.049568 -0.037304 -0.001436 0.000000 0.000000 -0.111577
# 3 -0.001436 -0.001436 0.010116 0.000000 0.000000 0.000000
# 4 0.000000 0.000000 0.000000 -0.090681 0.000000 0.000000
# 5 0.000000 0.000000 0.000000 0.000000 -0.090681 0.000000
# 6 0.111577 -0.111577 0.000000 0.000000 0.000000 -0.181219
#
#
# Mechanical properties :
#
#
# Convention : Reuss Voigt Hill
#
# Bulk Modulus (GPa) = 34.60368 35.42722 35.01545
# Shear Modulus (GPa) = -9.78798 7.49746 -1.14526
#
# Velocity S-wave (km/s) = -2.28009 1.99555 -0.77993
# Velocity P-wave (km/s) = 3.38344 4.91187 4.21747
#
# Compressibility (1/GPa) = 0.02889866
#
# Stress axis : x y z
#
# Youngs Moduli (GPa) = -26.80683 -26.80683 98.85215
#
# Poissons Ratio (x) = 1.32875 0.14198
# Poissons Ratio (y) = 1.32875 0.14198
# Poissons Ratio (z) = -0.03850 -0.03850
#
# Static dielectric constant tensor:
#      x y z
#    x 1.670060 0.000000 0.000000 
#    y 0.000000 1.670060 0.000000 
#    z 0.000000 0.000000 1.633940 
# 
# From -- ./inp_files/1606.got.cif
#   From: 2010.05.17/outbox.cif.g08.bks.cpg/sg83_1_cif.got.tgz:1606.got - 2010.06.03 18:55:12.
