data_PCOD9543903
_publ_section_title
;
Structure prediction by ZEFSAII (Michael W. Deem and Ramdas Pophale) SiO2 
 PCOD9543903
Probable space group: P 4/M
;
_chemical_formula_sum "Si O2"
_cell_formula_units_Z 32
_cell_length_a 10.473525
_cell_length_b 10.473525
_cell_length_c 11.654345
_cell_angle_alpha 90.000000
_cell_angle_beta 90.000000
_cell_angle_gamma 90.000000
_cell_volume 1278.420181
_symmetry_space_group_name_H-M "P 4/M"
_symmetry_group_IT_number 83
_symmetry_cell_setting 'tetragonal'
loop_
_space_group_symop_operation_xyz
x,y,z
-y,x,z
-x,-y,z
y,-x,z
-x,-y,-z
y,-x,-z
x,y,-z
-y,x,-z
loop_
_atom_site_type_symbol
_atom_site_label
_atom_site_fract_x
_atom_site_fract_y
_atom_site_fract_z
Si Si1 0.709320 0.476127 0.866602
Si Si2 0.196916 0.912584 0.871703
Si Si3 0.807251 0.725915 0.623447
Si Si4 0.140719 0.543512 0.661930
O O1 0.635982 0.608045 0.839587
O O2 0.837645 0.456313 0.798070
O O3 0.731274 0.471521 0.000000
O O4 0.255412 0.880394 0.745568
O O5 0.062248 0.837307 0.871748
O O6 0.256833 0.884261 0.000000
O O7 0.874874 0.753280 0.500000
O O8 0.773576 0.575386 0.621551
O O9 0.188108 0.680733 0.624166
O O10 0.000000 0.500000 0.629804
#
# Coordination Sequence:
#
# PCOD9543903 Si02
#       4
#     8   8   8   8
#     4   9  18  38  69 102 139 184 235 291 354 426
#     4   9  20  42  71 101 136 181 235 294 352 416
#     4  12  27  46  69  99 142 188 232 292 355 417
#     4  12  26  44  70 103 138 183 238 289 348 425
#
# _framework density 25.030892999999999
#
# number of rings (size 3 to 8) (size 9 to 14) (size 15 to 20)
#    0.000    1.500    2.500    3.750    0.000    8.000 
#    0.000    2.500    0.000    0.000    0.000    0.000 
#    0.000    0.000    0.000    0.000    0.000    0.000 
#
# Total GULP energy -178726.098128 kJ/mol
# GULP energy per Si atom -5585.190566 kJ/mol
# Density = 2.497392 g / cm^3
# Si number density = 25.030893 Si / 1000 Ang^3
#
#
#
# Elastic Constant Matrix: (Units=GPa)
#
#
# Indices 1 2 3 4 5 6 
#
# 1 66.2900 -9.1385 30.1634 0.0000 0.0000 6.6660
# 2 -9.1385 66.2900 30.1634 0.0000 0.0000 -6.6660
# 3 30.1634 30.1634 224.6001 0.0000 0.0000 0.0000
# 4 0.0000 0.0000 0.0000 -3.3082 0.0000 0.0000
# 5 0.0000 0.0000 0.0000 0.0000 -3.3082 0.0000
# 6 6.6660 -6.6660 0.0000 0.0000 0.0000 32.7465
#
#
#
# Elastic Compliance Matrix: (Units=1/GPa)
#
#
# Indices 1 2 3 4 5 6 
#
# 1 0.017070 0.003318 -0.002738 0.000000 0.000000 -0.002800
# 2 0.003318 0.017070 -0.002738 0.000000 0.000000 0.002800
# 3 -0.002738 -0.002738 0.005188 0.000000 0.000000 0.000000
# 4 0.000000 0.000000 0.000000 -0.302282 0.000000 0.000000
# 5 0.000000 0.000000 0.000000 0.000000 -0.302282 0.000000
# 6 -0.002800 0.002800 0.000000 0.000000 0.000000 0.031677
#
#
# Mechanical properties :
#
#
# Convention : Reuss Voigt Hill
#
# Bulk Modulus (GPa) = 28.56270 51.06188 39.81229
# Shear Modulus (GPa) = -9.66050 25.62548 7.98249
#
# Velocity S-wave (km/s) = -1.96667 3.20309 1.78773
# Velocity P-wave (km/s) = 2.50573 5.84153 4.49456
#
# Compressibility (1/GPa) = 0.03501069
#
# Stress axis : x y z
#
# Youngs Moduli (GPa) = 58.58255 58.58255 192.76080
#
# Poissons Ratio (x) = -0.19435 0.52778
# Poissons Ratio (y) = -0.19435 0.52778
# Poissons Ratio (z) = 0.16040 0.16040
#
# Static dielectric constant tensor:
#      x y z
#    x 1.993610 0.000000 0.000000 
#    y 0.000000 1.993610 0.000000 
#    z 0.000000 0.000000 2.050020 
# 
# From -- ./inp_files/1536.got.cif
#   From: 2010.05.17/outbox.cif.g08.bks.cpg/sg83_1_cif.got.tgz:1536.got - 2010.06.03 18:55:12.
