data_PCOD9543204
_publ_section_title
;
Structure prediction by ZEFSAII (Michael W. Deem and Ramdas Pophale) SiO2 
 PCOD9543204
Probable space group: I -4 
;
_chemical_formula_sum "Si O2"
_cell_formula_units_Z 18
_cell_length_a 7.788059
_cell_length_b 7.788059
_cell_length_c 10.659896
_cell_angle_alpha 90.000000
_cell_angle_beta 90.000000
_cell_angle_gamma 90.000000
_cell_volume 646.563871
_symmetry_space_group_name_H-M "I -4 "
_symmetry_group_IT_number 82
_symmetry_cell_setting 'tetragonal'
loop_
_space_group_symop_operation_xyz
x,y,z
y,-x,-z
-x,-y,z
-y,x,-z
1/2+x,1/2+y,1/2+z
1/2+y,1/2-x,1/2-z
1/2-x,1/2-y,1/2+z
1/2-y,1/2+x,1/2-z
loop_
_atom_site_type_symbol
_atom_site_label
_atom_site_fract_x
_atom_site_fract_y
_atom_site_fract_z
Si Si1 0.312417 0.832098 0.599979
Si Si2 0.500000 0.500000 0.000000
Si Si3 0.635578 0.659338 0.661515
O O1 0.504304 0.818746 0.651677
O O2 0.346534 0.742296 0.465518
O O3 0.194658 0.752878 0.713467
O O4 0.182830 0.988316 0.569682
O O5 0.500000 0.500000 0.670005
#
# Coordination Sequence:
#
# PCOD9543204 Si02
#       3
#     8   2   8
#     4  12  26  51  81 119 170 211 286 345 414 503
#     4  12  28  44  80 126 152 228 280 322 432 504
#     4  12  26  54  82 120 166 224 277 347 421 495
#
# _framework density 27.839478
#
# number of rings (size 3 to 8) (size 9 to 14) (size 15 to 20)
#    0.000    0.000    6.667    2.667    0.000    6.222 
#    4.000    0.000    0.000    0.000    0.000    0.000 
#    0.000    0.000    0.000    0.000    0.000    0.000 
#
# Total GULP energy -50142.328282 kJ/mol
# GULP energy per Si atom -5571.369809 kJ/mol
# Density = 2.777611 g / cm^3
# Si number density = 27.839478 Si / 1000 Ang^3
#
#
#
# Elastic Constant Matrix: (Units=GPa)
#
#
# Indices 1 2 3 4 5 6 
#
# 1 85.5466 -7.7011 -1.2113 0.0000 0.0000 -15.9778
# 2 -7.7011 85.5466 -1.2113 0.0000 0.0000 15.9778
# 3 -1.2113 -1.2113 214.0223 0.0000 0.0000 0.0000
# 4 0.0000 0.0000 0.0000 33.2821 0.0000 0.0000
# 5 0.0000 0.0000 0.0000 0.0000 33.2821 0.0000
# 6 -15.9778 15.9778 0.0000 0.0000 0.0000 60.0634
#
#
#
# Elastic Compliance Matrix: (Units=1/GPa)
#
#
# Indices 1 2 3 4 5 6 
#
# 1 0.012324 0.000524 0.000073 0.000000 0.000000 0.003139
# 2 0.000524 0.012324 0.000073 0.000000 0.000000 -0.003139
# 3 0.000073 0.000073 0.004673 0.000000 0.000000 0.000000
# 4 0.000000 0.000000 0.000000 0.030046 0.000000 0.000000
# 5 0.000000 0.000000 0.000000 0.000000 0.030046 0.000000
# 6 0.003139 -0.003139 0.000000 0.000000 0.000000 0.018319
#
#
# Mechanical properties :
#
#
# Convention : Reuss Voigt Hill
#
# Bulk Modulus (GPa) = 32.61522 40.54090 36.57806
# Shear Modulus (GPa) = 42.87659 51.67477 47.27568
#
# Velocity S-wave (km/s) = 3.92871 4.31300 4.12534
# Velocity P-wave (km/s) = 5.68512 6.27667 5.98821
#
# Compressibility (1/GPa) = 0.03066053
#
# Stress axis : x y z
#
# Youngs Moduli (GPa) = 81.14232 81.14232 213.98456
#
# Poissons Ratio (x) = -0.04253 -0.01556
# Poissons Ratio (y) = -0.04253 -0.01556
# Poissons Ratio (z) = -0.00590 -0.00590
#
# Static dielectric constant tensor:
#      x y z
#    x 2.237950 0.000000 0.000000 
#    y 0.000000 2.237950 0.000000 
#    z 0.000000 0.000000 2.343830 
# 
# From -- ./inp_files/1294.got.cif
#   From: 2010.05.17/outbox.cif.g08.bks.cpg/sg82_1_cif.got.tgz:1294.got - 2010.06.03 18:52:26.
