data_PCOD9543861
_publ_section_title
;
Structure prediction by ZEFSAII (Michael W. Deem and Ramdas Pophale) SiO2 
 PCOD9543861
Probable space group: P 4/M
;
_chemical_formula_sum "Si O2"
_cell_formula_units_Z 64
_cell_length_a 10.018348
_cell_length_b 10.018348
_cell_length_c 26.061194
_cell_angle_alpha 90.000000
_cell_angle_beta 90.000000
_cell_angle_gamma 90.000000
_cell_volume 2615.691589
_symmetry_space_group_name_H-M "P 4/M"
_symmetry_group_IT_number 83
_symmetry_cell_setting 'tetragonal'
loop_
_space_group_symop_operation_xyz
x,y,z
-y,x,z
-x,-y,z
y,-x,z
-x,-y,-z
y,-x,-z
x,y,-z
-y,x,-z
loop_
_atom_site_type_symbol
_atom_site_label
_atom_site_fract_x
_atom_site_fract_y
_atom_site_fract_z
Si Si1 0.318827 0.376235 0.938758
Si Si2 0.918179 0.613968 0.126158
Si Si3 0.063176 0.783802 0.694281
Si Si4 0.095148 0.794951 0.580323
Si Si5 0.948729 0.217755 0.198674
Si Si6 0.159007 0.514580 0.554880
Si Si7 0.538695 0.274819 0.779143
Si Si8 0.459112 0.720094 0.663424
O O1 0.465235 0.322043 0.924839
O O2 0.192466 0.318793 0.909164
O O3 0.306222 0.365220 0.000000
O O4 0.835713 0.563668 0.176989
O O5 0.000000 0.500000 0.096879
O O6 0.041026 0.698954 0.148126
O O7 0.088738 0.732562 0.638135
O O8 0.077829 0.707798 0.747588
O O9 0.914031 0.842487 0.694926
O O10 0.171715 0.675515 0.553598
O O11 0.937775 0.831557 0.571474
O O12 0.095769 0.151975 0.198911
O O13 0.212411 0.461912 0.500000
O O14 0.207828 0.451253 0.608516
O O15 0.000000 0.500000 0.554708
O O16 0.648702 0.395539 0.784724
O O17 0.554648 0.218102 0.720648
O O18 0.351113 0.602527 0.663642
#
# Coordination Sequence:
#
# PCOD9543861 Si02
#       8
#     8   8   8   8   8   8   8   8
#     4   9  20  42  70  93 118 161 214 270 326 365
#     4  12  25  33  58  98 131 160 206 249 304 368
#     4   7  12  29  53  75 101 144 195 230 271 337
#     4   9  19  37  61  86 111 147 193 243 304 367
#     4   9  20  37  53  76 124 174 206 241 289 361
#     4  11  26  41  57  85 119 148 189 249 309 366
#     4   9  20  41  64  87 123 160 195 252 314 361
#     4   9  21  44  68  87 112 154 202 247 302 366
#
# _framework density 24.467718000000001
#
# number of rings (size 3 to 8) (size 9 to 14) (size 15 to 20)
#    0.000    2.625    0.000    3.375    5.250    4.750 
#    9.000    1.250    0.000    0.000    0.000    0.875 
#    0.000    0.000    0.000    0.000    0.000    0.000 
#
# Total GULP energy -357162.241468 kJ/mol
# GULP energy per Si atom -5580.660023 kJ/mol
# Density = 2.441203 g / cm^3
# Si number density = 24.467718 Si / 1000 Ang^3
#
#
#
# Elastic Constant Matrix: (Units=GPa)
#
#
# Indices 1 2 3 4 5 6 
#
# 1 56.1306 22.5987 13.5971 0.0000 0.0000 -5.6648
# 2 22.5987 56.1306 13.5971 0.0000 0.0000 5.6648
# 3 13.5971 13.5971 81.1622 0.0000 0.0000 0.0000
# 4 0.0000 0.0000 0.0000 41.5412 0.0000 0.0000
# 5 0.0000 0.0000 0.0000 0.0000 41.5412 0.0000
# 6 -5.6648 5.6648 0.0000 0.0000 0.0000 37.2122
#
#
#
# Elastic Compliance Matrix: (Units=1/GPa)
#
#
# Indices 1 2 3 4 5 6 
#
# 1 0.022461 -0.008979 -0.002259 0.000000 0.000000 0.004786
# 2 -0.008979 0.022461 -0.002259 0.000000 0.000000 -0.004786
# 3 -0.002259 -0.002259 0.013078 0.000000 0.000000 0.000000
# 4 0.000000 0.000000 0.000000 0.024072 0.000000 0.000000
# 5 0.000000 0.000000 0.000000 0.000000 0.024072 0.000000
# 6 0.004786 -0.004786 0.000000 0.000000 0.000000 0.028330
#
#
# Mechanical properties :
#
#
# Convention : Reuss Voigt Hill
#
# Bulk Modulus (GPa) = 32.25067 32.55657 32.40362
# Shear Modulus (GPa) = 29.10332 33.63431 31.36882
#
# Velocity S-wave (km/s) = 3.45259 3.71164 3.58446
# Velocity P-wave (km/s) = 5.39476 5.63055 5.51392
#
# Compressibility (1/GPa) = 0.03100711
#
# Stress axis : x y z
#
# Youngs Moduli (GPa) = 44.52231 44.52231 76.46557
#
# Poissons Ratio (x) = 0.39975 0.17271
# Poissons Ratio (y) = 0.39975 0.17271
# Poissons Ratio (z) = 0.10056 0.10056
#
# Static dielectric constant tensor:
#      x y z
#    x 2.005450 0.000000 0.000000 
#    y 0.000000 2.005450 0.000000 
#    z 0.000000 0.000000 2.015390 
# 
# From -- ./inp_files/3224.got.cif
#   From: 2010.05.17/outbox.cif.g08.bks.cpg/sg83_2_cif.got.tgz:3224.got - 2010.06.03 18:55:12.
