data_PCOD9543044
_publ_section_title
;
Structure prediction by ZEFSAII (Michael W. Deem and Ramdas Pophale) SiO2 
 PCOD9543044
Probable space group: I -4 
;
_chemical_formula_sum "Si O2"
_cell_formula_units_Z 56
_cell_length_a 11.137844
_cell_length_b 11.137844
_cell_length_c 22.742135
_cell_angle_alpha 90.000000
_cell_angle_beta 90.000000
_cell_angle_gamma 90.000000
_cell_volume 2821.197528
_symmetry_space_group_name_H-M "I -4 "
_symmetry_group_IT_number 82
_symmetry_cell_setting 'tetragonal'
loop_
_space_group_symop_operation_xyz
x,y,z
y,-x,-z
-x,-y,z
-y,x,-z
1/2+x,1/2+y,1/2+z
1/2+y,1/2-x,1/2-z
1/2-x,1/2-y,1/2+z
1/2-y,1/2+x,1/2-z
loop_
_atom_site_type_symbol
_atom_site_label
_atom_site_fract_x
_atom_site_fract_y
_atom_site_fract_z
Si Si1 0.145628 0.699802 0.384286
Si Si2 0.739890 0.095283 0.689415
Si Si3 0.681289 0.145452 0.309529
Si Si4 0.731396 0.510398 0.318317
Si Si5 0.436971 0.285631 0.314082
Si Si6 0.938797 0.191366 0.503876
Si Si7 0.903695 0.289655 0.631220
O O1 0.224751 0.806433 0.356966
O O2 0.219459 0.579156 0.368407
O O3 0.113615 0.727221 0.451526
O O4 0.022706 0.707304 0.347503
O O5 0.621579 0.176791 0.686381
O O6 0.852515 0.167861 0.661885
O O7 0.765355 0.059312 0.756469
O O8 0.572534 0.239846 0.307572
O O9 0.741990 0.128985 0.246014
O O10 0.651810 0.011404 0.331424
O O11 0.604313 0.578446 0.324717
O O12 0.380751 0.207017 0.366369
O O13 0.941396 0.259392 0.565572
O O14 0.072250 0.143500 0.489252
#
# Coordination Sequence:
#
# PCOD9543044 Si02
#       7
#     8   8   8   8   8   8   8
#     4  12  23  40  64  99 132 175 225 277 337 410
#     4  11  21  38  65  96 136 175 212 278 339 398
#     4  12  23  40  64  98 136 172 228 275 338 406
#     4  11  23  40  61  97 138 176 222 270 340 417
#     4  11  24  41  62  95 139 180 217 280 335 407
#     4  11  23  42  66  96 135 172 222 283 338 402
#     4  11  23  41  65  97 132 172 224 280 336 399
#
# _framework density 19.849724999999999
#
# number of rings (size 3 to 8) (size 9 to 14) (size 15 to 20)
#    0.000    0.714    7.143    1.714    0.000    1.143 
#    0.000    5.714    0.000    0.000    0.000    4.000 
#    0.000    0.000    0.000    0.000    0.000    0.000 
#
# Total GULP energy -156450.293518 kJ/mol
# GULP energy per Si atom -5587.510483 kJ/mol
# Density = 1.980455 g / cm^3
# Si number density = 19.849725 Si / 1000 Ang^3
#
#
#
# Elastic Constant Matrix: (Units=GPa)
#
#
# Indices 1 2 3 4 5 6 
#
# 1 70.2622 75.6495 32.2424 0.0000 0.0000 20.3981
# 2 75.6495 70.2622 32.2424 0.0000 0.0000 -20.3981
# 3 32.2424 32.2424 100.0197 0.0000 0.0000 0.0000
# 4 0.0000 0.0000 0.0000 26.9579 0.0000 0.0000
# 5 0.0000 0.0000 0.0000 0.0000 26.9579 0.0000
# 6 20.3981 -20.3981 0.0000 0.0000 0.0000 32.4000
#
#
#
# Elastic Compliance Matrix: (Units=1/GPa)
#
#
# Indices 1 2 3 4 5 6 
#
# 1 -0.012096 0.020088 -0.002576 0.000000 0.000000 0.020262
# 2 0.020088 -0.012096 -0.002576 0.000000 0.000000 -0.020262
# 3 -0.002576 -0.002576 0.011659 0.000000 0.000000 0.000000
# 4 0.000000 0.000000 0.000000 0.037095 0.000000 0.000000
# 5 0.000000 0.000000 0.000000 0.000000 0.037095 0.000000
# 6 0.020262 -0.020262 0.000000 0.000000 0.000000 0.005351
#
#
# Mechanical properties :
#
#
# Convention : Reuss Voigt Hill
#
# Bulk Modulus (GPa) = 57.67728 57.86809 57.77269
# Shear Modulus (GPa) = 116.50576 23.95717 70.23147
#
# Velocity S-wave (km/s) = 7.66951 3.47785 5.95469
# Velocity P-wave (km/s) = 10.37056 6.73377 8.74334
#
# Compressibility (1/GPa) = 0.01733785
#
# Stress axis : x y z
#
# Youngs Moduli (GPa) = -82.67171 -82.67171 85.77037
#
# Poissons Ratio (x) = 1.66072 0.22097
# Poissons Ratio (y) = 1.66072 0.22097
# Poissons Ratio (z) = -0.21299 -0.21299
#
# Static dielectric constant tensor:
#      x y z
#    x 1.737660 0.000000 0.000000 
#    y 0.000000 1.737660 0.000000 
#    z 0.000000 0.000000 1.652980 
# 
# From -- ./inp_files/3146.got.cif
#   From: 2010.05.17/outbox.cif.g08.bks.cpg/sg82_2_cif.got.tgz:3146.got - 2010.06.03 18:52:26.
