data_PCOD9543968
_publ_section_title
;
Structure prediction by ZEFSAII (Michael W. Deem and Ramdas Pophale) SiO2 
 PCOD9543968
Probable space group: P 42/M
;
_chemical_formula_sum "Si O2"
_cell_formula_units_Z 56
_cell_length_a 18.731709
_cell_length_b 18.731709
_cell_length_c 7.356864
_cell_angle_alpha 90.000000
_cell_angle_beta 90.000000
_cell_angle_gamma 90.000000
_cell_volume 2581.353796
_symmetry_space_group_name_H-M "P 42/M"
_symmetry_group_IT_number 84
_symmetry_cell_setting 'tetragonal'
loop_
_space_group_symop_operation_xyz
x,y,z
-y,x,1/2+z
-x,-y,z
y,-x,1/2+z
-x,-y,-z
y,-x,1/2-z
x,y,-z
-y,x,1/2-z
loop_
_atom_site_type_symbol
_atom_site_label
_atom_site_fract_x
_atom_site_fract_y
_atom_site_fract_z
Si Si1 0.215174 0.404517 0.717284
Si Si2 0.717377 0.751018 0.782882
Si Si3 0.189633 0.112564 0.209064
Si Si4 0.189467 0.950667 0.220249
Si Si5 0.440763 0.216962 0.221838
Si Si6 0.344773 0.930174 0.220576
Si Si7 0.946834 0.437107 0.720576
O O1 0.211799 0.410791 0.500000
O O2 0.251731 0.328288 0.751290
O O3 0.245768 0.481060 0.780955
O O4 0.133476 0.395363 0.783273
O O5 0.764534 0.819578 0.715054
O O6 0.635211 0.752263 0.716622
O O7 0.716159 0.759736 0.000000
O O8 0.105668 0.131752 0.213361
O O9 0.192838 0.032296 0.286157
O O10 0.214160 0.105245 0.000000
O O11 0.264553 0.915257 0.274049
O O12 0.184183 0.952028 0.000000
O O13 0.439677 0.133997 0.279135
O O14 0.439332 0.220695 0.000000
O O15 0.367280 0.009316 0.275514
O O16 0.347854 0.929847 0.000000
O O17 0.943607 0.440381 0.500000
O O18 0.000000 0.500000 0.777635
#
# Coordination Sequence:
#
# PCOD9543968 Si02
#       7
#     8   8   8   8   8   8   8
#     4  10  18  31  53  79 102 130 169 207 247 300
#     4  10  20  35  53  76 108 139 166 204 260 313
#     4  10  21  35  51  73 101 135 173 215 261 306
#     4  10  20  34  51  70  97 133 175 219 257 298
#     4   9  17  29  48  76 106 133 166 209 252 302
#     4   9  15  25  44  70  98 126 158 200 249 299
#     4   9  13  20  39  71 103 124 150 199 255 296
#
# _framework density 21.694042
#
# number of rings (size 3 to 8) (size 9 to 14) (size 15 to 20)
#    0.000    2.429    2.857    0.857    0.000    4.286 
#    0.000    2.143    0.000    0.429    0.000    6.000 
#    0.000    0.000    0.000    0.000    0.000    0.000 
#
# Total GULP energy -312150.891604 kJ/mol
# GULP energy per Si atom -5574.123064 kJ/mol
# Density = 2.164466 g / cm^3
# Si number density = 21.694042 Si / 1000 Ang^3
#
#
#
# Elastic Constant Matrix: (Units=GPa)
#
#
# Indices 1 2 3 4 5 6 
#
# 1 125.4755 57.6804 -2.8284 0.0000 0.0000 1.8299
# 2 57.6804 125.4755 -2.8284 0.0000 0.0000 -1.8299
# 3 -2.8284 -2.8284 77.7957 0.0000 0.0000 0.0000
# 4 0.0000 0.0000 0.0000 6.3129 0.0000 0.0000
# 5 0.0000 0.0000 0.0000 0.0000 6.3129 0.0000
# 6 1.8299 -1.8299 0.0000 0.0000 0.0000 30.0979
#
#
#
# Elastic Compliance Matrix: (Units=1/GPa)
#
#
# Indices 1 2 3 4 5 6 
#
# 1 0.010132 -0.004666 0.000199 0.000000 0.000000 -0.000900
# 2 -0.004666 0.010132 0.000199 0.000000 0.000000 0.000900
# 3 0.000199 0.000199 0.012869 0.000000 0.000000 0.000000
# 4 0.000000 0.000000 0.000000 0.158407 0.000000 0.000000
# 5 0.000000 0.000000 0.000000 0.000000 0.158407 0.000000
# 6 -0.000900 0.000900 0.000000 0.000000 0.000000 0.033334
#
#
# Mechanical properties :
#
#
# Convention : Reuss Voigt Hill
#
# Bulk Modulus (GPa) = 40.65787 48.08818 44.37303
# Shear Modulus (GPa) = 12.49945 26.99294 19.74619
#
# Velocity S-wave (km/s) = 2.40296 3.53123 3.02025
# Velocity P-wave (km/s) = 5.14598 6.23224 5.71497
#
# Compressibility (1/GPa) = 0.02459548
#
# Stress axis : x y z
#
# Youngs Moduli (GPa) = 98.69299 98.69299 77.70831
#
# Poissons Ratio (x) = 0.46055 -0.01544
# Poissons Ratio (y) = 0.46055 -0.01544
# Poissons Ratio (z) = -0.01961 -0.01961
#
# Static dielectric constant tensor:
#      x y z
#    x 1.803480 0.000000 0.000000 
#    y 0.000000 1.803480 0.000000 
#    z 0.000000 0.000000 1.880060 
# 
# From -- ./inp_files/2290.got.cif
#   From: 2010.05.17/outbox.cif.g08.bks.cpg/sg84_2_cif.got.tgz:2290.got - 2010.06.03 18:57:40.
