data_PCOD9543374
_publ_section_title
;
Structure prediction by ZEFSAII (Michael W. Deem and Ramdas Pophale) SiO2 
 PCOD9543374
Probable space group: P 4/M
;
_chemical_formula_sum "Si O2"
_cell_formula_units_Z 48
_cell_length_a 17.491240
_cell_length_b 17.491240
_cell_length_c 7.333955
_cell_angle_alpha 90.000000
_cell_angle_beta 90.000000
_cell_angle_gamma 90.000000
_cell_volume 2243.775691
_symmetry_space_group_name_H-M "P 4/M"
_symmetry_group_IT_number 83
_symmetry_cell_setting 'tetragonal'
loop_
_space_group_symop_operation_xyz
x,y,z
-y,x,z
-x,-y,z
y,-x,z
-x,-y,-z
y,-x,-z
x,y,-z
-y,x,-z
loop_
_atom_site_type_symbol
_atom_site_label
_atom_site_fract_x
_atom_site_fract_y
_atom_site_fract_z
Si Si1 0.336067 0.753191 0.713504
Si Si2 0.071846 0.900019 0.278154
Si Si3 0.396560 0.066514 0.721824
Si Si4 0.566656 0.103887 0.277597
Si Si5 0.569574 0.399097 0.219533
Si Si6 0.162620 0.749958 0.723346
O O1 0.326672 0.770586 0.500000
O O2 0.386369 0.823091 0.788259
O O3 0.381374 0.673829 0.727102
O O4 0.250212 0.746911 0.786322
O O5 0.072281 0.899733 0.500000
O O6 0.121393 0.828072 0.219165
O O7 0.982952 0.896407 0.222184
O O8 0.396071 0.066883 0.500000
O O9 0.477858 0.102135 0.778754
O O10 0.323794 0.114476 0.782693
O O11 0.396899 0.977447 0.776271
O O12 0.565842 0.105144 0.500000
O O13 0.603351 0.480958 0.280455
O O14 0.568579 0.400645 0.000000
O O15 0.162182 0.748755 0.500000
#
# Coordination Sequence:
#
# PCOD9543374 Si02
#       6
#     8   8   8   8   8   8
#     4  10  20  29  46  77 103 119 150 203 250 279
#     4   8  14  23  34  50  80 126 168 196 229 276
#     4   8  14  25  38  53  84 128 159 180 219 282
#     4   8  15  26  39  58  88 125 155 181 225 282
#     4   9  20  39  57  70  90 126 164 190 226 290
#     4   9  17  24  36  60  91 122 154 193 238 281
#
# _framework density 21.392513000000001
#
# number of rings (size 3 to 8) (size 9 to 14) (size 15 to 20)
#    0.000    3.333    0.000    2.000    4.667    0.667 
#    0.000    0.833    0.000    0.000    0.000    3.500 
#    0.000    0.000    0.000    1.833    0.000    1.667 
#
# Total GULP energy -267956.813682 kJ/mol
# GULP energy per Si atom -5582.433618 kJ/mol
# Density = 2.134382 g / cm^3
# Si number density = 21.392513 Si / 1000 Ang^3
#
#
#
# Elastic Constant Matrix: (Units=GPa)
#
#
# Indices 1 2 3 4 5 6 
#
# 1 198.6829 164.7470 -1.6085 0.0000 0.0000 -2.1305
# 2 164.7470 198.6829 -1.6085 0.0000 0.0000 2.1305
# 3 -1.6085 -1.6085 79.5704 0.0000 0.0000 0.0000
# 4 0.0000 0.0000 0.0000 34.5171 0.0000 0.0000
# 5 0.0000 0.0000 0.0000 0.0000 34.5171 0.0000
# 6 -2.1305 2.1305 0.0000 0.0000 0.0000 32.9318
#
#
#
# Elastic Compliance Matrix: (Units=1/GPa)
#
#
# Indices 1 2 3 4 5 6 
#
# 1 0.016230 -0.013478 0.000056 0.000000 0.000000 0.001922
# 2 -0.013478 0.016230 0.000056 0.000000 0.000000 -0.001922
# 3 0.000056 0.000056 0.012570 0.000000 0.000000 0.000000
# 4 0.000000 0.000000 0.000000 0.028971 0.000000 0.000000
# 5 0.000000 0.000000 0.000000 0.000000 0.028971 0.000000
# 6 0.001922 -0.001922 0.000000 0.000000 0.000000 0.030614
#
#
# Mechanical properties :
#
#
# Convention : Reuss Voigt Hill
#
# Bulk Modulus (GPa) = 54.65561 88.88844 71.77202
# Shear Modulus (GPa) = 30.04445 41.42030 35.73237
#
# Velocity S-wave (km/s) = 3.75165 4.40501 4.09139
# Velocity P-wave (km/s) = 6.66115 8.21666 7.47945
#
# Compressibility (1/GPa) = 0.01829638
#
# Stress axis : x y z
#
# Youngs Moduli (GPa) = 61.61288 61.61288 79.55615
#
# Poissons Ratio (x) = 0.83044 -0.00443
# Poissons Ratio (y) = 0.83044 -0.00443
# Poissons Ratio (z) = -0.00343 -0.00343
#
# Static dielectric constant tensor:
#      x y z
#    x 1.727950 0.000000 0.000000 
#    y 0.000000 1.727950 0.000000 
#    z 0.000000 0.000000 1.836120 
# 
# From -- ./inp_files/927.got.cif
#   From: 2010.05.17/outbox.cif.g08.bks.cpg/sg83_1_cif.got.tgz:927.got - 2010.06.03 18:55:12.
