data_PCOD9543479
_publ_section_title
;
Structure prediction by ZEFSAII (Michael W. Deem and Ramdas Pophale) SiO2 
 PCOD9543479
Probable space group: P 4/M
;
_chemical_formula_sum "Si O2"
_cell_formula_units_Z 40
_cell_length_a 13.138310
_cell_length_b 13.138310
_cell_length_c 8.946024
_cell_angle_alpha 90.000000
_cell_angle_beta 90.000000
_cell_angle_gamma 90.000000
_cell_volume 1544.219629
_symmetry_space_group_name_H-M "P 4/M"
_symmetry_group_IT_number 83
_symmetry_cell_setting 'tetragonal'
loop_
_space_group_symop_operation_xyz
x,y,z
-y,x,z
-x,-y,z
y,-x,z
-x,-y,-z
y,-x,-z
x,y,-z
-y,x,-z
loop_
_atom_site_type_symbol
_atom_site_label
_atom_site_fract_x
_atom_site_fract_y
_atom_site_fract_z
Si Si1 0.664003 0.612197 0.000000
Si Si2 0.201709 0.167190 0.668502
Si Si3 0.381529 0.681678 0.663640
Si Si4 0.892331 0.523188 0.734326
Si Si5 0.584299 0.811704 0.000000
Si Si6 0.974254 0.735426 0.831687
O O1 0.625905 0.602566 0.824519
O O2 0.678699 0.734793 0.000000
O O3 0.740551 0.517650 0.000000
O O4 0.160162 0.163839 0.500000
O O5 0.275284 0.265873 0.670549
O O6 0.255557 0.062812 0.710215
O O7 0.111105 0.183357 0.785145
O O8 0.392421 0.630726 0.500000
O O9 0.454514 0.782710 0.661473
O O10 0.876995 0.433723 0.854051
O O11 0.000000 0.500000 0.655076
O O12 0.914377 0.628928 0.818933
O O13 0.012244 0.748984 0.000000
#
# Coordination Sequence:
#
# PCOD9543479 Si02
#       6
#     4   8   8   8   4   8
#     4  10  22  39  68  88 127 168 208 261 328 380
#     4  10  22  38  56  80 119 164 208 256 307 369
#     4   9  21  40  60  89 128 169 213 255 313 384
#     4  10  21  36  60  95 129 159 203 264 317 373
#     4  10  21  39  62 100 127 166 209 261 319 390
#     4  11  22  36  60  87 118 157 206 257 311 370
#
# _framework density 25.90305
#
# number of rings (size 3 to 8) (size 9 to 14) (size 15 to 20)
#    0.000    2.000    1.000    1.500    8.400    1.800 
#    0.000    6.000    0.000    0.000    0.000    5.600 
#    0.000    0.000    0.000    0.000    0.000    0.000 
#
# Total GULP energy -223091.327407 kJ/mol
# GULP energy per Si atom -5577.283185 kJ/mol
# Density = 2.584409 g / cm^3
# Si number density = 25.903050 Si / 1000 Ang^3
#
#
#
# Elastic Constant Matrix: (Units=GPa)
#
#
# Indices 1 2 3 4 5 6 
#
# 1 87.2412 5.9589 19.7297 0.0000 0.0000 3.0293
# 2 5.9589 87.2412 19.7297 0.0000 0.0000 -3.0293
# 3 19.7297 19.7297 205.7383 0.0000 0.0000 0.0000
# 4 0.0000 0.0000 0.0000 -10.2352 0.0000 0.0000
# 5 0.0000 0.0000 0.0000 0.0000 -10.2352 0.0000
# 6 3.0293 -3.0293 0.0000 0.0000 0.0000 41.5032
#
#
#
# Elastic Compliance Matrix: (Units=1/GPa)
#
#
# Indices 1 2 3 4 5 6 
#
# 1 0.011777 -0.000593 -0.001072 0.000000 0.000000 -0.000903
# 2 -0.000593 0.011777 -0.001072 0.000000 0.000000 0.000903
# 3 -0.001072 -0.001072 0.005066 0.000000 0.000000 0.000000
# 4 0.000000 0.000000 0.000000 -0.097702 0.000000 0.000000
# 5 0.000000 0.000000 0.000000 0.000000 -0.097702 0.000000
# 6 -0.000903 0.000903 0.000000 0.000000 0.000000 0.024226
#
#
# Mechanical properties :
#
#
# Convention : Reuss Voigt Hill
#
# Bulk Modulus (GPa) = 43.20835 52.33969 47.77402
# Shear Modulus (GPa) = -38.65000 26.52671 -6.06165
#
# Velocity S-wave (km/s) = -3.86696 3.20359 -1.53141
# Velocity P-wave (km/s) = 1.79468 5.82528 3.91874
#
# Compressibility (1/GPa) = 0.02314368
#
# Stress axis : x y z
#
# Youngs Moduli (GPa) = 84.91206 84.91206 197.38509
#
# Poissons Ratio (x) = 0.05037 0.21169
# Poissons Ratio (y) = 0.05037 0.21169
# Poissons Ratio (z) = 0.09107 0.09107
#
# Static dielectric constant tensor:
#      x y z
#    x 2.031930 0.000000 0.000000 
#    y 0.000000 2.031930 0.000000 
#    z 0.000000 0.000000 1.998780 
# 
# From -- ./inp_files/768.got.cif
#   From: 2010.05.17/outbox.cif.g08.bks.cpg/sg83_1_cif.got.tgz:768.got - 2010.06.03 18:55:12.
