data_PCOD9543711
_publ_section_title
;
Structure prediction by ZEFSAII (Michael W. Deem and Ramdas Pophale) SiO2 
 PCOD9543711
Probable space group: P 4/M
;
_chemical_formula_sum "Si O2"
_cell_formula_units_Z 48
_cell_length_a 8.166736
_cell_length_b 8.166736
_cell_length_c 32.741366
_cell_angle_alpha 90.000000
_cell_angle_beta 90.000000
_cell_angle_gamma 90.000000
_cell_volume 2183.704294
_symmetry_space_group_name_H-M "P 4/M"
_symmetry_group_IT_number 83
_symmetry_cell_setting 'tetragonal'
loop_
_space_group_symop_operation_xyz
x,y,z
-y,x,z
-x,-y,z
y,-x,z
-x,-y,-z
y,-x,-z
x,y,-z
-y,x,-z
loop_
_atom_site_type_symbol
_atom_site_label
_atom_site_fract_x
_atom_site_fract_y
_atom_site_fract_z
Si Si1 0.084984 0.262687 0.709512
Si Si2 0.406162 0.762371 0.543672
Si Si3 0.413450 0.763029 0.631979
Si Si4 0.578126 0.236708 0.877137
Si Si5 0.086691 0.263268 0.799777
Si Si6 0.737530 0.087873 0.954437
O O1 0.130673 0.371434 0.671087
O O2 0.112688 0.336797 0.754553
O O3 0.899891 0.197634 0.707460
O O4 0.300262 0.594463 0.543663
O O5 0.374035 0.847527 0.500000
O O6 0.379064 0.844501 0.587626
O O7 0.301915 0.599116 0.633482
O O8 0.696144 0.395225 0.876931
O O9 0.621770 0.135844 0.836762
O O10 0.620522 0.138045 0.917941
O O11 0.901020 0.197867 0.802624
O O12 0.901976 0.198379 0.951194
O O13 0.668085 0.113163 0.000000
#
# Coordination Sequence:
#
# PCOD9543711 Si02
#       6
#     8   8   8   8   8   8
#     4   9  19  35  52  70  94 126 163 201 242 290
#     4   7  10  19  37  61  89 120 153 190 233 280
#     4   9  17  28  45  72 100 123 153 197 245 290
#     4  11  24  37  50  76 112 141 164 198 247 297
#     4   9  19  37  58  75  92 122 168 213 246 285
#     4   9  19  37  60  83 105 133 173 215 248 283
#
# _framework density 21.981000000000002
#
# number of rings (size 3 to 8) (size 9 to 14) (size 15 to 20)
#    0.000    3.000    0.000    4.000    0.000    6.667 
#    0.000    7.500    0.000    1.000    0.000    5.833 
#    0.000    0.000    0.000    0.000    0.000    0.000 
#
# Total GULP energy -268281.694062 kJ/mol
# GULP energy per Si atom -5589.201960 kJ/mol
# Density = 2.193097 g / cm^3
# Si number density = 21.981000 Si / 1000 Ang^3
#
#
#
# Elastic Constant Matrix: (Units=GPa)
#
#
# Indices 1 2 3 4 5 6 
#
# 1 52.1859 38.1941 68.1484 0.0000 0.0000 -0.6446
# 2 38.1941 52.1859 68.1484 0.0000 0.0000 0.6446
# 3 68.1484 68.1484 253.1888 0.0000 0.0000 0.0000
# 4 0.0000 0.0000 0.0000 70.6147 0.0000 0.0000
# 5 0.0000 0.0000 0.0000 0.0000 70.6147 0.0000
# 6 -0.6446 0.6446 0.0000 0.0000 0.0000 36.1664
#
#
#
# Elastic Compliance Matrix: (Units=1/GPa)
#
#
# Indices 1 2 3 4 5 6 
#
# 1 0.045106 -0.026482 -0.005013 0.000000 0.000000 0.001276
# 2 -0.026482 0.045106 -0.005013 0.000000 0.000000 -0.001276
# 3 -0.005013 -0.005013 0.006648 0.000000 0.000000 0.000000
# 4 0.000000 0.000000 0.000000 0.014161 0.000000 0.000000
# 5 0.000000 0.000000 0.000000 0.000000 0.014161 0.000000
# 6 0.001276 -0.001276 0.000000 0.000000 0.000000 0.027695
#
#
# Mechanical properties :
#
#
# Convention : Reuss Voigt Hill
#
# Bulk Modulus (GPa) = 41.93799 78.50472 60.22136
# Shear Modulus (GPa) = 21.38197 47.68380 34.53288
#
# Velocity S-wave (km/s) = 3.12227 4.66265 3.96793
# Velocity P-wave (km/s) = 5.66734 8.04856 6.96054
#
# Compressibility (1/GPa) = 0.02384473
#
# Stress axis : x y z
#
# Youngs Moduli (GPa) = 22.17001 22.17001 150.41801
#
# Poissons Ratio (x) = 0.58711 0.75402
# Poissons Ratio (y) = 0.58711 0.75402
# Poissons Ratio (z) = 0.11113 0.11113
#
# Static dielectric constant tensor:
#      x y z
#    x 1.798440 0.000000 0.000000 
#    y 0.000000 1.798440 0.000000 
#    z 0.000000 0.000000 1.819310 
# 
# From -- ./inp_files/3415.got.cif
#   From: 2010.05.17/outbox.cif.g08.bks.cpg/sg83_2_cif.got.tgz:3415.got - 2010.06.03 18:55:12.
