data_PCOD9543485
_publ_section_title
;
Structure prediction by ZEFSAII (Michael W. Deem and Ramdas Pophale) SiO2 
 PCOD9543485
Probable space group: P 4/M
;
_chemical_formula_sum "Si O2"
_cell_formula_units_Z 42
_cell_length_a 12.198490
_cell_length_b 12.198490
_cell_length_c 16.352180
_cell_angle_alpha 90.000000
_cell_angle_beta 90.000000
_cell_angle_gamma 90.000000
_cell_volume 2433.256029
_symmetry_space_group_name_H-M "P 4/M"
_symmetry_group_IT_number 83
_symmetry_cell_setting 'tetragonal'
loop_
_space_group_symop_operation_xyz
x,y,z
-y,x,z
-x,-y,z
y,-x,z
-x,-y,-z
y,-x,-z
x,y,-z
-y,x,-z
loop_
_atom_site_type_symbol
_atom_site_label
_atom_site_fract_x
_atom_site_fract_y
_atom_site_fract_z
Si Si1 0.312595 0.128100 0.000000
Si Si2 0.871262 0.686506 0.000000
Si Si3 0.889896 0.687737 0.596476
Si Si4 0.500000 0.500000 0.680779
Si Si5 0.297101 0.145090 0.596573
Si Si6 0.499262 0.760166 0.692567
Si Si7 0.500607 0.871619 0.865174
O O1 0.392648 0.145269 0.922102
O O2 0.212227 0.212417 0.000000
O O3 0.279563 0.999571 0.000000
O O4 0.854003 0.606394 0.078030
O O5 0.882789 0.658904 0.500000
O O6 0.820323 0.798267 0.608596
O O7 0.833298 0.593204 0.648561
O O8 0.016936 0.702174 0.617231
O O9 0.474513 0.632794 0.681352
O O10 0.324813 0.156332 0.500000
O O11 0.386867 0.206899 0.650026
O O12 0.501943 0.793723 0.787435
O O13 0.500000 0.000000 0.839827
#
# Coordination Sequence:
#
# PCOD9543485 Si02
#       7
#     4   4   8   2   8   8   8
#     4   9  19  36  56  84 111 141 178 218 268 321
#     4   9  19  36  56  84 111 141 178 218 268 321
#     4  10  21  37  58  83 111 146 188 232 280 335
#     4  12  28  36  53  89 116 140 182 244 272 329
#     4  10  21  37  58  83 111 146 188 232 280 335
#     4  12  22  41  56  81 114 150 189 228 284 334
#     4   9  20  37  59  80 107 145 184 220 264 324
#
# _framework density 17.260821
#
# number of rings (size 3 to 8) (size 9 to 14) (size 15 to 20)
#    0.000    1.905    1.905    3.429    2.667    2.095 
#    0.000    3.810    0.000    2.286    0.000    5.333 
#    0.000    0.000    0.000    0.000    0.000    0.000 
#
# Total GULP energy -233909.532628 kJ/mol
# GULP energy per Si atom -5569.274586 kJ/mol
# Density = 1.722153 g / cm^3
# Si number density = 17.260821 Si / 1000 Ang^3
#
#
#
# Elastic Constant Matrix: (Units=GPa)
#
#
# Indices 1 2 3 4 5 6 
#
# 1 121.5208 40.1194 38.3969 0.0000 0.0000 -1.3323
# 2 40.1194 121.5208 38.3969 0.0000 0.0000 1.3323
# 3 38.3969 38.3969 48.1258 0.0000 0.0000 0.0000
# 4 0.0000 0.0000 0.0000 -37.5518 0.0000 0.0000
# 5 0.0000 0.0000 0.0000 0.0000 -37.5518 0.0000
# 6 -1.3323 1.3323 0.0000 0.0000 0.0000 31.9512
#
#
#
# Elastic Compliance Matrix: (Units=1/GPa)
#
#
# Indices 1 2 3 4 5 6 
#
# 1 0.011132 -0.001169 -0.007949 0.000000 0.000000 0.000513
# 2 -0.001169 0.011132 -0.007949 0.000000 0.000000 -0.000513
# 3 -0.007949 -0.007949 0.033463 0.000000 0.000000 0.000000
# 4 0.000000 0.000000 0.000000 -0.026630 0.000000 0.000000
# 5 0.000000 0.000000 0.000000 0.000000 -0.026630 0.000000
# 6 0.000513 -0.000513 0.000000 0.000000 0.000000 0.031340
#
#
# Mechanical properties :
#
#
# Convention : Reuss Voigt Hill
#
# Bulk Modulus (GPa) = 46.31091 58.33265 52.32178
# Shear Modulus (GPa) = 66.54221 2.98649 34.76435
#
# Velocity S-wave (km/s) = 6.21568 1.31680 4.49270
# Velocity P-wave (km/s) = 8.85445 6.01499 7.56906
#
# Compressibility (1/GPa) = 0.02159318
#
# Stress axis : x y z
#
# Youngs Moduli (GPa) = 89.82856 89.82856 29.88386
#
# Poissons Ratio (x) = 0.10503 0.23755
# Poissons Ratio (y) = 0.10503 0.23755
# Poissons Ratio (z) = 0.71404 0.71404
#
# Static dielectric constant tensor:
#      x y z
#    x 1.565310 0.000000 0.000000 
#    y 0.000000 1.565310 0.000000 
#    z 0.000000 0.000000 1.585170 
# 
# From -- ./inp_files/2601.got.cif
#   From: 2010.05.17/outbox.cif.g08.bks.cpg/sg83_2_cif.got.tgz:2601.got - 2010.06.03 18:55:12.
