data_PCOD9543285
_publ_section_title
;
Structure prediction by ZEFSAII (Michael W. Deem and Ramdas Pophale) SiO2 
 PCOD9543285
Probable space group: P 4/M
;
_chemical_formula_sum "Si O2"
_cell_formula_units_Z 64
_cell_length_a 20.257388
_cell_length_b 20.257388
_cell_length_c 9.193509
_cell_angle_alpha 90.000000
_cell_angle_beta 90.000000
_cell_angle_gamma 90.000000
_cell_volume 3772.664613
_symmetry_space_group_name_H-M "P 4/M"
_symmetry_group_IT_number 83
_symmetry_cell_setting 'tetragonal'
loop_
_space_group_symop_operation_xyz
x,y,z
-y,x,z
-x,-y,z
y,-x,z
-x,-y,-z
y,-x,-z
x,y,-z
-y,x,-z
loop_
_atom_site_type_symbol
_atom_site_label
_atom_site_fract_x
_atom_site_fract_y
_atom_site_fract_z
Si Si1 0.492716 0.863832 0.325715
Si Si2 0.720824 0.158578 0.334386
Si Si3 0.627273 0.904856 0.827406
Si Si4 0.675554 0.360930 0.829465
Si Si5 0.731830 0.799311 0.826230
Si Si6 0.538172 0.600467 0.673107
Si Si7 0.938284 0.628484 0.172561
Si Si8 0.256757 0.405281 0.336434
O O1 0.491398 0.874241 0.500000
O O2 0.564415 0.877964 0.260616
O O3 0.437627 0.910346 0.249793
O O4 0.467269 0.789063 0.299433
O O5 0.738044 0.140218 0.500000
O O6 0.777614 0.202321 0.258503
O O7 0.692224 0.097800 0.241592
O O8 0.656771 0.206546 0.342445
O O9 0.695231 0.867417 0.788091
O O10 0.631991 0.983258 0.806758
O O11 0.616148 0.892013 0.000000
O O12 0.743510 0.323684 0.794264
O O13 0.662876 0.429089 0.747643
O O14 0.618437 0.310760 0.776808
O O15 0.672409 0.371468 0.000000
O O16 0.744894 0.797357 0.000000
O O17 0.464171 0.581038 0.713026
O O18 0.540871 0.607746 0.500000
O O19 0.923842 0.624917 0.000000
O O20 0.285134 0.413654 0.500000
#
# Coordination Sequence:
#
# PCOD9543285 Si02
#       8
#     8   8   8   8   8   8   8   8
#     4  10  20  32  47  69  98 132 169 208 245 282
#     4   9  17  31  51  72  92 119 159 202 238 275
#     4  10  21  34  48  70 102 135 165 198 239 289
#     4  10  19  30  48  70  88 111 145 189 238 280
#     4   9  19  35  50  68  97 128 156 190 233 280
#     4   9  19  35  50  61  77 105 140 181 232 287
#     4  10  19  32  51  72  96 132 171 202 238 285
#     4   8  16  30  45  63  88 120 157 191 227 276
#
# _framework density 16.964137000000001
#
# number of rings (size 3 to 8) (size 9 to 14) (size 15 to 20)
#    0.000    2.625    0.000    3.000    0.000    8.500 
#    0.000    3.125    0.000    0.000    0.000    0.000 
#    0.000    0.500    0.000    5.750    0.000    2.250 
#
# Total GULP energy -356901.305889 kJ/mol
# GULP energy per Si atom -5576.582905 kJ/mol
# Density = 1.692553 g / cm^3
# Si number density = 16.964137 Si / 1000 Ang^3
#
#
#
# Elastic Constant Matrix: (Units=GPa)
#
#
# Indices 1 2 3 4 5 6 
#
# 1 35.5741 43.7160 27.8836 0.0000 0.0000 4.7401
# 2 43.7160 35.5741 27.8836 0.0000 0.0000 -4.7401
# 3 27.8836 27.8836 44.3523 0.0000 0.0000 0.0000
# 4 0.0000 0.0000 0.0000 0.3864 0.0000 0.0000
# 5 0.0000 0.0000 0.0000 0.0000 0.3864 0.0000
# 6 4.7401 -4.7401 0.0000 0.0000 0.0000 24.1090
#
#
#
# Elastic Compliance Matrix: (Units=1/GPa)
#
#
# Indices 1 2 3 4 5 6 
#
# 1 -0.038666 0.061275 -0.014214 0.000000 0.000000 0.019649
# 2 0.061275 -0.038666 -0.014214 0.000000 0.000000 -0.019649
# 3 -0.014214 -0.014214 0.040419 0.000000 0.000000 0.000000
# 4 0.000000 0.000000 0.000000 2.587814 0.000000 0.000000
# 5 0.000000 0.000000 0.000000 0.000000 2.587814 0.000000
# 6 0.019649 -0.019649 0.000000 0.000000 0.000000 0.033752
#
#
# Mechanical properties :
#
#
# Convention : Reuss Voigt Hill
#
# Bulk Modulus (GPa) = 34.74492 34.94077 34.84285
# Shear Modulus (GPa) = 0.97726 6.04419 3.51072
#
# Velocity S-wave (km/s) = 0.75982 1.88962 1.44014
# Velocity P-wave (km/s) = 4.61472 5.04008 4.83208
#
# Compressibility (1/GPa) = 0.02878119
#
# Stress axis : x y z
#
# Youngs Moduli (GPa) = -25.86236 -25.86236 24.74094
#
# Poissons Ratio (x) = 1.58472 0.35167
# Poissons Ratio (y) = 1.58472 0.35167
# Poissons Ratio (z) = -0.36761 -0.36761
#
# Static dielectric constant tensor:
#      x y z
#    x 1.577580 0.000000 0.000000 
#    y 0.000000 1.577580 0.000000 
#    z 0.000000 0.000000 1.578500 
# 
# From -- ./inp_files/1310.got.cif
#   From: 2010.05.17/outbox.cif.g08.bks.cpg/sg83_1_cif.got.tgz:1310.got - 2010.06.03 18:55:12.
