data_PCOD9543309
_publ_section_title
;
Structure prediction by ZEFSAII (Michael W. Deem and Ramdas Pophale) SiO2 
 PCOD9543309
Probable space group: P 4/M
;
_chemical_formula_sum "Si O2"
_cell_formula_units_Z 64
_cell_length_a 21.246222
_cell_length_b 21.246222
_cell_length_c 8.830090
_cell_angle_alpha 90.000000
_cell_angle_beta 90.000000
_cell_angle_gamma 90.000000
_cell_volume 3985.919838
_symmetry_space_group_name_H-M "P 4/M"
_symmetry_group_IT_number 83
_symmetry_cell_setting 'tetragonal'
loop_
_space_group_symop_operation_xyz
x,y,z
-y,x,z
-x,-y,z
y,-x,z
-x,-y,-z
y,-x,-z
x,y,-z
-y,x,-z
loop_
_atom_site_type_symbol
_atom_site_label
_atom_site_fract_x
_atom_site_fract_y
_atom_site_fract_z
Si Si1 0.900318 0.500901 0.320466
Si Si2 0.510734 0.246831 0.669952
Si Si3 0.941916 0.630940 0.182469
Si Si4 0.634544 0.720500 0.330098
Si Si5 0.619513 0.302306 0.175192
Si Si6 0.645577 0.924678 0.682086
Si Si7 0.186296 0.726917 0.821226
Si Si8 0.182437 0.292992 0.182634
O O1 0.915800 0.503812 0.500000
O O2 0.827048 0.517159 0.299963
O O3 0.935681 0.558106 0.237591
O O4 0.908759 0.427635 0.272862
O O5 0.535440 0.259359 0.500000
O O6 0.437447 0.261235 0.671679
O O7 0.547954 0.287764 0.789410
O O8 0.882802 0.674806 0.233967
O O9 0.006358 0.657319 0.251116
O O10 0.943349 0.631135 0.000000
O O11 0.659331 0.732785 0.500000
O O12 0.645198 0.649086 0.281823
O O13 0.672711 0.762199 0.210951
O O14 0.657077 0.237915 0.215714
O O15 0.630312 0.316222 0.000000
O O16 0.646775 0.924102 0.500000
O O17 0.697815 0.875229 0.741226
O O18 0.224333 0.790172 0.767169
O O19 0.174110 0.733303 0.000000
O O20 0.178168 0.288484 0.000000
#
# Coordination Sequence:
#
# PCOD9543309 Si02
#       8
#     8   8   8   8   8   8   8   8
#     4  10  20  34  47  66  98 136 171 203 241 285
#     4  10  19  32  50  70  94 126 162 198 245 300
#     4  11  21  34  50  72 100 134 171 206 246 291
#     4  10  19  33  50  71  96 125 159 200 250 305
#     4  10  19  32  49  72  95 121 158 206 253 292
#     4  11  22  36  49  69 102 138 172 207 244 291
#     4  10  19  33  52  73  96 127 165 208 251 288
#     4   8  17  32  48  69  97 123 156 203 246 285
#
# _framework density 16.056519000000002
#
# number of rings (size 3 to 8) (size 9 to 14) (size 15 to 20)
#    0.000    2.000    2.500    3.000    0.000    3.500 
#    0.000    1.875    0.000    0.375    0.000    2.625 
#    0.000    0.500    0.000    5.750    0.000    2.250 
#
# Total GULP energy -356443.765302 kJ/mol
# GULP energy per Si atom -5569.433833 kJ/mol
# Density = 1.601997 g / cm^3
# Si number density = 16.056519 Si / 1000 Ang^3
#
#
#
# Elastic Constant Matrix: (Units=GPa)
#
#
# Indices 1 2 3 4 5 6 
#
# 1 46.2104 26.8244 8.9180 0.0000 0.0000 -2.7738
# 2 26.8244 46.2104 8.9180 0.0000 0.0000 2.7738
# 3 8.9180 8.9180 25.1984 0.0000 0.0000 0.0000
# 4 0.0000 0.0000 0.0000 21.1456 0.0000 0.0000
# 5 0.0000 0.0000 0.0000 0.0000 21.1456 0.0000
# 6 -2.7738 2.7738 0.0000 0.0000 0.0000 17.7501
#
#
#
# Elastic Compliance Matrix: (Units=1/GPa)
#
#
# Indices 1 2 3 4 5 6 
#
# 1 0.034493 -0.019506 -0.005304 0.000000 0.000000 0.008438
# 2 -0.019506 0.034493 -0.005304 0.000000 0.000000 -0.008438
# 3 -0.005304 -0.005304 0.043439 0.000000 0.000000 0.000000
# 4 0.000000 0.000000 0.000000 0.047291 0.000000 0.000000
# 5 0.000000 0.000000 0.000000 0.000000 0.047291 0.000000
# 6 0.008438 -0.008438 0.000000 0.000000 0.000000 0.058975
#
#
# Mechanical properties :
#
#
# Convention : Reuss Voigt Hill
#
# Bulk Modulus (GPa) = 19.15801 22.99334 21.07567
# Shear Modulus (GPa) = 14.55139 16.87220 15.71179
#
# Velocity S-wave (km/s) = 3.01368 3.24512 3.13154
# Velocity P-wave (km/s) = 4.90584 5.32845 5.12151
#
# Compressibility (1/GPa) = 0.05219749
#
# Stress axis : x y z
#
# Youngs Moduli (GPa) = 28.99142 28.99142 23.02056
#
# Poissons Ratio (x) = 0.56549 0.12211
# Poissons Ratio (y) = 0.56549 0.12211
# Poissons Ratio (z) = 0.15378 0.15378
#
# Static dielectric constant tensor:
#      x y z
#    x 1.555620 0.000000 0.000000 
#    y 0.000000 1.555620 0.000000 
#    z 0.000000 0.000000 1.556100 
# 
# From -- ./inp_files/1292.got.cif
#   From: 2010.05.17/outbox.cif.g08.bks.cpg/sg83_1_cif.got.tgz:1292.got - 2010.06.03 18:55:12.
