data_PCOD9543205
_publ_section_title
;
Structure prediction by ZEFSAII (Michael W. Deem and Ramdas Pophale) SiO2 
 PCOD9543205
Probable space group: I -4 
;
_chemical_formula_sum "Si O2"
_cell_formula_units_Z 22
_cell_length_a 7.698246
_cell_length_b 7.698246
_cell_length_c 14.107198
_cell_angle_alpha 90.000000
_cell_angle_beta 90.000000
_cell_angle_gamma 90.000000
_cell_volume 836.034755
_symmetry_space_group_name_H-M "I -4 "
_symmetry_group_IT_number 82
_symmetry_cell_setting 'tetragonal'
loop_
_space_group_symop_operation_xyz
x,y,z
y,-x,-z
-x,-y,z
-y,x,-z
1/2+x,1/2+y,1/2+z
1/2+y,1/2-x,1/2-z
1/2-x,1/2-y,1/2+z
1/2-y,1/2+x,1/2-z
loop_
_atom_site_type_symbol
_atom_site_label
_atom_site_fract_x
_atom_site_fract_y
_atom_site_fract_z
Si Si1 0.800388 0.334291 0.916209
Si Si2 0.000000 0.500000 0.250000
Si Si3 0.500000 0.000000 0.250000
Si Si4 0.975619 0.215578 0.112720
Si Si5 0.000000 0.000000 0.500000
O O1 0.919817 0.368019 0.825782
O O2 0.694573 0.164657 0.891890
O O3 0.672847 0.492203 0.937274
O O4 0.894539 0.271670 0.012228
O O5 0.901837 0.337293 0.195029
O O6 0.000000 0.000000 0.122478
#
# Coordination Sequence:
#
# PCOD9543205 Si02
#       5
#     8   2   2   8   2
#     4  12  26  53  77 116 165 215 276 340 425 497
#     4  12  30  48  84 130 164 212 302 340 416 526
#     4  12  30  44  84 122 156 216 282 332 408 518
#     4  12  27  55  85 114 171 223 269 357 428 493
#     4  12  28  48  84 112 164 226 268 356 440 480
#
# _framework density 26.314696999999999
#
# number of rings (size 3 to 8) (size 9 to 14) (size 15 to 20)
#    0.000    0.000    3.636    5.455    5.091    2.909 
#    6.545    0.000    0.000    0.000    0.000    0.000 
#    0.000    0.000    0.000    0.000    0.000    0.000 
#
# Total GULP energy -61264.472342 kJ/mol
# GULP energy per Si atom -5569.497486 kJ/mol
# Density = 2.625480 g / cm^3
# Si number density = 26.314697 Si / 1000 Ang^3
#
#
#
# Elastic Constant Matrix: (Units=GPa)
#
#
# Indices 1 2 3 4 5 6 
#
# 1 117.6292 15.2437 56.3741 0.0000 0.0000 -0.3845
# 2 15.2437 117.6292 56.3741 0.0000 0.0000 0.3845
# 3 56.3741 56.3741 201.7465 0.0000 0.0000 0.0000
# 4 0.0000 0.0000 0.0000 38.7393 0.0000 0.0000
# 5 0.0000 0.0000 0.0000 0.0000 38.7393 0.0000
# 6 -0.3845 0.3845 0.0000 0.0000 0.0000 33.2995
#
#
#
# Elastic Compliance Matrix: (Units=1/GPa)
#
#
# Indices 1 2 3 4 5 6 
#
# 1 0.009816 0.000049 -0.002757 0.000000 0.000000 0.000113
# 2 0.000049 0.009816 -0.002757 0.000000 0.000000 -0.000113
# 3 -0.002757 -0.002757 0.006497 0.000000 0.000000 0.000000
# 4 0.000000 0.000000 0.000000 0.025814 0.000000 0.000000
# 5 0.000000 0.000000 0.000000 0.000000 0.025814 0.000000
# 6 0.000113 -0.000113 0.000000 0.000000 0.000000 0.030033
#
#
# Mechanical properties :
#
#
# Convention : Reuss Voigt Hill
#
# Bulk Modulus (GPa) = 65.78501 76.99874 71.39187
# Shear Modulus (GPa) = 40.39205 42.75646 41.57426
#
# Velocity S-wave (km/s) = 3.92211 4.03527 3.97909
# Velocity P-wave (km/s) = 6.75013 7.14391 6.94981
#
# Compressibility (1/GPa) = 0.01520103
#
# Stress axis : x y z
#
# Youngs Moduli (GPa) = 101.86956 101.86956 153.91061
#
# Poissons Ratio (x) = -0.00495 0.42427
# Poissons Ratio (y) = -0.00495 0.42427
# Poissons Ratio (z) = 0.28081 0.28081
#
# Static dielectric constant tensor:
#      x y z
#    x 2.097140 0.000000 0.000000 
#    y 0.000000 2.097140 0.000000 
#    z 0.000000 0.000000 2.293970 
# 
# From -- ./inp_files/1359.got.cif
#   From: 2010.05.17/outbox.cif.g08.bks.cpg/sg82_1_cif.got.tgz:1359.got - 2010.06.03 18:52:26.
