data_PCOD9543179
_publ_section_title
;
Structure prediction by ZEFSAII (Michael W. Deem and Ramdas Pophale) SiO2 
 PCOD9543179
Probable space group: I -4 
;
_chemical_formula_sum "Si O2"
_cell_formula_units_Z 26
_cell_length_a 8.038694
_cell_length_b 8.038694
_cell_length_c 16.281903
_cell_angle_alpha 90.000000
_cell_angle_beta 90.000000
_cell_angle_gamma 90.000000
_cell_volume 1052.146361
_symmetry_space_group_name_H-M "I -4 "
_symmetry_group_IT_number 82
_symmetry_cell_setting 'tetragonal'
loop_
_space_group_symop_operation_xyz
x,y,z
y,-x,-z
-x,-y,z
-y,x,-z
1/2+x,1/2+y,1/2+z
1/2+y,1/2-x,1/2-z
1/2-x,1/2-y,1/2+z
1/2-y,1/2+x,1/2-z
loop_
_atom_site_type_symbol
_atom_site_label
_atom_site_fract_x
_atom_site_fract_y
_atom_site_fract_z
Si Si1 0.828171 0.187019 0.600700
Si Si2 0.500000 0.000000 0.250000
Si Si3 0.703508 0.289400 0.929311
Si Si4 0.875814 0.154472 0.783139
O O1 0.743212 0.268426 0.520749
O O2 0.781356 0.174428 0.696246
O O3 0.020981 0.250747 0.598895
O O4 0.810749 0.995286 0.571959
O O5 0.323165 0.017201 0.205054
O O6 0.757455 0.157728 0.861129
O O7 0.000000 0.000000 0.776801
#
# Coordination Sequence:
#
# PCOD9543179 Si02
#       4
#     8   2   8   8
#     4   9  17  37  67 100 136 195 250 298 382 455
#     4  12  24  40  72 100 144 202 232 300 412 440
#     4   9  18  35  68 103 133 194 253 304 373 457
#     4  12  21  38  72 110 143 188 257 320 375 457
#
# _framework density 24.711392
#
# number of rings (size 3 to 8) (size 9 to 14) (size 15 to 20)
#    0.000    1.846    6.154    1.846    0.000    0.000 
#    0.000    0.000   20.308   14.769    0.000    0.000 
#    0.000    0.000    0.000    0.000    0.000    0.000 
#
# Total GULP energy -72404.631821 kJ/mol
# GULP energy per Si atom -5569.587063 kJ/mol
# Density = 2.465515 g / cm^3
# Si number density = 24.711392 Si / 1000 Ang^3
#
#
#
# Elastic Constant Matrix: (Units=GPa)
#
#
# Indices 1 2 3 4 5 6 
#
# 1 63.2140 11.9915 24.8463 0.0000 0.0000 6.1444
# 2 11.9915 63.2140 24.8463 0.0000 0.0000 -6.1444
# 3 24.8463 24.8463 270.3947 0.0000 0.0000 0.0000
# 4 0.0000 0.0000 0.0000 30.2360 0.0000 0.0000
# 5 0.0000 0.0000 0.0000 0.0000 30.2360 0.0000
# 6 6.1444 -6.1444 0.0000 0.0000 0.0000 18.6934
#
#
#
# Elastic Compliance Matrix: (Units=1/GPa)
#
#
# Indices 1 2 3 4 5 6 
#
# 1 0.017675 -0.003519 -0.001301 0.000000 0.000000 -0.006966
# 2 -0.003519 0.017675 -0.001301 0.000000 0.000000 0.006966
# 3 -0.001301 -0.001301 0.003937 0.000000 0.000000 0.000000
# 4 0.000000 0.000000 0.000000 0.033073 0.000000 0.000000
# 5 0.000000 0.000000 0.000000 0.000000 0.033073 0.000000
# 6 -0.006966 0.006966 0.000000 0.000000 0.000000 0.058074
#
#
# Mechanical properties :
#
#
# Convention : Reuss Voigt Hill
#
# Bulk Modulus (GPa) = 36.97273 57.79899 47.38586
# Shear Modulus (GPa) = 27.06143 38.17567 32.61855
#
# Velocity S-wave (km/s) = 3.31282 3.93474 3.63709
# Velocity P-wave (km/s) = 5.44310 6.63952 6.07086
#
# Compressibility (1/GPa) = 0.02704696
#
# Stress axis : x y z
#
# Youngs Moduli (GPa) = 56.57642 56.57642 253.97732
#
# Poissons Ratio (x) = 0.19908 0.33038
# Poissons Ratio (y) = 0.19908 0.33038
# Poissons Ratio (z) = 0.07360 0.07360
#
# Static dielectric constant tensor:
#      x y z
#    x 1.999180 0.000000 0.000000 
#    y 0.000000 1.999180 0.000000 
#    z 0.000000 0.000000 2.135220 
# 
# From -- ./inp_files/2433.got.cif
#   From: 2010.05.17/outbox.cif.g08.bks.cpg/sg82_2_cif.got.tgz:2433.got - 2010.06.03 18:52:26.
