data_PCOD9543634
_publ_section_title
;
Structure prediction by ZEFSAII (Michael W. Deem and Ramdas Pophale) SiO2 
 PCOD9543634
Probable space group: P 4/M
;
_chemical_formula_sum "Si O2"
_cell_formula_units_Z 40
_cell_length_a 14.969766
_cell_length_b 14.969766
_cell_length_c 8.337322
_cell_angle_alpha 90.000000
_cell_angle_beta 90.000000
_cell_angle_gamma 90.000000
_cell_volume 1868.342953
_symmetry_space_group_name_H-M "P 4/M"
_symmetry_group_IT_number 83
_symmetry_cell_setting 'tetragonal'
loop_
_space_group_symop_operation_xyz
x,y,z
-y,x,z
-x,-y,z
y,-x,z
-x,-y,-z
y,-x,-z
x,y,-z
-y,x,-z
loop_
_atom_site_type_symbol
_atom_site_label
_atom_site_fract_x
_atom_site_fract_y
_atom_site_fract_z
Si Si1 0.449487 0.093106 0.308521
Si Si2 0.093490 0.222556 0.316080
Si Si3 0.754094 0.905643 0.813962
Si Si4 0.808940 0.612929 0.189610
Si Si5 0.418440 0.617069 0.195311
O O1 0.453936 0.104280 0.500000
O O2 0.346556 0.095378 0.255365
O O3 0.510042 0.167306 0.222030
O O4 0.500000 0.000000 0.267223
O O5 0.067484 0.209313 0.500000
O O6 0.176962 0.160704 0.271267
O O7 0.125491 0.323877 0.287264
O O8 0.006081 0.209034 0.208925
O O9 0.749541 0.881335 0.000000
O O10 0.707240 0.630324 0.243167
O O11 0.818249 0.631919 0.000000
O O12 0.380345 0.522097 0.247612
O O13 0.418643 0.616769 0.000000
#
# Coordination Sequence:
#
# PCOD9543634 Si02
#       5
#     8   8   8   8   8
#     4  11  23  41  65  93 131 172 211 261 329 388
#     4  12  26  46  68  96 135 174 215 269 340 403
#     4  12  26  46  72 101 130 169 224 277 325 391
#     4  11  22  36  62  96 128 169 222 273 321 386
#     4   8  16  32  53  82 122 165 210 263 316 370
#
# _framework density 21.409348000000001
#
# number of rings (size 3 to 8) (size 9 to 14) (size 15 to 20)
#    0.000    1.200    2.000    5.400    2.800    1.200 
#    0.000    2.000    0.000    0.000    0.000    5.600 
#    0.000    0.000    0.000    0.000    0.000    0.000 
#
# Total GULP energy -223665.363957 kJ/mol
# GULP energy per Si atom -5591.634099 kJ/mol
# Density = 2.136062 g / cm^3
# Si number density = 21.409348 Si / 1000 Ang^3
#
#
#
# Elastic Constant Matrix: (Units=GPa)
#
#
# Indices 1 2 3 4 5 6 
#
# 1 70.4219 14.4283 -9.4959 0.0000 0.0000 12.2225
# 2 14.4283 70.4219 -9.4959 0.0000 0.0000 -12.2225
# 3 -9.4959 -9.4959 44.3233 0.0000 0.0000 0.0000
# 4 0.0000 0.0000 0.0000 11.0024 0.0000 0.0000
# 5 0.0000 0.0000 0.0000 0.0000 11.0024 0.0000
# 6 12.2225 -12.2225 0.0000 0.0000 0.0000 28.0716
#
#
#
# Elastic Compliance Matrix: (Units=1/GPa)
#
#
# Indices 1 2 3 4 5 6 
#
# 1 0.017215 -0.004836 0.002652 0.000000 0.000000 -0.009601
# 2 -0.004836 0.017215 0.002652 0.000000 0.000000 0.009601
# 3 0.002652 0.002652 0.023698 0.000000 0.000000 0.000000
# 4 0.000000 0.000000 0.000000 0.090890 0.000000 0.000000
# 5 0.000000 0.000000 0.000000 0.000000 0.090890 0.000000
# 6 -0.009601 0.009601 0.000000 0.000000 0.000000 0.043984
#
#
# Mechanical properties :
#
#
# Convention : Reuss Voigt Hill
#
# Bulk Modulus (GPa) = 16.93063 19.56002 18.24533
# Shear Modulus (GPa) = 16.52118 22.66397 19.59258
#
# Velocity S-wave (km/s) = 2.78093 3.25715 3.02841
# Velocity P-wave (km/s) = 4.27044 4.82715 4.55730
#
# Compressibility (1/GPa) = 0.05906454
#
# Stress axis : x y z
#
# Youngs Moduli (GPa) = 58.08941 58.08941 42.19783
#
# Poissons Ratio (x) = 0.28091 -0.11191
# Poissons Ratio (y) = 0.28091 -0.11191
# Poissons Ratio (z) = -0.15406 -0.15406
#
# Static dielectric constant tensor:
#      x y z
#    x 1.775640 0.000000 0.000000 
#    y 0.000000 1.775640 0.000000 
#    z 0.000000 0.000000 1.728260 
# 
# From -- ./inp_files/666.got.cif
#   From: 2010.05.17/outbox.cif.g08.bks.cpg/sg83_1_cif.got.tgz:666.got - 2010.06.03 18:55:12.
