data_PCOD9543821
_publ_section_title
;
Structure prediction by ZEFSAII (Michael W. Deem and Ramdas Pophale) SiO2 
 PCOD9543821
Probable space group: P 4/M
;
_chemical_formula_sum "Si O2"
_cell_formula_units_Z 50
_cell_length_a 8.164360
_cell_length_b 8.164360
_cell_length_c 34.718121
_cell_angle_alpha 90.000000
_cell_angle_beta 90.000000
_cell_angle_gamma 90.000000
_cell_volume 2314.197952
_symmetry_space_group_name_H-M "P 4/M"
_symmetry_group_IT_number 83
_symmetry_cell_setting 'tetragonal'
loop_
_space_group_symop_operation_xyz
x,y,z
-y,x,z
-x,-y,z
y,-x,z
-x,-y,-z
y,-x,-z
x,y,-z
-y,x,-z
loop_
_atom_site_type_symbol
_atom_site_label
_atom_site_fract_x
_atom_site_fract_y
_atom_site_fract_z
Si Si1 0.737822 0.092479 0.642190
Si Si2 0.082939 0.263739 0.957699
Si Si3 0.500000 0.000000 0.500000
Si Si4 0.914519 0.737708 0.272041
Si Si5 0.425827 0.765909 0.568589
Si Si6 0.236162 0.417175 0.114971
Si Si7 0.417462 0.763652 0.199411
O O1 0.667234 0.114696 0.685237
O O2 0.616200 0.149039 0.608984
O O3 0.904797 0.200462 0.638728
O O4 0.127716 0.372545 0.921399
O O5 0.898292 0.196790 0.955893
O O6 0.110667 0.340386 0.000000
O O7 0.592982 0.107966 0.533869
O O8 0.870179 0.626510 0.236126
O O9 0.099695 0.802136 0.269843
O O10 0.305799 0.609406 0.565427
O O11 0.398198 0.303265 0.113217
O O12 0.158799 0.389274 0.157216
O O13 0.303350 0.601937 0.200991
#
# Coordination Sequence:
#
# PCOD9543821 Si02
#       7
#     8   8   2   8   8   8   8
#     4   9  19  38  62  88 121 160 198 237 287 346
#     4   9  19  35  52  72 100 132 168 216 276 341
#     4  12  24  42  64  86 120 156 188 232 284 336
#     4   9  19  35  55  82 116 151 188 230 275 328
#     4  11  24  41  63  92 123 155 194 241 288 334
#     4   9  19  35  52  72 101 137 178 226 278 332
#     4   9  19  35  52  73 106 146 187 231 278 330
#
# _framework density 21.605754999999998
#
# number of rings (size 3 to 8) (size 9 to 14) (size 15 to 20)
#    0.000    2.560    0.000    3.840    0.000    5.120 
#    0.000   12.000    0.000    2.880    0.000    0.000 
#    0.000    0.000    0.000    0.000    0.000    0.000 
#
# Total GULP energy -279045.035437 kJ/mol
# GULP energy per Si atom -5580.900709 kJ/mol
# Density = 2.155658 g / cm^3
# Si number density = 21.605755 Si / 1000 Ang^3
#
#
#
# Elastic Constant Matrix: (Units=GPa)
#
#
# Indices 1 2 3 4 5 6 
#
# 1 59.1712 31.9121 70.7534 0.0000 0.0000 -3.9324
# 2 31.9121 59.1712 70.7534 0.0000 0.0000 3.9324
# 3 70.7534 70.7534 252.9963 0.0000 0.0000 0.0000
# 4 0.0000 0.0000 0.0000 35.9147 0.0000 0.0000
# 5 0.0000 0.0000 0.0000 0.0000 35.9147 0.0000
# 6 -3.9324 3.9324 0.0000 0.0000 0.0000 38.5288
#
#
#
# Elastic Compliance Matrix: (Units=1/GPa)
#
#
# Indices 1 2 3 4 5 6 
#
# 1 0.028606 -0.009192 -0.005429 0.000000 0.000000 0.003858
# 2 -0.009192 0.028606 -0.005429 0.000000 0.000000 -0.003858
# 3 -0.005429 -0.005429 0.006989 0.000000 0.000000 0.000000
# 4 0.000000 0.000000 0.000000 0.027844 0.000000 0.000000
# 5 0.000000 0.000000 0.000000 0.000000 0.027844 0.000000
# 6 0.003858 -0.003858 0.000000 0.000000 0.000000 0.026742
#
#
# Mechanical properties :
#
#
# Convention : Reuss Voigt Hill
#
# Bulk Modulus (GPa) = 41.49385 79.79738 60.64561
# Shear Modulus (GPa) = 25.67183 35.26629 30.46906
#
# Velocity S-wave (km/s) = 3.45076 4.04451 3.75938
# Velocity P-wave (km/s) = 5.92652 7.66970 6.85376
#
# Compressibility (1/GPa) = 0.02409996
#
# Stress axis : x y z
#
# Youngs Moduli (GPa) = 34.95762 34.95762 143.07410
#
# Poissons Ratio (x) = 0.32133 0.77680
# Poissons Ratio (y) = 0.32133 0.77680
# Poissons Ratio (z) = 0.18980 0.18980
#
# Static dielectric constant tensor:
#      x y z
#    x 1.789290 0.000000 0.000000 
#    y 0.000000 1.789290 0.000000 
#    z 0.000000 0.000000 1.763470 
# 
# From -- ./inp_files/3442.got.cif
#   From: 2010.05.17/outbox.cif.g08.bks.cpg/sg83_2_cif.got.tgz:3442.got - 2010.06.03 18:55:12.
