data_PCOD9543775
_publ_section_title
;
Structure prediction by ZEFSAII (Michael W. Deem and Ramdas Pophale) SiO2 
 PCOD9543775
Probable space group: P 4/M
;
_chemical_formula_sum "Si O2"
_cell_formula_units_Z 44
_cell_length_a 8.157345
_cell_length_b 8.157345
_cell_length_c 29.456487
_cell_angle_alpha 90.000000
_cell_angle_beta 90.000000
_cell_angle_gamma 90.000000
_cell_volume 1960.101731
_symmetry_space_group_name_H-M "P 4/M"
_symmetry_group_IT_number 83
_symmetry_cell_setting 'tetragonal'
loop_
_space_group_symop_operation_xyz
x,y,z
-y,x,z
-x,-y,z
y,-x,z
-x,-y,-z
y,-x,-z
x,y,-z
-y,x,-z
loop_
_atom_site_type_symbol
_atom_site_label
_atom_site_fract_x
_atom_site_fract_y
_atom_site_fract_z
Si Si1 0.914468 0.262265 0.176342
Si Si2 0.237859 0.591844 0.736100
Si Si3 0.916952 0.263835 0.450301
Si Si4 0.737376 0.912433 0.000000
Si Si5 0.585619 0.762733 0.364423
Si Si6 0.586584 0.762733 0.911499
O O1 0.877390 0.353662 0.223285
O O2 0.861494 0.372223 0.133942
O O3 0.099687 0.199011 0.174079
O O4 0.299941 0.404548 0.739616
O O5 0.164633 0.615506 0.685712
O O6 0.888583 0.341844 0.500000
O O7 0.872799 0.370422 0.407033
O O8 0.101730 0.196988 0.448438
O O9 0.635644 0.867001 0.044630
O O10 0.901542 0.800351 0.000000
O O11 0.400227 0.698003 0.366761
O O12 0.400905 0.699233 0.912267
#
# Coordination Sequence:
#
# PCOD9543775 Si02
#       6
#     8   8   8   4   8   8
#     4  11  24  39  56  83 116 147 183 227 274 324
#     4   9  19  37  58  79 106 141 180 221 268 324
#     4   9  19  35  52  72 102 139 177 218 265 318
#     4  11  24  41  62  90 122 153 188 231 276 324
#     4   9  19  35  54  78 107 137 173 220 270 320
#     4  11  24  41  62  88 116 149 191 233 274 325
#
# _framework density 22.447814000000001
#
# number of rings (size 3 to 8) (size 9 to 14) (size 15 to 20)
#    0.000    2.091    0.000    4.364    0.000   12.364 
#    0.000    8.182    0.000    0.000    0.000    0.000 
#    0.000    0.000    0.000    0.000    0.000    0.000 
#
# Total GULP energy -246504.486067 kJ/mol
# GULP energy per Si atom -5602.374683 kJ/mol
# Density = 2.239672 g / cm^3
# Si number density = 22.447814 Si / 1000 Ang^3
#
#
#
# Elastic Constant Matrix: (Units=GPa)
#
#
# Indices 1 2 3 4 5 6 
#
# 1 78.6886 49.7493 65.1022 0.0000 0.0000 -0.4187
# 2 49.7493 78.6886 65.1022 0.0000 0.0000 0.4187
# 3 65.1022 65.1022 222.6898 0.0000 0.0000 0.0000
# 4 0.0000 0.0000 0.0000 413.2385 0.0000 0.0000
# 5 0.0000 0.0000 0.0000 0.0000 413.2385 0.0000
# 6 -0.4187 0.4187 0.0000 0.0000 0.0000 45.3282
#
#
#
# Elastic Compliance Matrix: (Units=1/GPa)
#
#
# Indices 1 2 3 4 5 6 
#
# 1 0.022815 -0.011750 -0.003235 0.000000 0.000000 0.000319
# 2 -0.011750 0.022815 -0.003235 0.000000 0.000000 -0.000319
# 3 -0.003235 -0.003235 0.006382 0.000000 0.000000 0.000000
# 4 0.000000 0.000000 0.000000 0.002420 0.000000 0.000000
# 5 0.000000 0.000000 0.000000 0.000000 0.002420 0.000000
# 6 0.000319 -0.000319 0.000000 0.000000 0.000000 0.022067
#
#
# Mechanical properties :
#
#
# Convention : Reuss Voigt Hill
#
# Bulk Modulus (GPa) = 64.21398 82.21938 73.21668
# Shear Modulus (GPa) = 41.47727 187.70195 114.58961
#
# Velocity S-wave (km/s) = 4.30317 9.15415 7.15248
# Velocity P-wave (km/s) = 7.30464 12.18351 10.04479
#
# Compressibility (1/GPa) = 0.01557293
#
# Stress axis : x y z
#
# Youngs Moduli (GPa) = 43.83129 43.83129 156.69216
#
# Poissons Ratio (x) = 0.51500 0.50688
# Poissons Ratio (y) = 0.51500 0.50688
# Poissons Ratio (z) = 0.14179 0.14179
#
# Static dielectric constant tensor:
#      x y z
#    x 1.808220 0.000000 0.000000 
#    y 0.000000 1.808220 0.000000 
#    z 0.000000 0.000000 1.785490 
# 
# From -- ./inp_files/3364.got.cif
#   From: 2010.05.17/outbox.cif.g08.bks.cpg/sg83_2_cif.got.tgz:3364.got - 2010.06.03 18:55:12.
