data_PCOD9543785
_publ_section_title
;
Structure prediction by ZEFSAII (Michael W. Deem and Ramdas Pophale) SiO2 
 PCOD9543785
Probable space group: P 4/M
;
_chemical_formula_sum "Si O2"
_cell_formula_units_Z 44
_cell_length_a 8.109366
_cell_length_b 8.109366
_cell_length_c 30.426331
_cell_angle_alpha 90.000000
_cell_angle_beta 90.000000
_cell_angle_gamma 90.000000
_cell_volume 2000.890809
_symmetry_space_group_name_H-M "P 4/M"
_symmetry_group_IT_number 83
_symmetry_cell_setting 'tetragonal'
loop_
_space_group_symop_operation_xyz
x,y,z
-y,x,z
-x,-y,z
y,-x,z
-x,-y,-z
y,-x,-z
x,y,-z
-y,x,-z
loop_
_atom_site_type_symbol
_atom_site_label
_atom_site_fract_x
_atom_site_fract_y
_atom_site_fract_z
Si Si1 0.000000 0.500000 0.119773
Si Si2 0.096207 0.261719 0.450944
Si Si3 0.763161 0.586192 0.365449
Si Si4 0.415445 0.764470 0.805774
Si Si5 0.405656 0.238142 0.049412
Si Si6 0.086250 0.264062 0.280083
O O1 0.119651 0.398699 0.151989
O O2 0.106849 0.615596 0.087645
O O3 0.122769 0.330887 0.500000
O O4 0.149760 0.378180 0.411640
O O5 0.907016 0.202665 0.447343
O O6 0.599962 0.700201 0.362645
O O7 0.875505 0.640421 0.324888
O O8 0.301103 0.602946 0.806747
O O9 0.372093 0.862420 0.761697
O O10 0.596119 0.298625 0.053445
O O11 0.380916 0.171980 0.000000
O O12 0.899693 0.200301 0.278757
#
# Coordination Sequence:
#
# PCOD9543785 Si02
#       6
#     4   8   8   8   8   8
#     4  12  21  34  60  92 122 158 203 254 308 358
#     4   9  19  37  60  86 116 151 195 248 305 364
#     4  11  24  39  57  85 120 158 200 245 296 359
#     4  11  24  41  61  87 120 159 204 252 305 368
#     4   9  19  37  61  90 124 163 209 257 305 361
#     4  11  24  42  64  90 119 152 196 250 307 367
#
# _framework density 21.990207000000002
#
# number of rings (size 3 to 8) (size 9 to 14) (size 15 to 20)
#    0.000    1.636    0.000    5.727    0.000    9.455 
#    0.000    2.727    0.000    4.909    0.000   10.182 
#    0.000    0.000    0.000    0.000    0.000    0.000 
#
# Total GULP energy -246440.842968 kJ/mol
# GULP energy per Si atom -5600.928249 kJ/mol
# Density = 2.194016 g / cm^3
# Si number density = 21.990207 Si / 1000 Ang^3
#
#
#
# Elastic Constant Matrix: (Units=GPa)
#
#
# Indices 1 2 3 4 5 6 
#
# 1 97.4572 44.8805 67.8476 0.0000 0.0000 -0.1035
# 2 44.8805 97.4572 67.8476 0.0000 0.0000 0.1035
# 3 67.8476 67.8476 201.2523 0.0000 0.0000 0.0000
# 4 0.0000 0.0000 0.0000 -88.2082 0.0000 0.0000
# 5 0.0000 0.0000 0.0000 0.0000 -88.2082 0.0000
# 6 -0.1035 0.1035 0.0000 0.0000 0.0000 33.8031
#
#
#
# Elastic Compliance Matrix: (Units=1/GPa)
#
#
# Indices 1 2 3 4 5 6 
#
# 1 0.014687 -0.004334 -0.003490 0.000000 0.000000 0.000058
# 2 -0.004334 0.014687 -0.003490 0.000000 0.000000 -0.000058
# 3 -0.003490 -0.003490 0.007322 0.000000 0.000000 0.000000
# 4 0.000000 0.000000 0.000000 -0.011337 0.000000 0.000000
# 5 0.000000 0.000000 0.000000 0.000000 -0.011337 0.000000
# 6 0.000058 -0.000058 0.000000 0.000000 0.000000 0.029583
#
#
# Mechanical properties :
#
#
# Convention : Reuss Voigt Hill
#
# Bulk Modulus (GPa) = 71.08817 84.14645 77.61731
# Shear Modulus (GPa) = 70.49977 -14.14995 28.17491
#
# Velocity S-wave (km/s) = 5.66826 -2.53941 3.58334
# Velocity P-wave (km/s) = 8.67389 5.45439 7.24523
#
# Compressibility (1/GPa) = 0.01406704
#
# Stress axis : x y z
#
# Youngs Moduli (GPa) = 68.08974 68.08974 136.57095
#
# Poissons Ratio (x) = 0.29507 0.47667
# Poissons Ratio (y) = 0.29507 0.47667
# Poissons Ratio (z) = 0.23765 0.23765
#
# Static dielectric constant tensor:
#      x y z
#    x 1.808410 0.000000 0.000000 
#    y 0.000000 1.808410 0.000000 
#    z 0.000000 0.000000 1.771770 
# 
# From -- ./inp_files/3371.got.cif
#   From: 2010.05.17/outbox.cif.g08.bks.cpg/sg83_2_cif.got.tgz:3371.got - 2010.06.03 18:55:12.
