data_PCOD9543188
_publ_section_title
;
Structure prediction by ZEFSAII (Michael W. Deem and Ramdas Pophale) SiO2 
 PCOD9543188
Probable space group: I -4 
;
_chemical_formula_sum "Si O2"
_cell_formula_units_Z 40
_cell_length_a 9.603787
_cell_length_b 9.603787
_cell_length_c 20.952324
_cell_angle_alpha 90.000000
_cell_angle_beta 90.000000
_cell_angle_gamma 90.000000
_cell_volume 1932.489932
_symmetry_space_group_name_H-M "I -4 "
_symmetry_group_IT_number 82
_symmetry_cell_setting 'tetragonal'
loop_
_space_group_symop_operation_xyz
x,y,z
y,-x,-z
-x,-y,z
-y,x,-z
1/2+x,1/2+y,1/2+z
1/2+y,1/2-x,1/2-z
1/2-x,1/2-y,1/2+z
1/2-y,1/2+x,1/2-z
loop_
_atom_site_type_symbol
_atom_site_label
_atom_site_fract_x
_atom_site_fract_y
_atom_site_fract_z
Si Si1 0.000000 0.500000 0.051738
Si Si2 0.643116 0.444420 0.725535
Si Si3 0.500000 0.500000 0.000000
Si Si4 0.059225 0.710326 0.558710
Si Si5 0.116403 0.380870 0.672295
Si Si6 0.500000 0.500000 0.500000
Si Si7 0.781368 0.873362 0.898330
O O1 0.928207 0.374621 0.090092
O O2 0.882076 0.561803 0.004763
O O3 0.500000 0.500000 0.754547
O O4 0.731527 0.556595 0.683960
O O5 0.751284 0.400801 0.780065
O O6 0.598306 0.330132 0.673650
O O7 0.540866 0.369610 0.042040
O O8 0.206627 0.699409 0.594046
O O9 0.927484 0.663313 0.601245
O O10 0.000000 0.500000 0.685532
O O11 0.379592 0.443497 0.452418
#
# Coordination Sequence:
#
# PCOD9543188 Si02
#       7
#     4   8   2   8   8   2   8
#     4  12  24  40  70 107 149 184 232 298 372 432
#     4  12  25  45  72 107 134 182 246 297 354 426
#     4  12  28  40  62 112 148 172 232 290 376 428
#     4  12  24  43  70 105 141 187 236 299 357 432
#     4  12  23  47  78  97 132 192 247 286 347 438
#     4  12  24  40  70 104 132 188 228 282 360 444
#     4  12  24  42  69 103 144 183 238 295 358 436
#
# _framework density 20.698685999999999
#
# number of rings (size 3 to 8) (size 9 to 14) (size 15 to 20)
#    0.000    0.000   10.000    0.000    1.400    1.600 
#    0.000    0.000    0.000    0.000    0.000    0.000 
#    0.000    0.000    0.000    0.000    0.000    0.000 
#
# Total GULP energy -111806.535660 kJ/mol
# GULP energy per Si atom -5590.326783 kJ/mol
# Density = 2.065157 g / cm^3
# Si number density = 20.698686 Si / 1000 Ang^3
#
#
#
# Elastic Constant Matrix: (Units=GPa)
#
#
# Indices 1 2 3 4 5 6 
#
# 1 97.2397 10.7553 7.2611 0.0000 0.0000 1.4964
# 2 10.7553 97.2397 7.2611 0.0000 0.0000 -1.4964
# 3 7.2611 7.2611 57.5822 0.0000 0.0000 0.0000
# 4 0.0000 0.0000 0.0000 30.6363 0.0000 0.0000
# 5 0.0000 0.0000 0.0000 0.0000 30.6363 0.0000
# 6 1.4964 -1.4964 0.0000 0.0000 0.0000 27.1732
#
#
#
# Elastic Compliance Matrix: (Units=1/GPa)
#
#
# Indices 1 2 3 4 5 6 
#
# 1 0.010502 -0.001083 -0.001188 0.000000 0.000000 -0.000638
# 2 -0.001083 0.010502 -0.001188 0.000000 0.000000 0.000638
# 3 -0.001188 -0.001188 0.017666 0.000000 0.000000 0.000000
# 4 0.000000 0.000000 0.000000 0.032641 0.000000 0.000000
# 5 0.000000 0.000000 0.000000 0.000000 0.032641 0.000000
# 6 -0.000638 0.000638 0.000000 0.000000 0.000000 0.036871
#
#
# Mechanical properties :
#
#
# Convention : Reuss Voigt Hill
#
# Bulk Modulus (GPa) = 31.49238 33.62408 32.55823
# Shear Modulus (GPa) = 31.58068 32.80812 32.19440
#
# Velocity S-wave (km/s) = 3.91030 3.98557 3.94811
# Velocity P-wave (km/s) = 5.96950 6.12041 6.04543
#
# Compressibility (1/GPa) = 0.03175371
#
# Stress axis : x y z
#
# Youngs Moduli (GPa) = 95.21878 95.21878 56.60576
#
# Poissons Ratio (x) = 0.10310 0.06724
# Poissons Ratio (y) = 0.10310 0.06724
# Poissons Ratio (z) = 0.11310 0.11310
#
# Static dielectric constant tensor:
#      x y z
#    x 1.722120 0.000000 0.000000 
#    y 0.000000 1.722120 0.000000 
#    z 0.000000 0.000000 1.731800 
# 
# From -- ./inp_files/3423.got.cif
#   From: 2010.05.17/outbox.cif.g08.bks.cpg/sg82_2_cif.got.tgz:3423.got - 2010.06.03 18:52:26.
