data_PCOD9543830
_publ_section_title
;
Structure prediction by ZEFSAII (Michael W. Deem and Ramdas Pophale) SiO2 
 PCOD9543830
Probable space group: P 4/M
;
_chemical_formula_sum "Si O2"
_cell_formula_units_Z 34
_cell_length_a 8.715468
_cell_length_b 8.715468
_cell_length_c 21.849125
_cell_angle_alpha 90.000000
_cell_angle_beta 90.000000
_cell_angle_gamma 90.000000
_cell_volume 1659.646042
_symmetry_space_group_name_H-M "P 4/M"
_symmetry_group_IT_number 83
_symmetry_cell_setting 'tetragonal'
loop_
_space_group_symop_operation_xyz
x,y,z
-y,x,z
-x,-y,z
y,-x,z
-x,-y,-z
y,-x,-z
x,y,-z
-y,x,-z
loop_
_atom_site_type_symbol
_atom_site_label
_atom_site_fract_x
_atom_site_fract_y
_atom_site_fract_z
Si Si1 0.500000 0.500000 0.387848
Si Si2 0.878605 0.224312 0.500000
Si Si3 0.762788 0.893090 0.000000
Si Si4 0.416558 0.163972 0.621484
Si Si5 0.763244 0.891801 0.133475
Si Si6 0.614404 0.733830 0.247096
O O1 0.474802 0.686786 0.385679
O O2 0.836801 0.311471 0.561728
O O3 0.060327 0.200821 0.500000
O O4 0.690618 0.860288 0.933834
O O5 0.926704 0.806313 0.000000
O O6 0.345077 0.182917 0.689311
O O7 0.500000 0.000000 0.621374
O O8 0.661205 0.833289 0.188891
O O9 0.927772 0.804597 0.137190
O O10 0.432484 0.696662 0.246152
#
# Coordination Sequence:
#
# PCOD9543830 Si02
#       6
#     2   4   4   8   8   8
#     4  12  24  49  68 108 140 177 244 282 340 425
#     4  11  27  47  68 104 141 173 230 293 342 416
#     4   7  12  30  54  85 124 164 217 276 332 402
#     4  12  25  45  72  98 134 186 229 283 355 419
#     4   9  19  34  61  93 125 169 222 279 340 403
#     4  11  24  43  60  92 131 173 222 275 332 410
#
# _framework density 20.486297
#
# number of rings (size 3 to 8) (size 9 to 14) (size 15 to 20)
#    0.000    1.647    2.353    3.176    3.294    1.412 
#    0.000    3.529    0.000    5.647    0.000    0.000 
#    0.000    0.000    0.000    0.000    0.000    0.000 
#
# Total GULP energy -189298.251750 kJ/mol
# GULP energy per Si atom -5567.595640 kJ/mol
# Density = 2.043967 g / cm^3
# Si number density = 20.486297 Si / 1000 Ang^3
#
#
#
# Elastic Constant Matrix: (Units=GPa)
#
#
# Indices 1 2 3 4 5 6 
#
# 1 279.2853 -180.1571 53.5754 0.0000 0.0000 -15.0405
# 2 -180.1571 279.2853 53.5754 0.0000 0.0000 15.0405
# 3 53.5754 53.5754 218.5170 0.0000 0.0000 0.0000
# 4 0.0000 0.0000 0.0000 20.2749 0.0000 0.0000
# 5 0.0000 0.0000 0.0000 0.0000 20.2749 0.0000
# 6 -15.0405 15.0405 0.0000 0.0000 0.0000 73.2193
#
#
#
# Elastic Compliance Matrix: (Units=1/GPa)
#
#
# Indices 1 2 3 4 5 6 
#
# 1 0.007966 0.005760 -0.003365 0.000000 0.000000 0.000453
# 2 0.005760 0.007966 -0.003365 0.000000 0.000000 -0.000453
# 3 -0.003365 -0.003365 0.006226 0.000000 0.000000 0.000000
# 4 0.000000 0.000000 0.000000 0.049322 0.000000 0.000000
# 5 0.000000 0.000000 0.000000 0.000000 0.049322 0.000000
# 6 0.000453 -0.000453 0.000000 0.000000 0.000000 0.013844
#
#
# Mechanical properties :
#
#
# Convention : Reuss Voigt Hill
#
# Bulk Modulus (GPa) = 49.46411 70.11946 59.79178
# Shear Modulus (GPa) = 34.88544 79.42674 57.15609
#
# Velocity S-wave (km/s) = 4.13106 6.23336 5.28774
# Velocity P-wave (km/s) = 6.85212 9.27945 8.15659
#
# Compressibility (1/GPa) = 0.02021668
#
# Stress axis : x y z
#
# Youngs Moduli (GPa) = 125.53585 125.53585 160.60551
#
# Poissons Ratio (x) = -0.72304 0.54047
# Poissons Ratio (y) = -0.72304 0.54047
# Poissons Ratio (z) = 0.42245 0.42245
#
# Static dielectric constant tensor:
#      x y z
#    x 1.732460 0.000000 0.000000 
#    y 0.000000 1.732460 0.000000 
#    z 0.000000 0.000000 1.822770 
# 
# From -- ./inp_files/2867.got.cif
#   From: 2010.05.17/outbox.cif.g08.bks.cpg/sg83_2_cif.got.tgz:2867.got - 2010.06.03 18:55:12.
