data_PCOD9543862
_publ_section_title
;
Structure prediction by ZEFSAII (Michael W. Deem and Ramdas Pophale) SiO2 
 PCOD9543862
Probable space group: P 4/M
;
_chemical_formula_sum "Si O2"
_cell_formula_units_Z 44
_cell_length_a 9.894571
_cell_length_b 9.894571
_cell_length_c 17.009528
_cell_angle_alpha 90.000000
_cell_angle_beta 90.000000
_cell_angle_gamma 90.000000
_cell_volume 1665.275915
_symmetry_space_group_name_H-M "P 4/M"
_symmetry_group_IT_number 83
_symmetry_cell_setting 'tetragonal'
loop_
_space_group_symop_operation_xyz
x,y,z
-y,x,z
-x,-y,z
y,-x,z
-x,-y,-z
y,-x,-z
x,y,-z
-y,x,-z
loop_
_atom_site_type_symbol
_atom_site_label
_atom_site_fract_x
_atom_site_fract_y
_atom_site_fract_z
Si Si1 0.792491 0.093336 0.342992
Si Si2 0.220920 0.937869 0.830730
Si Si3 0.775989 0.055300 0.000000
Si Si4 0.473469 0.270239 0.915482
Si Si5 0.468274 0.275244 0.747584
Si Si6 0.472765 0.841806 0.583803
O O1 0.722947 0.092058 0.255671
O O2 0.687939 0.160260 0.401809
O O3 0.935388 0.169204 0.351408
O O4 0.088641 0.841004 0.831081
O O5 0.292978 0.922854 0.915154
O O6 0.906027 0.156408 0.000000
O O7 0.612461 0.357348 0.915678
O O8 0.457731 0.197576 0.831115
O O9 0.460006 0.198385 0.000000
O O10 0.608759 0.355719 0.749603
O O11 0.457548 0.207511 0.663297
O O12 0.510277 0.777489 0.500000
O O13 0.500000 0.000000 0.579503
#
# Coordination Sequence:
#
# PCOD9543862 Si02
#       6
#     8   8   4   8   8   8
#     4   9  19  37  61  85 108 143 192 241 288 344
#     4   7  10  19  39  70 101 130 170 215 261 312
#     4   7   8  12  30  64 101 130 162 209 254 306
#     4   7  10  21  48  87 120 144 181 229 274 331
#     4   9  19  37  63  93 120 152 192 237 292 348
#     4  11  26  42  58  82 114 153 194 240 300 354
#
# _framework density 26.422046000000002
#
# number of rings (size 3 to 8) (size 9 to 14) (size 15 to 20)
#    0.000    3.545    0.000    3.818    2.545    1.455 
#    0.000    1.818    2.000    0.545    0.000    0.000 
#    0.000    0.000    0.000    0.000    0.000    0.000 
#
# Total GULP energy -245896.898891 kJ/mol
# GULP energy per Si atom -5588.565884 kJ/mol
# Density = 2.636191 g / cm^3
# Si number density = 26.422046 Si / 1000 Ang^3
#
#
#
# Elastic Constant Matrix: (Units=GPa)
#
#
# Indices 1 2 3 4 5 6 
#
# 1 22.9837 50.3748 29.4256 0.0000 0.0000 -2.1645
# 2 50.3748 22.9837 29.4256 0.0000 0.0000 2.1645
# 3 29.4256 29.4256 254.9964 0.0000 0.0000 0.0000
# 4 0.0000 0.0000 0.0000 33.5715 0.0000 0.0000
# 5 0.0000 0.0000 0.0000 0.0000 33.5715 0.0000
# 6 -2.1645 2.1645 0.0000 0.0000 0.0000 26.9143
#
#
#
# Elastic Compliance Matrix: (Units=1/GPa)
#
#
# Indices 1 2 3 4 5 6 
#
# 1 -0.010514 0.025536 -0.001734 0.000000 0.000000 -0.002899
# 2 0.025536 -0.010514 -0.001734 0.000000 0.000000 0.002899
# 3 -0.001734 -0.001734 0.004322 0.000000 0.000000 0.000000
# 4 0.000000 0.000000 0.000000 0.029787 0.000000 0.000000
# 5 0.000000 0.000000 0.000000 0.000000 0.029787 0.000000
# 6 -0.002899 0.002899 0.000000 0.000000 0.000000 0.036689
#
#
# Mechanical properties :
#
#
# Convention : Reuss Voigt Hill
#
# Bulk Modulus (GPa) = 36.45327 57.71285 47.08306
# Shear Modulus (GPa) = 112.20048 31.59398 71.89723
#
# Velocity S-wave (km/s) = 6.52357 3.46170 5.22208
# Velocity P-wave (km/s) = 8.40054 6.15370 7.36332
#
# Compressibility (1/GPa) = 0.02743238
#
# Stress axis : x y z
#
# Youngs Moduli (GPa) = -95.11351 -95.11351 231.39009
#
# Poissons Ratio (x) = 2.42883 0.40112
# Poissons Ratio (y) = 2.42883 0.40112
# Poissons Ratio (z) = -0.16488 -0.16488
#
# Static dielectric constant tensor:
#      x y z
#    x 2.099370 0.000000 0.000000 
#    y 0.000000 2.099370 0.000000 
#    z 0.000000 0.000000 2.168500 
# 
# From -- ./inp_files/2590.got.cif
#   From: 2010.05.17/outbox.cif.g08.bks.cpg/sg83_2_cif.got.tgz:2590.got - 2010.06.03 18:55:12.
