data_PCOD9543747
_publ_section_title
;
Structure prediction by ZEFSAII (Michael W. Deem and Ramdas Pophale) SiO2 
 PCOD9543747
Probable space group: P 4/M
;
_chemical_formula_sum "Si O2"
_cell_formula_units_Z 37
_cell_length_a 8.516770
_cell_length_b 8.516770
_cell_length_c 24.014753
_cell_angle_alpha 90.000000
_cell_angle_beta 90.000000
_cell_angle_gamma 90.000000
_cell_volume 1741.919024
_symmetry_space_group_name_H-M "P 4/M"
_symmetry_group_IT_number 83
_symmetry_cell_setting 'tetragonal'
loop_
_space_group_symop_operation_xyz
x,y,z
-y,x,z
-x,-y,z
y,-x,z
-x,-y,-z
y,-x,-z
x,y,-z
-y,x,-z
loop_
_atom_site_type_symbol
_atom_site_label
_atom_site_fract_x
_atom_site_fract_y
_atom_site_fract_z
Si Si1 0.883013 0.763050 0.889104
Si Si2 0.103895 0.245259 0.764624
Si Si3 0.500000 0.500000 0.000000
Si Si4 0.089303 0.249279 0.436347
Si Si5 0.750566 0.584323 0.337337
Si Si6 0.827676 0.574244 0.000000
O O1 0.859864 0.695135 0.827097
O O2 0.068431 0.798608 0.892635
O O3 0.828228 0.663247 0.940853
O O4 0.155397 0.366137 0.717725
O O5 0.920695 0.197347 0.758940
O O6 0.685077 0.451601 0.000000
O O7 0.109113 0.304621 0.500000
O O8 0.146485 0.371982 0.390985
O O9 0.909835 0.192580 0.429267
O O10 0.593732 0.691870 0.337957
O O11 0.000000 0.500000 0.000000
#
# Coordination Sequence:
#
# PCOD9543747 Si02
#       6
#     8   8   1   8   8   4
#     4   9  18  37  65  92 120 161 210 259 318 382
#     4   9  19  38  62  87 113 149 203 255 300 359
#     4  12  28  44  60 104 132 164 220 268 310 392
#     4   9  19  37  62  89 114 145 191 247 301 355
#     4  11  24  39  52  80 121 161 198 240 302 361
#     4  12  24  43  64  93 136 172 210 260 328 388
#
# _framework density 21.240940999999999
#
# number of rings (size 3 to 8) (size 9 to 14) (size 15 to 20)
#    0.000    2.162    0.000    5.189    0.000    6.919 
#   11.676    3.243    0.000    0.000    0.000    0.000 
#    0.000    0.000    0.000    0.000    0.000    0.000 
#
# Total GULP energy -206636.505919 kJ/mol
# GULP energy per Si atom -5584.770430 kJ/mol
# Density = 2.119260 g / cm^3
# Si number density = 21.240941 Si / 1000 Ang^3
#
#
#
# Elastic Constant Matrix: (Units=GPa)
#
#
# Indices 1 2 3 4 5 6 
#
# 1 41.9506 25.2758 48.0170 0.0000 0.0000 -5.3881
# 2 25.2758 41.9506 48.0170 0.0000 0.0000 5.3881
# 3 48.0170 48.0170 158.2456 0.0000 0.0000 0.0000
# 4 0.0000 0.0000 0.0000 -12.3106 0.0000 0.0000
# 5 0.0000 0.0000 0.0000 0.0000 -12.3106 0.0000
# 6 -5.3881 5.3881 0.0000 0.0000 0.0000 29.7523
#
#
#
# Elastic Compliance Matrix: (Units=1/GPa)
#
#
# Indices 1 2 3 4 5 6 
#
# 1 0.047088 -0.020832 -0.007967 0.000000 0.000000 0.012300
# 2 -0.020832 0.047088 -0.007967 0.000000 0.000000 -0.012300
# 3 -0.007967 -0.007967 0.011154 0.000000 0.000000 0.000000
# 4 0.000000 0.000000 0.000000 -0.081231 0.000000 0.000000
# 5 0.000000 0.000000 0.000000 0.000000 -0.081231 0.000000
# 6 0.012300 -0.012300 0.000000 0.000000 0.000000 0.038066
#
#
# Mechanical properties :
#
#
# Convention : Reuss Voigt Hill
#
# Bulk Modulus (GPa) = 31.44808 53.86292 42.65550
# Shear Modulus (GPa) = 76.84609 9.08203 42.96406
#
# Velocity S-wave (km/s) = 6.02136 2.07002 4.50232
# Velocity P-wave (km/s) = 7.94858 5.57911 6.86682
#
# Compressibility (1/GPa) = 0.03179844
#
# Stress axis : x y z
#
# Youngs Moduli (GPa) = 21.23684 21.23684 89.65250
#
# Poissons Ratio (x) = 0.44240 0.71426
# Poissons Ratio (y) = 0.44240 0.71426
# Poissons Ratio (z) = 0.16919 0.16919
#
# Static dielectric constant tensor:
#      x y z
#    x 1.798240 0.000000 0.000000 
#    y 0.000000 1.798240 0.000000 
#    z 0.000000 0.000000 1.740080 
# 
# From -- ./inp_files/3118.got.cif
#   From: 2010.05.17/outbox.cif.g08.bks.cpg/sg83_2_cif.got.tgz:3118.got - 2010.06.03 18:55:12.
