data_PCOD9543127
_publ_section_title
;
Structure prediction by ZEFSAII (Michael W. Deem and Ramdas Pophale) SiO2 
 PCOD9543127
Probable space group: I -4 
;
_chemical_formula_sum "Si O2"
_cell_formula_units_Z 40
_cell_length_a 9.344723
_cell_length_b 9.344723
_cell_length_c 19.891242
_cell_angle_alpha 90.000000
_cell_angle_beta 90.000000
_cell_angle_gamma 90.000000
_cell_volume 1736.979792
_symmetry_space_group_name_H-M "I -4 "
_symmetry_group_IT_number 82
_symmetry_cell_setting 'tetragonal'
loop_
_space_group_symop_operation_xyz
x,y,z
y,-x,-z
-x,-y,z
-y,x,-z
1/2+x,1/2+y,1/2+z
1/2+y,1/2-x,1/2-z
1/2-x,1/2-y,1/2+z
1/2-y,1/2+x,1/2-z
loop_
_atom_site_type_symbol
_atom_site_label
_atom_site_fract_x
_atom_site_fract_y
_atom_site_fract_z
Si Si1 0.307789 0.784989 0.509005
Si Si2 0.788144 0.552543 0.267099
Si Si3 0.831417 0.534519 0.926485
Si Si4 0.947265 0.835238 0.095407
Si Si5 0.572550 0.794111 0.221629
O O1 0.269315 0.945206 0.489378
O O2 0.322831 0.708403 0.436539
O O3 0.457130 0.760780 0.545707
O O4 0.196318 0.708662 0.557946
O O5 0.847843 0.427428 0.218364
O O6 0.729391 0.469222 0.331593
O O7 0.663079 0.655677 0.241578
O O8 0.778780 0.488937 0.853059
O O9 0.000000 0.500000 0.926999
O O10 0.000000 0.000000 0.092468
O O11 0.436462 0.828432 0.269975
#
# Coordination Sequence:
#
# PCOD9543127 Si02
#       5
#     8   8   8   8   8
#     4  12  25  43  74 103 137 188 228 294 349 409
#     4  11  28  46  68 107 149 187 231 292 358 418
#     4  12  24  45  70 104 144 177 236 288 349 419
#     4  12  23  45  75 100 136 185 250 284 337 429
#     4  11  24  45  76 105 136 186 236 291 348 416
#
# _framework density 23.028476999999999
#
# number of rings (size 3 to 8) (size 9 to 14) (size 15 to 20)
#    0.000    0.400    6.000    2.400    5.600    5.200 
#    0.000    2.000    0.000    0.000    0.000    0.000 
#    0.000    0.000    0.000    0.000    0.000    0.000 
#
# Total GULP energy -111949.188268 kJ/mol
# GULP energy per Si atom -5597.459413 kJ/mol
# Density = 2.297606 g / cm^3
# Si number density = 23.028477 Si / 1000 Ang^3
#
#
#
# Elastic Constant Matrix: (Units=GPa)
#
#
# Indices 1 2 3 4 5 6 
#
# 1 35.8026 -7.1762 13.3388 0.0000 0.0000 0.9282
# 2 -7.1762 35.8026 13.3388 0.0000 0.0000 -0.9282
# 3 13.3388 13.3388 69.8605 0.0000 0.0000 0.0000
# 4 0.0000 0.0000 0.0000 -26.8244 0.0000 0.0000
# 5 0.0000 0.0000 0.0000 0.0000 -26.8244 0.0000
# 6 0.9282 -0.9282 0.0000 0.0000 0.0000 39.1833
#
#
#
# Elastic Compliance Matrix: (Units=1/GPa)
#
#
# Indices 1 2 3 4 5 6 
#
# 1 0.032893 0.009601 -0.008114 0.000000 0.000000 -0.000552
# 2 0.009601 0.032893 -0.008114 0.000000 0.000000 0.000552
# 3 -0.008114 -0.008114 0.017413 0.000000 0.000000 0.000000
# 4 0.000000 0.000000 0.000000 -0.037280 0.000000 0.000000
# 5 0.000000 0.000000 0.000000 0.000000 -0.037280 0.000000
# 6 -0.000552 0.000552 0.000000 0.000000 0.000000 0.025547
#
#
# Mechanical properties :
#
#
# Convention : Reuss Voigt Hill
#
# Bulk Modulus (GPa) = 14.29670 20.05207 17.17439
# Shear Modulus (GPa) = 70.66854 5.23785 37.95319
#
# Velocity S-wave (km/s) = 5.54564 1.50978 4.06408
# Velocity P-wave (km/s) = 6.87220 3.43011 5.43106
#
# Compressibility (1/GPa) = 0.06994620
#
# Stress axis : x y z
#
# Youngs Moduli (GPa) = 30.40200 30.40200 57.42977
#
# Poissons Ratio (x) = -0.29190 0.46596
# Poissons Ratio (y) = -0.29190 0.46596
# Poissons Ratio (z) = 0.24667 0.24667
#
# Static dielectric constant tensor:
#      x y z
#    x 1.935100 0.000000 0.000000 
#    y 0.000000 1.935100 0.000000 
#    z 0.000000 0.000000 1.827620 
# 
# From -- ./inp_files/3372.got.cif
#   From: 2010.05.17/outbox.cif.g08.bks.cpg/sg82_2_cif.got.tgz:3372.got - 2010.06.03 18:52:26.
