data_PCOD9543170
_publ_section_title
;
Structure prediction by ZEFSAII (Michael W. Deem and Ramdas Pophale) SiO2 
 PCOD9543170
Probable space group: I -4 
;
_chemical_formula_sum "Si O2"
_cell_formula_units_Z 20
_cell_length_a 8.463596
_cell_length_b 8.463596
_cell_length_c 10.009657
_cell_angle_alpha 90.000000
_cell_angle_beta 90.000000
_cell_angle_gamma 90.000000
_cell_volume 717.016327
_symmetry_space_group_name_H-M "I -4 "
_symmetry_group_IT_number 82
_symmetry_cell_setting 'tetragonal'
loop_
_space_group_symop_operation_xyz
x,y,z
y,-x,-z
-x,-y,z
-y,x,-z
1/2+x,1/2+y,1/2+z
1/2+y,1/2-x,1/2-z
1/2-x,1/2-y,1/2+z
1/2-y,1/2+x,1/2-z
loop_
_atom_site_type_symbol
_atom_site_label
_atom_site_fract_x
_atom_site_fract_y
_atom_site_fract_z
Si Si1 0.000000 0.500000 0.250000
Si Si2 0.500000 0.500000 0.500000
Si Si3 0.069826 0.209949 0.420606
Si Si4 0.970043 0.252046 0.788405
O O1 0.084345 0.383073 0.356804
O O2 0.526546 0.665430 0.421011
O O3 0.110578 0.113519 0.287738
O O4 0.893938 0.182600 0.479894
O O5 0.839137 0.390811 0.793757
#
# Coordination Sequence:
#
# PCOD9543170 Si02
#       4
#     2   2   8   8
#     4  12  32  60  84 122 176 232 268 360 434 480
#     4  12  28  56  90 120 172 228 276 350 424 504
#     4  11  29  56  86 128 171 216 292 349 411 519
#     4  11  30  56  84 128 170 223 284 348 425 500
#
# _framework density 27.893366
#
# number of rings (size 3 to 8) (size 9 to 14) (size 15 to 20)
#    0.000    0.800    0.000    2.400   22.400    3.200 
#    0.000    0.000    0.000    0.000    0.000    0.000 
#    0.000    0.000    0.000    0.000    0.000    0.000 
#
# Total GULP energy -55787.757574 kJ/mol
# GULP energy per Si atom -5578.775757 kJ/mol
# Density = 2.782988 g / cm^3
# Si number density = 27.893366 Si / 1000 Ang^3
#
#
#
# Elastic Constant Matrix: (Units=GPa)
#
#
# Indices 1 2 3 4 5 6 
#
# 1 128.0256 10.2777 25.8753 0.0000 0.0000 26.5074
# 2 10.2777 128.0256 25.8753 0.0000 0.0000 -26.5074
# 3 25.8753 25.8753 35.7679 0.0000 0.0000 0.0000
# 4 0.0000 0.0000 0.0000 49.1972 0.0000 0.0000
# 5 0.0000 0.0000 0.0000 0.0000 49.1972 0.0000
# 6 26.5074 -26.5074 0.0000 0.0000 0.0000 38.0940
#
#
#
# Elastic Compliance Matrix: (Units=1/GPa)
#
#
# Indices 1 2 3 4 5 6 
#
# 1 0.011141 -0.001227 -0.007172 0.000000 0.000000 -0.008606
# 2 -0.001227 0.011141 -0.007172 0.000000 0.000000 0.008606
# 3 -0.007172 -0.007172 0.038335 0.000000 0.000000 0.000000
# 4 0.000000 0.000000 0.000000 0.020326 0.000000 0.000000
# 5 0.000000 0.000000 0.000000 0.000000 0.020326 0.000000
# 6 -0.008606 0.008606 0.000000 0.000000 0.000000 0.038227
#
#
# Mechanical properties :
#
#
# Convention : Reuss Voigt Hill
#
# Bulk Modulus (GPa) = 33.92730 46.20842 40.06786
# Shear Modulus (GPa) = 27.70649 42.61706 35.16177
#
# Velocity S-wave (km/s) = 3.15509 3.91302 3.55431
# Velocity P-wave (km/s) = 5.04603 6.08422 5.58928
#
# Compressibility (1/GPa) = 0.02947479
#
# Stress axis : x y z
#
# Youngs Moduli (GPa) = 89.76044 89.76044 26.08585
#
# Poissons Ratio (x) = 0.11010 0.18709
# Poissons Ratio (y) = 0.11010 0.18709
# Poissons Ratio (z) = 0.64377 0.64377
#
# Static dielectric constant tensor:
#      x y z
#    x 2.305970 0.000000 0.000000 
#    y 0.000000 2.305970 0.000000 
#    z 0.000000 0.000000 2.388930 
# 
# From -- ./inp_files/1353.got.cif
#   From: 2010.05.17/outbox.cif.g08.bks.cpg/sg82_1_cif.got.tgz:1353.got - 2010.06.03 18:52:26.
