data_PCOD9543497
_publ_section_title
;
Structure prediction by ZEFSAII (Michael W. Deem and Ramdas Pophale) SiO2 
 PCOD9543497
Probable space group: P 4/M
;
_chemical_formula_sum "Si O2"
_cell_formula_units_Z 64
_cell_length_a 11.946131
_cell_length_b 11.946131
_cell_length_c 23.154847
_cell_angle_alpha 90.000000
_cell_angle_beta 90.000000
_cell_angle_gamma 90.000000
_cell_volume 3304.429277
_symmetry_space_group_name_H-M "P 4/M"
_symmetry_group_IT_number 83
_symmetry_cell_setting 'tetragonal'
loop_
_space_group_symop_operation_xyz
x,y,z
-y,x,z
-x,-y,z
y,-x,z
-x,-y,-z
y,-x,-z
x,y,-z
-y,x,-z
loop_
_atom_site_type_symbol
_atom_site_label
_atom_site_fract_x
_atom_site_fract_y
_atom_site_fract_z
Si Si1 0.955086 0.183640 0.062650
Si Si2 0.191754 0.562966 0.768953
Si Si3 0.371053 0.638789 0.936277
Si Si4 0.288668 0.012729 0.816040
Si Si5 0.334336 0.750753 0.818407
Si Si6 0.820211 0.959882 0.694506
Si Si7 0.578052 0.894425 0.645031
Si Si8 0.677586 0.452615 0.569481
O O1 0.079036 0.129265 0.064063
O O2 0.945350 0.251600 0.121351
O O3 0.942292 0.241587 0.000000
O O4 0.266424 0.674291 0.773896
O O5 0.254258 0.463995 0.801179
O O6 0.160421 0.530908 0.704174
O O7 0.077296 0.598264 0.800049
O O8 0.348298 0.505927 0.932923
O O9 0.318570 0.702417 0.882551
O O10 0.335102 0.678612 0.000000
O O11 0.301681 0.879900 0.816108
O O12 0.204968 0.041780 0.763413
O O13 0.703727 0.934524 0.661996
O O14 0.917391 0.870377 0.681006
O O15 0.576309 0.795217 0.598579
O O16 0.500000 0.000000 0.629387
O O17 0.632845 0.577040 0.585677
O O18 0.687055 0.450023 0.500000
#
# Coordination Sequence:
#
# PCOD9543497 Si02
#       8
#     8   8   8   8   8   8   8   8
#     4   9  17  30  50  75 101 135 188 244 289 351
#     4  11  25  38  56  87 120 156 193 254 304 368
#     4   9  18  36  59  80 104 141 193 251 311 382
#     4  11  21  36  54  78 114 157 191 237 314 382
#     4  12  22  38  59  81 118 151 198 250 314 377
#     4  10  21  38  60  85 121 169 219 262 313 383
#     4  11  24  38  65  96 133 168 216 268 315 368
#     4   9  21  43  70 102 141 181 220 261 309 371
#
# _framework density 19.367944000000001
#
# number of rings (size 3 to 8) (size 9 to 14) (size 15 to 20)
#    0.000    1.750    1.250    6.000    3.500    2.000 
#    0.000    1.250    0.000    1.500    0.000    0.875 
#    0.000    0.000    0.000    0.000    0.000    0.000 
#
# Total GULP energy -357470.919915 kJ/mol
# GULP energy per Si atom -5585.483124 kJ/mol
# Density = 1.932386 g / cm^3
# Si number density = 19.367944 Si / 1000 Ang^3
#
#
#
# Elastic Constant Matrix: (Units=GPa)
#
#
# Indices 1 2 3 4 5 6 
#
# 1 88.4150 38.2380 28.6738 0.0000 0.0000 1.8414
# 2 38.2380 88.4150 28.6738 0.0000 0.0000 -1.8414
# 3 28.6738 28.6738 59.3262 0.0000 0.0000 0.0000
# 4 0.0000 0.0000 0.0000 -3.2092 0.0000 0.0000
# 5 0.0000 0.0000 0.0000 0.0000 -3.2092 0.0000
# 6 1.8414 -1.8414 0.0000 0.0000 0.0000 24.8677
#
#
#
# Elastic Compliance Matrix: (Units=1/GPa)
#
#
# Indices 1 2 3 4 5 6 
#
# 1 0.015073 -0.004965 -0.004885 0.000000 0.000000 -0.001484
# 2 -0.004965 0.015073 -0.004885 0.000000 0.000000 0.001484
# 3 -0.004885 -0.004885 0.021578 0.000000 0.000000 0.000000
# 4 0.000000 0.000000 0.000000 -0.311604 0.000000 0.000000
# 5 0.000000 0.000000 0.000000 0.000000 -0.311604 0.000000
# 6 -0.001484 0.001484 0.000000 0.000000 0.000000 0.040433
#
#
# Mechanical properties :
#
#
# Convention : Reuss Voigt Hill
#
# Bulk Modulus (GPa) = 44.93885 47.48086 46.20985
# Shear Modulus (GPa) = -10.11813 13.06123 1.47155
#
# Velocity S-wave (km/s) = -2.28812 2.59969 0.87260
# Velocity P-wave (km/s) = 4.03391 5.79479 4.99259
#
# Compressibility (1/GPa) = 0.02225246
#
# Stress axis : x y z
#
# Youngs Moduli (GPa) = 66.34390 66.34390 46.34291
#
# Poissons Ratio (x) = 0.32942 0.22640
# Poissons Ratio (y) = 0.32942 0.22640
# Poissons Ratio (z) = 0.32411 0.32411
#
# Static dielectric constant tensor:
#      x y z
#    x 1.688840 0.000000 0.000000 
#    y 0.000000 1.688840 0.000000 
#    z 0.000000 0.000000 1.669160 
# 
# From -- ./inp_files/3220.got.cif
#   From: 2010.05.17/outbox.cif.g08.bks.cpg/sg83_2_cif.got.tgz:3220.got - 2010.06.03 18:55:12.
