data_PCOD9543212
_publ_section_title
;
Structure prediction by ZEFSAII (Michael W. Deem and Ramdas Pophale) SiO2 
 PCOD9543212
Probable space group: I -4 
;
_chemical_formula_sum "Si O2"
_cell_formula_units_Z 40
_cell_length_a 6.864789
_cell_length_b 6.864789
_cell_length_c 28.525247
_cell_angle_alpha 90.000000
_cell_angle_beta 90.000000
_cell_angle_gamma 90.000000
_cell_volume 1344.261622
_symmetry_space_group_name_H-M "I -4 "
_symmetry_group_IT_number 82
_symmetry_cell_setting 'tetragonal'
loop_
_space_group_symop_operation_xyz
x,y,z
y,-x,-z
-x,-y,z
-y,x,-z
1/2+x,1/2+y,1/2+z
1/2+y,1/2-x,1/2-z
1/2-x,1/2-y,1/2+z
1/2-y,1/2+x,1/2-z
loop_
_atom_site_type_symbol
_atom_site_label
_atom_site_fract_x
_atom_site_fract_y
_atom_site_fract_z
Si Si1 0.279519 0.672841 0.703836
Si Si2 0.332878 0.285897 0.195555
Si Si3 0.320000 0.767092 0.505594
Si Si4 0.751907 0.337950 0.904852
Si Si5 0.705490 0.327482 0.604543
O O1 0.372794 0.722245 0.753752
O O2 0.241396 0.439529 0.698370
O O3 0.379592 0.726149 0.655018
O O4 0.066144 0.767798 0.701291
O O5 0.289399 0.364628 0.143131
O O6 0.547310 0.763504 0.492089
O O7 0.204171 0.852448 0.460836
O O8 0.337510 0.813390 0.560772
O O9 0.808651 0.559463 0.893477
O O10 0.937207 0.190136 0.904263
#
# Coordination Sequence:
#
# PCOD9543212 Si02
#       5
#     8   8   8   8   8
#     4   7   9  14  26  45  66  84 105 137 171 197
#     4   7   9  14  26  45  66  84 105 137 171 197
#     4   9  16  24  34  51  74  94 112 139 172 200
#     4   8  13  21  33  49  69  92 116 140 167 202
#     4   8  13  21  33  49  69  92 116 140 167 202
#
# _framework density 29.756108000000001
#
# number of rings (size 3 to 8) (size 9 to 14) (size 15 to 20)
#    0.000    4.200    0.000    3.600    0.000    0.000 
#    0.000    0.000    0.000    0.600    0.000    2.800 
#    0.000    9.600    0.000    0.000    0.000    0.000 
#
# Total GULP energy -111516.011112 kJ/mol
# GULP energy per Si atom -5575.800556 kJ/mol
# Density = 2.968838 g / cm^3
# Si number density = 29.756108 Si / 1000 Ang^3
#
#
#
# Elastic Constant Matrix: (Units=GPa)
#
#
# Indices 1 2 3 4 5 6 
#
# 1 94.7932 1.4848 20.3128 0.0000 0.0000 5.3754
# 2 1.4848 94.7932 20.3128 0.0000 0.0000 -5.3754
# 3 20.3128 20.3128 447.5106 0.0000 0.0000 0.0000
# 4 0.0000 0.0000 0.0000 27.2312 0.0000 0.0000
# 5 0.0000 0.0000 0.0000 0.0000 27.2312 0.0000
# 6 5.3754 -5.3754 0.0000 0.0000 0.0000 12.7746
#
#
#
# Elastic Compliance Matrix: (Units=1/GPa)
#
#
# Indices 1 2 3 4 5 6 
#
# 1 0.010926 -0.000337 -0.000481 0.000000 0.000000 -0.004739
# 2 -0.000337 0.010926 -0.000481 0.000000 0.000000 0.004739
# 3 -0.000481 -0.000481 0.002278 0.000000 0.000000 0.000000
# 4 0.000000 0.000000 0.000000 0.036723 0.000000 0.000000
# 5 0.000000 0.000000 0.000000 0.000000 0.036723 0.000000
# 6 -0.004739 0.004739 0.000000 0.000000 0.000000 0.082269
#
#
# Mechanical properties :
#
#
# Convention : Reuss Voigt Hill
#
# Bulk Modulus (GPa) = 46.43733 80.14642 63.29187
# Shear Modulus (GPa) = 26.36863 53.11319 39.74091
#
# Velocity S-wave (km/s) = 2.98007 4.22945 3.65849
# Velocity P-wave (km/s) = 5.24223 7.13049 6.25799
#
# Compressibility (1/GPa) = 0.02153440
#
# Stress axis : x y z
#
# Youngs Moduli (GPa) = 91.52223 91.52223 438.93935
#
# Poissons Ratio (x) = 0.03083 0.21098
# Poissons Ratio (y) = 0.03083 0.21098
# Poissons Ratio (z) = 0.04399 0.04399
#
# Static dielectric constant tensor:
#      x y z
#    x 2.345680 0.000000 0.000000 
#    y 0.000000 2.345680 0.000000 
#    z 0.000000 0.000000 2.404820 
# 
# From -- ./inp_files/3696.got.cif
#   From: 2010.05.17/outbox.cif.g08.bks.cpg/sg82_2_cif.got.tgz:3696.got - 2010.06.03 18:52:26.
