data_PCOD9543209
_publ_section_title
;
Structure prediction by ZEFSAII (Michael W. Deem and Ramdas Pophale) SiO2 
 PCOD9543209
Probable space group: I -4 
;
_chemical_formula_sum "Si O2"
_cell_formula_units_Z 20
_cell_length_a 5.101158
_cell_length_b 5.101158
_cell_length_c 32.621205
_cell_angle_alpha 90.000000
_cell_angle_beta 90.000000
_cell_angle_gamma 90.000000
_cell_volume 848.862894
_symmetry_space_group_name_H-M "I -4 "
_symmetry_group_IT_number 82
_symmetry_cell_setting 'tetragonal'
loop_
_space_group_symop_operation_xyz
x,y,z
y,-x,-z
-x,-y,z
-y,x,-z
1/2+x,1/2+y,1/2+z
1/2+y,1/2-x,1/2-z
1/2-x,1/2-y,1/2+z
1/2-y,1/2+x,1/2-z
loop_
_atom_site_type_symbol
_atom_site_label
_atom_site_fract_x
_atom_site_fract_y
_atom_site_fract_z
Si Si1 0.500000 0.500000 0.500000
Si Si2 0.246925 0.315221 0.070880
Si Si3 0.000000 0.500000 0.860704
Si Si4 0.500000 0.000000 0.750000
Si Si5 0.500000 0.500000 0.194464
O O1 0.697441 0.653749 0.529541
O O2 0.500000 0.500000 0.068089
O O3 0.284814 0.115112 0.108249
O O4 0.000000 0.500000 0.077913
O O5 0.751773 0.575316 0.832963
O O6 0.431021 0.749909 0.777822
#
# Coordination Sequence:
#
# PCOD9543209 Si02
#       5
#     2   8   4   2   4
#     4  12  32  44  82 108 172 212 296 332 418 456
#     4  12  30  52  79 118 160 220 276 348 404 476
#     4  12  28  55  82 121 160 216 272 333 406 475
#     4  12  28  52  80 130 156 212 256 318 420 480
#     4  12  28  50  87 115 170 202 264 331 397 504
#
# _framework density 23.560932000000001
#
# number of rings (size 3 to 8) (size 9 to 14) (size 15 to 20)
#    0.000    0.000    2.000    4.800   11.200    3.200 
#    0.000    0.000    0.000    0.000    0.000    0.000 
#    0.000    0.000    0.000    0.000    0.000    0.000 
#
# Total GULP energy -56134.841373 kJ/mol
# GULP energy per Si atom -5613.484137 kJ/mol
# Density = 2.350731 g / cm^3
# Si number density = 23.560932 Si / 1000 Ang^3
#
#
#
# Elastic Constant Matrix: (Units=GPa)
#
#
# Indices 1 2 3 4 5 6 
#
# 1 165.2052 50.5750 63.3837 0.0000 0.0000 2.6116
# 2 50.5750 165.2052 63.3837 0.0000 0.0000 -2.6116
# 3 63.3837 63.3837 147.4436 0.0000 0.0000 0.0000
# 4 0.0000 0.0000 0.0000 32.5726 0.0000 0.0000
# 5 0.0000 0.0000 0.0000 0.0000 32.5726 0.0000
# 6 2.6116 -2.6116 0.0000 0.0000 0.0000 51.7649
#
#
#
# Elastic Compliance Matrix: (Units=1/GPa)
#
#
# Indices 1 2 3 4 5 6 
#
# 1 0.007472 -0.001272 -0.002665 0.000000 0.000000 -0.000441
# 2 -0.001272 0.007472 -0.002665 0.000000 0.000000 0.000441
# 3 -0.002665 -0.002665 0.009074 0.000000 0.000000 0.000000
# 4 0.000000 0.000000 0.000000 0.030701 0.000000 0.000000
# 5 0.000000 0.000000 0.000000 0.000000 0.030701 0.000000
# 6 -0.000441 0.000441 0.000000 0.000000 0.000000 0.019363
#
#
# Mechanical properties :
#
#
# Convention : Reuss Voigt Hill
#
# Bulk Modulus (GPa) = 92.48314 92.50434 92.49374
# Shear Modulus (GPa) = 41.12138 43.41610 42.26874
#
# Velocity S-wave (km/s) = 4.18224 4.29734 4.24018
# Velocity P-wave (km/s) = 7.91577 7.99812 7.95705
#
# Compressibility (1/GPa) = 0.01081278
#
# Stress axis : x y z
#
# Youngs Moduli (GPa) = 133.83282 133.83282 110.20669
#
# Poissons Ratio (x) = 0.17021 0.29374
# Poissons Ratio (y) = 0.17021 0.29374
# Poissons Ratio (z) = 0.35671 0.35671
#
# Static dielectric constant tensor:
#      x y z
#    x 1.867490 0.000000 0.000000 
#    y 0.000000 1.867490 0.000000 
#    z 0.000000 0.000000 1.872640 
# 
# From -- ./inp_files/3833.got.cif
#   From: 2010.05.17/outbox.cif.g08.bks.cpg/sg82_2_cif.got.tgz:3833.got - 2010.06.03 18:52:26.
