data_PCOD9543808
_publ_section_title
;
Structure prediction by ZEFSAII (Michael W. Deem and Ramdas Pophale) SiO2 
 PCOD9543808
Probable space group: P 4/M
;
_chemical_formula_sum "Si O2"
_cell_formula_units_Z 38
_cell_length_a 8.756934
_cell_length_b 8.756934
_cell_length_c 24.145044
_cell_angle_alpha 90.000000
_cell_angle_beta 90.000000
_cell_angle_gamma 90.000000
_cell_volume 1851.535973
_symmetry_space_group_name_H-M "P 4/M"
_symmetry_group_IT_number 83
_symmetry_cell_setting 'tetragonal'
loop_
_space_group_symop_operation_xyz
x,y,z
-y,x,z
-x,-y,z
y,-x,z
-x,-y,-z
y,-x,-z
x,y,-z
-y,x,-z
loop_
_atom_site_type_symbol
_atom_site_label
_atom_site_fract_x
_atom_site_fract_y
_atom_site_fract_z
Si Si1 0.235211 0.107140 0.598882
Si Si2 0.738611 0.403392 0.500000
Si Si3 0.230690 0.112851 0.724315
Si Si4 0.500000 0.500000 0.169146
Si Si5 0.125217 0.774696 0.061280
Si Si6 0.168354 0.574214 0.831827
O O1 0.353086 0.166070 0.553722
O O2 0.289522 0.136662 0.661763
O O3 0.072120 0.194209 0.592265
O O4 0.692078 0.580147 0.500000
O O5 0.336710 0.164874 0.773594
O O6 0.067409 0.195895 0.729299
O O7 0.685022 0.535031 0.169071
O O8 0.198934 0.942879 0.064504
O O9 0.175394 0.674484 0.112402
O O10 0.160687 0.710194 0.000000
O O11 0.000000 0.500000 0.834881
#
# Coordination Sequence:
#
# PCOD9543808 Si02
#       6
#     8   4   8   2   8   8
#     4   9  19  38  64  90 116 151 205 260 305 367
#     4  11  24  41  54  84 126 163 200 241 312 382
#     4   9  18  37  64  92 120 161 214 264 323 391
#     4  12  28  44  61 104 132 161 236 276 326 404
#     4   9  18  35  63  96 128 172 228 278 332 396
#     4  12  24  42  63  89 135 180 216 274 335 396
#
# _framework density 20.523502000000001
#
# number of rings (size 3 to 8) (size 9 to 14) (size 15 to 20)
#    0.000    2.000    0.000    6.316    0.000    4.632 
#   11.368    1.579    0.000    0.000    0.000    0.000 
#    0.000    0.000    0.000    0.000    0.000    0.000 
#
# Total GULP energy -211825.799302 kJ/mol
# GULP energy per Si atom -5574.363140 kJ/mol
# Density = 2.047679 g / cm^3
# Si number density = 20.523502 Si / 1000 Ang^3
#
#
#
# Elastic Constant Matrix: (Units=GPa)
#
#
# Indices 1 2 3 4 5 6 
#
# 1 55.0247 23.9622 47.3822 0.0000 0.0000 5.2592
# 2 23.9622 55.0247 47.3822 0.0000 0.0000 -5.2592
# 3 47.3822 47.3822 158.0013 0.0000 0.0000 0.0000
# 4 0.0000 0.0000 0.0000 10.8676 0.0000 0.0000
# 5 0.0000 0.0000 0.0000 0.0000 10.8676 0.0000
# 6 5.2592 -5.2592 0.0000 0.0000 0.0000 26.3289
#
#
#
# Elastic Compliance Matrix: (Units=1/GPa)
#
#
# Indices 1 2 3 4 5 6 
#
# 1 0.027152 -0.007377 -0.005930 0.000000 0.000000 -0.006897
# 2 -0.007377 0.027152 -0.005930 0.000000 0.000000 0.006897
# 3 -0.005930 -0.005930 0.009886 0.000000 0.000000 0.000000
# 4 0.000000 0.000000 0.000000 0.092017 0.000000 0.000000
# 5 0.000000 0.000000 0.000000 0.000000 0.092017 0.000000
# 6 -0.006897 0.006897 0.000000 0.000000 0.000000 0.040736
#
#
# Mechanical properties :
#
#
# Convention : Reuss Voigt Hill
#
# Bulk Modulus (GPa) = 38.88770 56.16710 47.52740
# Shear Modulus (GPa) = 14.88071 19.56777 17.22424
#
# Velocity S-wave (km/s) = 2.69561 3.09112 2.90011
# Velocity P-wave (km/s) = 5.35513 6.33772 5.86703
#
# Compressibility (1/GPa) = 0.02571508
#
# Stress axis : x y z
#
# Youngs Moduli (GPa) = 36.82989 36.82989 101.15473
#
# Poissons Ratio (x) = 0.27168 0.59987
# Poissons Ratio (y) = 0.27168 0.59987
# Poissons Ratio (z) = 0.21841 0.21841
#
# Static dielectric constant tensor:
#      x y z
#    x 1.737640 0.000000 0.000000 
#    y 0.000000 1.737640 0.000000 
#    z 0.000000 0.000000 1.708410 
# 
# From -- ./inp_files/3116.got.cif
#   From: 2010.05.17/outbox.cif.g08.bks.cpg/sg83_2_cif.got.tgz:3116.got - 2010.06.03 18:55:12.
