data_PCOD9543315
_publ_section_title
;
Structure prediction by ZEFSAII (Michael W. Deem and Ramdas Pophale) SiO2 
 PCOD9543315
Probable space group: P 4/M
;
_chemical_formula_sum "Si O2"
_cell_formula_units_Z 40
_cell_length_a 11.645614
_cell_length_b 11.645614
_cell_length_c 15.880920
_cell_angle_alpha 90.000000
_cell_angle_beta 90.000000
_cell_angle_gamma 90.000000
_cell_volume 2153.775539
_symmetry_space_group_name_H-M "P 4/M"
_symmetry_group_IT_number 83
_symmetry_cell_setting 'tetragonal'
loop_
_space_group_symop_operation_xyz
x,y,z
-y,x,z
-x,-y,z
y,-x,z
-x,-y,-z
y,-x,-z
x,y,-z
-y,x,-z
loop_
_atom_site_type_symbol
_atom_site_label
_atom_site_fract_x
_atom_site_fract_y
_atom_site_fract_z
Si Si1 0.767575 0.391882 0.847015
Si Si2 0.999297 0.358822 0.230815
Si Si3 0.680601 0.442796 0.661146
Si Si4 0.068034 0.620384 0.407699
Si Si5 0.637895 0.179569 0.091704
O O1 0.881913 0.327871 0.815645
O O2 0.705263 0.434543 0.761405
O O3 0.689779 0.305315 0.897822
O O4 0.807184 0.501342 0.899515
O O5 0.990521 0.318492 0.327219
O O6 0.000000 0.500000 0.234536
O O7 0.104498 0.324242 0.172165
O O8 0.640065 0.572731 0.641067
O O9 0.799212 0.407256 0.616265
O O10 0.062028 0.675778 0.500000
O O11 0.000000 0.500000 0.413534
O O12 0.667042 0.130102 0.000000
#
# Coordination Sequence:
#
# PCOD9543315 Si02
#       5
#     8   8   8   8   8
#     4  10  19  33  49  73 105 142 181 216 263 312
#     4   8  18  34  52  69  99 138 179 217 267 313
#     4  10  19  32  52  76 113 153 177 209 266 325
#     4   9  18  33  52  74 101 138 183 223 257 311
#     4  11  21  32  51  77 107 141 183 224 265 318
#
# _framework density 18.572036000000001
#
# number of rings (size 3 to 8) (size 9 to 14) (size 15 to 20)
#    0.000    2.400    2.000    1.800    0.000    5.600 
#    0.000    2.000    0.000    0.600    0.000    1.400 
#    0.000    0.800    0.000    9.600    0.000    0.000 
#
# Total GULP energy -222831.551990 kJ/mol
# GULP energy per Si atom -5570.788800 kJ/mol
# Density = 1.852977 g / cm^3
# Si number density = 18.572036 Si / 1000 Ang^3
#
#
#
# Elastic Constant Matrix: (Units=GPa)
#
#
# Indices 1 2 3 4 5 6 
#
# 1 46.4129 10.7501 29.5221 0.0000 0.0000 6.5739
# 2 10.7501 46.4129 29.5221 0.0000 0.0000 -6.5739
# 3 29.5221 29.5221 146.1069 0.0000 0.0000 0.0000
# 4 0.0000 0.0000 0.0000 -4.1780 0.0000 0.0000
# 5 0.0000 0.0000 0.0000 0.0000 -4.1780 0.0000
# 6 6.5739 -6.5739 0.0000 0.0000 0.0000 0.2403
#
#
#
# Elastic Compliance Matrix: (Units=1/GPa)
#
#
# Indices 1 2 3 4 5 6 
#
# 1 0.009511 0.012597 -0.004467 0.000000 0.000000 0.084430
# 2 0.012597 0.009511 -0.004467 0.000000 0.000000 -0.084430
# 3 -0.004467 -0.004467 0.008650 0.000000 0.000000 0.000000
# 4 0.000000 0.000000 0.000000 -0.239351 0.000000 0.000000
# 5 0.000000 0.000000 0.000000 0.000000 -0.239351 0.000000
# 6 0.084430 -0.084430 0.000000 0.000000 0.000000 -0.458024
#
#
# Mechanical properties :
#
#
# Convention : Reuss Voigt Hill
#
# Bulk Modulus (GPa) = 28.57384 42.05794 35.31589
# Shear Modulus (GPa) = -5.52660 9.65275 2.06308
#
# Velocity S-wave (km/s) = -1.72691 2.28227 1.05511
# Velocity P-wave (km/s) = 3.38268 5.44426 4.53225
#
# Compressibility (1/GPa) = 0.03499704
#
# Stress axis : x y z
#
# Youngs Moduli (GPa) = 105.14163 105.14163 115.61318
#
# Poissons Ratio (x) = -1.32447 0.51646
# Poissons Ratio (y) = -1.32447 0.51646
# Poissons Ratio (z) = 0.46968 0.46968
#
# Static dielectric constant tensor:
#      x y z
#    x 1.638010 0.000000 0.000000 
#    y 0.000000 1.638010 0.000000 
#    z 0.000000 0.000000 1.716380 
# 
# From -- ./inp_files/2249.got.cif
#   From: 2010.05.17/outbox.cif.g08.bks.cpg/sg83_2_cif.got.tgz:2249.got - 2010.06.03 18:55:12.
