data_PCOD9543104
_publ_section_title
;
Structure prediction by ZEFSAII (Michael W. Deem and Ramdas Pophale) SiO2 
 PCOD9543104
Probable space group: I -4 
;
_chemical_formula_sum "Si O2"
_cell_formula_units_Z 18
_cell_length_a 8.503027
_cell_length_b 8.503027
_cell_length_c 8.393877
_cell_angle_alpha 90.000000
_cell_angle_beta 90.000000
_cell_angle_gamma 90.000000
_cell_volume 606.889631
_symmetry_space_group_name_H-M "I -4 "
_symmetry_group_IT_number 82
_symmetry_cell_setting 'tetragonal'
loop_
_space_group_symop_operation_xyz
x,y,z
y,-x,-z
-x,-y,z
-y,x,-z
1/2+x,1/2+y,1/2+z
1/2+y,1/2-x,1/2-z
1/2-x,1/2-y,1/2+z
1/2-y,1/2+x,1/2-z
loop_
_atom_site_type_symbol
_atom_site_label
_atom_site_fract_x
_atom_site_fract_y
_atom_site_fract_z
Si Si1 0.739764 0.414821 0.003787
Si Si2 0.000000 0.500000 0.750000
Si Si3 0.656817 0.578790 0.378167
O O1 0.855912 0.440171 0.856968
O O2 0.586272 0.319954 0.946979
O O3 0.828247 0.320074 0.144271
O O4 0.698126 0.435544 0.500062
O O5 0.500000 0.500000 0.295479
#
# Coordination Sequence:
#
# PCOD9543104 Si02
#       3
#     8   2   8
#     4  11  23  45  73 112 153 200 256 318 383 457
#     4  12  28  48  76 114 160 200 256 320 384 470
#     4   6  15  33  62 101 136 190 234 292 378 420
#
# _framework density 29.65943
#
# number of rings (size 3 to 8) (size 9 to 14) (size 15 to 20)
#    2.667    0.444    0.000    2.667    0.000    0.000 
#    8.000    0.000    0.000    0.000    0.000    0.000 
#    0.000    0.000    0.000    0.000    0.000    0.000 
#
# Total GULP energy -50151.213941 kJ/mol
# GULP energy per Si atom -5572.357105 kJ/mol
# Density = 2.959192 g / cm^3
# Si number density = 29.659430 Si / 1000 Ang^3
#
#
#
# Elastic Constant Matrix: (Units=GPa)
#
#
# Indices 1 2 3 4 5 6 
#
# 1 219.5251 127.4242 76.7642 0.0000 0.0000 36.3672
# 2 127.4242 219.5251 76.7642 0.0000 0.0000 -36.3672
# 3 76.7642 76.7642 128.5137 0.0000 0.0000 0.0000
# 4 0.0000 0.0000 0.0000 41.2935 0.0000 0.0000
# 5 0.0000 0.0000 0.0000 0.0000 41.2935 0.0000
# 6 36.3672 -36.3672 0.0000 0.0000 0.0000 107.7062
#
#
#
# Elastic Compliance Matrix: (Units=1/GPa)
#
#
# Indices 1 2 3 4 5 6 
#
# 1 0.009362 -0.005444 -0.002340 0.000000 0.000000 -0.004999
# 2 -0.005444 0.009362 -0.002340 0.000000 0.000000 0.004999
# 3 -0.002340 -0.002340 0.010577 0.000000 0.000000 0.000000
# 4 0.000000 0.000000 0.000000 0.024217 0.000000 0.000000
# 5 0.000000 0.000000 0.000000 0.000000 0.024217 0.000000
# 6 -0.004999 0.004999 0.000000 0.000000 0.000000 0.012660
#
#
# Mechanical properties :
#
#
# Convention : Reuss Voigt Hill
#
# Bulk Modulus (GPa) = 110.47509 125.49656 117.98583
# Shear Modulus (GPa) = 43.99064 57.16607 50.57836
#
# Velocity S-wave (km/s) = 3.85540 4.39500 4.13401
# Velocity P-wave (km/s) = 7.55960 8.25585 7.91538
#
# Compressibility (1/GPa) = 0.00905181
#
# Stress axis : x y z
#
# Youngs Moduli (GPa) = 106.81797 106.81797 94.54483
#
# Poissons Ratio (x) = 0.58151 0.22125
# Poissons Ratio (y) = 0.58151 0.22125
# Poissons Ratio (z) = 0.24998 0.24998
#
# Static dielectric constant tensor:
#      x y z
#    x 2.414390 0.000000 0.000000 
#    y 0.000000 2.414390 0.000000 
#    z 0.000000 0.000000 9.606910 
# 
# From -- ./inp_files/1310.got.cif
#   From: 2010.05.17/outbox.cif.g08.bks.cpg/sg82_1_cif.got.tgz:1310.got - 2010.06.03 18:52:26.
