data_PCOD9543730
_publ_section_title
;
Structure prediction by ZEFSAII (Michael W. Deem and Ramdas Pophale) SiO2 
 PCOD9543730
Probable space group: P 4/M
;
_chemical_formula_sum "Si O2"
_cell_formula_units_Z 48
_cell_length_a 7.963634
_cell_length_b 7.963634
_cell_length_c 33.918808
_cell_angle_alpha 90.000000
_cell_angle_beta 90.000000
_cell_angle_gamma 90.000000
_cell_volume 2151.112707
_symmetry_space_group_name_H-M "P 4/M"
_symmetry_group_IT_number 83
_symmetry_cell_setting 'tetragonal'
loop_
_space_group_symop_operation_xyz
x,y,z
-y,x,z
-x,-y,z
y,-x,z
-x,-y,-z
y,-x,-z
x,y,-z
-y,x,-z
loop_
_atom_site_type_symbol
_atom_site_label
_atom_site_fract_x
_atom_site_fract_y
_atom_site_fract_z
Si Si1 0.592729 0.235403 0.292587
Si Si2 0.890175 0.736193 0.457881
Si Si3 0.735779 0.106069 0.372448
Si Si4 0.231547 0.579584 0.000000
Si Si5 0.098083 0.733659 0.164563
Si Si6 0.091988 0.732245 0.922673
Si Si7 0.500000 0.000000 0.771378
O O1 0.706140 0.400233 0.289101
O O2 0.626321 0.156398 0.335249
O O3 0.621106 0.102969 0.257778
O O4 0.853996 0.649825 0.500000
O O5 0.857857 0.654397 0.415410
O O6 0.086344 0.790574 0.457876
O O7 0.911219 0.209202 0.370469
O O8 0.298848 0.392418 0.000000
O O9 0.135212 0.621213 0.959979
O O10 0.124198 0.658514 0.120842
O O11 0.903328 0.793675 0.167365
O O12 0.121766 0.603200 0.199603
O O13 0.901116 0.796098 0.924725
#
# Coordination Sequence:
#
# PCOD9543730 Si02
#       7
#     8   8   8   4   8   8   4
#     4  11  24  39  54  77 110 145 180 223 277 330
#     4   7  10  19  40  73 108 136 167 213 263 308
#     4   9  17  31  54  82 109 141 182 222 262 316
#     4  11  24  37  52  82 120 153 188 225 260 306
#     4   9  20  38  60  87 114 139 176 226 273 320
#     4   9  19  37  60  85 112 143 181 222 265 315
#     4  12  22  38  62  83 105 140 182 224 274 334
#
# _framework density 22.314033999999999
#
# number of rings (size 3 to 8) (size 9 to 14) (size 15 to 20)
#    0.000    2.583    0.000    5.000    0.000    4.667 
#    0.000    1.667    0.000    3.000    0.000    6.417 
#    0.000    0.000    0.000    0.000    0.000    0.000 
#
# Total GULP energy -268256.673946 kJ/mol
# GULP energy per Si atom -5588.680707 kJ/mol
# Density = 2.226325 g / cm^3
# Si number density = 22.314034 Si / 1000 Ang^3
#
#
#
# Elastic Constant Matrix: (Units=GPa)
#
#
# Indices 1 2 3 4 5 6 
#
# 1 42.9483 17.5222 44.9760 0.0000 0.0000 -7.0140
# 2 17.5222 42.9483 44.9760 0.0000 0.0000 7.0140
# 3 44.9760 44.9760 238.0619 0.0000 0.0000 0.0000
# 4 0.0000 0.0000 0.0000 21.0684 0.0000 0.0000
# 5 0.0000 0.0000 0.0000 0.0000 21.0684 0.0000
# 6 -7.0140 7.0140 0.0000 0.0000 0.0000 23.8691
#
#
#
# Elastic Compliance Matrix: (Units=1/GPa)
#
#
# Indices 1 2 3 4 5 6 
#
# 1 0.034970 -0.011969 -0.004345 0.000000 0.000000 0.013793
# 2 -0.011969 0.034970 -0.004345 0.000000 0.000000 -0.013793
# 3 -0.004345 -0.004345 0.005843 0.000000 0.000000 0.000000
# 4 0.000000 0.000000 0.000000 0.047465 0.000000 0.000000
# 5 0.000000 0.000000 0.000000 0.000000 0.047465 0.000000
# 6 0.013793 -0.013793 0.000000 0.000000 0.000000 0.050001
#
#
# Mechanical properties :
#
#
# Convention : Reuss Voigt Hill
#
# Bulk Modulus (GPa) = 29.01688 59.87856 44.44772
# Shear Modulus (GPa) = 18.28007 27.63345 22.95676
#
# Velocity S-wave (km/s) = 2.86530 3.52289 3.21098
# Velocity P-wave (km/s) = 4.89681 6.59094 5.80600
#
# Compressibility (1/GPa) = 0.03446270
#
# Stress axis : x y z
#
# Youngs Moduli (GPa) = 28.59564 28.59564 171.15842
#
# Poissons Ratio (x) = 0.34227 0.74377
# Poissons Ratio (y) = 0.34227 0.74377
# Poissons Ratio (z) = 0.12426 0.12426
#
# Static dielectric constant tensor:
#      x y z
#    x 1.835160 0.000000 0.000000 
#    y 0.000000 1.835160 0.000000 
#    z 0.000000 0.000000 1.840970 
# 
# From -- ./inp_files/3504.got.cif
#   From: 2010.05.17/outbox.cif.g08.bks.cpg/sg83_2_cif.got.tgz:3504.got - 2010.06.03 18:55:12.
