data_PCOD9543370
_publ_section_title
;
Structure prediction by ZEFSAII (Michael W. Deem and Ramdas Pophale) SiO2 
 PCOD9543370
Probable space group: P 4/M
;
_chemical_formula_sum "Si O2"
_cell_formula_units_Z 40
_cell_length_a 15.159720
_cell_length_b 15.159720
_cell_length_c 7.974052
_cell_angle_alpha 90.000000
_cell_angle_beta 90.000000
_cell_angle_gamma 90.000000
_cell_volume 1832.573589
_symmetry_space_group_name_H-M "P 4/M"
_symmetry_group_IT_number 83
_symmetry_cell_setting 'tetragonal'
loop_
_space_group_symop_operation_xyz
x,y,z
-y,x,z
-x,-y,z
y,-x,z
-x,-y,-z
y,-x,-z
x,y,-z
-y,x,-z
loop_
_atom_site_type_symbol
_atom_site_label
_atom_site_fract_x
_atom_site_fract_y
_atom_site_fract_z
Si Si1 0.304060 0.103848 0.204831
Si Si2 0.405681 0.272445 0.805417
Si Si3 0.884558 0.918939 0.795445
Si Si4 0.585325 0.058215 0.202411
Si Si5 0.737550 0.594524 0.309558
O O1 0.371641 0.178233 0.261458
O O2 0.205233 0.125702 0.261001
O O3 0.333613 0.005445 0.251259
O O4 0.305238 0.106749 0.000000
O O5 0.324556 0.339896 0.794234
O O6 0.494874 0.297874 0.712233
O O7 0.430858 0.260963 0.000000
O O8 0.978511 0.881679 0.743011
O O9 0.885514 0.916765 0.000000
O O10 0.592060 0.158399 0.264020
O O11 0.500000 0.000000 0.254704
O O12 0.582068 0.063602 0.000000
O O13 0.728971 0.623685 0.500000
#
# Coordination Sequence:
#
# PCOD9543370 Si02
#       5
#     8   8   8   8   8
#     4   9  18  31  54  87 119 154 204 261 307 352
#     4  11  23  43  67  92 121 162 214 266 315 373
#     4   8  14  24  40  71 116 156 189 235 299 356
#     4  10  19  37  62  90 122 158 206 256 302 358
#     4  12  26  43  63  94 130 166 204 256 322 388
#
# _framework density 21.827224999999999
#
# number of rings (size 3 to 8) (size 9 to 14) (size 15 to 20)
#    0.000    2.000    2.000    3.000    2.800    0.800 
#    0.000    2.000    0.000    0.000    0.000    0.000 
#    0.000    1.600    0.000    0.000    0.000    0.000 
#
# Total GULP energy -223292.943233 kJ/mol
# GULP energy per Si atom -5582.323581 kJ/mol
# Density = 2.177755 g / cm^3
# Si number density = 21.827225 Si / 1000 Ang^3
#
#
#
# Elastic Constant Matrix: (Units=GPa)
#
#
# Indices 1 2 3 4 5 6 
#
# 1 79.0896 11.4062 -6.8607 0.0000 0.0000 8.0109
# 2 11.4062 79.0896 -6.8607 0.0000 0.0000 -8.0109
# 3 -6.8607 -6.8607 27.6283 0.0000 0.0000 0.0000
# 4 0.0000 0.0000 0.0000 -6.0094 0.0000 0.0000
# 5 0.0000 0.0000 0.0000 0.0000 -6.0094 0.0000
# 6 8.0109 -8.0109 0.0000 0.0000 0.0000 29.4733
#
#
#
# Elastic Compliance Matrix: (Units=1/GPa)
#
#
# Indices 1 2 3 4 5 6 
#
# 1 0.013637 -0.002154 0.002851 0.000000 0.000000 -0.004292
# 2 -0.002154 0.013637 0.002851 0.000000 0.000000 0.004292
# 3 0.002851 0.002851 0.037611 0.000000 0.000000 0.000000
# 4 0.000000 0.000000 0.000000 -0.166407 0.000000 0.000000
# 5 0.000000 0.000000 0.000000 0.000000 -0.166407 0.000000
# 6 -0.004292 0.004292 0.000000 0.000000 0.000000 0.036262
#
#
# Mechanical properties :
#
#
# Convention : Reuss Voigt Hill
#
# Bulk Modulus (GPa) = 13.89243 20.13077 17.01160
# Shear Modulus (GPa) = -23.28057 16.03243 -3.62407
#
# Velocity S-wave (km/s) = -3.26940 2.71313 -1.28994
# Velocity P-wave (km/s) = 2.80597 4.36550 2.36476
#
# Compressibility (1/GPa) = 0.07198165
#
# Stress axis : x y z
#
# Youngs Moduli (GPa) = 73.33200 73.33200 26.58801
#
# Poissons Ratio (x) = 0.15796 -0.07581
# Poissons Ratio (y) = 0.15796 -0.07581
# Poissons Ratio (z) = -0.20910 -0.20910
#
# Static dielectric constant tensor:
#      x y z
#    x 1.789500 0.000000 0.000000 
#    y 0.000000 1.789500 0.000000 
#    z 0.000000 0.000000 1.797230 
# 
# From -- ./inp_files/694.got.cif
#   From: 2010.05.17/outbox.cif.g08.bks.cpg/sg83_1_cif.got.tgz:694.got - 2010.06.03 18:55:12.
