data_PCOD9543714
_publ_section_title
;
Structure prediction by ZEFSAII (Michael W. Deem and Ramdas Pophale) SiO2 
 PCOD9543714
Probable space group: P 4/M
;
_chemical_formula_sum "Si O2"
_cell_formula_units_Z 40
_cell_length_a 8.264289
_cell_length_b 8.264289
_cell_length_c 26.775316
_cell_angle_alpha 90.000000
_cell_angle_beta 90.000000
_cell_angle_gamma 90.000000
_cell_volume 1828.713188
_symmetry_space_group_name_H-M "P 4/M"
_symmetry_group_IT_number 83
_symmetry_cell_setting 'tetragonal'
loop_
_space_group_symop_operation_xyz
x,y,z
-y,x,z
-x,-y,z
y,-x,z
-x,-y,-z
y,-x,-z
x,y,-z
-y,x,-z
loop_
_atom_site_type_symbol
_atom_site_label
_atom_site_fract_x
_atom_site_fract_y
_atom_site_fract_z
Si Si1 0.919345 0.738960 0.444915
Si Si2 0.760257 0.582170 0.647017
Si Si3 0.760355 0.585288 0.758264
Si Si4 0.587800 0.241028 0.056269
Si Si5 0.922378 0.739402 0.148984
O O1 0.893387 0.664609 0.500000
O O2 0.873332 0.628604 0.398613
O O3 0.101423 0.806038 0.442228
O O4 0.600270 0.694617 0.643816
O O5 0.830206 0.608245 0.702544
O O6 0.598142 0.695499 0.762446
O O7 0.878051 0.637048 0.802194
O O8 0.696544 0.403825 0.061181
O O9 0.640680 0.120415 0.099306
O O10 0.610697 0.176786 0.000000
O O11 0.103312 0.806048 0.149377
#
# Coordination Sequence:
#
# PCOD9543714 Si02
#       5
#     8   8   8   8   8
#     4   9  19  35  52  72 102 139 175 210 251 302
#     4   9  19  35  54  78 105 131 165 213 264 308
#     4   9  19  37  58  77 100 133 173 215 258 307
#     4   9  19  37  60  83 105 133 173 217 258 303
#     4  11  24  37  50  76 112 143 172 210 256 304
#
# _framework density 21.873305999999999
#
# number of rings (size 3 to 8) (size 9 to 14) (size 15 to 20)
#    0.000    2.600    0.000    3.600    0.000    8.800 
#    0.000   12.000    0.000    0.000    0.000    0.000 
#    0.000    0.000    0.000    0.000    0.000    0.000 
#
# Total GULP energy -223860.696856 kJ/mol
# GULP energy per Si atom -5596.517421 kJ/mol
# Density = 2.182352 g / cm^3
# Si number density = 21.873306 Si / 1000 Ang^3
#
#
#
# Elastic Constant Matrix: (Units=GPa)
#
#
# Indices 1 2 3 4 5 6 
#
# 1 63.1914 48.5468 74.8923 0.0000 0.0000 1.1008
# 2 48.5468 63.1914 74.8923 0.0000 0.0000 -1.1008
# 3 74.8923 74.8923 214.6234 0.0000 0.0000 0.0000
# 4 0.0000 0.0000 0.0000 1689.6466 0.0000 0.0000
# 5 0.0000 0.0000 0.0000 0.0000 1689.6466 0.0000
# 6 1.1008 -1.1008 0.0000 0.0000 0.0000 44.3306
#
#
#
# Elastic Compliance Matrix: (Units=1/GPa)
#
#
# Indices 1 2 3 4 5 6 
#
# 1 0.042677 -0.025863 -0.005868 0.000000 0.000000 -0.001702
# 2 -0.025863 0.042677 -0.005868 0.000000 0.000000 0.001702
# 3 -0.005868 -0.005868 0.008754 0.000000 0.000000 0.000000
# 4 0.000000 0.000000 0.000000 0.000592 0.000000 0.000000
# 5 0.000000 0.000000 0.000000 0.000000 0.000592 0.000000
# 6 -0.001702 0.001702 0.000000 0.000000 0.000000 0.022642
#
#
# Mechanical properties :
#
#
# Convention : Reuss Voigt Hill
#
# Bulk Modulus (GPa) = 52.87108 81.96322 67.41715
# Shear Modulus (GPa) = 25.07081 694.23639 359.65360
#
# Velocity S-wave (km/s) = 3.38921 17.83476 12.83677
# Velocity P-wave (km/s) = 6.28805 21.48623 15.83032
#
# Compressibility (1/GPa) = 0.01891393
#
# Stress axis : x y z
#
# Youngs Moduli (GPa) = 23.43155 23.43155 114.23048
#
# Poissons Ratio (x) = 0.60600 0.67025
# Poissons Ratio (y) = 0.60600 0.67025
# Poissons Ratio (z) = 0.13748 0.13748
#
# Static dielectric constant tensor:
#      x y z
#    x 1.781640 0.000000 0.000000 
#    y 0.000000 1.781640 0.000000 
#    z 0.000000 0.000000 1.770760 
# 
# From -- ./inp_files/3086.got.cif
#   From: 2010.05.17/outbox.cif.g08.bks.cpg/sg83_2_cif.got.tgz:3086.got - 2010.06.03 18:55:12.
