data_PCOD9543702
_publ_section_title
;
Structure prediction by ZEFSAII (Michael W. Deem and Ramdas Pophale) SiO2 
 PCOD9543702
Probable space group: P 4/M
;
_chemical_formula_sum "Si O2"
_cell_formula_units_Z 40
_cell_length_a 8.181879
_cell_length_b 8.181879
_cell_length_c 26.974539
_cell_angle_alpha 90.000000
_cell_angle_beta 90.000000
_cell_angle_gamma 90.000000
_cell_volume 1805.760448
_symmetry_space_group_name_H-M "P 4/M"
_symmetry_group_IT_number 83
_symmetry_cell_setting 'tetragonal'
loop_
_space_group_symop_operation_xyz
x,y,z
-y,x,z
-x,-y,z
y,-x,z
-x,-y,-z
y,-x,-z
x,y,-z
-y,x,-z
loop_
_atom_site_type_symbol
_atom_site_label
_atom_site_fract_x
_atom_site_fract_y
_atom_site_fract_z
Si Si1 0.762045 0.587488 0.093447
Si Si2 0.238118 0.411945 0.795873
Si Si3 0.079422 0.262520 0.702115
Si Si4 0.237414 0.410372 0.607697
Si Si5 0.761218 0.592737 0.500000
Si Si6 0.077670 0.262871 0.000000
O O1 0.598002 0.697936 0.089462
O O2 0.831025 0.612840 0.148786
O O3 0.879308 0.637470 0.049252
O O4 0.402403 0.301828 0.791869
O O5 0.121191 0.361089 0.751681
O O6 0.124633 0.363320 0.653251
O O7 0.896410 0.196411 0.701760
O O8 0.403275 0.301362 0.610624
O O9 0.158371 0.378881 0.553418
O O10 0.594713 0.699096 0.500000
O O11 0.895221 0.195645 0.000000
#
# Coordination Sequence:
#
# PCOD9543702 Si02
#       6
#     8   8   8   8   4   4
#     4   9  19  37  60  83 105 131 169 217 263 307
#     4   9  19  37  60  83 103 127 167 218 266 309
#     4  11  24  37  48  70 107 145 176 208 251 304
#     4   9  17  32  56  81 102 128 167 214 260 307
#     4   7  12  26  50  79 104 124 156 209 264 305
#     4  11  24  37  50  76 114 149 178 209 248 298
#
# _framework density 22.151333999999999
#
# number of rings (size 3 to 8) (size 9 to 14) (size 15 to 20)
#    0.000    2.600    0.000    4.200    0.000    8.800 
#    0.000    7.000    0.000    4.800    0.000    0.000 
#    0.000    0.000    0.000    0.000    0.000    0.000 
#
# Total GULP energy -223827.252433 kJ/mol
# GULP energy per Si atom -5595.681311 kJ/mol
# Density = 2.210092 g / cm^3
# Si number density = 22.151334 Si / 1000 Ang^3
#
#
#
# Elastic Constant Matrix: (Units=GPa)
#
#
# Indices 1 2 3 4 5 6 
#
# 1 65.2062 50.5206 71.5102 0.0000 0.0000 -1.8370
# 2 50.5206 65.2062 71.5102 0.0000 0.0000 1.8370
# 3 71.5102 71.5102 232.0532 0.0000 0.0000 0.0000
# 4 0.0000 0.0000 0.0000 -120.8423 0.0000 0.0000
# 5 0.0000 0.0000 0.0000 0.0000 -120.8423 0.0000
# 6 -1.8370 1.8370 0.0000 0.0000 0.0000 40.9563
#
#
#
# Elastic Compliance Matrix: (Units=1/GPa)
#
#
# Indices 1 2 3 4 5 6 
#
# 1 0.041411 -0.027455 -0.004301 0.000000 0.000000 0.003089
# 2 -0.027455 0.041411 -0.004301 0.000000 0.000000 -0.003089
# 3 -0.004301 -0.004301 0.006960 0.000000 0.000000 0.000000
# 4 0.000000 0.000000 0.000000 -0.008275 0.000000 0.000000
# 5 0.000000 0.000000 0.000000 0.000000 -0.008275 0.000000
# 6 0.003089 -0.003089 0.000000 0.000000 0.000000 0.024693
#
#
# Mechanical properties :
#
#
# Convention : Reuss Voigt Hill
#
# Bulk Modulus (GPa) = 56.59561 83.28305 69.93933
# Shear Modulus (GPa) = 28.42064 -28.88400 -0.23168
#
# Velocity S-wave (km/s) = 3.58581 -3.61493 -0.32376
# Velocity P-wave (km/s) = 6.53828 4.50059 5.61268
#
# Compressibility (1/GPa) = 0.01766921
#
# Stress axis : x y z
#
# Youngs Moduli (GPa) = 24.14802 24.14802 143.67775
#
# Poissons Ratio (x) = 0.66299 0.61792
# Poissons Ratio (y) = 0.66299 0.61792
# Poissons Ratio (z) = 0.10385 0.10385
#
# Static dielectric constant tensor:
#      x y z
#    x 1.786260 0.000000 0.000000 
#    y 0.000000 1.786260 0.000000 
#    z 0.000000 0.000000 1.798930 
# 
# From -- ./inp_files/3253.got.cif
#   From: 2010.05.17/outbox.cif.g08.bks.cpg/sg83_2_cif.got.tgz:3253.got - 2010.06.03 18:55:12.
