data_PCOD9543162
_publ_section_title
;
Structure prediction by ZEFSAII (Michael W. Deem and Ramdas Pophale) SiO2 
 PCOD9543162
Probable space group: I -4 
;
_chemical_formula_sum "Si O2"
_cell_formula_units_Z 36
_cell_length_a 8.717459
_cell_length_b 8.717459
_cell_length_c 18.017968
_cell_angle_alpha 90.000000
_cell_angle_beta 90.000000
_cell_angle_gamma 90.000000
_cell_volume 1369.259107
_symmetry_space_group_name_H-M "I -4 "
_symmetry_group_IT_number 82
_symmetry_cell_setting 'tetragonal'
loop_
_space_group_symop_operation_xyz
x,y,z
y,-x,-z
-x,-y,z
-y,x,-z
1/2+x,1/2+y,1/2+z
1/2+y,1/2-x,1/2-z
1/2-x,1/2-y,1/2+z
1/2-y,1/2+x,1/2-z
loop_
_atom_site_type_symbol
_atom_site_label
_atom_site_fract_x
_atom_site_fract_y
_atom_site_fract_z
Si Si1 0.430955 0.169345 0.522801
Si Si2 0.382109 0.380839 0.104096
Si Si3 0.382108 0.880841 0.145903
Si Si4 0.500000 0.000000 0.750000
Si Si5 0.830655 0.930954 0.772800
Si Si6 0.500000 0.500000 0.500000
O O1 0.256844 0.165387 0.551743
O O2 0.441648 0.178625 0.433260
O O3 0.499639 0.336650 0.544931
O O4 0.500000 0.000000 0.542232
O O5 0.500000 0.500000 0.071515
O O6 0.500001 0.249999 0.124998
O O7 0.321376 0.441642 0.183260
O O8 0.243156 0.834613 0.198255
O O9 0.500000 0.000000 0.178485
O O10 0.663351 0.999639 0.794931
O O11 0.000000 0.000000 0.792232
#
# Coordination Sequence:
#
# PCOD9543162 Si02
#       6
#     8   8   8   2   8   2
#     4  11  27  51  81 121 167 216 278 346 410 503
#     4  11  27  48  80 118 159 220 271 342 425 481
#     4  11  27  48  80 118 159 220 271 342 425 481
#     4  12  28  52  76 132 156 224 280 326 444 472
#     4  11  27  51  81 121 167 216 278 346 410 503
#     4  12  28  52  76 132 156 224 280 326 444 472
#
# _framework density 26.291592000000001
#
# number of rings (size 3 to 8) (size 9 to 14) (size 15 to 20)
#    0.000    0.889    0.000    5.333   15.556    1.778 
#    0.000    0.000    0.000    0.000    0.000    0.000 
#    0.000    0.000    0.000    0.000    0.000    0.000 
#
# Total GULP energy -100665.646462 kJ/mol
# GULP energy per Si atom -5592.535915 kJ/mol
# Density = 2.623175 g / cm^3
# Si number density = 26.291592 Si / 1000 Ang^3
#
#
#
# Elastic Constant Matrix: (Units=GPa)
#
#
# Indices 1 2 3 4 5 6 
#
# 1 229.2033 97.9886 36.2938 0.0000 0.0000 1.3977
# 2 97.9886 229.2033 36.2938 0.0000 0.0000 -1.3977
# 3 36.2938 36.2938 121.0913 0.0000 0.0000 0.0000
# 4 0.0000 0.0000 0.0000 30.7940 0.0000 0.0000
# 5 0.0000 0.0000 0.0000 0.0000 30.7940 0.0000
# 6 1.3977 -1.3977 0.0000 0.0000 0.0000 68.3882
#
#
#
# Elastic Compliance Matrix: (Units=1/GPa)
#
#
# Indices 1 2 3 4 5 6 
#
# 1 0.005449 -0.002175 -0.000981 0.000000 0.000000 -0.000156
# 2 -0.002175 0.005449 -0.000981 0.000000 0.000000 0.000156
# 3 -0.000981 -0.000981 0.008846 0.000000 0.000000 0.000000
# 4 0.000000 0.000000 0.000000 0.032474 0.000000 0.000000
# 5 0.000000 0.000000 0.000000 0.000000 0.032474 0.000000
# 6 -0.000156 0.000156 0.000000 0.000000 0.000000 0.014629
#
#
# Mechanical properties :
#
#
# Convention : Reuss Voigt Hill
#
# Bulk Modulus (GPa) = 87.18920 102.29444 94.74182
# Shear Modulus (GPa) = 44.87520 53.25668 49.06594
#
# Velocity S-wave (km/s) = 4.13586 4.50557 4.32467
# Velocity P-wave (km/s) = 7.48609 8.12767 7.81346
#
# Compressibility (1/GPa) = 0.01146931
#
# Stress axis : x y z
#
# Youngs Moduli (GPa) = 183.51268 183.51268 113.03948
#
# Poissons Ratio (x) = 0.39918 0.11093
# Poissons Ratio (y) = 0.39918 0.11093
# Poissons Ratio (z) = 0.18008 0.18008
#
# Static dielectric constant tensor:
#      x y z
#    x 4.459520 0.000000 0.000000 
#    y 0.000000 4.459520 0.000000 
#    z 0.000000 0.000000 2.274880 
# 
# From -- ./inp_files/3002.got.cif
#   From: 2010.05.17/outbox.cif.g08.bks.cpg/sg82_2_cif.got.tgz:3002.got - 2010.06.03 18:52:26.
