data_PCOD9543433
_publ_section_title
;
Structure prediction by ZEFSAII (Michael W. Deem and Ramdas Pophale) SiO2 
 PCOD9543433
Probable space group: P 4/M
;
_chemical_formula_sum "Si O2"
_cell_formula_units_Z 52
_cell_length_a 16.620632
_cell_length_b 16.620632
_cell_length_c 7.976103
_cell_angle_alpha 90.000000
_cell_angle_beta 90.000000
_cell_angle_gamma 90.000000
_cell_volume 2203.361828
_symmetry_space_group_name_H-M "P 4/M"
_symmetry_group_IT_number 83
_symmetry_cell_setting 'tetragonal'
loop_
_space_group_symop_operation_xyz
x,y,z
-y,x,z
-x,-y,z
y,-x,z
-x,-y,-z
y,-x,-z
x,y,-z
-y,x,-z
loop_
_atom_site_type_symbol
_atom_site_label
_atom_site_fract_x
_atom_site_fract_y
_atom_site_fract_z
Si Si1 0.829096 0.300020 0.704425
Si Si2 0.449553 0.074826 0.304203
Si Si3 0.974307 0.872971 0.797733
Si Si4 0.459475 0.373551 0.500000
Si Si5 0.862908 0.745826 0.305249
Si Si6 0.336962 0.633427 0.812146
Si Si7 0.199675 0.421407 0.192884
O O1 0.820276 0.309408 0.500000
O O2 0.901953 0.359419 0.756442
O O3 0.813342 0.205300 0.737767
O O4 0.753064 0.334465 0.803699
O O5 0.438129 0.055278 0.500000
O O6 0.508389 0.152548 0.289085
O O7 0.500000 0.000000 0.227486
O O8 0.947833 0.788230 0.724696
O O9 0.059124 0.909768 0.745723
O O10 0.973386 0.867964 0.000000
O O11 0.548323 0.403625 0.500000
O O12 0.435594 0.334653 0.674291
O O13 0.852360 0.725293 0.500000
O O14 0.849402 0.662703 0.209024
O O15 0.392416 0.710024 0.761056
O O16 0.359360 0.607691 0.000000
O O17 0.202779 0.447314 0.000000
#
# Coordination Sequence:
#
# PCOD9543433 Si02
#       7
#     8   8   8   4   8   8   8
#     4   9  19  37  59  82 118 160 201 247 300 361
#     4  10  22  38  59  89 123 161 201 248 307 363
#     4   9  19  36  56  79 111 151 190 232 290 353
#     4  11  26  42  60  90 124 160 196 245 312 360
#     4  10  20  35  57  85 114 152 198 246 294 349
#     4  10  22  39  64  92 116 158 209 247 295 362
#     4  10  22  38  58  85 116 154 200 245 293 355
#
# _framework density 23.600299
#
# number of rings (size 3 to 8) (size 9 to 14) (size 15 to 20)
#    0.000    2.231    0.769    1.385    4.308    4.000 
#    0.000    3.077    0.000    0.000    0.000    0.000 
#    0.000    0.000    0.000    0.000    0.000    0.000 
#
# Total GULP energy -290121.052776 kJ/mol
# GULP energy per Si atom -5579.251015 kJ/mol
# Density = 2.354658 g / cm^3
# Si number density = 23.600299 Si / 1000 Ang^3
#
#
#
# Elastic Constant Matrix: (Units=GPa)
#
#
# Indices 1 2 3 4 5 6 
#
# 1 50.9256 14.7511 4.1473 0.0000 0.0000 7.7628
# 2 14.7511 50.9256 4.1473 0.0000 0.0000 -7.7628
# 3 4.1473 4.1473 20.7857 0.0000 0.0000 0.0000
# 4 0.0000 0.0000 0.0000 25.8810 0.0000 0.0000
# 5 0.0000 0.0000 0.0000 0.0000 25.8810 0.0000
# 6 7.7628 -7.7628 0.0000 0.0000 0.0000 43.7162
#
#
#
# Elastic Compliance Matrix: (Units=1/GPa)
#
#
# Indices 1 2 3 4 5 6 
#
# 1 0.022772 -0.007152 -0.003117 0.000000 0.000000 -0.005314
# 2 -0.007152 0.022772 -0.003117 0.000000 0.000000 0.005314
# 3 -0.003117 -0.003117 0.049354 0.000000 0.000000 0.000000
# 4 0.000000 0.000000 0.000000 0.038638 0.000000 0.000000
# 5 0.000000 0.000000 0.000000 0.000000 0.038638 0.000000
# 6 -0.005314 0.005314 0.000000 0.000000 0.000000 0.024762
#
#
# Mechanical properties :
#
#
# Convention : Reuss Voigt Hill
#
# Bulk Modulus (GPa) = 14.67849 18.74759 16.71304
# Shear Modulus (GPa) = 20.29087 25.73506 23.01297
#
# Velocity S-wave (km/s) = 2.93537 3.30579 3.12607
# Velocity P-wave (km/s) = 4.20971 4.74679 4.48629
#
# Compressibility (1/GPa) = 0.06812689
#
# Stress axis : x y z
#
# Youngs Moduli (GPa) = 43.91354 43.91354 20.26191
#
# Poissons Ratio (x) = 0.31408 0.06315
# Poissons Ratio (y) = 0.31408 0.06315
# Poissons Ratio (z) = 0.13686 0.13686
#
# Static dielectric constant tensor:
#      x y z
#    x 1.911680 0.000000 0.000000 
#    y 0.000000 1.911680 0.000000 
#    z 0.000000 0.000000 1.756530 
# 
# From -- ./inp_files/1043.got.cif
#   From: 2010.05.17/outbox.cif.g08.bks.cpg/sg83_1_cif.got.tgz:1043.got - 2010.06.03 18:55:12.
