data_PCOD9543748
_publ_section_title
;
Structure prediction by ZEFSAII (Michael W. Deem and Ramdas Pophale) SiO2 
 PCOD9543748
Probable space group: P 4/M
;
_chemical_formula_sum "Si O2"
_cell_formula_units_Z 40
_cell_length_a 7.367464
_cell_length_b 7.367464
_cell_length_c 28.732960
_cell_angle_alpha 90.000000
_cell_angle_beta 90.000000
_cell_angle_gamma 90.000000
_cell_volume 1559.611443
_symmetry_space_group_name_H-M "P 4/M"
_symmetry_group_IT_number 83
_symmetry_cell_setting 'tetragonal'
loop_
_space_group_symop_operation_xyz
x,y,z
-y,x,z
-x,-y,z
y,-x,z
-x,-y,-z
y,-x,-z
x,y,-z
-y,x,-z
loop_
_atom_site_type_symbol
_atom_site_label
_atom_site_fract_x
_atom_site_fract_y
_atom_site_fract_z
Si Si1 0.771984 0.357973 0.100035
Si Si2 0.227426 0.645734 0.000000
Si Si3 0.359018 0.225773 0.450353
Si Si4 0.115387 0.728963 0.798045
Si Si5 0.000000 0.500000 0.728153
Si Si6 0.219650 0.630880 0.348609
O O1 0.734094 0.573442 0.101254
O O2 0.859894 0.311157 0.049930
O O3 0.871764 0.306727 0.147070
O O4 0.265997 0.428746 0.000000
O O5 0.575096 0.267122 0.450406
O O6 0.313550 0.135203 0.500000
O O7 0.323109 0.142394 0.399914
O O8 0.157464 0.557739 0.766069
O O9 0.908673 0.777318 0.786530
O O10 0.068933 0.653907 0.691016
O O11 0.273179 0.415598 0.344437
#
# Coordination Sequence:
#
# PCOD9543748 Si02
#       6
#     8   4   8   8   4   8
#     4   9  17  33  59  87 111 137 169 204 245 299
#     4   7  12  26  52  85 114 135 160 198 244 295
#     4   7  10  20  41  68  97 126 153 188 242 302
#     4  11  24  39  53  72 102 138 175 217 264 309
#     4  12  22  36  53  71  96 132 174 218 262 302
#     4   9  18  32  51  75  99 126 165 209 250 299
#
# _framework density 25.647411000000002
#
# number of rings (size 3 to 8) (size 9 to 14) (size 15 to 20)
#    0.000    2.900    0.000    5.400    0.000    0.000 
#    0.000    3.500    0.000    5.400    0.000    0.000 
#    0.000    0.000    0.000   24.400    0.000    1.600 
#
# Total GULP energy -222719.643938 kJ/mol
# GULP energy per Si atom -5567.991098 kJ/mol
# Density = 2.558904 g / cm^3
# Si number density = 25.647411 Si / 1000 Ang^3
#
#
#
# Elastic Constant Matrix: (Units=GPa)
#
#
# Indices 1 2 3 4 5 6 
#
# 1 64.1835 21.7315 17.0283 0.0000 0.0000 0.7097
# 2 21.7315 64.1835 17.0283 0.0000 0.0000 -0.7097
# 3 17.0283 17.0283 182.9462 0.0000 0.0000 0.0000
# 4 0.0000 0.0000 0.0000 47.8183 0.0000 0.0000
# 5 0.0000 0.0000 0.0000 0.0000 47.8183 0.0000
# 6 0.7097 -0.7097 0.0000 0.0000 0.0000 20.0974
#
#
#
# Elastic Compliance Matrix: (Units=1/GPa)
#
#
# Indices 1 2 3 4 5 6 
#
# 1 0.017835 -0.005749 -0.001125 0.000000 0.000000 -0.000833
# 2 -0.005749 0.017835 -0.001125 0.000000 0.000000 0.000833
# 3 -0.001125 -0.001125 0.005675 0.000000 0.000000 0.000000
# 4 0.000000 0.000000 0.000000 0.020913 0.000000 0.000000
# 5 0.000000 0.000000 0.000000 0.000000 0.020913 0.000000
# 6 -0.000833 0.000833 0.000000 0.000000 0.000000 0.049816
#
#
# Mechanical properties :
#
#
# Convention : Reuss Voigt Hill
#
# Bulk Modulus (GPa) = 39.45306 46.98773 43.22040
# Shear Modulus (GPa) = 31.75955 40.18182 35.97068
#
# Velocity S-wave (km/s) = 3.52279 3.96245 3.74907
# Velocity P-wave (km/s) = 5.65358 6.26858 5.96901
#
# Compressibility (1/GPa) = 0.02534658
#
# Stress axis : x y z
#
# Youngs Moduli (GPa) = 56.07085 56.07085 176.19626
#
# Poissons Ratio (x) = 0.32237 0.19820
# Poissons Ratio (y) = 0.32237 0.19820
# Poissons Ratio (z) = 0.06307 0.06307
#
# Static dielectric constant tensor:
#      x y z
#    x 2.168340 0.000000 0.000000 
#    y 0.000000 2.168340 0.000000 
#    z 0.000000 0.000000 2.111420 
# 
# From -- ./inp_files/3287.got.cif
#   From: 2010.05.17/outbox.cif.g08.bks.cpg/sg83_2_cif.got.tgz:3287.got - 2010.06.03 18:55:12.
