data_PCOD9543669
_publ_section_title
;
Structure prediction by ZEFSAII (Michael W. Deem and Ramdas Pophale) SiO2 
 PCOD9543669
Probable space group: P 4/M
;
_chemical_formula_sum "Si O2"
_cell_formula_units_Z 54
_cell_length_a 11.610752
_cell_length_b 11.610752
_cell_length_c 21.032365
_cell_angle_alpha 90.000000
_cell_angle_beta 90.000000
_cell_angle_gamma 90.000000
_cell_volume 2835.363914
_symmetry_space_group_name_H-M "P 4/M"
_symmetry_group_IT_number 83
_symmetry_cell_setting 'tetragonal'
loop_
_space_group_symop_operation_xyz
x,y,z
-y,x,z
-x,-y,z
y,-x,z
-x,-y,-z
y,-x,-z
x,y,-z
-y,x,-z
loop_
_atom_site_type_symbol
_atom_site_label
_atom_site_fract_x
_atom_site_fract_y
_atom_site_fract_z
Si Si1 0.488434 0.309242 0.165946
Si Si2 0.270808 0.023797 0.283008
Si Si3 0.336378 0.609799 0.500000
Si Si4 0.416213 0.789713 0.701696
Si Si5 0.921478 0.392820 0.841394
Si Si6 0.187665 0.003869 0.923740
Si Si7 0.000000 0.000000 0.269000
Si Si8 0.648927 0.780269 0.366763
O O1 0.602477 0.383835 0.154489
O O2 0.518897 0.259369 0.236150
O O3 0.447260 0.194617 0.130346
O O4 0.317979 0.096200 0.222495
O O5 0.141220 0.985343 0.270796
O O6 0.283742 0.104504 0.345173
O O7 0.350254 0.909829 0.287382
O O8 0.346230 0.469435 0.500000
O O9 0.267312 0.652898 0.438136
O O10 0.516409 0.804388 0.650246
O O11 0.323086 0.698633 0.676571
O O12 0.985393 0.308571 0.889882
O O13 0.000000 0.500000 0.824124
O O14 0.108224 0.113457 0.905162
O O15 0.197448 0.003478 0.000000
#
# Coordination Sequence:
#
# PCOD9543669 Si02
#       8
#     8   8   4   8   8   8   2   8
#     4  11  23  38  57  89 129 170 205 246 321 390
#     4  12  25  43  60  96 130 165 215 264 324 389
#     4  11  24  40  63  98 125 161 216 263 322 400
#     4  12  21  38  63  89 126 168 202 263 324 382
#     4  12  24  37  65  99 133 163 212 274 320 384
#     4   9  22  43  67  96 132 176 224 270 319 375
#     4  12  28  40  68  89 125 176 208 260 326 388
#     4  12  23  40  65  90 131 161 208 266 326 384
#
# _framework density 19.045175
#
# number of rings (size 3 to 8) (size 9 to 14) (size 15 to 20)
#    0.000    0.667    7.407    0.889    4.148    0.593 
#    0.000    2.222    0.000    0.444    0.000    1.037 
#    0.000    0.000    0.000    0.000    0.000    0.000 
#
# Total GULP energy -300805.101630 kJ/mol
# GULP energy per Si atom -5570.464845 kJ/mol
# Density = 1.900183 g / cm^3
# Si number density = 19.045175 Si / 1000 Ang^3
#
#
#
# Elastic Constant Matrix: (Units=GPa)
#
#
# Indices 1 2 3 4 5 6 
#
# 1 79.2583 7.3770 11.7356 0.0000 0.0000 0.2358
# 2 7.3770 79.2583 11.7356 0.0000 0.0000 -0.2358
# 3 11.7356 11.7356 29.6384 0.0000 0.0000 0.0000
# 4 0.0000 0.0000 0.0000 16.8567 0.0000 0.0000
# 5 0.0000 0.0000 0.0000 0.0000 16.8567 0.0000
# 6 0.2358 -0.2358 0.0000 0.0000 0.0000 34.2355
#
#
#
# Elastic Compliance Matrix: (Units=1/GPa)
#
#
# Indices 1 2 3 4 5 6 
#
# 1 0.013421 -0.000491 -0.005120 0.000000 0.000000 -0.000096
# 2 -0.000491 0.013421 -0.005120 0.000000 0.000000 0.000096
# 3 -0.005120 -0.005120 0.037794 0.000000 0.000000 0.000000
# 4 0.000000 0.000000 0.000000 0.059324 0.000000 0.000000
# 5 0.000000 0.000000 0.000000 0.000000 0.059324 0.000000
# 6 -0.000096 0.000096 0.000000 0.000000 0.000000 0.029211
#
#
# Mechanical properties :
#
#
# Convention : Reuss Voigt Hill
#
# Bulk Modulus (GPa) = 23.16148 27.76127 25.46138
# Shear Modulus (GPa) = 20.13308 24.07689 22.10498
#
# Velocity S-wave (km/s) = 3.25487 3.55941 3.41054
# Velocity P-wave (km/s) = 5.12965 5.61255 5.37653
#
# Compressibility (1/GPa) = 0.04317513
#
# Stress axis : x y z
#
# Youngs Moduli (GPa) = 74.50983 74.50983 26.45901
#
# Poissons Ratio (x) = 0.03661 0.13546
# Poissons Ratio (y) = 0.03661 0.13546
# Poissons Ratio (z) = 0.38146 0.38146
#
# Static dielectric constant tensor:
#      x y z
#    x 1.672010 0.000000 0.000000 
#    y 0.000000 1.672010 0.000000 
#    z 0.000000 0.000000 1.662280 
# 
# From -- ./inp_files/3031.got.cif
#   From: 2010.05.17/outbox.cif.g08.bks.cpg/sg83_2_cif.got.tgz:3031.got - 2010.06.03 18:55:12.
