data_PCOD9543658
_publ_section_title
;
Structure prediction by ZEFSAII (Michael W. Deem and Ramdas Pophale) SiO2 
 PCOD9543658
Probable space group: P 4/M
;
_chemical_formula_sum "Si O2"
_cell_formula_units_Z 22
_cell_length_a 8.250963
_cell_length_b 8.250963
_cell_length_c 13.579096
_cell_angle_alpha 90.000000
_cell_angle_beta 90.000000
_cell_angle_gamma 90.000000
_cell_volume 924.442999
_symmetry_space_group_name_H-M "P 4/M"
_symmetry_group_IT_number 83
_symmetry_cell_setting 'tetragonal'
loop_
_space_group_symop_operation_xyz
x,y,z
-y,x,z
-x,-y,z
y,-x,z
-x,-y,-z
y,-x,-z
x,y,-z
-y,x,-z
loop_
_atom_site_type_symbol
_atom_site_label
_atom_site_fract_x
_atom_site_fract_y
_atom_site_fract_z
Si Si1 0.239963 0.413918 0.889730
Si Si2 0.500000 0.500000 0.500000
Si Si3 0.000000 0.000000 0.500000
Si Si4 0.690836 0.197591 0.500000
Si Si5 0.263398 0.919650 0.705759
O O1 0.402293 0.303854 0.881208
O O2 0.122245 0.362836 0.802930
O O3 0.172709 0.390132 0.000000
O O4 0.390020 0.336036 0.500000
O O5 0.841308 0.883794 0.500000
O O6 0.640334 0.128045 0.606906
O O7 0.101402 0.806206 0.706681
#
# Coordination Sequence:
#
# PCOD9543658 Si02
#       5
#     8   1   1   4   8
#     4   9  21  41  62  87 127 172 215 279 361 422
#     4  12  36  40  68 116 158 168 268 292 364 402
#     4  12  20  56  84  84 158 200 252 252 404 418
#     4  12  24  50  68 106 140 198 224 306 340 454
#     4  11  22  41  67  93 127 177 231 276 343 428
#
# _framework density 23.798113000000001
#
# number of rings (size 3 to 8) (size 9 to 14) (size 15 to 20)
#    0.000    1.455    3.636    1.091    5.091    3.636 
#    0.000    5.455    0.000    0.000    0.000    0.000 
#    0.000    0.000    0.000    0.000    0.000    0.000 
#
# Total GULP energy -122565.173098 kJ/mol
# GULP energy per Si atom -5571.144232 kJ/mol
# Density = 2.374395 g / cm^3
# Si number density = 23.798113 Si / 1000 Ang^3
#
#
#
# Elastic Constant Matrix: (Units=GPa)
#
#
# Indices 1 2 3 4 5 6 
#
# 1 74.1652 56.0941 62.3943 0.0000 0.0000 7.9977
# 2 56.0941 74.1652 62.3943 0.0000 0.0000 -7.9977
# 3 62.3943 62.3943 229.4675 0.0000 0.0000 0.0000
# 4 0.0000 0.0000 0.0000 -77.0946 0.0000 0.0000
# 5 0.0000 0.0000 0.0000 0.0000 -77.0946 0.0000
# 6 7.9977 -7.9977 0.0000 0.0000 0.0000 64.4115
#
#
#
# Elastic Compliance Matrix: (Units=1/GPa)
#
#
# Indices 1 2 3 4 5 6 
#
# 1 0.036275 -0.025894 -0.002823 0.000000 0.000000 -0.007719
# 2 -0.025894 0.036275 -0.002823 0.000000 0.000000 0.007719
# 3 -0.002823 -0.002823 0.005893 0.000000 0.000000 0.000000
# 4 0.000000 0.000000 0.000000 -0.012971 0.000000 0.000000
# 5 0.000000 0.000000 0.000000 0.000000 -0.012971 0.000000
# 6 -0.007719 0.007719 0.000000 0.000000 0.000000 0.017442
#
#
# Mechanical properties :
#
#
# Convention : Reuss Voigt Hill
#
# Bulk Modulus (GPa) = 65.08560 82.17372 73.62966
# Shear Modulus (GPa) = 36.19400 -4.82785 15.68307
#
# Velocity S-wave (km/s) = 3.90407 -1.42586 2.56989
# Velocity P-wave (km/s) = 6.90875 5.64745 6.30970
#
# Compressibility (1/GPa) = 0.01536438
#
# Stress axis : x y z
#
# Youngs Moduli (GPa) = 27.56691 27.56691 169.69366
#
# Poissons Ratio (x) = 0.71382 0.47900
# Poissons Ratio (y) = 0.71382 0.47900
# Poissons Ratio (z) = 0.07781 0.07781
#
# Static dielectric constant tensor:
#      x y z
#    x 1.890180 0.000000 0.000000 
#    y 0.000000 1.890180 0.000000 
#    z 0.000000 0.000000 1.975900 
# 
# From -- ./inp_files/2128.got.cif
#   From: 2010.05.17/outbox.cif.g08.bks.cpg/sg83_2_cif.got.tgz:2128.got - 2010.06.03 18:55:12.
