data_PCOD9543284
_publ_section_title
;
Structure prediction by ZEFSAII (Michael W. Deem and Ramdas Pophale) SiO2 
 PCOD9543284
Probable space group: P 4/M
;
_chemical_formula_sum "Si O2"
_cell_formula_units_Z 52
_cell_length_a 17.790571
_cell_length_b 17.790571
_cell_length_c 7.858890
_cell_angle_alpha 90.000000
_cell_angle_beta 90.000000
_cell_angle_gamma 90.000000
_cell_volume 2487.373394
_symmetry_space_group_name_H-M "P 4/M"
_symmetry_group_IT_number 83
_symmetry_cell_setting 'tetragonal'
loop_
_space_group_symop_operation_xyz
x,y,z
-y,x,z
-x,-y,z
y,-x,z
-x,-y,-z
y,-x,-z
x,y,-z
-y,x,-z
loop_
_atom_site_type_symbol
_atom_site_label
_atom_site_fract_x
_atom_site_fract_y
_atom_site_fract_z
Si Si1 0.806961 0.658280 0.803563
Si Si2 0.324654 0.232474 0.707653
Si Si3 0.914273 0.791554 0.198483
Si Si4 0.487149 0.213990 0.313271
Si Si5 0.901779 0.079891 0.500000
Si Si6 0.064589 0.725166 0.298946
Si Si7 0.565030 0.940173 0.803716
O O1 0.730613 0.703732 0.771601
O O2 0.871220 0.715894 0.736348
O O3 0.792566 0.572486 0.749001
O O4 0.827030 0.651801 0.000000
O O5 0.326398 0.231522 0.500000
O O6 0.410538 0.246954 0.770296
O O7 0.289195 0.151028 0.759849
O O8 0.893535 0.857494 0.330966
O O9 0.004462 0.779223 0.210401
O O10 0.894238 0.805883 0.000000
O O11 0.491837 0.248202 0.500000
O O12 0.459952 0.127911 0.313228
O O13 0.989000 0.100370 0.500000
O O14 0.066529 0.740972 0.500000
O O15 0.029284 0.642953 0.264361
O O16 0.500000 0.000000 0.802201
O O17 0.574193 0.914583 0.000000
#
# Coordination Sequence:
#
# PCOD9543284 Si02
#       7
#     8   8   8   8   4   8   8
#     4  11  24  38  59  92 124 160 205 255 314 377
#     4   9  21  38  60  88 119 162 208 251 309 377
#     4  11  25  41  65  99 129 164 214 269 323 378
#     4  10  21  37  57  84 118 158 202 251 307 373
#     4  11  28  50  70  92 123 173 223 270 327 373
#     4  10  20  35  56  84 118 157 202 249 307 372
#     4  10  19  30  47  74 114 155 192 240 298 366
#
# _framework density 20.905587000000001
#
# number of rings (size 3 to 8) (size 9 to 14) (size 15 to 20)
#    0.000    1.769    0.769    3.692    4.308    9.231 
#    0.000    0.769    0.000    0.462    0.000    3.231 
#    0.000    0.000    0.000    0.000    0.000    0.000 
#
# Total GULP energy -289869.193069 kJ/mol
# GULP energy per Si atom -5574.407559 kJ/mol
# Density = 2.085800 g / cm^3
# Si number density = 20.905587 Si / 1000 Ang^3
#
#
#
# Elastic Constant Matrix: (Units=GPa)
#
#
# Indices 1 2 3 4 5 6 
#
# 1 92.6809 13.8064 6.6461 0.0000 0.0000 3.5676
# 2 13.8064 92.6809 6.6461 0.0000 0.0000 -3.5676
# 3 6.6461 6.6461 46.4197 0.0000 0.0000 0.0000
# 4 0.0000 0.0000 0.0000 20.7551 0.0000 0.0000
# 5 0.0000 0.0000 0.0000 0.0000 20.7551 0.0000
# 6 3.5676 -3.5676 0.0000 0.0000 0.0000 25.0976
#
#
#
# Elastic Compliance Matrix: (Units=1/GPa)
#
#
# Indices 1 2 3 4 5 6 
#
# 1 0.011203 -0.001641 -0.001369 0.000000 0.000000 -0.001826
# 2 -0.001641 0.011203 -0.001369 0.000000 0.000000 0.001826
# 3 -0.001369 -0.001369 0.021935 0.000000 0.000000 0.000000
# 4 0.000000 0.000000 0.000000 0.048181 0.000000 0.000000
# 5 0.000000 0.000000 0.000000 0.000000 0.048181 0.000000
# 6 -0.001826 0.001826 0.000000 0.000000 0.000000 0.040364
#
#
# Mechanical properties :
#
#
# Convention : Reuss Voigt Hill
#
# Bulk Modulus (GPa) = 28.10411 31.77542 29.93977
# Shear Modulus (GPa) = 24.79130 26.96707 25.87918
#
# Velocity S-wave (km/s) = 3.44738 3.59548 3.52221
# Velocity P-wave (km/s) = 5.41465 5.69817 5.55822
#
# Compressibility (1/GPa) = 0.03558198
#
# Stress axis : x y z
#
# Youngs Moduli (GPa) = 89.26500 89.26500 45.59007
#
# Poissons Ratio (x) = 0.14648 0.06241
# Poissons Ratio (y) = 0.14648 0.06241
# Poissons Ratio (z) = 0.12220 0.12220
#
# Static dielectric constant tensor:
#      x y z
#    x 1.453340 0.000000 0.000000 
#    y 0.000000 1.453340 0.000000 
#    z 0.000000 0.000000 1.795650 
# 
# From -- ./inp_files/1004.got.cif
#   From: 2010.05.17/outbox.cif.g08.bks.cpg/sg83_1_cif.got.tgz:1004.got - 2010.06.03 18:55:12.
