data_PCOD9543855
_publ_section_title
;
Structure prediction by ZEFSAII (Michael W. Deem and Ramdas Pophale) SiO2 
 PCOD9543855
Probable space group: P 4/M
;
_chemical_formula_sum "Si O2"
_cell_formula_units_Z 34
_cell_length_a 8.460500
_cell_length_b 8.460500
_cell_length_c 20.953486
_cell_angle_alpha 90.000000
_cell_angle_beta 90.000000
_cell_angle_gamma 90.000000
_cell_volume 1499.851790
_symmetry_space_group_name_H-M "P 4/M"
_symmetry_group_IT_number 83
_symmetry_cell_setting 'tetragonal'
loop_
_space_group_symop_operation_xyz
x,y,z
-y,x,z
-x,-y,z
y,-x,z
-x,-y,-z
y,-x,-z
x,y,-z
-y,x,-z
loop_
_atom_site_type_symbol
_atom_site_label
_atom_site_fract_x
_atom_site_fract_y
_atom_site_fract_z
Si Si1 0.929545 0.744998 0.000000
Si Si2 0.722049 0.650733 0.639055
Si Si3 0.650133 0.277630 0.500000
Si Si4 0.000000 0.000000 0.792230
Si Si5 0.257941 0.408577 0.106509
Si Si6 0.905129 0.661360 0.235455
O O1 0.885424 0.647993 0.062792
O O2 0.103114 0.814545 0.000000
O O3 0.540838 0.710502 0.642937
O O4 0.790067 0.695129 0.569041
O O5 0.823500 0.709736 0.698082
O O6 0.709745 0.459254 0.500000
O O7 0.194707 0.011318 0.790115
O O8 0.412298 0.304677 0.091769
O O9 0.217839 0.385323 0.180356
O O10 0.000000 0.500000 0.247698
#
# Coordination Sequence:
#
# PCOD9543855 Si02
#       6
#     4   8   4   2   8   8
#     4  11  28  45  70 100 135 174 218 271 338 410
#     4   9  16  32  59  94 134 176 230 284 340 408
#     4   7  12  24  51  89 128 174 225 281 334 399
#     4  12  28  44  68  98 144 172 236 282 344 416
#     4  11  25  45  69 100 133 173 224 279 336 406
#     4  12  26  43  67  98 133 183 225 286 348 407
#
# _framework density 22.668908999999999
#
# number of rings (size 3 to 8) (size 9 to 14) (size 15 to 20)
#    0.000    1.647    0.000    6.353    6.588    3.765 
#    0.000    0.588    0.000    2.118    0.000    0.000 
#    0.000    0.000    0.000    0.000    0.000    0.000 
#
# Total GULP energy -189709.119344 kJ/mol
# GULP energy per Si atom -5579.679981 kJ/mol
# Density = 2.261731 g / cm^3
# Si number density = 22.668909 Si / 1000 Ang^3
#
#
#
# Elastic Constant Matrix: (Units=GPa)
#
#
# Indices 1 2 3 4 5 6 
#
# 1 51.7738 23.3679 6.8852 0.0000 0.0000 6.1141
# 2 23.3679 51.7738 6.8852 0.0000 0.0000 -6.1141
# 3 6.8852 6.8852 106.1724 0.0000 0.0000 0.0000
# 4 0.0000 0.0000 0.0000 -355.2521 0.0000 0.0000
# 5 0.0000 0.0000 0.0000 0.0000 -355.2521 0.0000
# 6 6.1141 -6.1141 0.0000 0.0000 0.0000 50.7309
#
#
#
# Elastic Compliance Matrix: (Units=1/GPa)
#
#
# Indices 1 2 3 4 5 6 
#
# 1 0.025299 -0.011831 -0.000873 0.000000 0.000000 -0.004475
# 2 -0.011831 0.025299 -0.000873 0.000000 0.000000 0.004475
# 3 -0.000873 -0.000873 0.009532 0.000000 0.000000 0.000000
# 4 0.000000 0.000000 0.000000 -0.002815 0.000000 0.000000
# 5 0.000000 0.000000 0.000000 0.000000 -0.002815 0.000000
# 6 -0.004475 0.004475 0.000000 0.000000 0.000000 0.020790
#
#
# Mechanical properties :
#
#
# Convention : Reuss Voigt Hill
#
# Bulk Modulus (GPa) = 30.32621 31.55520 30.94070
# Shear Modulus (GPa) = 44.07677 -120.44922 -38.18623
#
# Velocity S-wave (km/s) = 4.41429 -7.29722 -4.10874
# Velocity P-wave (km/s) = 6.27600 7.55308 2.97160
#
# Compressibility (1/GPa) = 0.03297478
#
# Stress axis : x y z
#
# Youngs Moduli (GPa) = 39.52682 39.52682 104.91067
#
# Poissons Ratio (x) = 0.46764 0.09163
# Poissons Ratio (y) = 0.46764 0.09163
# Poissons Ratio (z) = 0.03452 0.03452
#
# Static dielectric constant tensor:
#      x y z
#    x 1.831780 0.000000 0.000000 
#    y 0.000000 1.831780 0.000000 
#    z 0.000000 0.000000 1.862480 
# 
# From -- ./inp_files/2863.got.cif
#   From: 2010.05.17/outbox.cif.g08.bks.cpg/sg83_2_cif.got.tgz:2863.got - 2010.06.03 18:55:12.
