data_PCOD9543652
_publ_section_title
;
Structure prediction by ZEFSAII (Michael W. Deem and Ramdas Pophale) SiO2 
 PCOD9543652
Probable space group: P 4/M
;
_chemical_formula_sum "Si O2"
_cell_formula_units_Z 37
_cell_length_a 8.460198
_cell_length_b 8.460198
_cell_length_c 24.451531
_cell_angle_alpha 90.000000
_cell_angle_beta 90.000000
_cell_angle_gamma 90.000000
_cell_volume 1750.117114
_symmetry_space_group_name_H-M "P 4/M"
_symmetry_group_IT_number 83
_symmetry_cell_setting 'tetragonal'
loop_
_space_group_symop_operation_xyz
x,y,z
-y,x,z
-x,-y,z
y,-x,z
-x,-y,-z
y,-x,-z
x,y,-z
-y,x,-z
loop_
_atom_site_type_symbol
_atom_site_label
_atom_site_fract_x
_atom_site_fract_y
_atom_site_fract_z
Si Si1 0.081831 0.745829 0.939036
Si Si2 0.757990 0.883476 0.616431
Si Si3 0.247036 0.586695 0.158550
Si Si4 0.000000 0.000000 0.500000
Si Si5 0.905136 0.339409 0.500000
Si Si6 0.403522 0.251480 0.720216
O O1 0.132280 0.632881 0.890255
O O2 0.903080 0.809138 0.935055
O O3 0.105205 0.677321 0.000000
O O4 0.672583 0.829249 0.560415
O O5 0.654630 0.849604 0.669528
O O6 0.929442 0.798993 0.616888
O O7 0.307454 0.406643 0.154728
O O8 0.179147 0.618079 0.219281
O O9 0.810109 0.024963 0.500000
O O10 0.000000 0.500000 0.500000
O O11 0.585757 0.303598 0.717021
#
# Coordination Sequence:
#
# PCOD9543652 Si02
#       6
#     8   8   8   1   4   8
#     4   9  19  35  54  78 111 148 189 242 298 353
#     4  11  22  40  61  88 122 156 198 251 305 367
#     4   9  19  37  56  78 113 153 192 241 298 352
#     4  12  20  52  60  96 148 156 220 284 294 400
#     4  12  24  40  70  92 124 178 204 256 342 372
#     4   9  21  39  58  83 118 156 199 250 299 365
#
# _framework density 21.141441
#
# number of rings (size 3 to 8) (size 9 to 14) (size 15 to 20)
#    0.000    2.162    2.162    1.946    3.027    3.459 
#    0.000    9.730    0.000    1.622    0.000    0.000 
#    0.000    0.000    0.000    0.000    0.000    0.000 
#
# Total GULP energy -206353.010472 kJ/mol
# GULP energy per Si atom -5577.108391 kJ/mol
# Density = 2.109332 g / cm^3
# Si number density = 21.141441 Si / 1000 Ang^3
#
#
#
# Elastic Constant Matrix: (Units=GPa)
#
#
# Indices 1 2 3 4 5 6 
#
# 1 45.6645 26.7591 51.9121 0.0000 0.0000 -1.1755
# 2 26.7591 45.6645 51.9121 0.0000 0.0000 1.1755
# 3 51.9121 51.9121 209.5984 0.0000 0.0000 0.0000
# 4 0.0000 0.0000 0.0000 568.7226 0.0000 0.0000
# 5 0.0000 0.0000 0.0000 0.0000 568.7226 0.0000
# 6 -1.1755 1.1755 0.0000 0.0000 0.0000 30.2285
#
#
#
# Elastic Compliance Matrix: (Units=1/GPa)
#
#
# Indices 1 2 3 4 5 6 
#
# 1 0.037281 -0.015871 -0.005302 0.000000 0.000000 0.002067
# 2 -0.015871 0.037281 -0.005302 0.000000 0.000000 -0.002067
# 3 -0.005302 -0.005302 0.007398 0.000000 0.000000 0.000000
# 4 0.000000 0.000000 0.000000 0.001758 0.000000 0.000000
# 5 0.000000 0.000000 0.000000 0.000000 0.001758 0.000000
# 6 0.002067 -0.002067 0.000000 0.000000 0.000000 0.033242
#
#
# Mechanical properties :
#
#
# Convention : Reuss Voigt Hill
#
# Bulk Modulus (GPa) = 34.47576 62.45489 48.46532
# Shear Modulus (GPa) = 27.57265 244.89100 136.23182
#
# Velocity S-wave (km/s) = 3.61529 10.77432 8.03605
# Velocity P-wave (km/s) = 5.81117 13.57892 10.44406
#
# Compressibility (1/GPa) = 0.02900589
#
# Stress axis : x y z
#
# Youngs Moduli (GPa) = 26.82361 26.82361 135.17897
#
# Poissons Ratio (x) = 0.42573 0.71678
# Poissons Ratio (y) = 0.42573 0.71678
# Poissons Ratio (z) = 0.14223 0.14223
#
# Static dielectric constant tensor:
#      x y z
#    x 1.767400 0.000000 0.000000 
#    y 0.000000 1.767400 0.000000 
#    z 0.000000 0.000000 1.812290 
# 
# From -- ./inp_files/3136.got.cif
#   From: 2010.05.17/outbox.cif.g08.bks.cpg/sg83_2_cif.got.tgz:3136.got - 2010.06.03 18:55:12.
