data_PCOD9543391
_publ_section_title
;
Structure prediction by ZEFSAII (Michael W. Deem and Ramdas Pophale) SiO2 
 PCOD9543391
Probable space group: P 4/M
;
_chemical_formula_sum "Si O2"
_cell_formula_units_Z 64
_cell_length_a 10.595986
_cell_length_b 10.595986
_cell_length_c 28.220409
_cell_angle_alpha 90.000000
_cell_angle_beta 90.000000
_cell_angle_gamma 90.000000
_cell_volume 3168.444143
_symmetry_space_group_name_H-M "P 4/M"
_symmetry_group_IT_number 83
_symmetry_cell_setting 'tetragonal'
loop_
_space_group_symop_operation_xyz
x,y,z
-y,x,z
-x,-y,z
y,-x,z
-x,-y,-z
y,-x,-z
x,y,-z
-y,x,-z
loop_
_atom_site_type_symbol
_atom_site_label
_atom_site_fract_x
_atom_site_fract_y
_atom_site_fract_z
Si Si1 0.791344 0.769060 0.297209
Si Si2 0.589993 0.309009 0.780145
Si Si3 0.787170 0.989765 0.445740
Si Si4 0.741309 0.736346 0.868953
Si Si5 0.076219 0.303987 0.052405
Si Si6 0.579843 0.799996 0.947996
Si Si7 0.087416 0.812930 0.798479
Si Si8 0.972440 0.352397 0.649704
O O1 0.759558 0.644101 0.266333
O O2 0.790870 0.875843 0.255739
O O3 0.920295 0.735156 0.324588
O O4 0.691009 0.832995 0.332729
O O5 0.662007 0.443211 0.779403
O O6 0.627894 0.242493 0.829606
O O7 0.741038 0.987651 0.500000
O O8 0.681737 0.983327 0.405698
O O9 0.873234 0.115063 0.439674
O O10 0.860967 0.763255 0.903026
O O11 0.626030 0.715002 0.904963
O O12 0.714946 0.856854 0.835509
O O13 0.151075 0.437468 0.053687
O O14 0.929304 0.338223 0.055851
O O15 0.096752 0.246137 0.000000
O O16 0.602132 0.742935 0.000000
O O17 0.943028 0.838156 0.806985
O O18 0.000000 0.500000 0.658899
#
# Coordination Sequence:
#
# PCOD9543391 Si02
#       8
#     8   8   8   8   8   8   8   8
#     4  11  22  38  58  83 118 149 195 251 295 347
#     4  10  22  39  54  71 106 151 186 228 287 345
#     4   9  18  35  61  93 129 168 205 250 315 369
#     4  11  19  30  51  74  95 121 172 223 263 328
#     4   9  18  32  48  67  93 124 158 203 266 332
#     4   9  18  32  48  67  93 124 158 203 266 332
#     4  10  20  33  50  73 102 136 169 209 282 345
#     4  12  23  36  62  94 121 162 212 251 305 359
#
# _framework density 20.199186999999998
#
# number of rings (size 3 to 8) (size 9 to 14) (size 15 to 20)
#    0.000    1.875    2.500    3.750    0.000    0.500 
#    0.000    0.000    0.000    0.000    0.000   10.500 
#    0.000    2.000    0.000    0.000    0.000    0.000 
#
# Total GULP energy -356824.337604 kJ/mol
# GULP energy per Si atom -5575.380275 kJ/mol
# Density = 2.015321 g / cm^3
# Si number density = 20.199187 Si / 1000 Ang^3
#
#
#
# Elastic Constant Matrix: (Units=GPa)
#
#
# Indices 1 2 3 4 5 6 
#
# 1 30.1636 12.3771 23.9697 0.0000 0.0000 -8.1064
# 2 12.3771 30.1636 23.9697 0.0000 0.0000 8.1064
# 3 23.9697 23.9697 130.5074 0.0000 0.0000 0.0000
# 4 0.0000 0.0000 0.0000 22.1484 0.0000 0.0000
# 5 0.0000 0.0000 0.0000 0.0000 22.1484 0.0000
# 6 -8.1064 8.1064 0.0000 0.0000 0.0000 27.2987
#
#
#
# Elastic Compliance Matrix: (Units=1/GPa)
#
#
# Indices 1 2 3 4 5 6 
#
# 1 0.053365 -0.023723 -0.005444 0.000000 0.000000 0.022891
# 2 -0.023723 0.053365 -0.005444 0.000000 0.000000 -0.022891
# 3 -0.005444 -0.005444 0.009662 0.000000 0.000000 0.000000
# 4 0.000000 0.000000 0.000000 0.045150 0.000000 0.000000
# 5 0.000000 0.000000 0.000000 0.000000 0.045150 0.000000
# 6 0.022891 -0.022891 0.000000 0.000000 0.000000 0.050227
#
#
# Mechanical properties :
#
#
# Convention : Reuss Voigt Hill
#
# Bulk Modulus (GPa) = 21.20017 34.60749 27.90383
# Shear Modulus (GPa) = 14.62560 23.02030 18.82295
#
# Velocity S-wave (km/s) = 2.69377 3.37955 3.05596
# Velocity P-wave (km/s) = 4.49372 5.69200 5.12798
#
# Compressibility (1/GPa) = 0.04716943
#
# Stress axis : x y z
#
# Youngs Moduli (GPa) = 18.73877 18.73877 103.49590
#
# Poissons Ratio (x) = 0.44455 0.56345
# Poissons Ratio (y) = 0.44455 0.56345
# Poissons Ratio (z) = 0.10202 0.10202
#
# Static dielectric constant tensor:
#      x y z
#    x 1.733530 0.000000 0.000000 
#    y 0.000000 1.733530 0.000000 
#    z 0.000000 0.000000 1.745310 
# 
# From -- ./inp_files/3211.got.cif
#   From: 2010.05.17/outbox.cif.g08.bks.cpg/sg83_2_cif.got.tgz:3211.got - 2010.06.03 18:55:12.
