data_PCOD9543963
_publ_section_title
;
Structure prediction by ZEFSAII (Michael W. Deem and Ramdas Pophale) SiO2 
 PCOD9543963
Probable space group: P 42/M
;
_chemical_formula_sum "Si O2"
_cell_formula_units_Z 64
_cell_length_a 12.875152
_cell_length_b 12.875152
_cell_length_c 24.283620
_cell_angle_alpha 90.000000
_cell_angle_beta 90.000000
_cell_angle_gamma 90.000000
_cell_volume 4025.484493
_symmetry_space_group_name_H-M "P 42/M"
_symmetry_group_IT_number 84
_symmetry_cell_setting 'tetragonal'
loop_
_space_group_symop_operation_xyz
x,y,z
-y,x,1/2+z
-x,-y,z
y,-x,1/2+z
-x,-y,-z
y,-x,1/2-z
x,y,-z
-y,x,1/2-z
loop_
_atom_site_type_symbol
_atom_site_label
_atom_site_fract_x
_atom_site_fract_y
_atom_site_fract_z
Si Si1 0.910508 0.089492 0.063092
Si Si2 0.667341 0.498119 0.933332
Si Si3 0.768670 0.054367 0.631397
Si Si4 0.945633 0.231330 0.631397
Si Si5 0.434845 0.105739 0.934883
Si Si6 0.175331 0.000000 0.250000
Si Si7 0.498119 0.667341 0.066668
Si Si8 0.565155 0.105739 0.434883
O O1 0.959620 0.185399 0.095538
O O2 0.814601 0.040380 0.095538
O O3 0.885221 0.114779 0.000000
O O4 0.000000 0.000000 0.062571
O O5 0.602674 0.397326 0.914018
O O6 0.599915 0.599915 0.916755
O O7 0.788145 0.505942 0.918554
O O8 0.664523 0.495863 0.000000
O O9 0.855841 0.144159 0.630148
O O10 0.760145 0.020104 0.694802
O O11 0.666027 0.095072 0.602621
O O12 0.904928 0.333973 0.602621
O O13 0.979896 0.239855 0.694802
O O14 0.494058 0.211855 0.918554
O O15 0.500000 0.000000 0.929123
O O16 0.406486 0.115332 0.000000
O O17 0.097712 0.902289 0.240631
O O18 0.495863 0.664523 0.000000
O O19 0.593514 0.115332 0.500000
O O20 0.500000 0.000000 0.429123
#
# Coordination Sequence:
#
# PCOD9543963 Si02
#       8
#     8   8   8   8   8   8   8   8
#     4   9  16  26  42  70 100 124 155 195 241 298
#     4   8  14  27  47  66  86 121 167 204 233 278
#     4  10  18  30  49  71  95 131 168 206 244 294
#     4  10  18  30  49  71  95 131 168 206 244 294
#     4  10  20  32  44  68 103 131 159 201 260 317
#     4   9  16  30  49  70  98 128 169 208 241 282
#     4   8  14  27  47  66  86 121 167 204 233 278
#     4  10  20  32  44  68 103 131 159 201 260 317
#
# _framework density 15.898707
#
# number of rings (size 3 to 8) (size 9 to 14) (size 15 to 20)
#    0.000    2.750    1.250    2.250    0.000    2.500 
#    2.250    0.625    0.000    0.000    0.000    0.000 
#    0.000    0.000    0.000    6.250    0.000    3.750 
#
# Total GULP energy -356422.228851 kJ/mol
# GULP energy per Si atom -5569.097326 kJ/mol
# Density = 1.586252 g / cm^3
# Si number density = 15.898707 Si / 1000 Ang^3
#
#
#
# Elastic Constant Matrix: (Units=GPa)
#
#
# Indices 1 2 3 4 5 6 
#
# 1 87.1314 52.6412 40.4923 0.0000 0.0000 0.0000
# 2 52.6412 87.1314 40.4923 0.0000 0.0000 0.0000
# 3 40.4923 40.4923 92.6693 0.0000 0.0000 0.0000
# 4 0.0000 0.0000 0.0000 12.8557 0.0000 0.0000
# 5 0.0000 0.0000 0.0000 0.0000 12.8557 0.0000
# 6 0.0000 0.0000 0.0000 0.0000 0.0000 17.3677
#
#
#
# Elastic Compliance Matrix: (Units=1/GPa)
#
#
# Indices 1 2 3 4 5 6 
#
# 1 0.019287 -0.009707 -0.004186 0.000000 0.000000 0.000000
# 2 -0.009707 0.019287 -0.004186 0.000000 0.000000 0.000000
# 3 -0.004186 -0.004186 0.014449 0.000000 0.000000 0.000000
# 4 0.000000 0.000000 0.000000 0.077787 0.000000 0.000000
# 5 0.000000 0.000000 0.000000 0.000000 0.077787 0.000000
# 6 0.000000 0.000000 0.000000 0.000000 0.000000 0.057578
#
#
# Mechanical properties :
#
#
# Convention : Reuss Voigt Hill
#
# Bulk Modulus (GPa) = 59.29421 59.35374 59.32398
# Shear Modulus (GPa) = 16.23621 17.50291 16.86956
#
# Velocity S-wave (km/s) = 3.19913 3.32158 3.26093
# Velocity P-wave (km/s) = 7.14296 7.21970 7.18143
#
# Compressibility (1/GPa) = 0.01686505
#
# Stress axis : x y z
#
# Youngs Moduli (GPa) = 51.84900 51.84900 69.20803
#
# Poissons Ratio (x) = 0.50330 0.28970
# Poissons Ratio (y) = 0.50330 0.28970
# Poissons Ratio (z) = 0.21704 0.21704
#
# Static dielectric constant tensor:
#      x y z
#    x 1.545320 0.000000 0.000000 
#    y 0.000000 1.545320 0.000000 
#    z 0.000000 0.000000 1.509930 
# 
# From -- ./inp_files/5093.got.cif
#   From: 2010.05.17/outbox.cif.g08.bks.cpg/sg84_3_cif.got.tgz:5093.got - 2010.06.03 18:57:40.
