data_PCOD9543786
_publ_section_title
;
Structure prediction by ZEFSAII (Michael W. Deem and Ramdas Pophale) SiO2 
 PCOD9543786
Probable space group: P 4/M
;
_chemical_formula_sum "Si O2"
_cell_formula_units_Z 48
_cell_length_a 8.018044
_cell_length_b 8.018044
_cell_length_c 33.425406
_cell_angle_alpha 90.000000
_cell_angle_beta 90.000000
_cell_angle_gamma 90.000000
_cell_volume 2148.886915
_symmetry_space_group_name_H-M "P 4/M"
_symmetry_group_IT_number 83
_symmetry_cell_setting 'tetragonal'
loop_
_space_group_symop_operation_xyz
x,y,z
-y,x,z
-x,-y,z
y,-x,z
-x,-y,-z
y,-x,-z
x,y,-z
-y,x,-z
loop_
_atom_site_type_symbol
_atom_site_label
_atom_site_fract_x
_atom_site_fract_y
_atom_site_fract_z
Si Si1 0.903844 0.734947 0.044262
Si Si2 0.410593 0.765556 0.281678
Si Si3 0.264794 0.099265 0.587036
Si Si4 0.500000 0.000000 0.652109
Si Si5 0.897035 0.263451 0.500000
Si Si6 0.266027 0.911424 0.797916
Si Si7 0.413329 0.765747 0.123269
O O1 0.853140 0.621900 0.081153
O O2 0.094863 0.795571 0.046888
O O3 0.875044 0.661221 0.000000
O O4 0.296599 0.601460 0.283684
O O5 0.385101 0.890983 0.318468
O O6 0.373866 0.857151 0.240092
O O7 0.392894 0.118618 0.623028
O O8 0.094798 0.205439 0.589411
O O9 0.344344 0.133380 0.543170
O O10 0.794053 0.090262 0.500000
O O11 0.359748 0.876131 0.839209
O O12 0.100231 0.797053 0.796363
O O13 0.297696 0.601356 0.125602
#
# Coordination Sequence:
#
# PCOD9543786 Si02
#       7
#     8   8   8   4   4   8   8
#     4   9  19  37  60  86 117 154 198 246 293 344
#     4  11  24  41  59  81 113 151 189 233 290 352
#     4   9  18  33  54  80 112 150 192 238 287 339
#     4  12  22  35  56  84 114 148 191 238 288 344
#     4   7  12  27  50  76 108 146 188 236 286 333
#     4  11  24  42  65  90 113 142 188 243 293 346
#     4  11  24  39  57  86 122 157 193 236 289 349
#
# _framework density 22.337146000000001
#
# number of rings (size 3 to 8) (size 9 to 14) (size 15 to 20)
#    0.000    1.917    0.000    5.500    0.000    7.667 
#    0.000    4.167    0.000    0.000    0.000    0.000 
#    0.000   10.667    0.000    0.000    0.000    0.000 
#
# Total GULP energy -268660.015183 kJ/mol
# GULP energy per Si atom -5597.083650 kJ/mol
# Density = 2.228631 g / cm^3
# Si number density = 22.337146 Si / 1000 Ang^3
#
#
#
# Elastic Constant Matrix: (Units=GPa)
#
#
# Indices 1 2 3 4 5 6 
#
# 1 67.3807 26.7191 46.2943 0.0000 0.0000 -3.3790
# 2 26.7191 67.3807 46.2943 0.0000 0.0000 3.3790
# 3 46.2943 46.2943 205.2497 0.0000 0.0000 0.0000
# 4 0.0000 0.0000 0.0000 36.9542 0.0000 0.0000
# 5 0.0000 0.0000 0.0000 0.0000 36.9542 0.0000
# 6 -3.3790 3.3790 0.0000 0.0000 0.0000 33.3004
#
#
#
# Elastic Compliance Matrix: (Units=1/GPa)
#
#
# Indices 1 2 3 4 5 6 
#
# 1 0.019337 -0.005678 -0.003081 0.000000 0.000000 0.002538
# 2 -0.005678 0.019337 -0.003081 0.000000 0.000000 -0.002538
# 3 -0.003081 -0.003081 0.006262 0.000000 0.000000 0.000000
# 4 0.000000 0.000000 0.000000 0.027061 0.000000 0.000000
# 5 0.000000 0.000000 0.000000 0.000000 0.027061 0.000000
# 6 0.002538 -0.002538 0.000000 0.000000 0.000000 0.030545
#
#
# Mechanical properties :
#
#
# Convention : Reuss Voigt Hill
#
# Bulk Modulus (GPa) = 47.04633 64.29183 55.66908
# Shear Modulus (GPa) = 31.17881 36.15534 33.66708
#
# Velocity S-wave (km/s) = 3.74013 4.02757 3.88651
# Velocity P-wave (km/s) = 6.30548 7.10446 6.71686
#
# Compressibility (1/GPa) = 0.02125564
#
# Stress axis : x y z
#
# Youngs Moduli (GPa) = 51.71540 51.71540 159.69892
#
# Poissons Ratio (x) = 0.29366 0.49197
# Poissons Ratio (y) = 0.29366 0.49197
# Poissons Ratio (z) = 0.15931 0.15931
#
# Static dielectric constant tensor:
#      x y z
#    x 1.827940 0.000000 0.000000 
#    y 0.000000 1.827940 0.000000 
#    z 0.000000 0.000000 1.804370 
# 
# From -- ./inp_files/3457.got.cif
#   From: 2010.05.17/outbox.cif.g08.bks.cpg/sg83_2_cif.got.tgz:3457.got - 2010.06.03 18:55:12.
