data_PCOD9543779
_publ_section_title
;
Structure prediction by ZEFSAII (Michael W. Deem and Ramdas Pophale) SiO2 
 PCOD9543779
Probable space group: P 4/M
;
_chemical_formula_sum "Si O2"
_cell_formula_units_Z 48
_cell_length_a 8.600509
_cell_length_b 8.600509
_cell_length_c 32.978743
_cell_angle_alpha 90.000000
_cell_angle_beta 90.000000
_cell_angle_gamma 90.000000
_cell_volume 2439.396563
_symmetry_space_group_name_H-M "P 4/M"
_symmetry_group_IT_number 83
_symmetry_cell_setting 'tetragonal'
loop_
_space_group_symop_operation_xyz
x,y,z
-y,x,z
-x,-y,z
y,-x,z
-x,-y,-z
y,-x,-z
x,y,-z
-y,x,-z
loop_
_atom_site_type_symbol
_atom_site_label
_atom_site_fract_x
_atom_site_fract_y
_atom_site_fract_z
Si Si1 0.076978 0.750169 0.952488
Si Si2 0.751123 0.422089 0.500000
Si Si3 0.257927 0.029569 0.746281
Si Si4 0.246409 0.577346 0.411024
Si Si5 0.000000 0.500000 0.817743
Si Si6 0.938323 0.256996 0.656674
Si Si7 0.456829 0.242112 0.110741
O O1 0.128933 0.608761 0.924268
O O2 0.901852 0.812980 0.945211
O O3 0.090238 0.709585 0.000000
O O4 0.685876 0.597722 0.500000
O O5 0.826112 0.398262 0.456069
O O6 0.360526 0.019567 0.785977
O O7 0.330105 0.059125 0.701838
O O8 0.130957 0.164697 0.747240
O O9 0.313533 0.401582 0.407764
O O10 0.124478 0.625224 0.376864
O O11 0.144593 0.524842 0.848017
O O12 0.108915 0.179541 0.652916
O O13 0.620683 0.329593 0.108117
#
# Coordination Sequence:
#
# PCOD9543779 Si02
#       7
#     8   4   8   8   4   8   8
#     4   9  19  38  64  92 122 160 207 249 279 321
#     4   7  12  26  46  69 102 142 180 219 260 309
#     4   9  20  38  58  79 103 136 180 225 275 338
#     4   9  17  30  51  78 106 139 181 224 267 321
#     4  12  22  38  61  82 106 145 188 232 280 338
#     4   9  19  35  52  73 103 136 173 222 278 332
#     4  11  24  39  56  85 122 155 190 238 298 351
#
# _framework density 19.676995000000002
#
# number of rings (size 3 to 8) (size 9 to 14) (size 15 to 20)
#    0.000    2.583    0.000    4.500    0.000    4.000 
#    0.000    5.417    0.000    6.000    0.000    0.000 
#    0.000    0.000    0.000    0.000    0.000    0.000 
#
# Total GULP energy -267350.014187 kJ/mol
# GULP energy per Si atom -5569.791962 kJ/mol
# Density = 1.963221 g / cm^3
# Si number density = 19.676995 Si / 1000 Ang^3
#
#
#
# Elastic Constant Matrix: (Units=GPa)
#
#
# Indices 1 2 3 4 5 6 
#
# 1 76.9338 55.2873 84.2957 0.0000 0.0000 0.5928
# 2 55.2873 76.9338 84.2957 0.0000 0.0000 -0.5928
# 3 84.2957 84.2957 188.6501 0.0000 0.0000 0.0000
# 4 0.0000 0.0000 0.0000 30.2346 0.0000 0.0000
# 5 0.0000 0.0000 0.0000 0.0000 30.2346 0.0000
# 6 0.5928 -0.5928 0.0000 0.0000 0.0000 35.6248
#
#
#
# Elastic Compliance Matrix: (Units=1/GPa)
#
#
# Indices 1 2 3 4 5 6 
#
# 1 0.031909 -0.014330 -0.007855 0.000000 0.000000 -0.000769
# 2 -0.014330 0.031909 -0.007855 0.000000 0.000000 0.000769
# 3 -0.007855 -0.007855 0.012320 0.000000 0.000000 0.000000
# 4 0.000000 0.000000 0.000000 0.033075 0.000000 0.000000
# 5 0.000000 0.000000 0.000000 0.000000 0.033075 0.000000
# 6 -0.000769 0.000769 0.000000 0.000000 0.000000 0.028096
#
#
# Mechanical properties :
#
#
# Convention : Reuss Voigt Hill
#
# Bulk Modulus (GPa) = 62.27282 87.80837 75.04059
# Shear Modulus (GPa) = 21.20309 27.12807 24.16558
#
# Velocity S-wave (km/s) = 3.28618 3.71707 3.50825
# Velocity P-wave (km/s) = 6.79079 7.94632 7.39117
#
# Compressibility (1/GPa) = 0.01605837
#
# Stress axis : x y z
#
# Youngs Moduli (GPa) = 31.33950 31.33950 81.16712
#
# Poissons Ratio (x) = 0.44911 0.63754
# Poissons Ratio (y) = 0.44911 0.63754
# Poissons Ratio (z) = 0.24616 0.24616
#
# Static dielectric constant tensor:
#      x y z
#    x 1.781870 0.000000 0.000000 
#    y 0.000000 1.781870 0.000000 
#    z 0.000000 0.000000 1.702630 
# 
# From -- ./inp_files/3509.got.cif
#   From: 2010.05.17/outbox.cif.g08.bks.cpg/sg83_2_cif.got.tgz:3509.got - 2010.06.03 18:55:12.
