data_PCOD9543704
_publ_section_title
;
Structure prediction by ZEFSAII (Michael W. Deem and Ramdas Pophale) SiO2 
 PCOD9543704
Probable space group: P 4/M
;
_chemical_formula_sum "Si O2"
_cell_formula_units_Z 33
_cell_length_a 8.375619
_cell_length_b 8.375619
_cell_length_c 22.102117
_cell_angle_alpha 90.000000
_cell_angle_beta 90.000000
_cell_angle_gamma 90.000000
_cell_volume 1550.485469
_symmetry_space_group_name_H-M "P 4/M"
_symmetry_group_IT_number 83
_symmetry_cell_setting 'tetragonal'
loop_
_space_group_symop_operation_xyz
x,y,z
-y,x,z
-x,-y,z
y,-x,z
-x,-y,-z
y,-x,-z
x,y,-z
-y,x,-z
loop_
_atom_site_type_symbol
_atom_site_label
_atom_site_fract_x
_atom_site_fract_y
_atom_site_fract_z
Si Si1 0.245893 0.413063 0.500000
Si Si2 0.099036 0.252720 0.613873
Si Si3 0.173365 0.421273 0.000000
Si Si4 0.751941 0.109630 0.745824
Si Si5 0.879358 0.758633 0.123926
Si Si6 0.500000 0.500000 0.000000
O O1 0.405505 0.304240 0.500000
O O2 0.147812 0.366535 0.559597
O O3 0.136109 0.325642 0.680408
O O4 0.914044 0.198318 0.609654
O O5 0.172005 0.333404 0.935183
O O6 0.313761 0.551840 0.000000
O O7 0.000000 0.500000 0.000000
O O8 0.675903 0.151387 0.810642
O O9 0.922264 0.200900 0.745939
O O10 0.068538 0.794862 0.122239
#
# Coordination Sequence:
#
# PCOD9543704 Si02
#       6
#     4   8   4   8   8   1
#     4  11  24  37  50  68 108 151 184 223 274 340
#     4   9  17  32  57  85 106 133 178 233 285 335
#     4  12  24  39  60  83 122 170 204 252 306 360
#     4   7  12  25  50  82 112 137 174 235 289 337
#     4   9  16  30  57  89 116 151 200 245 294 360
#     4  12  28  44  60  88 132 156 204 262 316 352
#
# _framework density 21.283657999999999
#
# number of rings (size 3 to 8) (size 9 to 14) (size 15 to 20)
#    0.000    2.788    0.000    5.818    0.000    3.879 
#    0.000    0.000   21.333    0.000    0.000    0.000 
#    0.000    0.000    0.000    0.000    0.000    0.000 
#
# Total GULP energy -183823.742213 kJ/mol
# GULP energy per Si atom -5570.416431 kJ/mol
# Density = 2.123522 g / cm^3
# Si number density = 21.283658 Si / 1000 Ang^3
#
#
#
# Elastic Constant Matrix: (Units=GPa)
#
#
# Indices 1 2 3 4 5 6 
#
# 1 23.4783 21.9647 39.9879 0.0000 0.0000 -6.0536
# 2 21.9647 23.4783 39.9879 0.0000 0.0000 6.0536
# 3 39.9879 39.9879 249.2133 0.0000 0.0000 0.0000
# 4 0.0000 0.0000 0.0000 -6.8512 0.0000 0.0000
# 5 0.0000 0.0000 0.0000 0.0000 -6.8512 0.0000
# 6 -6.0536 6.0536 0.0000 0.0000 0.0000 16.3980
#
#
#
# Elastic Compliance Matrix: (Units=1/GPa)
#
#
# Indices 1 2 3 4 5 6 
#
# 1 -0.153818 0.184483 -0.004920 0.000000 0.000000 -0.124889
# 2 0.184483 -0.153818 -0.004920 0.000000 0.000000 0.124889
# 3 -0.004920 -0.004920 0.005592 0.000000 0.000000 0.000000
# 4 0.000000 0.000000 0.000000 -0.145960 0.000000 0.000000
# 5 0.000000 0.000000 0.000000 0.000000 -0.145960 0.000000
# 6 -0.124889 0.124889 0.000000 0.000000 0.000000 -0.031226
#
#
# Mechanical properties :
#
#
# Convention : Reuss Voigt Hill
#
# Bulk Modulus (GPa) = 21.16839 55.56120 38.36479
# Shear Modulus (GPa) = -5.21525 13.48775 4.13625
#
# Velocity S-wave (km/s) = -1.56706 2.52010 1.39557
# Velocity P-wave (km/s) = 2.58712 5.88469 4.54548
#
# Compressibility (1/GPa) = 0.04724026
#
# Stress axis : x y z
#
# Youngs Moduli (GPa) = -6.50121 -6.50121 178.83794
#
# Poissons Ratio (x) = 1.19936 0.87996
# Poissons Ratio (y) = 1.19936 0.87996
# Poissons Ratio (z) = -0.03199 -0.03199
#
# Static dielectric constant tensor:
#      x y z
#    x 1.872080 0.000000 0.000000 
#    y 0.000000 1.872080 0.000000 
#    z 0.000000 0.000000 1.813810 
# 
# From -- ./inp_files/2870.got.cif
#   From: 2010.05.17/outbox.cif.g08.bks.cpg/sg83_2_cif.got.tgz:2870.got - 2010.06.03 18:55:12.
