data_PCOD9543701
_publ_section_title
;
Structure prediction by ZEFSAII (Michael W. Deem and Ramdas Pophale) SiO2 
 PCOD9543701
Probable space group: P 4/M
;
_chemical_formula_sum "Si O2"
_cell_formula_units_Z 28
_cell_length_a 8.153850
_cell_length_b 8.153850
_cell_length_c 18.985789
_cell_angle_alpha 90.000000
_cell_angle_beta 90.000000
_cell_angle_gamma 90.000000
_cell_volume 1262.275304
_symmetry_space_group_name_H-M "P 4/M"
_symmetry_group_IT_number 83
_symmetry_cell_setting 'tetragonal'
loop_
_space_group_symop_operation_xyz
x,y,z
-y,x,z
-x,-y,z
y,-x,z
-x,-y,-z
y,-x,-z
x,y,-z
-y,x,-z
loop_
_atom_site_type_symbol
_atom_site_label
_atom_site_fract_x
_atom_site_fract_y
_atom_site_fract_z
Si Si1 0.593408 0.237949 0.000000
Si Si2 0.920479 0.736710 0.712352
Si Si3 0.762756 0.588407 0.421578
Si Si4 0.763383 0.589892 0.152888
O O1 0.699884 0.405215 0.000000
O O2 0.621980 0.157055 0.924139
O O3 0.878733 0.638329 0.641811
O O4 0.875599 0.636302 0.781999
O O5 0.104040 0.802974 0.712811
O O6 0.597883 0.698835 0.416240
O O7 0.833136 0.614215 0.500000
O O8 0.597053 0.699280 0.156870
#
# Coordination Sequence:
#
# PCOD9543701 Si02
#       4
#     4   8   8   8
#     4   7  12  26  50  79 104 124 156 209 264 305
#     4  11  24  37  48  70 107 145 176 206 245 296
#     4   9  19  37  60  83 103 125 161 210 259 305
#     4   9  17  32  56  81 102 128 167 214 260 305
#
# _framework density 22.182168000000001
#
# number of rings (size 3 to 8) (size 9 to 14) (size 15 to 20)
#    0.000    2.714    0.000    4.286    0.000    8.000 
#    0.000    5.714    0.000    6.857    0.000    0.000 
#    0.000    0.000    0.000    0.000    0.000    0.000 
#
# Total GULP energy -156620.666986 kJ/mol
# GULP energy per Si atom -5593.595250 kJ/mol
# Density = 2.213168 g / cm^3
# Si number density = 22.182168 Si / 1000 Ang^3
#
#
#
# Elastic Constant Matrix: (Units=GPa)
#
#
# Indices 1 2 3 4 5 6 
#
# 1 62.4976 48.1574 69.0325 0.0000 0.0000 -2.9770
# 2 48.1574 62.4976 69.0325 0.0000 0.0000 2.9770
# 3 69.0325 69.0325 244.9307 0.0000 0.0000 0.0000
# 4 0.0000 0.0000 0.0000 -107.4325 0.0000 0.0000
# 5 0.0000 0.0000 0.0000 0.0000 -107.4325 0.0000
# 6 -2.9770 2.9770 0.0000 0.0000 0.0000 38.5749
#
#
#
# Elastic Compliance Matrix: (Units=1/GPa)
#
#
# Indices 1 2 3 4 5 6 
#
# 1 0.042991 -0.029052 -0.003929 0.000000 0.000000 0.005560
# 2 -0.029052 0.042991 -0.003929 0.000000 0.000000 -0.005560
# 3 -0.003929 -0.003929 0.006297 0.000000 0.000000 0.000000
# 4 0.000000 0.000000 0.000000 -0.009308 0.000000 0.000000
# 5 0.000000 0.000000 0.000000 0.000000 -0.009308 0.000000
# 6 0.005560 -0.005560 0.000000 0.000000 0.000000 0.026782
#
#
# Mechanical properties :
#
#
# Convention : Reuss Voigt Hill
#
# Bulk Modulus (GPa) = 54.16944 82.48560 68.32752
# Shear Modulus (GPa) = 27.71377 -23.01112 2.35132
#
# Velocity S-wave (km/s) = 3.53848 -3.22432 1.03068
# Velocity P-wave (km/s) = 6.41621 4.83783 5.68209
#
# Compressibility (1/GPa) = 0.01846059
#
# Stress axis : x y z
#
# Youngs Moduli (GPa) = 23.26084 23.26084 158.79849
#
# Poissons Ratio (x) = 0.67577 0.62385
# Poissons Ratio (y) = 0.67577 0.62385
# Poissons Ratio (z) = 0.09138 0.09138
#
# Static dielectric constant tensor:
#      x y z
#    x 1.786770 0.000000 0.000000 
#    y 0.000000 1.786770 0.000000 
#    z 0.000000 0.000000 1.812360 
# 
# From -- ./inp_files/2510.got.cif
#   From: 2010.05.17/outbox.cif.g08.bks.cpg/sg83_2_cif.got.tgz:2510.got - 2010.06.03 18:55:12.
