data_PCOD9543841
_publ_section_title
;
Structure prediction by ZEFSAII (Michael W. Deem and Ramdas Pophale) SiO2 
 PCOD9543841
Probable space group: P 4/M
;
_chemical_formula_sum "Si O2"
_cell_formula_units_Z 48
_cell_length_a 10.139688
_cell_length_b 10.139688
_cell_length_c 19.726977
_cell_angle_alpha 90.000000
_cell_angle_beta 90.000000
_cell_angle_gamma 90.000000
_cell_volume 2028.195067
_symmetry_space_group_name_H-M "P 4/M"
_symmetry_group_IT_number 83
_symmetry_cell_setting 'tetragonal'
loop_
_space_group_symop_operation_xyz
x,y,z
-y,x,z
-x,-y,z
y,-x,z
-x,-y,-z
y,-x,-z
x,y,-z
-y,x,-z
loop_
_atom_site_type_symbol
_atom_site_label
_atom_site_fract_x
_atom_site_fract_y
_atom_site_fract_z
Si Si1 0.681882 0.617170 0.581083
Si Si2 0.934454 0.205109 0.741829
Si Si3 0.517197 0.842382 0.925685
Si Si4 0.076574 0.389053 0.336722
Si Si5 0.281682 0.460896 0.218228
Si Si6 0.903751 0.196094 0.098716
O O1 0.538862 0.674847 0.600769
O O2 0.690303 0.625651 0.500000
O O3 0.811114 0.674644 0.616597
O O4 0.941514 0.324575 0.692492
O O5 0.843307 0.083115 0.727820
O O6 0.912449 0.226190 0.820906
O O7 0.460293 0.769591 0.859790
O O8 0.676107 0.832208 0.928613
O O9 0.500000 0.000000 0.916763
O O10 0.463880 0.803686 0.000000
O O11 0.161520 0.430444 0.269127
O O12 0.000000 0.500000 0.379914
O O13 0.396614 0.351608 0.228427
O O14 0.058521 0.169461 0.081929
#
# Coordination Sequence:
#
# PCOD9543841 Si02
#       6
#     8   8   8   8   8   8
#     4   9  20  41  66  92 128 172 213 258 311 362
#     4   9  20  36  57  87 125 163 199 249 316 376
#     4  11  25  41  60  87 118 156 202 258 320 381
#     4  12  24  35  65  98 126 158 204 262 311 368
#     4  11  26  44  63  88 120 161 209 257 311 375
#     4   9  19  37  62  87 114 153 201 257 314 370
#
# _framework density 23.666363
#
# number of rings (size 3 to 8) (size 9 to 14) (size 15 to 20)
#    0.000    1.833    0.000    5.000   11.667    3.000 
#    0.000    1.667    0.000    0.000    0.000    1.167 
#    0.000    0.000    0.000    0.000    0.000    0.000 
#
# Total GULP energy -267864.287616 kJ/mol
# GULP energy per Si atom -5580.505992 kJ/mol
# Density = 2.361250 g / cm^3
# Si number density = 23.666363 Si / 1000 Ang^3
#
#
#
# Elastic Constant Matrix: (Units=GPa)
#
#
# Indices 1 2 3 4 5 6 
#
# 1 104.2769 -42.4201 9.3556 0.0000 0.0000 0.6909
# 2 -42.4201 104.2769 9.3556 0.0000 0.0000 -0.6909
# 3 9.3556 9.3556 75.2702 0.0000 0.0000 0.0000
# 4 0.0000 0.0000 0.0000 -5.9298 0.0000 0.0000
# 5 0.0000 0.0000 0.0000 0.0000 -5.9298 0.0000
# 6 0.6909 -0.6909 0.0000 0.0000 0.0000 39.9160
#
#
#
# Elastic Compliance Matrix: (Units=1/GPa)
#
#
# Indices 1 2 3 4 5 6 
#
# 1 0.011808 0.004990 -0.002088 0.000000 0.000000 -0.000118
# 2 0.004990 0.011808 -0.002088 0.000000 0.000000 0.000118
# 3 -0.002088 -0.002088 0.013804 0.000000 0.000000 0.000000
# 4 0.000000 0.000000 0.000000 -0.168640 0.000000 0.000000
# 5 0.000000 0.000000 0.000000 0.000000 -0.168640 0.000000
# 6 -0.000118 0.000118 0.000000 0.000000 0.000000 0.025057
#
#
# Mechanical properties :
#
#
# Convention : Reuss Voigt Hill
#
# Bulk Modulus (GPa) = 25.60894 26.26736 25.93815
# Shear Modulus (GPa) = -18.98141 26.11347 3.56603
#
# Velocity S-wave (km/s) = -2.83511 3.32535 1.22885
# Velocity P-wave (km/s) = 0.35665 5.08597 3.60515
#
# Compressibility (1/GPa) = 0.03904886
#
# Stress axis : x y z
#
# Youngs Moduli (GPa) = 84.68894 84.68894 72.44016
#
# Poissons Ratio (x) = -0.42260 0.15125
# Poissons Ratio (y) = -0.42260 0.15125
# Poissons Ratio (z) = 0.17682 0.17682
#
# Static dielectric constant tensor:
#      x y z
#    x 2.146610 0.000000 0.000000 
#    y 0.000000 2.146610 0.000000 
#    z 0.000000 0.000000 2.505950 
# 
# From -- ./inp_files/2634.got.cif
#   From: 2010.05.17/outbox.cif.g08.bks.cpg/sg83_2_cif.got.tgz:2634.got - 2010.06.03 18:55:12.
