data_PCOD9543896
_publ_section_title
;
Structure prediction by ZEFSAII (Michael W. Deem and Ramdas Pophale) SiO2 
 PCOD9543896
Probable space group: P 4/M
;
_chemical_formula_sum "Si O2"
_cell_formula_units_Z 50
_cell_length_a 8.585936
_cell_length_b 8.585936
_cell_length_c 32.860063
_cell_angle_alpha 90.000000
_cell_angle_beta 90.000000
_cell_angle_gamma 90.000000
_cell_volume 2422.387884
_symmetry_space_group_name_H-M "P 4/M"
_symmetry_group_IT_number 83
_symmetry_cell_setting 'tetragonal'
loop_
_space_group_symop_operation_xyz
x,y,z
-y,x,z
-x,-y,z
y,-x,z
-x,-y,-z
y,-x,-z
x,y,-z
-y,x,-z
loop_
_atom_site_type_symbol
_atom_site_label
_atom_site_fract_x
_atom_site_fract_y
_atom_site_fract_z
Si Si1 0.413292 0.749830 0.616989
Si Si2 0.396263 0.741627 0.206577
Si Si3 0.331577 0.922818 0.875945
Si Si4 0.083927 0.249276 0.545912
Si Si5 0.000000 0.000000 0.869514
Si Si6 0.724801 0.636676 0.044947
Si Si7 0.404746 0.746769 0.294237
O O1 0.309772 0.591322 0.614431
O O2 0.366291 0.862358 0.580631
O O3 0.380751 0.823121 0.661756
O O4 0.303960 0.578350 0.205535
O O5 0.352763 0.834283 0.166762
O O6 0.368683 0.823189 0.250612
O O7 0.308923 0.824351 0.917229
O O8 0.186984 0.038389 0.870163
O O9 0.500000 0.000000 0.882529
O O10 0.105365 0.311449 0.500000
O O11 0.906855 0.189550 0.549776
O O12 0.550290 0.704814 0.047252
O O13 0.789549 0.675514 0.000000
O O14 0.307836 0.585054 0.294158
#
# Coordination Sequence:
#
# PCOD9543896 Si02
#       7
#     8   8   8   8   2   8   8
#     4   9  17  30  51  78 107 134 166 220 278 327
#     4   9  16  30  58  87 108 145 202 244 283 355
#     4  12  24  40  61  84 123 171 204 250 317 366
#     4   9  19  35  52  68  95 138 182 221 262 320
#     4  12  28  44  61  96 132 156 204 268 305 368
#     4   9  18  35  61  92 124 160 209 263 309 366
#     4   7  12  25  48  77 105 135 175 226 276 330
#
# _framework density 20.640788000000001
#
# number of rings (size 3 to 8) (size 9 to 14) (size 15 to 20)
#    0.000    2.720    0.000    5.760    0.000    2.880 
#    0.000    3.600   14.080    0.000    0.000    0.000 
#    0.000    0.000    0.000    0.000    0.000    0.000 
#
# Total GULP energy -278410.425699 kJ/mol
# GULP energy per Si atom -5568.208514 kJ/mol
# Density = 2.059381 g / cm^3
# Si number density = 20.640788 Si / 1000 Ang^3
#
#
#
# Elastic Constant Matrix: (Units=GPa)
#
#
# Indices 1 2 3 4 5 6 
#
# 1 32.9413 16.4576 35.2073 0.0000 0.0000 5.9403
# 2 16.4576 32.9413 35.2073 0.0000 0.0000 -5.9403
# 3 35.2073 35.2073 197.2474 0.0000 0.0000 0.0000
# 4 0.0000 0.0000 0.0000 -10.5475 0.0000 0.0000
# 5 0.0000 0.0000 0.0000 0.0000 -10.5475 0.0000
# 6 5.9403 -5.9403 0.0000 0.0000 0.0000 15.9536
#
#
#
# Elastic Compliance Matrix: (Units=1/GPa)
#
#
# Indices 1 2 3 4 5 6 
#
# 1 0.055035 -0.027884 -0.004846 0.000000 0.000000 -0.030875
# 2 -0.027884 0.055035 -0.004846 0.000000 0.000000 0.030875
# 3 -0.004846 -0.004846 0.006800 0.000000 0.000000 0.000000
# 4 0.000000 0.000000 0.000000 -0.094809 0.000000 0.000000
# 5 0.000000 0.000000 0.000000 0.000000 -0.094809 0.000000
# 6 -0.030875 0.030875 0.000000 0.000000 0.000000 0.085674
#
#
# Mechanical properties :
#
#
# Convention : Reuss Voigt Hill
#
# Bulk Modulus (GPa) = 23.97083 48.54159 36.25621
# Shear Modulus (GPa) = 49.02662 10.72224 29.87443
#
# Velocity S-wave (km/s) = 4.87892 2.28166 3.80853
# Velocity P-wave (km/s) = 6.58612 5.52355 6.07810
#
# Compressibility (1/GPa) = 0.04171737
#
# Stress axis : x y z
#
# Youngs Moduli (GPa) = 18.17015 18.17015 147.06210
#
# Poissons Ratio (x) = 0.50665 0.71271
# Poissons Ratio (y) = 0.50665 0.71271
# Poissons Ratio (z) = 0.08806 0.08806
#
# Static dielectric constant tensor:
#      x y z
#    x 1.751370 0.000000 0.000000 
#    y 0.000000 1.751370 0.000000 
#    z 0.000000 0.000000 1.762890 
# 
# From -- ./inp_files/3461.got.cif
#   From: 2010.05.17/outbox.cif.g08.bks.cpg/sg83_2_cif.got.tgz:3461.got - 2010.06.03 18:55:12.
