data_PCOD9543116
_publ_section_title
;
Structure prediction by ZEFSAII (Michael W. Deem and Ramdas Pophale) SiO2 
 PCOD9543116
Probable space group: I -4 
;
_chemical_formula_sum "Si O2"
_cell_formula_units_Z 44
_cell_length_a 9.024619
_cell_length_b 9.024619
_cell_length_c 27.451877
_cell_angle_alpha 90.000000
_cell_angle_beta 90.000000
_cell_angle_gamma 90.000000
_cell_volume 2235.783755
_symmetry_space_group_name_H-M "I -4 "
_symmetry_group_IT_number 82
_symmetry_cell_setting 'tetragonal'
loop_
_space_group_symop_operation_xyz
x,y,z
y,-x,-z
-x,-y,z
-y,x,-z
1/2+x,1/2+y,1/2+z
1/2+y,1/2-x,1/2-z
1/2-x,1/2-y,1/2+z
1/2-y,1/2+x,1/2-z
loop_
_atom_site_type_symbol
_atom_site_label
_atom_site_fract_x
_atom_site_fract_y
_atom_site_fract_z
Si Si1 0.140388 0.705447 0.062994
Si Si2 0.265559 0.015669 0.737615
Si Si3 0.008162 0.331967 0.959239
Si Si4 0.515596 0.323903 0.870732
Si Si5 0.183519 0.849275 0.884456
Si Si6 0.500000 0.500000 0.694731
O O1 0.231886 0.576557 0.089388
O O2 0.013416 0.761198 0.100248
O O3 0.257858 0.831347 0.047177
O O4 0.050889 0.662627 0.014440
O O5 0.383221 0.148328 0.735243
O O6 0.215943 0.964469 0.684146
O O7 0.127119 0.061514 0.770150
O O8 0.902737 0.222256 0.929402
O O9 0.000000 0.500000 0.939831
O O10 0.500000 0.500000 0.878640
O O11 0.682049 0.260862 0.873193
O O12 0.072169 0.876101 0.839860
#
# Coordination Sequence:
#
# PCOD9543116 Si02
#       6
#     8   8   8   8   8   4
#     4  12  25  45  71 100 137 185 238 294 349 437
#     4  11  24  42  69 101 138 183 237 296 357 427
#     4  12  25  44  66 101 140 179 233 293 358 423
#     4  12  26  46  69 103 145 183 233 301 365 429
#     4  12  24  44  71 100 134 186 237 285 357 431
#     4  12  22  42  71 102 134 181 242 298 346 432
#
# _framework density 19.679901000000001
#
# number of rings (size 3 to 8) (size 9 to 14) (size 15 to 20)
#    0.000    0.182    6.364    3.818    2.545    0.000 
#    0.000    0.000    0.000    0.000    0.000    0.000 
#    0.000    0.000    0.000    0.000    0.000    0.000 
#
# Total GULP energy -122989.479460 kJ/mol
# GULP energy per Si atom -5590.430885 kJ/mol
# Density = 1.963511 g / cm^3
# Si number density = 19.679901 Si / 1000 Ang^3
#
#
#
# Elastic Constant Matrix: (Units=GPa)
#
#
# Indices 1 2 3 4 5 6 
#
# 1 110.5340 36.1662 20.8930 0.0000 0.0000 -8.8044
# 2 36.1662 110.5340 20.8930 0.0000 0.0000 8.8044
# 3 20.8930 20.8930 87.5937 0.0000 0.0000 0.0000
# 4 0.0000 0.0000 0.0000 26.9264 0.0000 0.0000
# 5 0.0000 0.0000 0.0000 0.0000 26.9264 0.0000
# 6 -8.8044 8.8044 0.0000 0.0000 0.0000 28.8682
#
#
#
# Elastic Compliance Matrix: (Units=1/GPa)
#
#
# Indices 1 2 3 4 5 6 
#
# 1 0.010903 -0.003590 -0.001744 0.000000 0.000000 0.004420
# 2 -0.003590 0.010903 -0.001744 0.000000 0.000000 -0.004420
# 3 -0.001744 -0.001744 0.012249 0.000000 0.000000 0.000000
# 4 0.000000 0.000000 0.000000 0.037138 0.000000 0.000000
# 5 0.000000 0.000000 0.000000 0.000000 0.037138 0.000000
# 6 0.004420 -0.004420 0.000000 0.000000 0.000000 0.037336
#
#
# Mechanical properties :
#
#
# Convention : Reuss Voigt Hill
#
# Bulk Modulus (GPa) = 50.25680 51.61846 50.93763
# Shear Modulus (GPa) = 30.03756 31.92486 30.98121
#
# Velocity S-wave (km/s) = 3.91104 4.03203 3.97199
# Velocity P-wave (km/s) = 6.78141 6.92548 6.85382
#
# Compressibility (1/GPa) = 0.01989781
#
# Stress axis : x y z
#
# Youngs Moduli (GPa) = 91.71454 91.71455 81.64258
#
# Poissons Ratio (x) = 0.32925 0.14242
# Poissons Ratio (y) = 0.32925 0.14242
# Poissons Ratio (z) = 0.15999 0.15999
#
# Static dielectric constant tensor:
#      x y z
#    x 1.682980 0.000000 0.000000 
#    y 0.000000 1.682980 0.000000 
#    z 0.000000 0.000000 1.706700 
# 
# From -- ./inp_files/3937.got.cif
#   From: 2010.05.17/outbox.cif.g08.bks.cpg/sg82_2_cif.got.tgz:3937.got - 2010.06.03 18:52:26.
