data_PCOD9543537
_publ_section_title
;
Structure prediction by ZEFSAII (Michael W. Deem and Ramdas Pophale) SiO2 
 PCOD9543537
Probable space group: P 4/M
;
_chemical_formula_sum "Si O2"
_cell_formula_units_Z 48
_cell_length_a 8.132639
_cell_length_b 8.132639
_cell_length_c 33.176178
_cell_angle_alpha 90.000000
_cell_angle_beta 90.000000
_cell_angle_gamma 90.000000
_cell_volume 2194.266345
_symmetry_space_group_name_H-M "P 4/M"
_symmetry_group_IT_number 83
_symmetry_cell_setting 'tetragonal'
loop_
_space_group_symop_operation_xyz
x,y,z
-y,x,z
-x,-y,z
y,-x,z
-x,-y,-z
y,-x,-z
x,y,-z
-y,x,-z
loop_
_atom_site_type_symbol
_atom_site_label
_atom_site_fract_x
_atom_site_fract_y
_atom_site_fract_z
Si Si1 0.590714 0.238124 0.866415
Si Si2 0.237411 0.408362 0.776418
Si Si3 0.764113 0.580333 0.377670
Si Si4 0.908284 0.737575 0.545060
Si Si5 0.735443 0.914907 0.000000
Si Si6 0.919660 0.735876 0.699109
Si Si7 0.000000 0.500000 0.931807
O O1 0.700327 0.401526 0.869338
O O2 0.616943 0.168175 0.821453
O O3 0.610958 0.110730 0.902316
O O4 0.404037 0.299565 0.773090
O O5 0.119820 0.356455 0.740541
O O6 0.603785 0.697409 0.376120
O O7 0.856162 0.619614 0.419148
O O8 0.872461 0.627730 0.339306
O O9 0.882760 0.669058 0.500000
O O10 0.095875 0.799474 0.548460
O O11 0.618646 0.896165 0.038875
O O12 0.800359 0.104451 0.000000
O O13 0.103793 0.802573 0.697602
#
# Coordination Sequence:
#
# PCOD9543537 Si02
#       7
#     8   8   8   8   4   8   4
#     4   9  19  35  55  82 113 143 183 234 281 332
#     4   9  19  36  57  81 110 143 179 223 276 332
#     4  11  24  39  56  81 112 146 187 233 280 333
#     4   9  19  37  60  85 113 145 183 229 281 338
#     4  10  22  38  54  80 118 154 192 240 290 338
#     4  11  24  39  56  81 111 143 184 231 275 328
#     4  11  20  34  60  84 108 152 198 234 283 342
#
# _framework density 21.875194
#
# number of rings (size 3 to 8) (size 9 to 14) (size 15 to 20)
#    0.000    2.083    0.000    4.500    0.000   10.667 
#    0.000    2.500    0.000    6.000    0.000    0.000 
#    0.000    0.000    0.000    0.000    0.000    0.000 
#
# Total GULP energy -268696.378297 kJ/mol
# GULP energy per Si atom -5597.841215 kJ/mol
# Density = 2.182540 g / cm^3
# Si number density = 21.875194 Si / 1000 Ang^3
#
#
#
# Elastic Constant Matrix: (Units=GPa)
#
#
# Indices 1 2 3 4 5 6 
#
# 1 65.7606 32.0146 53.1977 0.0000 0.0000 -2.2151
# 2 32.0146 65.7606 53.1977 0.0000 0.0000 2.2151
# 3 53.1977 53.1977 190.8080 0.0000 0.0000 0.0000
# 4 0.0000 0.0000 0.0000 51.0168 0.0000 0.0000
# 5 0.0000 0.0000 0.0000 0.0000 51.0168 0.0000
# 6 -2.2151 2.2151 0.0000 0.0000 0.0000 36.4759
#
#
#
# Elastic Compliance Matrix: (Units=1/GPa)
#
#
# Indices 1 2 3 4 5 6 
#
# 1 0.022277 -0.007595 -0.004093 0.000000 0.000000 0.001814
# 2 -0.007595 0.022277 -0.004093 0.000000 0.000000 -0.001814
# 3 -0.004093 -0.004093 0.007523 0.000000 0.000000 0.000000
# 4 0.000000 0.000000 0.000000 0.019601 0.000000 0.000000
# 5 0.000000 0.000000 0.000000 0.000000 0.019601 0.000000
# 6 0.001814 -0.001814 0.000000 0.000000 0.000000 0.027636
#
#
# Mechanical properties :
#
#
# Convention : Reuss Voigt Hill
#
# Bulk Modulus (GPa) = 48.74821 66.57213 57.66017
# Shear Modulus (GPa) = 31.78327 39.96317 35.87322
#
# Velocity S-wave (km/s) = 3.81588 4.27883 4.05397
# Velocity P-wave (km/s) = 6.46124 7.41012 6.95189
#
# Compressibility (1/GPa) = 0.02051357
#
# Stress axis : x y z
#
# Youngs Moduli (GPa) = 44.89031 44.89031 132.92015
#
# Poissons Ratio (x) = 0.34093 0.54408
# Poissons Ratio (y) = 0.34093 0.54408
# Poissons Ratio (z) = 0.18375 0.18375
#
# Static dielectric constant tensor:
#      x y z
#    x 1.812220 0.000000 0.000000 
#    y 0.000000 1.812220 0.000000 
#    z 0.000000 0.000000 1.767420 
# 
# From -- ./inp_files/3434.got.cif
#   From: 2010.05.17/outbox.cif.g08.bks.cpg/sg83_2_cif.got.tgz:3434.got - 2010.06.03 18:55:12.
