data_PCOD9543493
_publ_section_title
;
Structure prediction by ZEFSAII (Michael W. Deem and Ramdas Pophale) SiO2 
 PCOD9543493
Probable space group: P 4/M
;
_chemical_formula_sum "Si O2"
_cell_formula_units_Z 48
_cell_length_a 17.336858
_cell_length_b 17.336858
_cell_length_c 8.670799
_cell_angle_alpha 90.000000
_cell_angle_beta 90.000000
_cell_angle_gamma 90.000000
_cell_volume 2606.152968
_symmetry_space_group_name_H-M "P 4/M"
_symmetry_group_IT_number 83
_symmetry_cell_setting 'tetragonal'
loop_
_space_group_symop_operation_xyz
x,y,z
-y,x,z
-x,-y,z
y,-x,z
-x,-y,-z
y,-x,-z
x,y,-z
-y,x,-z
loop_
_atom_site_type_symbol
_atom_site_label
_atom_site_fract_x
_atom_site_fract_y
_atom_site_fract_z
Si Si1 0.797555 0.498857 0.315689
Si Si2 0.907967 0.372960 0.816073
Si Si3 0.491213 0.626168 0.186145
Si Si4 0.923020 0.795555 0.184330
Si Si5 0.798819 0.911953 0.315591
Si Si6 0.623986 0.071943 0.684847
O O1 0.797362 0.488607 0.500000
O O2 0.836858 0.425143 0.236465
O O3 0.710766 0.512623 0.258248
O O4 0.856461 0.568645 0.279128
O O5 0.899271 0.287539 0.746955
O O6 0.989371 0.404297 0.749303
O O7 0.913100 0.369185 0.000000
O O8 0.420202 0.569541 0.229134
O O9 0.490720 0.632842 0.000000
O O10 0.004699 0.823876 0.251473
O O11 0.914654 0.707667 0.241432
O O12 0.854919 0.846998 0.251203
O O13 0.924370 0.797975 0.000000
O O14 0.798375 0.912690 0.500000
O O15 0.631020 0.065284 0.500000
#
# Coordination Sequence:
#
# PCOD9543493 Si02
#       6
#     8   8   8   8   8   8
#     4  11  23  37  58  87 116 149 188 228 275 338
#     4  11  22  37  58  84 114 149 189 235 284 333
#     4   9  20  40  62  83 111 146 184 231 284 332
#     4  11  22  38  59  85 115 149 192 239 287 337
#     4  11  22  39  60  83 114 152 192 235 287 340
#     4  10  21  38  57  81 116 154 189 231 284 337
#
# _framework density 18.417952
#
# number of rings (size 3 to 8) (size 9 to 14) (size 15 to 20)
#    0.000    1.500    0.000    8.500    0.000    7.000 
#    0.000    5.833    0.000    0.000    0.000    0.000 
#    0.000    0.000    0.000    0.000    0.000    0.000 
#
# Total GULP energy -268279.657314 kJ/mol
# GULP energy per Si atom -5589.159527 kJ/mol
# Density = 1.837603 g / cm^3
# Si number density = 18.417952 Si / 1000 Ang^3
#
#
#
# Elastic Constant Matrix: (Units=GPa)
#
#
# Indices 1 2 3 4 5 6 
#
# 1 59.8710 8.8070 14.6447 0.0000 0.0000 3.2893
# 2 8.8070 59.8710 14.6447 0.0000 0.0000 -3.2893
# 3 14.6447 14.6447 93.8682 0.0000 0.0000 0.0000
# 4 0.0000 0.0000 0.0000 43.6476 0.0000 0.0000
# 5 0.0000 0.0000 0.0000 0.0000 43.6476 0.0000
# 6 3.2893 -3.2893 0.0000 0.0000 0.0000 52.1667
#
#
#
# Elastic Compliance Matrix: (Units=1/GPa)
#
#
# Indices 1 2 3 4 5 6 
#
# 1 0.017671 -0.002073 -0.002434 0.000000 0.000000 -0.001245
# 2 -0.002073 0.017671 -0.002434 0.000000 0.000000 0.001245
# 3 -0.002434 -0.002434 0.011413 0.000000 0.000000 0.000000
# 4 0.000000 0.000000 0.000000 0.022911 0.000000 0.000000
# 5 0.000000 0.000000 0.000000 0.000000 0.022911 0.000000
# 6 -0.001245 0.001245 0.000000 0.000000 0.000000 0.019326
#
#
# Mechanical properties :
#
#
# Convention : Reuss Voigt Hill
#
# Bulk Modulus (GPa) = 30.41792 32.20035 31.30914
# Shear Modulus (GPa) = 36.56558 39.59328 38.07943
#
# Velocity S-wave (km/s) = 4.46053 4.64153 4.55193
# Velocity P-wave (km/s) = 6.56351 6.80045 6.68303
#
# Compressibility (1/GPa) = 0.03287535
#
# Stress axis : x y z
#
# Youngs Moduli (GPa) = 56.58952 56.58952 87.62263
#
# Poissons Ratio (x) = 0.11728 0.21324
# Poissons Ratio (y) = 0.11728 0.21324
# Poissons Ratio (z) = 0.13772 0.13772
#
# Static dielectric constant tensor:
#      x y z
#    x 1.621210 0.000000 0.000000 
#    y 0.000000 1.621210 0.000000 
#    z 0.000000 0.000000 1.612350 
# 
# From -- ./inp_files/1161.got.cif
#   From: 2010.05.17/outbox.cif.g08.bks.cpg/sg83_1_cif.got.tgz:1161.got - 2010.06.03 18:55:12.
