data_PCOD9543333
_publ_section_title
;
Structure prediction by ZEFSAII (Michael W. Deem and Ramdas Pophale) SiO2 
 PCOD9543333
Probable space group: P 4/M
;
_chemical_formula_sum "Si O2"
_cell_formula_units_Z 64
_cell_length_a 14.528305
_cell_length_b 14.528305
_cell_length_c 16.821620
_cell_angle_alpha 90.000000
_cell_angle_beta 90.000000
_cell_angle_gamma 90.000000
_cell_volume 3550.567025
_symmetry_space_group_name_H-M "P 4/M"
_symmetry_group_IT_number 83
_symmetry_cell_setting 'tetragonal'
loop_
_space_group_symop_operation_xyz
x,y,z
-y,x,z
-x,-y,z
y,-x,z
-x,-y,-z
y,-x,-z
x,y,-z
-y,x,-z
loop_
_atom_site_type_symbol
_atom_site_label
_atom_site_fract_x
_atom_site_fract_y
_atom_site_fract_z
Si Si1 0.476590 0.350630 0.642949
Si Si2 0.154241 0.491034 0.590529
Si Si3 0.742889 0.824793 0.796072
Si Si4 0.955574 0.407715 0.727635
Si Si5 0.336928 0.847254 0.715317
Si Si6 0.140677 0.064116 0.912220
Si Si7 0.303966 0.638564 0.093349
Si Si8 0.716652 0.531766 0.185692
O O1 0.574531 0.398768 0.625548
O O2 0.464723 0.255569 0.597500
O O3 0.482118 0.326492 0.736880
O O4 0.124204 0.485114 0.500000
O O5 0.085455 0.550551 0.645476
O O6 0.166577 0.390510 0.631772
O O7 0.649399 0.871161 0.764037
O O8 0.796631 0.760014 0.732415
O O9 0.802662 0.904078 0.836409
O O10 0.718322 0.758329 0.869640
O O11 0.000000 0.500000 0.767636
O O12 0.042478 0.338672 0.723537
O O13 0.407641 0.799561 0.778139
O O14 0.043607 0.117337 0.909505
O O15 0.183170 0.082607 0.000000
O O16 0.400111 0.647392 0.140396
O O17 0.257499 0.543703 0.120880
O O18 0.316259 0.644875 0.000000
#
# Coordination Sequence:
#
# PCOD9543333 Si02
#       8
#     8   8   8   8   8   8   8   8
#     4  10  19  33  53  77 109 147 181 221 271 320
#     4  10  22  37  57  81 112 144 179 226 277 332
#     4  11  20  35  57  78 109 146 187 236 276 333
#     4  10  21  38  58  83 108 147 191 224 279 344
#     4   9  21  36  57  80 104 141 186 224 279 338
#     4   9  18  33  55  84 114 142 178 232 297 349
#     4  11  21  31  47  73 104 142 186 233 279 320
#     4  10  19  34  50  71 102 142 181 232 272 320
#
# _framework density 18.025289999999998
#
# number of rings (size 3 to 8) (size 9 to 14) (size 15 to 20)
#    0.000    2.000    1.250    4.125    3.500    3.000 
#    0.000    1.250    0.000    9.000    0.000    0.000 
#    0.000    0.000    0.000   14.250    0.000    0.000 
#
# Total GULP energy -356477.970174 kJ/mol
# GULP energy per Si atom -5569.968284 kJ/mol
# Density = 1.798426 g / cm^3
# Si number density = 18.025290 Si / 1000 Ang^3
#
#
#
# Elastic Constant Matrix: (Units=GPa)
#
#
# Indices 1 2 3 4 5 6 
#
# 1 63.7716 26.9484 31.1492 0.0000 0.0000 6.1254
# 2 26.9484 63.7716 31.1492 0.0000 0.0000 -6.1254
# 3 31.1492 31.1492 103.8442 0.0000 0.0000 0.0000
# 4 0.0000 0.0000 0.0000 13.7170 0.0000 0.0000
# 5 0.0000 0.0000 0.0000 0.0000 13.7170 0.0000
# 6 6.1254 -6.1254 0.0000 0.0000 0.0000 25.6886
#
#
#
# Elastic Compliance Matrix: (Units=1/GPa)
#
#
# Indices 1 2 3 4 5 6 
#
# 1 0.021690 -0.007807 -0.004164 0.000000 0.000000 -0.007033
# 2 -0.007807 0.021690 -0.004164 0.000000 0.000000 0.007033
# 3 -0.004164 -0.004164 0.012128 0.000000 0.000000 0.000000
# 4 0.000000 0.000000 0.000000 0.072902 0.000000 0.000000
# 5 0.000000 0.000000 0.000000 0.000000 0.072902 0.000000
# 6 -0.007033 0.007033 0.000000 0.000000 0.000000 0.042282
#
#
# Mechanical properties :
#
#
# Convention : Reuss Voigt Hill
#
# Bulk Modulus (GPa) = 43.03625 45.54234 44.28929
# Shear Modulus (GPa) = 17.62980 20.10054 18.86517
#
# Velocity S-wave (km/s) = 3.13079 3.34298 3.23862
# Velocity P-wave (km/s) = 6.08247 6.34203 6.21360
#
# Compressibility (1/GPa) = 0.02323622
#
# Stress axis : x y z
#
# Youngs Moduli (GPa) = 46.10488 46.10488 82.45362
#
# Poissons Ratio (x) = 0.35995 0.34336
# Poissons Ratio (y) = 0.35995 0.34336
# Poissons Ratio (z) = 0.19199 0.19199
#
# Static dielectric constant tensor:
#      x y z
#    x 1.660200 0.000000 0.000000 
#    y 0.000000 1.660200 0.000000 
#    z 0.000000 0.000000 1.621730 
# 
# From -- ./inp_files/2748.got.cif
#   From: 2010.05.17/outbox.cif.g08.bks.cpg/sg83_2_cif.got.tgz:2748.got - 2010.06.03 18:55:12.
