data_PCOD9543813
_publ_section_title
;
Structure prediction by ZEFSAII (Michael W. Deem and Ramdas Pophale) SiO2 
 PCOD9543813
Probable space group: P 4/M
;
_chemical_formula_sum "Si O2"
_cell_formula_units_Z 40
_cell_length_a 7.938795
_cell_length_b 7.938795
_cell_length_c 28.298057
_cell_angle_alpha 90.000000
_cell_angle_beta 90.000000
_cell_angle_gamma 90.000000
_cell_volume 1783.469933
_symmetry_space_group_name_H-M "P 4/M"
_symmetry_group_IT_number 83
_symmetry_cell_setting 'tetragonal'
loop_
_space_group_symop_operation_xyz
x,y,z
-y,x,z
-x,-y,z
y,-x,z
-x,-y,-z
y,-x,-z
x,y,-z
-y,x,-z
loop_
_atom_site_type_symbol
_atom_site_label
_atom_site_fract_x
_atom_site_fract_y
_atom_site_fract_z
Si Si1 0.599017 0.762604 0.749470
Si Si2 0.069448 0.727439 0.500000
Si Si3 0.742054 0.875025 0.153478
Si Si4 0.000000 0.500000 0.678592
Si Si5 0.741467 0.876296 0.949532
Si Si6 0.226388 0.556732 0.411958
O O1 0.405013 0.708205 0.739558
O O2 0.628440 0.813328 0.803598
O O3 0.634751 0.925351 0.717063
O O4 0.105244 0.623900 0.452730
O O5 0.884819 0.803830 0.500000
O O6 0.663698 0.839495 0.101586
O O7 0.925284 0.784055 0.156794
O O8 0.854900 0.462479 0.639554
O O9 0.924282 0.785532 0.949559
O O10 0.655984 0.836829 0.000000
O O11 0.310870 0.376665 0.417504
#
# Coordination Sequence:
#
# PCOD9543813 Si02
#       6
#     8   4   8   4   8   8
#     4  11  24  41  60  83 114 155 201 252 314 378
#     4  11  24  43  70 107 146 180 214 251 290 337
#     4   9  17  31  55  87 119 153 197 248 300 358
#     4  12  24  41  64  88 117 152 204 262 304 358
#     4   7  10  19  40  74 114 151 188 234 289 351
#     4  11  24  43  69 100 135 175 214 253 302 358
#
# _framework density 22.428189
#
# number of rings (size 3 to 8) (size 9 to 14) (size 15 to 20)
#    0.000    2.100    0.000    6.000    0.000    3.600 
#    0.000    0.000    0.000    8.400    0.000    7.700 
#    0.000    0.000    0.000    0.000    0.000    0.000 
#
# Total GULP energy -222715.112229 kJ/mol
# GULP energy per Si atom -5567.877806 kJ/mol
# Density = 2.237714 g / cm^3
# Si number density = 22.428189 Si / 1000 Ang^3
#
#
#
# Elastic Constant Matrix: (Units=GPa)
#
#
# Indices 1 2 3 4 5 6 
#
# 1 77.9769 34.4466 50.3125 0.0000 0.0000 16.1744
# 2 34.4466 77.9769 50.3125 0.0000 0.0000 -16.1744
# 3 50.3125 50.3125 168.2502 0.0000 0.0000 0.0000
# 4 0.0000 0.0000 0.0000 43.4274 0.0000 0.0000
# 5 0.0000 0.0000 0.0000 0.0000 43.4274 0.0000
# 6 16.1744 -16.1744 0.0000 0.0000 0.0000 33.0569
#
#
#
# Elastic Compliance Matrix: (Units=1/GPa)
#
#
# Indices 1 2 3 4 5 6 
#
# 1 0.024122 -0.011976 -0.003632 0.000000 0.000000 -0.017662
# 2 -0.011976 0.024122 -0.003632 0.000000 0.000000 0.017662
# 3 -0.003632 -0.003632 0.008116 0.000000 0.000000 0.000000
# 4 0.000000 0.000000 0.000000 0.023027 0.000000 0.000000
# 5 0.000000 0.000000 0.000000 0.000000 0.023027 0.000000
# 6 -0.017662 0.017662 0.000000 0.000000 0.000000 0.047535
#
#
# Mechanical properties :
#
#
# Convention : Reuss Voigt Hill
#
# Bulk Modulus (GPa) = 55.93071 66.03858 60.98464
# Shear Modulus (GPa) = 25.72173 36.59118 31.15645
#
# Velocity S-wave (km/s) = 3.39019 4.04354 3.73119
# Velocity P-wave (km/s) = 6.34951 7.16301 6.76849
#
# Compressibility (1/GPa) = 0.01787927
#
# Stress axis : x y z
#
# Youngs Moduli (GPa) = 41.45612 41.45612 123.21783
#
# Poissons Ratio (x) = 0.49648 0.44753
# Poissons Ratio (y) = 0.49648 0.44753
# Poissons Ratio (z) = 0.15057 0.15057
#
# Static dielectric constant tensor:
#      x y z
#    x 1.876730 0.000000 0.000000 
#    y 0.000000 1.876730 0.000000 
#    z 0.000000 0.000000 1.835470 
# 
# From -- ./inp_files/3260.got.cif
#   From: 2010.05.17/outbox.cif.g08.bks.cpg/sg83_2_cif.got.tgz:3260.got - 2010.06.03 18:55:12.
