data_PCOD9543472
_publ_section_title
;
Structure prediction by ZEFSAII (Michael W. Deem and Ramdas Pophale) SiO2 
 PCOD9543472
Probable space group: P 4/M
;
_chemical_formula_sum "Si O2"
_cell_formula_units_Z 48
_cell_length_a 15.213628
_cell_length_b 15.213628
_cell_length_c 10.840511
_cell_angle_alpha 90.000000
_cell_angle_beta 90.000000
_cell_angle_gamma 90.000000
_cell_volume 2509.084803
_symmetry_space_group_name_H-M "P 4/M"
_symmetry_group_IT_number 83
_symmetry_cell_setting 'tetragonal'
loop_
_space_group_symop_operation_xyz
x,y,z
-y,x,z
-x,-y,z
y,-x,z
-x,-y,-z
y,-x,-z
x,y,-z
-y,x,-z
loop_
_atom_site_type_symbol
_atom_site_label
_atom_site_fract_x
_atom_site_fract_y
_atom_site_fract_z
Si Si1 0.475339 0.231960 0.858623
Si Si2 0.141519 0.954905 0.269864
Si Si3 0.406588 0.614345 0.500000
Si Si4 0.655249 0.315213 0.233937
Si Si5 0.488441 0.895868 0.361151
Si Si6 0.714968 0.160840 0.365515
Si Si7 0.858023 0.042071 0.000000
O O1 0.395745 0.299193 0.834358
O O2 0.568337 0.280847 0.834996
O O3 0.469514 0.158011 0.751490
O O4 0.472263 0.199469 0.000000
O O5 0.216942 0.918475 0.355525
O O6 0.054160 0.894179 0.283717
O O7 0.183223 0.945330 0.132683
O O8 0.380058 0.512172 0.500000
O O9 0.373917 0.655750 0.371969
O O10 0.721654 0.234121 0.259222
O O11 0.520396 0.870507 0.500000
O O12 0.384740 0.873660 0.358556
O O13 0.500000 0.000000 0.347181
O O14 0.728912 0.202051 0.500000
O O15 0.943643 0.103850 0.000000
#
# Coordination Sequence:
#
# PCOD9543472 Si02
#       7
#     8   8   4   8   8   8   4
#     4  11  24  40  60  88 124 157 190 241 301 353
#     4   9  18  34  55  79 109 146 186 234 289 342
#     4  11  20  34  62  92 106 149 206 248 286 349
#     4  11  22  38  59  84 120 155 195 240 289 348
#     4   9  21  42  65  85 111 156 204 244 288 349
#     4  10  21  35  56  84 114 147 191 238 286 338
#     4   7  12  28  52  72  95 132 178 221 271 334
#
# _framework density 19.130481
#
# number of rings (size 3 to 8) (size 9 to 14) (size 15 to 20)
#    0.000    2.167    2.500    1.500    2.333    2.667 
#    7.500    3.333    3.667    0.000    0.000    0.000 
#    0.000    0.000    0.000    0.000    0.000    0.000 
#
# Total GULP energy -267514.979530 kJ/mol
# GULP energy per Si atom -5573.228740 kJ/mol
# Density = 1.908694 g / cm^3
# Si number density = 19.130481 Si / 1000 Ang^3
#
#
#
# Elastic Constant Matrix: (Units=GPa)
#
#
# Indices 1 2 3 4 5 6 
#
# 1 21.7570 12.7027 25.3666 0.0000 0.0000 -19.9445
# 2 12.7027 21.7570 25.3666 0.0000 0.0000 19.9445
# 3 25.3666 25.3666 125.3538 0.0000 0.0000 0.0000
# 4 0.0000 0.0000 0.0000 11.9739 0.0000 0.0000
# 5 0.0000 0.0000 0.0000 0.0000 11.9739 0.0000
# 6 -19.9445 19.9445 0.0000 0.0000 0.0000 19.6201
#
#
#
# Elastic Compliance Matrix: (Units=1/GPa)
#
#
# Indices 1 2 3 4 5 6 
#
# 1 0.004791 0.036543 -0.008364 0.000000 0.000000 -0.032277
# 2 0.036543 0.004791 -0.008364 0.000000 0.000000 0.032277
# 3 -0.008364 -0.008364 0.011363 0.000000 0.000000 0.000000
# 4 0.000000 0.000000 0.000000 0.083515 0.000000 0.000000
# 5 0.000000 0.000000 0.000000 0.000000 0.083515 0.000000
# 6 -0.032277 0.032277 0.000000 0.000000 0.000000 -0.014653
#
#
# Mechanical properties :
#
#
# Convention : Reuss Voigt Hill
#
# Bulk Modulus (GPa) = 16.50904 32.85997 24.68451
# Shear Modulus (GPa) = 32.49198 15.74237 24.11718
#
# Velocity S-wave (km/s) = 4.12568 2.87173 3.55444
# Velocity P-wave (km/s) = 5.59852 5.31129 5.45680
#
# Compressibility (1/GPa) = 0.06057286
#
# Stress axis : x y z
#
# Youngs Moduli (GPa) = 208.72860 208.72860 88.00787
#
# Poissons Ratio (x) = -7.62753 0.73612
# Poissons Ratio (y) = -7.62753 0.73612
# Poissons Ratio (z) = 1.74587 1.74587
#
# Static dielectric constant tensor:
#      x y z
#    x 1.649530 0.000000 0.000000 
#    y 0.000000 1.649530 0.000000 
#    z 0.000000 0.000000 1.719800 
# 
# From -- ./inp_files/1882.got.cif
#   From: 2010.05.17/outbox.cif.g08.bks.cpg/sg83_1_cif.got.tgz:1882.got - 2010.06.03 18:55:12.
