data_PCOD9543226
_publ_section_title
;
Structure prediction by ZEFSAII (Michael W. Deem and Ramdas Pophale) SiO2 
 PCOD9543226
Probable space group: P 4/M
;
_chemical_formula_sum "Si O2"
_cell_formula_units_Z 48
_cell_length_a 17.503080
_cell_length_b 17.503080
_cell_length_c 7.658053
_cell_angle_alpha 90.000000
_cell_angle_beta 90.000000
_cell_angle_gamma 90.000000
_cell_volume 2346.104342
_symmetry_space_group_name_H-M "P 4/M"
_symmetry_group_IT_number 83
_symmetry_cell_setting 'tetragonal'
loop_
_space_group_symop_operation_xyz
x,y,z
-y,x,z
-x,-y,z
y,-x,z
-x,-y,-z
y,-x,-z
x,y,-z
-y,x,-z
loop_
_atom_site_type_symbol
_atom_site_label
_atom_site_fract_x
_atom_site_fract_y
_atom_site_fract_z
Si Si1 0.764349 0.610915 0.785302
Si Si2 0.600223 0.570906 0.212845
Si Si3 0.389130 0.992274 0.699642
Si Si4 0.262814 0.884615 0.209399
Si Si5 0.514657 0.874627 0.804334
Si Si6 0.899342 0.070642 0.786725
O O1 0.676559 0.613895 0.730906
O O2 0.817346 0.681205 0.726245
O O3 0.802786 0.530638 0.726549
O O4 0.767379 0.609689 0.000000
O O5 0.518109 0.603057 0.267307
O O6 0.599875 0.571830 0.000000
O O7 0.403759 0.971426 0.500000
O O8 0.305008 0.964805 0.748577
O O9 0.446674 0.938216 0.807378
O O10 0.414732 0.079703 0.722268
O O11 0.176338 0.886299 0.274786
O O12 0.260390 0.877675 0.000000
O O13 0.538002 0.854405 0.000000
O O14 0.981535 0.102965 0.733220
O O15 0.898951 0.071790 0.000000
#
# Coordination Sequence:
#
# PCOD9543226 Si02
#       6
#     8   8   8   8   8   8
#     4   8  14  23  36  56  82 112 143 175 213 260
#     4   8  13  22  36  54  80 114 147 179 216 255
#     4  10  17  25  39  60  86 116 149 178 207 257
#     4   9  16  27  43  63  89 116 141 177 226 271
#     4   9  15  25  40  58  84 116 147 181 220 260
#     4   8  14  26  45  67  87 108 142 188 230 267
#
# _framework density 20.459448999999999
#
# number of rings (size 3 to 8) (size 9 to 14) (size 15 to 20)
#    0.000    3.333    0.000    5.000    0.000    0.000 
#    0.000    1.667    0.000    9.000    0.000    1.167 
#    0.000   18.667    0.000   45.833    0.000   41.667 
#
# Total GULP energy -267236.474638 kJ/mol
# GULP energy per Si atom -5567.426555 kJ/mol
# Density = 2.041288 g / cm^3
# Si number density = 20.459449 Si / 1000 Ang^3
#
#
#
# Elastic Constant Matrix: (Units=GPa)
#
#
# Indices 1 2 3 4 5 6 
#
# 1 89.4505 41.4674 2.3149 0.0000 0.0000 -0.5470
# 2 41.4674 89.4505 2.3149 0.0000 0.0000 0.5470
# 3 2.3149 2.3149 43.3593 0.0000 0.0000 0.0000
# 4 0.0000 0.0000 0.0000 -31.8406 0.0000 0.0000
# 5 0.0000 0.0000 0.0000 0.0000 -31.8406 0.0000
# 6 -0.5470 0.5470 0.0000 0.0000 0.0000 12.3174
#
#
#
# Elastic Compliance Matrix: (Units=1/GPa)
#
#
# Indices 1 2 3 4 5 6 
#
# 1 0.014257 -0.006604 -0.000409 0.000000 0.000000 0.000926
# 2 -0.006604 0.014257 -0.000409 0.000000 0.000000 -0.000926
# 3 -0.000409 -0.000409 0.023107 0.000000 0.000000 0.000000
# 4 0.000000 0.000000 0.000000 -0.031406 0.000000 0.000000
# 5 0.000000 0.000000 0.000000 0.000000 -0.031406 0.000000
# 6 0.000926 -0.000926 0.000000 0.000000 0.000000 0.081268
#
#
# Mechanical properties :
#
#
# Convention : Reuss Voigt Hill
#
# Bulk Modulus (GPa) = 27.19010 34.93941 31.06476
# Shear Modulus (GPa) = 51.45148 1.47148 26.46148
#
# Velocity S-wave (km/s) = 5.02022 0.84899 3.60024
# Velocity P-wave (km/s) = 6.84997 4.25153 5.70077
#
# Compressibility (1/GPa) = 0.03677809
#
# Stress axis : x y z
#
# Youngs Moduli (GPa) = 70.13953 70.13953 43.27740
#
# Poissons Ratio (x) = 0.46323 0.01768
# Poissons Ratio (y) = 0.46323 0.01768
# Poissons Ratio (z) = 0.02866 0.02866
#
# Static dielectric constant tensor:
#      x y z
#    x 1.740470 0.000000 0.000000 
#    y 0.000000 1.740470 0.000000 
#    z 0.000000 0.000000 1.740010 
# 
# From -- ./inp_files/908.got.cif
#   From: 2010.05.17/outbox.cif.g08.bks.cpg/sg83_1_cif.got.tgz:908.got - 2010.06.03 18:55:12.
