data_PCOD9543665
_publ_section_title
;
Structure prediction by ZEFSAII (Michael W. Deem and Ramdas Pophale) SiO2 
 PCOD9543665
Probable space group: P 4/M
;
_chemical_formula_sum "Si O2"
_cell_formula_units_Z 64
_cell_length_a 11.179698
_cell_length_b 11.179698
_cell_length_c 24.811781
_cell_angle_alpha 90.000000
_cell_angle_beta 90.000000
_cell_angle_gamma 90.000000
_cell_volume 3101.116511
_symmetry_space_group_name_H-M "P 4/M"
_symmetry_group_IT_number 83
_symmetry_cell_setting 'tetragonal'
loop_
_space_group_symop_operation_xyz
x,y,z
-y,x,z
-x,-y,z
y,-x,z
-x,-y,-z
y,-x,-z
x,y,-z
-y,x,-z
loop_
_atom_site_type_symbol
_atom_site_label
_atom_site_fract_x
_atom_site_fract_y
_atom_site_fract_z
Si Si1 0.063029 0.308471 0.672820
Si Si2 0.931421 0.809892 0.441294
Si Si3 0.813286 0.068021 0.216571
Si Si4 0.689363 0.563148 0.063058
Si Si5 0.565367 0.120451 0.845887
Si Si6 0.184068 0.564855 0.670826
Si Si7 0.692144 0.437529 0.441278
Si Si8 0.543870 0.689745 0.222489
O O1 0.089679 0.263373 0.612684
O O2 0.088195 0.215197 0.720005
O O3 0.135744 0.430777 0.679291
O O4 0.924753 0.345327 0.679697
O O5 0.909683 0.750791 0.500000
O O6 0.069220 0.853343 0.439817
O O7 0.689709 0.098317 0.185920
O O8 0.930533 0.148285 0.204809
O O9 0.572967 0.645189 0.072698
O O10 0.795344 0.590949 0.103373
O O11 0.721110 0.574148 0.000000
O O12 0.465985 0.184844 0.807460
O O13 0.500000 0.000000 0.863513
O O14 0.227913 0.583976 0.610276
O O15 0.287142 0.574093 0.715031
O O16 0.644203 0.573710 0.438753
O O17 0.749902 0.418201 0.500000
O O18 0.413782 0.635789 0.207957
#
# Coordination Sequence:
#
# PCOD9543665 Si02
#       8
#     8   8   8   8   8   8   8   8
#     4  11  23  38  56  79 114 156 198 255 323 385
#     4   9  19  36  57  79 101 133 189 256 317 379
#     4  11  26  44  63  88 126 178 225 263 317 389
#     4   9  20  42  72 106 143 182 223 270 326 378
#     4  12  25  38  67 100 136 173 219 271 315 371
#     4  11  23  36  53  81 114 147 192 253 317 380
#     4   9  19  36  55  74 101 141 187 237 305 392
#     4  11  24  40  62  91 124 164 209 265 332 382
#
# _framework density 20.637729
#
# number of rings (size 3 to 8) (size 9 to 14) (size 15 to 20)
#    0.000    1.625    1.250    4.125    5.250    7.250 
#    0.000    3.750    0.000    0.000    0.000    0.875 
#    0.000    0.000    0.000    0.000    0.000    0.000 
#
# Total GULP energy -357886.775265 kJ/mol
# GULP energy per Si atom -5591.980864 kJ/mol
# Density = 2.059076 g / cm^3
# Si number density = 20.637729 Si / 1000 Ang^3
#
#
#
# Elastic Constant Matrix: (Units=GPa)
#
#
# Indices 1 2 3 4 5 6 
#
# 1 58.3894 19.8752 34.7789 0.0000 0.0000 3.9982
# 2 19.8752 58.3894 34.7789 0.0000 0.0000 -3.9982
# 3 34.7789 34.7789 93.4866 0.0000 0.0000 0.0000
# 4 0.0000 0.0000 0.0000 7.5662 0.0000 0.0000
# 5 0.0000 0.0000 0.0000 0.0000 7.5662 0.0000
# 6 3.9982 -3.9982 0.0000 0.0000 0.0000 12.4790
#
#
#
# Elastic Compliance Matrix: (Units=1/GPa)
#
#
# Indices 1 2 3 4 5 6 
#
# 1 0.023452 -0.004363 -0.007101 0.000000 0.000000 -0.008912
# 2 -0.004363 0.023452 -0.007101 0.000000 0.000000 0.008912
# 3 -0.007101 -0.007101 0.015980 0.000000 0.000000 0.000000
# 4 0.000000 0.000000 0.000000 0.132166 0.000000 0.000000
# 5 0.000000 0.000000 0.000000 0.000000 0.132166 0.000000
# 6 -0.008912 0.008912 0.000000 0.000000 0.000000 0.085845
#
#
# Mechanical properties :
#
#
# Convention : Reuss Voigt Hill
#
# Bulk Modulus (GPa) = 38.83176 43.23683 41.03430
# Shear Modulus (GPa) = 10.89854 13.57777 12.23815
#
# Velocity S-wave (km/s) = 2.30051 2.56776 2.43780
# Velocity P-wave (km/s) = 5.09050 5.45775 5.27732
#
# Compressibility (1/GPa) = 0.02575212
#
# Stress axis : x y z
#
# Youngs Moduli (GPa) = 42.64098 42.64098 62.57676
#
# Poissons Ratio (x) = 0.18605 0.44438
# Poissons Ratio (y) = 0.18605 0.44438
# Poissons Ratio (z) = 0.30281 0.30281
#
# Static dielectric constant tensor:
#      x y z
#    x 1.740950 0.000000 0.000000 
#    y 0.000000 1.740950 0.000000 
#    z 0.000000 0.000000 1.730350 
# 
# From -- ./inp_files/3216.got.cif
#   From: 2010.05.17/outbox.cif.g08.bks.cpg/sg83_2_cif.got.tgz:3216.got - 2010.06.03 18:55:12.
