data_PCOD9543199
_publ_section_title
;
Structure prediction by ZEFSAII (Michael W. Deem and Ramdas Pophale) SiO2 
 PCOD9543199
Probable space group: I -4 
;
_chemical_formula_sum "Si O2"
_cell_formula_units_Z 40
_cell_length_a 15.396724
_cell_length_b 15.396724
_cell_length_c 7.378658
_cell_angle_alpha 90.000000
_cell_angle_beta 90.000000
_cell_angle_gamma 90.000000
_cell_volume 1749.178098
_symmetry_space_group_name_H-M "I -4 "
_symmetry_group_IT_number 82
_symmetry_cell_setting 'tetragonal'
loop_
_space_group_symop_operation_xyz
x,y,z
y,-x,-z
-x,-y,z
-y,x,-z
1/2+x,1/2+y,1/2+z
1/2+y,1/2-x,1/2-z
1/2-x,1/2-y,1/2+z
1/2-y,1/2+x,1/2-z
loop_
_atom_site_type_symbol
_atom_site_label
_atom_site_fract_x
_atom_site_fract_y
_atom_site_fract_z
Si Si1 0.558188 0.867320 0.042865
Si Si2 0.877675 0.444940 0.521680
Si Si3 0.174583 0.216417 0.419211
Si Si4 0.316404 0.363580 0.303687
Si Si5 0.432450 0.304091 0.600019
O O1 0.560716 0.866588 0.261420
O O2 0.462299 0.890051 0.978153
O O3 0.610762 0.952967 0.983115
O O4 0.594867 0.777912 0.976646
O O5 0.797078 0.409202 0.417030
O O6 0.251115 0.287375 0.381638
O O7 0.190218 0.153927 0.589378
O O8 0.138318 0.163018 0.246770
O O9 0.408163 0.342833 0.404059
O O10 0.305840 0.466011 0.348621
#
# Coordination Sequence:
#
# PCOD9543199 Si02
#       5
#     8   8   8   8   8
#     4   9  18  34  65 107 147 177 225 300 372 457
#     4   9  18  35  64 107 144 183 227 293 381 436
#     4  12  25  45  73 110 150 188 246 307 378 443
#     4  12  28  50  73 111 147 201 243 309 370 437
#     4  12  27  46  76 103 147 199 253 301 364 447
#
# _framework density 22.867882999999999
#
# number of rings (size 3 to 8) (size 9 to 14) (size 15 to 20)
#    0.000    1.200    6.000    1.200    2.800    2.000 
#    0.000    2.000    0.000    0.000    0.000    0.000 
#    0.000    0.000    0.000    0.000    0.000    0.000 
#
# Total GULP energy -111685.734410 kJ/mol
# GULP energy per Si atom -5584.286721 kJ/mol
# Density = 2.281583 g / cm^3
# Si number density = 22.867883 Si / 1000 Ang^3
#
#
#
# Elastic Constant Matrix: (Units=GPa)
#
#
# Indices 1 2 3 4 5 6 
#
# 1 64.8791 14.1996 20.4734 0.0000 0.0000 5.1601
# 2 14.1996 64.8791 20.4734 0.0000 0.0000 -5.1601
# 3 20.4734 20.4734 93.9755 0.0000 0.0000 0.0000
# 4 0.0000 0.0000 0.0000 26.2104 0.0000 0.0000
# 5 0.0000 0.0000 0.0000 0.0000 26.2104 0.0000
# 6 5.1601 -5.1601 0.0000 0.0000 0.0000 14.8835
#
#
#
# Elastic Compliance Matrix: (Units=1/GPa)
#
#
# Indices 1 2 3 4 5 6 
#
# 1 0.017742 -0.003489 -0.003105 0.000000 0.000000 -0.007361
# 2 -0.003489 0.017742 -0.003105 0.000000 0.000000 0.007361
# 3 -0.003105 -0.003105 0.011994 0.000000 0.000000 0.000000
# 4 0.000000 0.000000 0.000000 0.038153 0.000000 0.000000
# 5 0.000000 0.000000 0.000000 0.000000 0.038153 0.000000
# 6 -0.007361 0.007361 0.000000 0.000000 0.000000 0.072292
#
#
# Mechanical properties :
#
#
# Convention : Reuss Voigt Hill
#
# Bulk Modulus (GPa) = 35.61238 37.11404 36.36321
# Shear Modulus (GPa) = 22.23857 24.70002 23.46929
#
# Velocity S-wave (km/s) = 3.12185 3.29008 3.20707
# Velocity P-wave (km/s) = 5.34803 5.54056 5.44515
#
# Compressibility (1/GPa) = 0.02808012
#
# Stress axis : x y z
#
# Youngs Moduli (GPa) = 56.36307 56.36307 83.37450
#
# Poissons Ratio (x) = 0.19663 0.25890
# Poissons Ratio (y) = 0.19663 0.25890
# Poissons Ratio (z) = 0.17502 0.17502
#
# Static dielectric constant tensor:
#      x y z
#    x 1.840450 0.000000 0.000000 
#    y 0.000000 1.840450 0.000000 
#    z 0.000000 0.000000 1.989120 
# 
# From -- ./inp_files/220.got.cif
#   From: 2010.05.17/outbox.cif.g08.bks.cpg/sg82_1_cif.got.tgz:220.got - 2010.06.03 18:52:26.
