data_PCOD9543368
_publ_section_title
;
Structure prediction by ZEFSAII (Michael W. Deem and Ramdas Pophale) SiO2 
 PCOD9543368
Probable space group: P 4/M
;
_chemical_formula_sum "Si O2"
_cell_formula_units_Z 48
_cell_length_a 10.881552
_cell_length_b 10.881552
_cell_length_c 19.831508
_cell_angle_alpha 90.000000
_cell_angle_beta 90.000000
_cell_angle_gamma 90.000000
_cell_volume 2348.212649
_symmetry_space_group_name_H-M "P 4/M"
_symmetry_group_IT_number 83
_symmetry_cell_setting 'tetragonal'
loop_
_space_group_symop_operation_xyz
x,y,z
-y,x,z
-x,-y,z
y,-x,z
-x,-y,-z
y,-x,-z
x,y,-z
-y,x,-z
loop_
_atom_site_type_symbol
_atom_site_label
_atom_site_fract_x
_atom_site_fract_y
_atom_site_fract_z
Si Si1 0.079546 0.702014 0.262194
Si Si2 0.825296 0.909917 0.598242
Si Si3 0.424866 0.692745 0.077313
Si Si4 0.318129 0.685062 0.575486
Si Si5 0.678727 0.195813 0.206364
Si Si6 0.770598 0.512470 0.327417
O O1 0.083800 0.803819 0.321218
O O2 0.187534 0.741401 0.211201
O O3 0.124331 0.577359 0.299252
O O4 0.945803 0.688455 0.229919
O O5 0.716735 0.825781 0.571410
O O6 0.950304 0.841856 0.577851
O O7 0.347082 0.566745 0.086161
O O8 0.380811 0.787086 0.133600
O O9 0.408894 0.734333 0.000000
O O10 0.365796 0.665216 0.500000
O O11 0.321888 0.573546 0.629139
O O12 0.385510 0.796415 0.615013
O O13 0.591276 0.264116 0.261345
#
# Coordination Sequence:
#
# PCOD9543368 Si02
#       6
#     8   8   8   8   8   8
#     4  11  22  37  63  93 122 163 208 266 320 367
#     4  10  19  37  60  82 114 155 208 263 314 374
#     4   9  20  40  67  99 138 179 214 255 309 367
#     4  11  24  41  60  88 121 161 207 262 332 392
#     4  12  22  40  64  97 129 162 220 263 310 376
#     4  11  22  41  60  89 119 160 205 264 315 383
#
# _framework density 20.441078000000001
#
# number of rings (size 3 to 8) (size 9 to 14) (size 15 to 20)
#    0.000    1.333    5.000    2.500    0.000    2.667 
#    0.000    2.500    0.000   12.000    0.000    1.167 
#    0.000    0.000    0.000    0.000    0.000    0.000 
#
# Total GULP energy -267624.278769 kJ/mol
# GULP energy per Si atom -5575.505808 kJ/mol
# Density = 2.039455 g / cm^3
# Si number density = 20.441078 Si / 1000 Ang^3
#
#
#
# Elastic Constant Matrix: (Units=GPa)
#
#
# Indices 1 2 3 4 5 6 
#
# 1 79.2546 30.1530 47.5997 0.0000 0.0000 3.1202
# 2 30.1530 79.2546 47.5997 0.0000 0.0000 -3.1202
# 3 47.5997 47.5997 145.1565 0.0000 0.0000 0.0000
# 4 0.0000 0.0000 0.0000 2.6342 0.0000 0.0000
# 5 0.0000 0.0000 0.0000 0.0000 2.6342 0.0000
# 6 3.1202 -3.1202 0.0000 0.0000 0.0000 28.1425
#
#
#
# Elastic Compliance Matrix: (Units=1/GPa)
#
#
# Indices 1 2 3 4 5 6 
#
# 1 0.016723 -0.003934 -0.004194 0.000000 0.000000 -0.002290
# 2 -0.003934 0.016723 -0.004194 0.000000 0.000000 0.002290
# 3 -0.004194 -0.004194 0.009640 0.000000 0.000000 0.000000
# 4 0.000000 0.000000 0.000000 0.379628 0.000000 0.000000
# 5 0.000000 0.000000 0.000000 0.000000 0.379628 0.000000
# 6 -0.002290 0.002290 0.000000 0.000000 0.000000 0.036041
#
#
# Mechanical properties :
#
#
# Convention : Reuss Voigt Hill
#
# Bulk Modulus (GPa) = 54.22162 61.59673 57.90918
# Shear Modulus (GPa) = 5.75259 18.56971 12.16115
#
# Velocity S-wave (km/s) = 1.67939 3.01732 2.44178
# Velocity P-wave (km/s) = 5.50853 6.50678 6.02835
#
# Compressibility (1/GPa) = 0.01844283
#
# Stress axis : x y z
#
# Youngs Moduli (GPa) = 59.79720 59.79720 103.73835
#
# Poissons Ratio (x) = 0.23523 0.43507
# Poissons Ratio (y) = 0.23523 0.43507
# Poissons Ratio (z) = 0.25078 0.25078
#
# Static dielectric constant tensor:
#      x y z
#    x 1.791690 0.000000 0.000000 
#    y 0.000000 1.791690 0.000000 
#    z 0.000000 0.000000 1.721440 
# 
# From -- ./inp_files/2643.got.cif
#   From: 2010.05.17/outbox.cif.g08.bks.cpg/sg83_2_cif.got.tgz:2643.got - 2010.06.03 18:55:12.
