data_PCOD9543767
_publ_section_title
;
Structure prediction by ZEFSAII (Michael W. Deem and Ramdas Pophale) SiO2 
 PCOD9543767
Probable space group: P 4/M
;
_chemical_formula_sum "Si O2"
_cell_formula_units_Z 44
_cell_length_a 7.487809
_cell_length_b 7.487809
_cell_length_c 31.786296
_cell_angle_alpha 90.000000
_cell_angle_beta 90.000000
_cell_angle_gamma 90.000000
_cell_volume 1782.171273
_symmetry_space_group_name_H-M "P 4/M"
_symmetry_group_IT_number 83
_symmetry_cell_setting 'tetragonal'
loop_
_space_group_symop_operation_xyz
x,y,z
-y,x,z
-x,-y,z
y,-x,z
-x,-y,-z
y,-x,-z
x,y,-z
-y,x,-z
loop_
_atom_site_type_symbol
_atom_site_label
_atom_site_fract_x
_atom_site_fract_y
_atom_site_fract_z
Si Si1 0.858505 0.730222 0.954993
Si Si2 0.276505 0.118204 0.454829
Si Si3 0.000000 0.500000 0.704985
Si Si4 0.274423 0.872053 0.773869
Si Si5 0.774296 0.392891 0.363839
Si Si6 0.729202 0.137934 0.865071
O O1 0.816191 0.641159 0.909993
O O2 0.072013 0.769967 0.954996
O O3 0.814288 0.642269 0.000000
O O4 0.366045 0.159784 0.500000
O O5 0.371696 0.160965 0.411521
O O6 0.089468 0.223842 0.454369
O O7 0.146549 0.408898 0.735354
O O8 0.912963 0.356630 0.673229
O O9 0.225581 0.084066 0.771716
O O10 0.356400 0.825940 0.819729
O O11 0.721306 0.598169 0.358689
O O12 0.925278 0.228967 0.865079
#
# Coordination Sequence:
#
# PCOD9543767 Si02
#       6
#     8   8   4   8   8   8
#     4   7   8  10  20  42  73 106 136 170 219 278
#     4   9  19  38  64  91 116 142 172 204 239 285
#     4  12  22  36  53  72  97 132 170 212 256 302
#     4   9  18  32  50  70  91 120 161 207 252 297
#     4  11  24  39  55  79 110 141 173 211 255 300
#     4   7  10  18  32  52  79 108 142 187 233 280
#
# _framework density 24.688984999999999
#
# number of rings (size 3 to 8) (size 9 to 14) (size 15 to 20)
#    0.000    3.091    0.000    5.455    0.000    0.727 
#    0.000    5.000    0.000    0.000    0.000    0.636 
#    0.000    0.000    0.000    0.000    0.000    0.364 
#
# Total GULP energy -245706.021014 kJ/mol
# GULP energy per Si atom -5584.227750 kJ/mol
# Density = 2.463279 g / cm^3
# Si number density = 24.688985 Si / 1000 Ang^3
#
#
#
# Elastic Constant Matrix: (Units=GPa)
#
#
# Indices 1 2 3 4 5 6 
#
# 1 49.6988 -1.8210 26.8547 0.0000 0.0000 6.3474
# 2 -1.8210 49.6988 26.8547 0.0000 0.0000 -6.3474
# 3 26.8547 26.8547 278.2097 0.0000 0.0000 0.0000
# 4 0.0000 0.0000 0.0000 7.8622 0.0000 0.0000
# 5 0.0000 0.0000 0.0000 0.0000 7.8622 0.0000
# 6 6.3474 -6.3474 0.0000 0.0000 0.0000 13.6871
#
#
#
# Elastic Compliance Matrix: (Units=1/GPa)
#
#
# Indices 1 2 3 4 5 6 
#
# 1 0.022669 0.000754 -0.002261 0.000000 0.000000 -0.010163
# 2 0.000754 0.022669 -0.002261 0.000000 0.000000 0.010163
# 3 -0.002261 -0.002261 0.004031 0.000000 0.000000 0.000000
# 4 0.000000 0.000000 0.000000 0.127191 0.000000 0.000000
# 5 0.000000 0.000000 0.000000 0.000000 0.127191 0.000000
# 6 -0.010163 0.010163 0.000000 0.000000 0.000000 0.082487
#
#
# Mechanical properties :
#
#
# Convention : Reuss Voigt Hill
#
# Bulk Modulus (GPa) = 23.90467 53.48713 38.69590
# Shear Modulus (GPa) = 12.26341 27.59687 19.93014
#
# Velocity S-wave (km/s) = 2.23113 3.34695 2.84429
# Velocity P-wave (km/s) = 4.04235 6.05372 5.14724
#
# Compressibility (1/GPa) = 0.04183283
#
# Stress axis : x y z
#
# Youngs Moduli (GPa) = 44.11407 44.11407 248.08392
#
# Poissons Ratio (x) = -0.03328 0.56090
# Poissons Ratio (y) = -0.03328 0.56090
# Poissons Ratio (z) = 0.09974 0.09974
#
# Static dielectric constant tensor:
#      x y z
#    x 1.960470 0.000000 0.000000 
#    y 0.000000 1.960470 0.000000 
#    z 0.000000 0.000000 2.036700 
# 
# From -- ./inp_files/3376.got.cif
#   From: 2010.05.17/outbox.cif.g08.bks.cpg/sg83_2_cif.got.tgz:3376.got - 2010.06.03 18:55:12.
