data_PCOD9543630
_publ_section_title
;
Structure prediction by ZEFSAII (Michael W. Deem and Ramdas Pophale) SiO2 
 PCOD9543630
Probable space group: P 4/M
;
_chemical_formula_sum "Si O2"
_cell_formula_units_Z 52
_cell_length_a 14.956701
_cell_length_b 14.956701
_cell_length_c 13.287412
_cell_angle_alpha 90.000000
_cell_angle_beta 90.000000
_cell_angle_gamma 90.000000
_cell_volume 2972.432662
_symmetry_space_group_name_H-M "P 4/M"
_symmetry_group_IT_number 83
_symmetry_cell_setting 'tetragonal'
loop_
_space_group_symop_operation_xyz
x,y,z
-y,x,z
-x,-y,z
y,-x,z
-x,-y,-z
y,-x,-z
x,y,-z
-y,x,-z
loop_
_atom_site_type_symbol
_atom_site_label
_atom_site_fract_x
_atom_site_fract_y
_atom_site_fract_z
Si Si1 0.230316 0.894846 0.190665
Si Si2 0.581478 0.372280 0.500000
Si Si3 0.418538 0.627685 0.722074
Si Si4 0.754012 0.911457 0.883007
Si Si5 0.221977 0.395484 0.879989
Si Si6 0.048197 0.142614 0.616096
Si Si7 0.551695 0.911317 0.878531
O O1 0.153351 0.823309 0.169577
O O2 0.321849 0.849452 0.155810
O O3 0.218900 0.924246 0.306232
O O4 0.217477 0.985752 0.128286
O O5 0.618026 0.473910 0.500000
O O6 0.605525 0.334541 0.610235
O O7 0.381651 0.526515 0.728663
O O8 0.386091 0.690048 0.812341
O O9 0.652980 0.904237 0.841054
O O10 0.752225 0.885729 0.000000
O O11 0.175373 0.491253 0.860341
O O12 0.238005 0.386234 0.000000
O O13 0.057331 0.169351 0.500000
O O14 0.946359 0.108735 0.632025
O O15 0.500000 0.000000 0.841439
O O16 0.558180 0.921508 0.000000
#
# Coordination Sequence:
#
# PCOD9543630 Si02
#       7
#     8   4   8   8   8   8   8
#     4  12  22  36  55  83 112 147 189 231 285 336
#     4   7  12  30  58  80 101 134 176 225 286 349
#     4   9  19  36  58  82 108 139 181 237 295 336
#     4  11  22  35  54  81 114 148 184 229 276 333
#     4  11  23  36  53  81 115 151 193 229 271 343
#     4   9  18  36  59  81 107 142 184 231 288 348
#     4   9  18  36  55  69  98 149 191 216 254 316
#
# _framework density 17.494088999999999
#
# number of rings (size 3 to 8) (size 9 to 14) (size 15 to 20)
#    0.000    2.077    3.077    2.769    2.154    0.923 
#    1.385    1.538    0.000    0.000    2.000    1.615 
#    0.000    0.000    0.000    0.000    0.000    0.000 
#
# Total GULP energy -289830.496366 kJ/mol
# GULP energy per Si atom -5573.663392 kJ/mol
# Density = 1.745427 g / cm^3
# Si number density = 17.494089 Si / 1000 Ang^3
#
#
#
# Elastic Constant Matrix: (Units=GPa)
#
#
# Indices 1 2 3 4 5 6 
#
# 1 58.4114 -2.5768 11.7677 0.0000 0.0000 -2.2483
# 2 -2.5768 58.4114 11.7677 0.0000 0.0000 2.2483
# 3 11.7677 11.7677 99.0138 0.0000 0.0000 0.0000
# 4 0.0000 0.0000 0.0000 19.6893 0.0000 0.0000
# 5 0.0000 0.0000 0.0000 0.0000 19.6893 0.0000
# 6 -2.2483 2.2483 0.0000 0.0000 0.0000 27.8860
#
#
#
# Elastic Compliance Matrix: (Units=1/GPa)
#
#
# Indices 1 2 3 4 5 6 
#
# 1 0.017675 0.001180 -0.002241 0.000000 0.000000 0.001330
# 2 0.001180 0.017675 -0.002241 0.000000 0.000000 -0.001330
# 3 -0.002241 -0.002241 0.010632 0.000000 0.000000 0.000000
# 4 0.000000 0.000000 0.000000 0.050789 0.000000 0.000000
# 5 0.000000 0.000000 0.000000 0.000000 0.050789 0.000000
# 6 0.001330 -0.001330 0.000000 0.000000 0.000000 0.036075
#
#
# Mechanical properties :
#
#
# Convention : Reuss Voigt Hill
#
# Bulk Modulus (GPa) = 25.39486 28.63930 27.01708
# Shear Modulus (GPa) = 24.58646 26.44477 25.51562
#
# Velocity S-wave (km/s) = 3.75295 3.89220 3.82321
# Velocity P-wave (km/s) = 5.77298 6.05023 5.91323
#
# Compressibility (1/GPa) = 0.03937805
#
# Stress axis : x y z
#
# Youngs Moduli (GPa) = 56.57829 56.57829 94.05348
#
# Poissons Ratio (x) = -0.06676 0.21076
# Poissons Ratio (y) = -0.06676 0.21076
# Poissons Ratio (z) = 0.12678 0.12678
#
# Static dielectric constant tensor:
#      x y z
#    x 1.600230 0.000000 0.000000 
#    y 0.000000 1.600230 0.000000 
#    z 0.000000 0.000000 1.604520 
# 
# From -- ./inp_files/1926.got.cif
#   From: 2010.05.17/outbox.cif.g08.bks.cpg/sg83_1_cif.got.tgz:1926.got - 2010.06.03 18:55:12.
