data_PCOD9543478
_publ_section_title
;
Structure prediction by ZEFSAII (Michael W. Deem and Ramdas Pophale) SiO2 
 PCOD9543478
Probable space group: P 4/M
;
_chemical_formula_sum "Si O2"
_cell_formula_units_Z 40
_cell_length_a 14.452037
_cell_length_b 14.452037
_cell_length_c 7.529715
_cell_angle_alpha 90.000000
_cell_angle_beta 90.000000
_cell_angle_gamma 90.000000
_cell_volume 1572.666617
_symmetry_space_group_name_H-M "P 4/M"
_symmetry_group_IT_number 83
_symmetry_cell_setting 'tetragonal'
loop_
_space_group_symop_operation_xyz
x,y,z
-y,x,z
-x,-y,z
y,-x,z
-x,-y,-z
y,-x,-z
x,y,-z
-y,x,-z
loop_
_atom_site_type_symbol
_atom_site_label
_atom_site_fract_x
_atom_site_fract_y
_atom_site_fract_z
Si Si1 0.146834 0.965611 0.782957
Si Si2 0.639356 0.457761 0.715562
Si Si3 0.213734 0.680457 0.706408
Si Si4 0.678111 0.138782 0.795883
Si Si5 0.475757 0.105235 0.788748
O O1 0.247078 0.933376 0.717110
O O2 0.066850 0.891310 0.730389
O O3 0.148966 0.965475 0.000000
O O4 0.611227 0.558472 0.775765
O O5 0.638666 0.461121 0.500000
O O6 0.733162 0.412539 0.772049
O O7 0.233591 0.696686 0.500000
O O8 0.259695 0.767462 0.798064
O O9 0.115799 0.631574 0.723442
O O10 0.573738 0.153765 0.722030
O O11 0.662747 0.109910 0.000000
O O12 0.500000 0.000000 0.746706
O O13 0.470100 0.116796 0.000000
#
# Coordination Sequence:
#
# PCOD9543478 Si02
#       5
#     8   8   8   8   8
#     4   8  15  29  54  87 115 143 191 251 304 359
#     4   8  14  26  46  71  98 131 175 224 272 326
#     4  11  22  36  56  82 116 159 200 245 297 363
#     4  10  21  36  60  89 119 158 202 253 309 367
#     4  10  23  41  61  88 123 163 207 259 316 370
#
# _framework density 25.434507
#
# number of rings (size 3 to 8) (size 9 to 14) (size 15 to 20)
#    0.000    2.600    0.000    3.000    2.800    2.800 
#    0.000    0.000    0.000    0.000    0.000    9.800 
#    0.000    0.000    0.000    0.000    0.000    0.000 
#
# Total GULP energy -222876.112800 kJ/mol
# GULP energy per Si atom -5571.902820 kJ/mol
# Density = 2.537662 g / cm^3
# Si number density = 25.434507 Si / 1000 Ang^3
#
#
#
# Elastic Constant Matrix: (Units=GPa)
#
#
# Indices 1 2 3 4 5 6 
#
# 1 87.2484 32.5006 4.6804 0.0000 0.0000 -9.3924
# 2 32.5006 87.2484 4.6804 0.0000 0.0000 9.3924
# 3 4.6804 4.6804 57.3656 0.0000 0.0000 0.0000
# 4 0.0000 0.0000 0.0000 -111.3205 0.0000 0.0000
# 5 0.0000 0.0000 0.0000 0.0000 -111.3205 0.0000
# 6 -9.3924 9.3924 0.0000 0.0000 0.0000 39.1055
#
#
#
# Elastic Compliance Matrix: (Units=1/GPa)
#
#
# Indices 1 2 3 4 5 6 
#
# 1 0.014155 -0.005751 -0.000686 0.000000 0.000000 0.004781
# 2 -0.005751 0.014155 -0.000686 0.000000 0.000000 -0.004781
# 3 -0.000686 -0.000686 0.017544 0.000000 0.000000 0.000000
# 4 0.000000 0.000000 0.000000 -0.008983 0.000000 0.000000
# 5 0.000000 0.000000 0.000000 0.000000 -0.008983 0.000000
# 6 0.004781 -0.004781 0.000000 0.000000 0.000000 0.027868
#
#
# Mechanical properties :
#
#
# Convention : Reuss Voigt Hill
#
# Bulk Modulus (GPa) = 31.63565 35.06503 33.35034
# Shear Modulus (GPa) = 62.08256 -24.04039 19.02109
#
# Velocity S-wave (km/s) = 4.94589 -3.07773 2.73764
# Velocity P-wave (km/s) = 6.71422 1.08925 4.80974
#
# Compressibility (1/GPa) = 0.03160991
#
# Stress axis : x y z
#
# Youngs Moduli (GPa) = 70.64524 70.64524 56.99973
#
# Poissons Ratio (x) = 0.40627 0.03909
# Poissons Ratio (y) = 0.40627 0.03909
# Poissons Ratio (z) = 0.04844 0.04844
#
# Static dielectric constant tensor:
#      x y z
#    x 3.144620 0.000000 0.000000 
#    y 0.000000 3.144620 0.000000 
#    z 0.000000 0.000000 1.990890 
# 
# From -- ./inp_files/680.got.cif
#   From: 2010.05.17/outbox.cif.g08.bks.cpg/sg83_1_cif.got.tgz:680.got - 2010.06.03 18:55:12.
