data_PCOD9543890
_publ_section_title
;
Structure prediction by ZEFSAII (Michael W. Deem and Ramdas Pophale) SiO2 
 PCOD9543890
Probable space group: P 4/M
;
_chemical_formula_sum "Si O2"
_cell_formula_units_Z 30
_cell_length_a 8.212031
_cell_length_b 8.212031
_cell_length_c 19.336589
_cell_angle_alpha 90.000000
_cell_angle_beta 90.000000
_cell_angle_gamma 90.000000
_cell_volume 1304.010315
_symmetry_space_group_name_H-M "P 4/M"
_symmetry_group_IT_number 83
_symmetry_cell_setting 'tetragonal'
loop_
_space_group_symop_operation_xyz
x,y,z
-y,x,z
-x,-y,z
y,-x,z
-x,-y,-z
y,-x,-z
x,y,-z
-y,x,-z
loop_
_atom_site_type_symbol
_atom_site_label
_atom_site_fract_x
_atom_site_fract_y
_atom_site_fract_z
Si Si1 0.000000 0.000000 0.000000
Si Si2 0.262135 0.916324 0.705706
Si Si3 0.582911 0.237840 0.576172
Si Si4 0.682597 0.201953 0.000000
Si Si5 0.500000 0.500000 0.000000
Si Si6 0.736003 0.087237 0.143056
O O1 0.873932 0.152697 0.000000
O O2 0.370992 0.871973 0.640671
O O3 0.340427 0.886294 0.781292
O O4 0.100309 0.803826 0.702536
O O5 0.695866 0.399191 0.579780
O O6 0.609744 0.162707 0.500000
O O7 0.632594 0.135628 0.923855
O O8 0.397274 0.331297 0.000000
O O9 0.902327 0.196195 0.141454
#
# Coordination Sequence:
#
# PCOD9543890 Si02
#       6
#     1   8   8   4   1   8
#     4  12  20  40 100  84 100 192 286 228 300 424
#     4   9  19  33  54  87 119 140 181 258 306 332
#     4   9  19  37  56  74 102 149 200 235 282 377
#     4  12  20  46  64 102 120 182 216 282 312 406
#     4  12  36  40  52 100 180 144 190 308 412 320
#     4   9  15  33  65  91 107 149 227 261 273 367
#
# _framework density 23.005955
#
# number of rings (size 3 to 8) (size 9 to 14) (size 15 to 20)
#    0.000    2.400    2.667    2.400    0.000    2.667 
#    4.800    4.000    0.000    0.000    0.000    0.000 
#    0.000    0.000    0.000    0.000    0.000    0.000 
#
# Total GULP energy -167033.552653 kJ/mol
# GULP energy per Si atom -5567.785088 kJ/mol
# Density = 2.295359 g / cm^3
# Si number density = 23.005955 Si / 1000 Ang^3
#
#
#
# Elastic Constant Matrix: (Units=GPa)
#
#
# Indices 1 2 3 4 5 6 
#
# 1 49.8240 33.7615 54.5527 0.0000 0.0000 9.2693
# 2 33.7615 49.8240 54.5527 0.0000 0.0000 -9.2693
# 3 54.5527 54.5527 270.0062 0.0000 0.0000 0.0000
# 4 0.0000 0.0000 0.0000 -252.6745 0.0000 0.0000
# 5 0.0000 0.0000 0.0000 0.0000 -252.6745 0.0000
# 6 9.2693 -9.2693 0.0000 0.0000 0.0000 48.0893
#
#
#
# Elastic Compliance Matrix: (Units=1/GPa)
#
#
# Indices 1 2 3 4 5 6 
#
# 1 0.048159 -0.031910 -0.003283 0.000000 0.000000 -0.015434
# 2 -0.031910 0.048159 -0.003283 0.000000 0.000000 0.015434
# 3 -0.003283 -0.003283 0.005030 0.000000 0.000000 0.000000
# 4 0.000000 0.000000 0.000000 -0.003958 0.000000 0.000000
# 5 0.000000 0.000000 0.000000 0.000000 -0.003958 0.000000
# 6 -0.015434 0.015434 0.000000 0.000000 0.000000 0.026744
#
#
# Mechanical properties :
#
#
# Convention : Reuss Voigt Hill
#
# Bulk Modulus (GPa) = 40.98952 72.82090 56.90521
# Shear Modulus (GPa) = 24.35900 -76.33279 -25.98689
#
# Velocity S-wave (km/s) = 3.25747 -5.76642 -3.36456
# Velocity P-wave (km/s) = 5.65719 3.55158 3.11368
#
# Compressibility (1/GPa) = 0.02439648
#
# Stress axis : x y z
#
# Youngs Moduli (GPa) = 20.76437 20.76437 198.79777
#
# Poissons Ratio (x) = 0.66260 0.65266
# Poissons Ratio (y) = 0.66260 0.65266
# Poissons Ratio (z) = 0.06817 0.06817
#
# Static dielectric constant tensor:
#      x y z
#    x 1.857940 0.000000 0.000000 
#    y 0.000000 1.857940 0.000000 
#    z 0.000000 0.000000 1.964140 
# 
# From -- ./inp_files/2784.got.cif
#   From: 2010.05.17/outbox.cif.g08.bks.cpg/sg83_2_cif.got.tgz:2784.got - 2010.06.03 18:55:12.
