data_PCOD9543286
_publ_section_title
;
Structure prediction by ZEFSAII (Michael W. Deem and Ramdas Pophale) SiO2 
 PCOD9543286
Probable space group: P 4/M
;
_chemical_formula_sum "Si O2"
_cell_formula_units_Z 64
_cell_length_a 19.269985
_cell_length_b 19.269985
_cell_length_c 7.260460
_cell_angle_alpha 90.000000
_cell_angle_beta 90.000000
_cell_angle_gamma 90.000000
_cell_volume 2696.043470
_symmetry_space_group_name_H-M "P 4/M"
_symmetry_group_IT_number 83
_symmetry_cell_setting 'tetragonal'
loop_
_space_group_symop_operation_xyz
x,y,z
-y,x,z
-x,-y,z
y,-x,z
-x,-y,-z
y,-x,-z
x,y,-z
-y,x,-z
loop_
_atom_site_type_symbol
_atom_site_label
_atom_site_fract_x
_atom_site_fract_y
_atom_site_fract_z
Si Si1 0.587795 0.431584 0.276002
Si Si2 0.238244 0.088607 0.286028
Si Si3 0.965383 0.384550 0.724844
Si Si4 0.629942 0.124684 0.275380
Si Si5 0.519917 0.842778 0.276050
Si Si6 0.763552 0.208687 0.276339
Si Si7 0.633452 0.729916 0.724056
Si Si8 0.992949 0.110242 0.221094
O O1 0.594378 0.511967 0.219564
O O2 0.587788 0.430794 0.500000
O O3 0.653053 0.387324 0.215748
O O4 0.250661 0.103692 0.500000
O O5 0.198967 0.156873 0.212832
O O6 0.188522 0.022208 0.274943
O O7 0.314070 0.072540 0.211074
O O8 0.966465 0.384758 0.500000
O O9 0.045053 0.380636 0.782286
O O10 0.917949 0.449530 0.778296
O O11 0.631448 0.125134 0.500000
O O12 0.559955 0.165356 0.219652
O O13 0.702111 0.158421 0.211979
O O14 0.520051 0.840989 0.500000
O O15 0.574905 0.784691 0.216012
O O16 0.761833 0.203095 0.500000
O O17 0.747882 0.288297 0.224016
O O18 0.632709 0.731405 0.500000
O O19 0.062041 0.071339 0.284929
O O20 0.994111 0.108402 0.000000
#
# Coordination Sequence:
#
# PCOD9543286 Si02
#       8
#     8   8   8   8   8   8   8   8
#     4   8  14  21  28  40  58  88 139 193 223 252
#     4  10  19  30  48  71  99 127 150 187 241 287
#     4   9  16  27  38  56  84 114 146 184 225 268
#     4   9  17  24  36  52  75 110 151 186 220 271
#     4   9  15  24  35  49  72 112 151 180 219 270
#     4   9  17  27  35  55  86 114 143 184 233 277
#     4   9  15  22  32  44  68 104 140 177 225 275
#     4   9  20  38  55  71  94 124 158 195 230 270
#
# _framework density 23.738489000000001
#
# number of rings (size 3 to 8) (size 9 to 14) (size 15 to 20)
#    0.000    3.000    1.250    1.125    3.500    2.000 
#    0.000    0.625    0.000    0.000    0.000    0.000 
#    0.000    3.000    0.000    0.000    0.000    0.000 
#
# Total GULP energy -357509.878320 kJ/mol
# GULP energy per Si atom -5586.091849 kJ/mol
# Density = 2.368446 g / cm^3
# Si number density = 23.738489 Si / 1000 Ang^3
#
#
#
# Elastic Constant Matrix: (Units=GPa)
#
#
# Indices 1 2 3 4 5 6 
#
# 1 36.2699 7.7879 -3.1535 0.0000 0.0000 0.3797
# 2 7.7879 36.2699 -3.1535 0.0000 0.0000 -0.3797
# 3 -3.1535 -3.1535 103.9545 0.0000 0.0000 0.0000
# 4 0.0000 0.0000 0.0000 -2.5482 0.0000 0.0000
# 5 0.0000 0.0000 0.0000 0.0000 -2.5482 0.0000
# 6 0.3797 -0.3797 0.0000 0.0000 0.0000 42.9153
#
#
#
# Elastic Compliance Matrix: (Units=1/GPa)
#
#
# Indices 1 2 3 4 5 6 
#
# 1 0.028957 -0.006161 0.000692 0.000000 0.000000 -0.000311
# 2 -0.006161 0.028957 0.000692 0.000000 0.000000 0.000311
# 3 0.000692 0.000692 0.009662 0.000000 0.000000 0.000000
# 4 0.000000 0.000000 0.000000 -0.392432 0.000000 0.000000
# 5 0.000000 0.000000 0.000000 0.000000 -0.392432 0.000000
# 6 -0.000311 0.000311 0.000000 0.000000 0.000000 0.023307
#
#
# Mechanical properties :
#
#
# Convention : Reuss Voigt Hill
#
# Bulk Modulus (GPa) = 17.23525 19.93956 18.58741
# Shear Modulus (GPa) = -7.51785 19.23133 5.85674
#
# Velocity S-wave (km/s) = -1.78152 2.84937 1.57243
# Velocity P-wave (km/s) = 1.74484 4.38670 3.33823
#
# Compressibility (1/GPa) = 0.05802062
#
# Stress axis : x y z
#
# Youngs Moduli (GPa) = 34.53362 34.53362 103.50304
#
# Poissons Ratio (x) = 0.21276 -0.07158
# Poissons Ratio (y) = 0.21276 -0.07158
# Poissons Ratio (z) = -0.02388 -0.02388
#
# Static dielectric constant tensor:
#      x y z
#    x 1.855760 0.000000 0.000000 
#    y 0.000000 1.855760 0.000000 
#    z 0.000000 0.000000 1.959400 
# 
# From -- ./inp_files/2033.got.cif
#   From: 2010.05.17/outbox.cif.g08.bks.cpg/sg83_2_cif.got.tgz:2033.got - 2010.06.03 18:55:12.
