data_PCOD9543897
_publ_section_title
;
Structure prediction by ZEFSAII (Michael W. Deem and Ramdas Pophale) SiO2 
 PCOD9543897
Probable space group: P 4/M
;
_chemical_formula_sum "Si O2"
_cell_formula_units_Z 42
_cell_length_a 8.754138
_cell_length_b 8.754138
_cell_length_c 26.876022
_cell_angle_alpha 90.000000
_cell_angle_beta 90.000000
_cell_angle_gamma 90.000000
_cell_volume 2059.642122
_symmetry_space_group_name_H-M "P 4/M"
_symmetry_group_IT_number 83
_symmetry_cell_setting 'tetragonal'
loop_
_space_group_symop_operation_xyz
x,y,z
-y,x,z
-x,-y,z
y,-x,z
-x,-y,-z
y,-x,-z
x,y,-z
-y,x,-z
loop_
_atom_site_type_symbol
_atom_site_label
_atom_site_fract_x
_atom_site_fract_y
_atom_site_fract_z
Si Si1 0.264326 0.603234 0.748232
Si Si2 0.722652 0.369866 0.444837
Si Si3 0.000000 0.000000 0.345518
Si Si4 0.913854 0.242897 0.056392
Si Si5 0.258412 0.591890 0.859520
Si Si6 0.667262 0.925305 0.650325
O O1 0.307149 0.424513 0.744722
O O2 0.197944 0.623909 0.803730
O O3 0.161881 0.652631 0.702741
O O4 0.700096 0.552826 0.441743
O O5 0.785561 0.333477 0.500000
O O6 0.823128 0.317250 0.399206
O O7 0.814460 0.033368 0.345825
O O8 0.858181 0.358799 0.098094
O O9 0.088402 0.187431 0.061517
O O10 0.892822 0.301711 0.000000
O O11 0.310800 0.415859 0.863955
O O12 0.500000 0.000000 0.644094
#
# Coordination Sequence:
#
# PCOD9543897 Si02
#       6
#     8   8   2   8   8   8
#     4   9  18  37  62  84 114 161 208 248 310 385
#     4   9  18  35  63  96 126 167 223 269 318 391
#     4  12  28  44  61 104 132 152 229 280 300 402
#     4   9  19  37  56  78 112 152 193 235 291 362
#     4   9  19  36  56  83 115 146 193 246 293 355
#     4  12  24  42  63  87 132 174 208 268 331 374
#
# _framework density 20.391894000000001
#
# number of rings (size 3 to 8) (size 9 to 14) (size 15 to 20)
#    0.000    2.286    0.000    5.714    0.000    3.429 
#   10.286    4.286    0.000    0.000    0.000    0.000 
#    0.000    0.000    0.000    0.000    0.000    0.000 
#
# Total GULP energy -234068.709590 kJ/mol
# GULP energy per Si atom -5573.064514 kJ/mol
# Density = 2.034548 g / cm^3
# Si number density = 20.391894 Si / 1000 Ang^3
#
#
#
# Elastic Constant Matrix: (Units=GPa)
#
#
# Indices 1 2 3 4 5 6 
#
# 1 46.3018 20.0968 42.4368 0.0000 0.0000 -3.9919
# 2 20.0968 46.3018 42.4368 0.0000 0.0000 3.9919
# 3 42.4368 42.4368 160.0892 0.0000 0.0000 0.0000
# 4 0.0000 0.0000 0.0000 4.9833 0.0000 0.0000
# 5 0.0000 0.0000 0.0000 0.0000 4.9833 0.0000
# 6 -3.9919 3.9919 0.0000 0.0000 0.0000 25.6041
#
#
#
# Elastic Compliance Matrix: (Units=1/GPa)
#
#
# Indices 1 2 3 4 5 6 
#
# 1 0.031421 -0.008642 -0.006038 0.000000 0.000000 0.006246
# 2 -0.008642 0.031421 -0.006038 0.000000 0.000000 -0.006246
# 3 -0.006038 -0.006038 0.009448 0.000000 0.000000 0.000000
# 4 0.000000 0.000000 0.000000 0.200669 0.000000 0.000000
# 5 0.000000 0.000000 0.000000 0.000000 0.200669 0.000000
# 6 0.006246 -0.006246 0.000000 0.000000 0.000000 0.041004
#
#
# Mechanical properties :
#
#
# Convention : Reuss Voigt Hill
#
# Bulk Modulus (GPa) = 32.41223 51.40373 41.90798
# Shear Modulus (GPa) = 8.82838 16.96230 12.89534
#
# Velocity S-wave (km/s) = 2.08297 2.88725 2.51744
# Velocity P-wave (km/s) = 4.65985 6.03138 5.38942
#
# Compressibility (1/GPa) = 0.03085255
#
# Stress axis : x y z
#
# Youngs Moduli (GPa) = 31.82546 31.82546 105.84466
#
# Poissons Ratio (x) = 0.27505 0.63912
# Poissons Ratio (y) = 0.27505 0.63912
# Poissons Ratio (z) = 0.19217 0.19217
#
# Static dielectric constant tensor:
#      x y z
#    x 1.737040 0.000000 0.000000 
#    y 0.000000 1.737040 0.000000 
#    z 0.000000 0.000000 1.705890 
# 
# From -- ./inp_files/3267.got.cif
#   From: 2010.05.17/outbox.cif.g08.bks.cpg/sg83_2_cif.got.tgz:3267.got - 2010.06.03 18:55:12.
