data_PCOD9543228
_publ_section_title
;
Structure prediction by ZEFSAII (Michael W. Deem and Ramdas Pophale) SiO2 
 PCOD9543228
Probable space group: P 4/M
;
_chemical_formula_sum "Si O2"
_cell_formula_units_Z 28
_cell_length_a 12.130395
_cell_length_b 12.130395
_cell_length_c 8.258672
_cell_angle_alpha 90.000000
_cell_angle_beta 90.000000
_cell_angle_gamma 90.000000
_cell_volume 1215.234538
_symmetry_space_group_name_H-M "P 4/M"
_symmetry_group_IT_number 83
_symmetry_cell_setting 'tetragonal'
loop_
_space_group_symop_operation_xyz
x,y,z
-y,x,z
-x,-y,z
y,-x,z
-x,-y,-z
y,-x,-z
x,y,-z
-y,x,-z
loop_
_atom_site_type_symbol
_atom_site_label
_atom_site_fract_x
_atom_site_fract_y
_atom_site_fract_z
Si Si1 0.679924 0.987524 0.813029
Si Si2 0.315610 0.483433 0.000000
Si Si3 0.550814 0.796941 0.320041
Si Si4 0.797457 0.790742 0.685685
O O1 0.588299 0.923028 0.709308
O O2 0.782565 0.902168 0.790252
O O3 0.714085 0.106130 0.749524
O O4 0.647710 0.991206 0.000000
O O5 0.403249 0.385687 0.000000
O O6 0.244751 0.486455 0.163860
O O7 0.503490 0.781022 0.500000
O O8 0.673429 0.740899 0.313937
O O9 0.821133 0.821142 0.500000
#
# Coordination Sequence:
#
# PCOD9543228 Si02
#       4
#     8   4   8   8
#     4  10  17  28  49  79 114 154 192 224 259 307
#     4  11  24  42  64  88 107 126 170 234 293 346
#     4   9  19  37  57  81 116 151 178 220 274 323
#     4   9  17  29  47  76 113 154 191 223 257 305
#
# _framework density 23.040821999999999
#
# number of rings (size 3 to 8) (size 9 to 14) (size 15 to 20)
#    1.714    0.714    1.429    2.571    2.000    1.714 
#    0.000    4.286    0.000    3.429    0.000    6.000 
#    0.000    0.000    0.000    0.000    0.000    0.000 
#
# Total GULP energy -156231.019304 kJ/mol
# GULP energy per Si atom -5579.679261 kJ/mol
# Density = 2.298838 g / cm^3
# Si number density = 23.040822 Si / 1000 Ang^3
#
#
#
# Elastic Constant Matrix: (Units=GPa)
#
#
# Indices 1 2 3 4 5 6 
#
# 1 68.8067 52.1857 39.3980 0.0000 0.0000 -30.0935
# 2 52.1857 68.8067 39.3980 0.0000 0.0000 30.0935
# 3 39.3980 39.3980 188.0748 0.0000 0.0000 0.0000
# 4 0.0000 0.0000 0.0000 13.8070 0.0000 0.0000
# 5 0.0000 0.0000 0.0000 0.0000 13.8070 0.0000
# 6 -30.0935 30.0935 0.0000 0.0000 0.0000 25.9809
#
#
#
# Elastic Compliance Matrix: (Units=1/GPa)
#
#
# Indices 1 2 3 4 5 6 
#
# 1 -0.004632 0.014203 -0.002005 0.000000 0.000000 -0.021816
# 2 0.014203 -0.004632 -0.002005 0.000000 0.000000 0.021816
# 3 -0.002005 -0.002005 0.006157 0.000000 0.000000 0.000000
# 4 0.000000 0.000000 0.000000 0.072427 0.000000 0.000000
# 5 0.000000 0.000000 0.000000 0.000000 0.072427 0.000000
# 6 -0.021816 0.021816 0.000000 0.000000 0.000000 -0.012049
#
#
# Mechanical properties :
#
#
# Convention : Reuss Voigt Hill
#
# Bulk Modulus (GPa) = 57.87427 65.29460 61.58444
# Shear Modulus (GPa) = 43.45166 23.69944 33.57555
#
# Velocity S-wave (km/s) = 4.34735 3.21064 3.82150
# Velocity P-wave (km/s) = 7.09732 6.49187 6.80134
#
# Compressibility (1/GPa) = 0.01727883
#
# Stress axis : x y z
#
# Youngs Moduli (GPa) = -215.88351 -215.88351 162.41697
#
# Poissons Ratio (x) = 3.06614 0.32562
# Poissons Ratio (y) = 3.06614 0.32562
# Poissons Ratio (z) = -0.43282 -0.43282
#
# Static dielectric constant tensor:
#      x y z
#    x 1.888890 0.000000 0.000000 
#    y 0.000000 1.888890 0.000000 
#    z 0.000000 0.000000 1.810490 
# 
# From -- ./inp_files/373.got.cif
#   From: 2010.05.17/outbox.cif.g08.bks.cpg/sg83_1_cif.got.tgz:373.got - 2010.06.03 18:55:12.
